MODEL 1
REMARK VINA RESULT:     -10.4      0.000      0.000
REMARK SMILES CCOc1cccc(OCC)c1-c1ccc([C@@H](C)C(=O)OCCOC(=O)c2ccc(-c3c4nc(c(-c5ccc(S(=O)(=O)[O-])cc5)c5ccc([nH]5)c(-c5ccc(S(=O)(=O)[O-])cc5)c5nc(c(-c6ccc(S(=O)(=O)[O-])cc6)c6ccc3[nH]6)C=C5)C=C4)cc2)cc1F
REMARK SMILES IDX 22 1 21 2 19 3 20 4 17 5 18 6 16 7 13 8 14 9 88 10 15 11
REMARK SMILES IDX 87 12 89 13 12 14 4 15 5 16 6 17 8 18 7 19 3 20 2 21 1 22
REMARK SMILES IDX 9 23 10 24 11 25 23 26 24 27 25 28 26 29 27 30 28 31 86 32
REMARK SMILES IDX 29 33 85 34 30 35 31 36 32 37 79 38 33 39 84 40 78 41 80 42
REMARK SMILES IDX 34 43 83 44 77 45 76 46 35 48 65 49 46 50 64 51 47 52 50 53
REMARK SMILES IDX 63 54 81 55 48 56 49 57 62 59 82 60 51 61 36 62 37 63 45 64
REMARK SMILES IDX 38 65 44 66 39 67 40 68 41 69 42 70 43 71 66 72 67 73 75 74
REMARK SMILES IDX 68 75 74 76 69 77 70 78 71 79 72 80 73 81 52 82 53 83 61 84
REMARK SMILES IDX 54 85 60 86 55 87 56 88 57 89 58 90 59 91
REMARK H PARENT 80 47 50 58
REMARK Flexibility Score: inf
ROOT
ATOM      1  C   UNL A   1      31.715  28.625  26.127  1.00  0.00     0.274 C 
ENDROOT
BRANCH   1   2
ATOM      2  O   UNL A   1      31.745  29.347  24.879  1.00  0.00    -0.462 OA
BRANCH   2   3
ATOM      3  C   UNL A   1      31.990  28.632  23.752  1.00  0.00     0.313 C 
ATOM      4  O   UNL A   1      31.126  28.339  22.930  1.00  0.00    -0.252 OA
BRANCH   3   5
ATOM      5  C   UNL A   1      33.433  28.152  23.613  1.00  0.00     0.126 C 
ATOM      6  C   UNL A   1      34.012  28.611  22.277  1.00  0.00     0.025 C 
BRANCH   5   7
ATOM      7  C   UNL A   1      33.730  26.677  23.859  1.00  0.00    -0.031 A 
ATOM      8  C   UNL A   1      34.079  23.879  24.281  1.00  0.00     0.025 A 
ATOM      9  C   UNL A   1      34.269  24.802  25.319  1.00  0.00     0.012 A 
ATOM     10  C   UNL A   1      33.785  24.389  23.012  1.00  0.00     0.131 A 
ATOM     11  C   UNL A   1      34.046  26.168  25.124  1.00  0.00     0.005 A 
ATOM     12  C   UNL A   1      33.622  25.761  22.797  1.00  0.00     0.044 A 
ATOM     13  F   UNL A   1      33.607  23.559  21.973  1.00  0.00    -0.206 F 
BRANCH   8  14
ATOM     14  C   UNL A   1      34.197  22.437  24.551  1.00  0.00     0.069 A 
ATOM     15  C   UNL A   1      32.998  21.682  24.657  1.00  0.00     0.130 A 
ATOM     16  C   UNL A   1      32.994  20.295  24.820  1.00  0.00     0.047 A 
ATOM     17  C   UNL A   1      34.199  19.612  24.871  1.00  0.00     0.008 A 
ATOM     18  C   UNL A   1      35.418  21.731  24.647  1.00  0.00     0.130 A 
ATOM     19  C   UNL A   1      35.391  20.329  24.798  1.00  0.00     0.047 A 
BRANCH  15  20
ATOM     20  O   UNL A   1      31.798  22.348  24.711  1.00  0.00    -0.493 OA
BRANCH  20  21
ATOM     21  C   UNL A   1      31.103  22.174  25.947  1.00  0.00     0.226 C 
ATOM     22  C   UNL A   1      30.595  23.533  26.384  1.00  0.00     0.049 C 
ENDBRANCH  20  21
ENDBRANCH  15  20
BRANCH  18  23
ATOM     23  O   UNL A   1      36.717  22.162  24.639  1.00  0.00    -0.493 OA
BRANCH  23  24
ATOM     24  C   UNL A   1      37.782  21.520  25.322  1.00  0.00     0.226 C 
ATOM     25  C   UNL A   1      38.578  22.553  26.103  1.00  0.00     0.049 C 
ENDBRANCH  23  24
ENDBRANCH  18  23
ENDBRANCH   8  14
ENDBRANCH   5   7
ENDBRANCH   3   5
ENDBRANCH   2   3
ENDBRANCH   1   2
BRANCH   1  26
ATOM     26  C   UNL A   1      32.355  29.433  27.262  1.00  0.00     0.275 C 
BRANCH  26  27
ATOM     27  O   UNL A   1      33.788  29.296  27.273  1.00  0.00    -0.458 OA
BRANCH  27  28
ATOM     28  C   UNL A   1      34.456  30.421  27.607  1.00  0.00     0.338 C 
ATOM     29  O   UNL A   1      33.996  31.555  27.644  1.00  0.00    -0.246 OA
BRANCH  28  30
ATOM     30  C   UNL A   1      35.807  30.104  28.077  1.00  0.00     0.060 A 
ATOM     31  C   UNL A   1      36.843  30.115  27.140  1.00  0.00     0.016 A 
ATOM     32  C   UNL A   1      36.047  29.729  29.400  1.00  0.00     0.016 A 
ATOM     33  C   UNL A   1      38.132  29.764  27.519  1.00  0.00     0.010 A 
ATOM     34  C   UNL A   1      37.344  29.373  29.781  1.00  0.00     0.010 A 
ATOM     35  C   UNL A   1      38.392  29.390  28.843  1.00  0.00    -0.014 A 
BRANCH  35  36
ATOM     36  C   UNL A   1      39.765  29.001  29.233  1.00  0.00     0.031 A 
ATOM     37  C   UNL A   1      40.644  29.976  29.958  1.00  0.00     0.074 A 
ATOM     38  C   UNL A   1      40.204  27.760  28.950  1.00  0.00     0.049 A 
ATOM     39  N   UNL A   1      41.896  29.851  30.310  1.00  0.00    -0.248 NA
ATOM     40  C   UNL A   1      40.032  31.259  30.341  1.00  0.00     0.031 C 
ATOM     41  C   UNL A   1      39.416  26.714  28.296  1.00  0.00     0.029 A 
ATOM     42  N   UNL A   1      41.422  27.171  29.175  1.00  0.00    -0.354 N 
ATOM     43  C   UNL A   1      42.232  31.043  30.940  1.00  0.00     0.074 A 
ATOM     44  C   UNL A   1      41.054  31.885  30.910  1.00  0.00     0.031 C 
ATOM     45  C   UNL A   1      40.171  25.611  28.170  1.00  0.00     0.029 A 
ATOM     46  C   UNL A   1      41.506  25.888  28.690  1.00  0.00     0.049 A 
ATOM     47  H   UNL A   1      42.163  27.623  29.639  1.00  0.00     0.167 HD
ATOM     48  C   UNL A   1      43.417  31.401  31.492  1.00  0.00     0.031 A 
ATOM     49  C   UNL A   1      42.553  25.042  28.640  1.00  0.00     0.031 A 
ATOM     50  C   UNL A   1      44.585  30.558  31.507  1.00  0.00     0.049 A 
ATOM     51  C   UNL A   1      43.876  25.487  29.200  1.00  0.00     0.074 A 
ATOM     52  C   UNL A   1      45.838  30.832  32.025  1.00  0.00     0.029 A 
ATOM     53  N   UNL A   1      44.640  29.276  30.980  1.00  0.00    -0.354 N 
ATOM     54  N   UNL A   1      44.185  26.625  29.774  1.00  0.00    -0.248 NA
ATOM     55  C   UNL A   1      44.989  24.534  29.107  1.00  0.00     0.031 C 
ATOM     56  C   UNL A   1      46.664  29.730  31.776  1.00  0.00     0.029 A 
ATOM     57  C   UNL A   1      45.910  28.751  31.147  1.00  0.00     0.049 A 
ATOM     58  H   UNL A   1      43.887  28.808  30.552  1.00  0.00     0.167 HD
ATOM     59  C   UNL A   1      45.525  26.522  30.123  1.00  0.00     0.074 A 
ATOM     60  C   UNL A   1      45.963  25.202  29.713  1.00  0.00     0.031 C 
ATOM     61  C   UNL A   1      46.325  27.436  30.727  1.00  0.00     0.031 A 
BRANCH  48  62
ATOM     62  C   UNL A   1      43.516  32.780  32.086  1.00  0.00    -0.014 A 
ATOM     63  C   UNL A   1      43.163  33.024  33.426  1.00  0.00     0.010 A 
ATOM     64  C   UNL A   1      43.994  33.843  31.300  1.00  0.00     0.010 A 
ATOM     65  C   UNL A   1      43.250  34.315  33.956  1.00  0.00     0.020 A 
ATOM     66  C   UNL A   1      44.104  35.130  31.832  1.00  0.00     0.020 A 
ATOM     67  C   UNL A   1      43.713  35.362  33.152  1.00  0.00     0.054 A 
BRANCH  67  68
ATOM     68  S   UNL A   1      43.827  37.027  33.865  1.00  0.00     0.124 S 
ATOM     69  O   UNL A   1      45.119  36.976  34.545  1.00  0.00    -0.237 OA
ATOM     70  O   UNL A   1      43.773  37.888  32.685  1.00  0.00    -0.237 OA
ATOM     71  O   UNL A   1      42.663  37.109  34.743  1.00  0.00    -0.744 OA
ENDBRANCH  67  68
ENDBRANCH  48  62
BRANCH  49  72
ATOM     72  C   UNL A   1      42.397  23.710  27.998  1.00  0.00    -0.014 A 
ATOM     73  C   UNL A   1      42.727  23.519  26.645  1.00  0.00     0.010 A 
ATOM     74  C   UNL A   1      41.932  22.614  28.750  1.00  0.00     0.010 A 
ATOM     75  C   UNL A   1      42.581  22.260  26.053  1.00  0.00     0.020 A 
ATOM     76  C   UNL A   1      41.809  21.350  28.169  1.00  0.00     0.020 A 
ATOM     77  C   UNL A   1      42.124  21.184  26.819  1.00  0.00     0.054 A 
BRANCH  77  78
ATOM     78  S   UNL A   1      41.994  19.546  26.048  1.00  0.00     0.124 S 
ATOM     79  O   UNL A   1      40.565  19.460  25.762  1.00  0.00    -0.237 OA
ATOM     80  O   UNL A   1      42.865  19.672  24.882  1.00  0.00    -0.237 OA
ATOM     81  O   UNL A   1      42.482  18.641  27.086  1.00  0.00    -0.744 OA
ENDBRANCH  77  78
ENDBRANCH  49  72
BRANCH  61  82
ATOM     82  C   UNL A   1      47.745  27.028  31.005  1.00  0.00    -0.014 A 
ATOM     83  C   UNL A   1      48.107  26.447  32.233  1.00  0.00     0.010 A 
ATOM     84  C   UNL A   1      48.721  27.184  30.003  1.00  0.00     0.010 A 
ATOM     85  C   UNL A   1      49.427  26.052  32.464  1.00  0.00     0.020 A 
ATOM     86  C   UNL A   1      50.036  26.770  30.223  1.00  0.00     0.020 A 
ATOM     87  C   UNL A   1      50.383  26.218  31.458  1.00  0.00     0.054 A 
BRANCH  87  88
ATOM     88  S   UNL A   1      52.081  25.657  31.763  1.00  0.00     0.124 S 
ATOM     89  O   UNL A   1      51.899  24.218  31.938  1.00  0.00    -0.237 OA
ATOM     90  O   UNL A   1      52.778  26.058  30.543  1.00  0.00    -0.237 OA
ATOM     91  O   UNL A   1      52.475  26.386  32.967  1.00  0.00    -0.744 OA
ENDBRANCH  87  88
ENDBRANCH  61  82
ENDBRANCH  35  36
ENDBRANCH  28  30
ENDBRANCH  27  28
ENDBRANCH  26  27
ENDBRANCH   1  26
TORSDOF 20
ENDMDL
MODEL 2
REMARK VINA RESULT:      -9.8      4.223     10.310
REMARK SMILES CCOc1cccc(OCC)c1-c1ccc([C@@H](C)C(=O)OCCOC(=O)c2ccc(-c3c4nc(c(-c5ccc(S(=O)(=O)[O-])cc5)c5ccc([nH]5)c(-c5ccc(S(=O)(=O)[O-])cc5)c5nc(c(-c6ccc(S(=O)(=O)[O-])cc6)c6ccc3[nH]6)C=C5)C=C4)cc2)cc1F
REMARK SMILES IDX 22 1 21 2 19 3 20 4 17 5 18 6 16 7 13 8 14 9 88 10 15 11
REMARK SMILES IDX 87 12 89 13 12 14 4 15 5 16 6 17 8 18 7 19 3 20 2 21 1 22
REMARK SMILES IDX 9 23 10 24 11 25 23 26 24 27 25 28 26 29 27 30 28 31 86 32
REMARK SMILES IDX 29 33 85 34 30 35 31 36 32 37 79 38 33 39 84 40 78 41 80 42
REMARK SMILES IDX 34 43 83 44 77 45 76 46 35 48 65 49 46 50 64 51 47 52 50 53
REMARK SMILES IDX 63 54 81 55 48 56 49 57 62 59 82 60 51 61 36 62 37 63 45 64
REMARK SMILES IDX 38 65 44 66 39 67 40 68 41 69 42 70 43 71 66 72 67 73 75 74
REMARK SMILES IDX 68 75 74 76 69 77 70 78 71 79 72 80 73 81 52 82 53 83 61 84
REMARK SMILES IDX 54 85 60 86 55 87 56 88 57 89 58 90 59 91
REMARK H PARENT 80 47 50 58
REMARK Flexibility Score: inf
ROOT
ATOM      1  C   UNL A   1      37.085  23.285  25.873  1.00  0.00     0.274 C 
ENDROOT
BRANCH   1   2
ATOM      2  O   UNL A   1      36.281  23.625  24.726  1.00  0.00    -0.462 OA
BRANCH   2   3
ATOM      3  C   UNL A   1      34.940  23.436  24.827  1.00  0.00     0.313 C 
ATOM      4  O   UNL A   1      34.281  22.793  24.017  1.00  0.00    -0.252 OA
BRANCH   3   5
ATOM      5  C   UNL A   1      34.291  24.155  26.008  1.00  0.00     0.126 C 
ATOM      6  C   UNL A   1      33.453  23.174  26.823  1.00  0.00     0.025 C 
BRANCH   5   7
ATOM      7  C   UNL A   1      33.516  25.439  25.734  1.00  0.00    -0.031 A 
ATOM      8  C   UNL A   1      32.229  27.948  25.312  1.00  0.00     0.025 A 
ATOM      9  C   UNL A   1      31.679  26.980  26.164  1.00  0.00     0.012 A 
ATOM     10  C   UNL A   1      33.396  27.606  24.619  1.00  0.00     0.131 A 
ATOM     11  C   UNL A   1      32.337  25.773  26.411  1.00  0.00     0.005 A 
ATOM     12  C   UNL A   1      34.026  26.373  24.815  1.00  0.00     0.044 A 
ATOM     13  F   UNL A   1      33.963  28.482  23.776  1.00  0.00    -0.206 F 
BRANCH   8  14
ATOM     14  C   UNL A   1      31.576  29.259  25.173  1.00  0.00     0.069 A 
ATOM     15  C   UNL A   1      30.625  29.418  24.130  1.00  0.00     0.130 A 
ATOM     16  C   UNL A   1      29.880  30.588  23.963  1.00  0.00     0.047 A 
ATOM     17  C   UNL A   1      30.055  31.639  24.848  1.00  0.00     0.008 A 
ATOM     18  C   UNL A   1      31.773  30.356  26.043  1.00  0.00     0.130 A 
ATOM     19  C   UNL A   1      31.000  31.522  25.864  1.00  0.00     0.047 A 
BRANCH  15  20
ATOM     20  O   UNL A   1      30.508  28.430  23.183  1.00  0.00    -0.493 OA
BRANCH  20  21
ATOM     21  C   UNL A   1      29.163  27.995  22.975  1.00  0.00     0.226 C 
ATOM     22  C   UNL A   1      28.946  26.756  23.821  1.00  0.00     0.049 C 
ENDBRANCH  20  21
ENDBRANCH  15  20
BRANCH  18  23
ATOM     23  O   UNL A   1      32.636  30.538  27.090  1.00  0.00    -0.493 OA
BRANCH  23  24
ATOM     24  C   UNL A   1      34.020  30.228  27.056  1.00  0.00     0.226 C 
ATOM     25  C   UNL A   1      34.759  31.102  28.056  1.00  0.00     0.049 C 
ENDBRANCH  23  24
ENDBRANCH  18  23
ENDBRANCH   8  14
ENDBRANCH   5   7
ENDBRANCH   3   5
ENDBRANCH   2   3
ENDBRANCH   1   2
BRANCH   1  26
ATOM     26  C   UNL A   1      38.368  24.124  25.932  1.00  0.00     0.275 C 
BRANCH  26  27
ATOM     27  O   UNL A   1      39.169  23.792  27.081  1.00  0.00    -0.458 OA
BRANCH  27  28
ATOM     28  C   UNL A   1      40.388  24.374  27.100  1.00  0.00     0.338 C 
ATOM     29  O   UNL A   1      41.298  24.181  26.304  1.00  0.00    -0.246 OA
BRANCH  28  30
ATOM     30  C   UNL A   1      40.454  25.408  28.135  1.00  0.00     0.060 A 
ATOM     31  C   UNL A   1      39.305  25.648  28.893  1.00  0.00     0.016 A 
ATOM     32  C   UNL A   1      41.600  26.186  28.313  1.00  0.00     0.016 A 
ATOM     33  C   UNL A   1      39.295  26.657  29.846  1.00  0.00     0.010 A 
ATOM     34  C   UNL A   1      41.587  27.204  29.271  1.00  0.00     0.010 A 
ATOM     35  C   UNL A   1      40.436  27.443  30.042  1.00  0.00    -0.014 A 
BRANCH  35  36
ATOM     36  C   UNL A   1      40.408  28.529  31.047  1.00  0.00     0.031 A 
ATOM     37  C   UNL A   1      41.334  28.483  32.227  1.00  0.00     0.074 A 
ATOM     38  C   UNL A   1      39.563  29.562  30.879  1.00  0.00     0.049 A 
ATOM     39  N   UNL A   1      41.402  29.291  33.251  1.00  0.00    -0.248 NA
ATOM     40  C   UNL A   1      42.313  27.384  32.255  1.00  0.00     0.031 C 
ATOM     41  C   UNL A   1      38.657  29.735  29.742  1.00  0.00     0.029 A 
ATOM     42  N   UNL A   1      39.327  30.661  31.665  1.00  0.00    -0.354 N 
ATOM     43  C   UNL A   1      42.418  28.793  34.058  1.00  0.00     0.074 A 
ATOM     44  C   UNL A   1      42.929  27.603  33.410  1.00  0.00     0.031 C 
ATOM     45  C   UNL A   1      37.962  30.872  29.905  1.00  0.00     0.029 A 
ATOM     46  C   UNL A   1      38.338  31.480  31.177  1.00  0.00     0.049 A 
ATOM     47  H   UNL A   1      39.820  30.844  32.498  1.00  0.00     0.167 HD
ATOM     48  C   UNL A   1      42.881  29.286  35.232  1.00  0.00     0.031 A 
ATOM     49  C   UNL A   1      37.775  32.580  31.713  1.00  0.00     0.031 A 
ATOM     50  C   UNL A   1      42.358  30.466  35.871  1.00  0.00     0.049 A 
ATOM     51  C   UNL A   1      38.260  33.070  33.049  1.00  0.00     0.074 A 
ATOM     52  C   UNL A   1      42.744  31.039  37.070  1.00  0.00     0.029 A 
ATOM     53  N   UNL A   1      41.337  31.253  35.361  1.00  0.00    -0.354 N 
ATOM     54  N   UNL A   1      39.206  32.577  33.812  1.00  0.00    -0.248 NA
ATOM     55  C   UNL A   1      37.602  34.263  33.597  1.00  0.00     0.031 C 
ATOM     56  C   UNL A   1      41.928  32.151  37.305  1.00  0.00     0.029 A 
ATOM     57  C   UNL A   1      41.068  32.299  36.228  1.00  0.00     0.049 A 
ATOM     58  H   UNL A   1      40.872  31.093  34.508  1.00  0.00     0.167 HD
ATOM     59  C   UNL A   1      39.269  33.407  34.924  1.00  0.00     0.074 A 
ATOM     60  C   UNL A   1      38.276  34.445  34.725  1.00  0.00     0.031 C 
ATOM     61  C   UNL A   1      40.073  33.319  36.012  1.00  0.00     0.031 A 
BRANCH  48  62
ATOM     62  C   UNL A   1      43.980  28.522  35.919  1.00  0.00    -0.014 A 
ATOM     63  C   UNL A   1      45.334  28.820  35.683  1.00  0.00     0.010 A 
ATOM     64  C   UNL A   1      43.653  27.506  36.835  1.00  0.00     0.010 A 
ATOM     65  C   UNL A   1      46.341  28.090  36.321  1.00  0.00     0.020 A 
ATOM     66  C   UNL A   1      44.656  26.788  37.492  1.00  0.00     0.020 A 
ATOM     67  C   UNL A   1      45.995  27.073  37.217  1.00  0.00     0.054 A 
BRANCH  67  68
ATOM     68  S   UNL A   1      47.319  26.146  38.041  1.00  0.00     0.124 S 
ATOM     69  O   UNL A   1      48.507  26.634  37.346  1.00  0.00    -0.237 OA
ATOM     70  O   UNL A   1      47.190  26.567  39.434  1.00  0.00    -0.237 OA
ATOM     71  O   UNL A   1      46.977  24.749  37.783  1.00  0.00    -0.744 OA
ENDBRANCH  67  68
ENDBRANCH  48  62
BRANCH  49  72
ATOM     72  C   UNL A   1      36.661  33.262  31.001  1.00  0.00    -0.014 A 
ATOM     73  C   UNL A   1      36.912  34.086  29.891  1.00  0.00     0.010 A 
ATOM     74  C   UNL A   1      35.332  33.071  31.425  1.00  0.00     0.010 A 
ATOM     75  C   UNL A   1      35.855  34.718  29.227  1.00  0.00     0.020 A 
ATOM     76  C   UNL A   1      34.272  33.680  30.748  1.00  0.00     0.020 A 
ATOM     77  C   UNL A   1      34.543  34.510  29.659  1.00  0.00     0.054 A 
BRANCH  77  78
ATOM     78  S   UNL A   1      33.181  35.294  28.751  1.00  0.00     0.124 S 
ATOM     79  O   UNL A   1      32.435  35.942  29.825  1.00  0.00    -0.237 OA
ATOM     80  O   UNL A   1      33.883  36.192  27.837  1.00  0.00    -0.237 OA
ATOM     81  O   UNL A   1      32.506  34.168  28.109  1.00  0.00    -0.744 OA
ENDBRANCH  77  78
ENDBRANCH  49  72
BRANCH  61  82
ATOM     82  C   UNL A   1      39.930  34.390  37.059  1.00  0.00    -0.014 A 
ATOM     83  C   UNL A   1      39.078  34.216  38.164  1.00  0.00     0.010 A 
ATOM     84  C   UNL A   1      40.698  35.564  36.959  1.00  0.00     0.010 A 
ATOM     85  C   UNL A   1      38.977  35.210  39.139  1.00  0.00     0.020 A 
ATOM     86  C   UNL A   1      40.616  36.551  37.944  1.00  0.00     0.020 A 
ATOM     87  C   UNL A   1      39.746  36.373  39.022  1.00  0.00     0.054 A 
BRANCH  87  88
ATOM     88  S   UNL A   1      39.633  37.631  40.323  1.00  0.00     0.124 S 
ATOM     89  O   UNL A   1      40.713  38.543  39.958  1.00  0.00    -0.237 OA
ATOM     90  O   UNL A   1      38.281  38.156  40.148  1.00  0.00    -0.237 OA
ATOM     91  O   UNL A   1      39.845  36.875  41.556  1.00  0.00    -0.744 OA
ENDBRANCH  87  88
ENDBRANCH  61  82
ENDBRANCH  35  36
ENDBRANCH  28  30
ENDBRANCH  27  28
ENDBRANCH  26  27
ENDBRANCH   1  26
TORSDOF 20
ENDMDL
MODEL 3
REMARK VINA RESULT:      -9.6      3.490      4.227
REMARK SMILES CCOc1cccc(OCC)c1-c1ccc([C@@H](C)C(=O)OCCOC(=O)c2ccc(-c3c4nc(c(-c5ccc(S(=O)(=O)[O-])cc5)c5ccc([nH]5)c(-c5ccc(S(=O)(=O)[O-])cc5)c5nc(c(-c6ccc(S(=O)(=O)[O-])cc6)c6ccc3[nH]6)C=C5)C=C4)cc2)cc1F
REMARK SMILES IDX 22 1 21 2 19 3 20 4 17 5 18 6 16 7 13 8 14 9 88 10 15 11
REMARK SMILES IDX 87 12 89 13 12 14 4 15 5 16 6 17 8 18 7 19 3 20 2 21 1 22
REMARK SMILES IDX 9 23 10 24 11 25 23 26 24 27 25 28 26 29 27 30 28 31 86 32
REMARK SMILES IDX 29 33 85 34 30 35 31 36 32 37 79 38 33 39 84 40 78 41 80 42
REMARK SMILES IDX 34 43 83 44 77 45 76 46 35 48 65 49 46 50 64 51 47 52 50 53
REMARK SMILES IDX 63 54 81 55 48 56 49 57 62 59 82 60 51 61 36 62 37 63 45 64
REMARK SMILES IDX 38 65 44 66 39 67 40 68 41 69 42 70 43 71 66 72 67 73 75 74
REMARK SMILES IDX 68 75 74 76 69 77 70 78 71 79 72 80 73 81 52 82 53 83 61 84
REMARK SMILES IDX 54 85 60 86 55 87 56 88 57 89 58 90 59 91
REMARK H PARENT 80 47 50 58
REMARK Flexibility Score: inf
ROOT
ATOM      1  C   UNL A   1      34.236  29.444  27.199  1.00  0.00     0.274 C 
ENDROOT
BRANCH   1   2
ATOM      2  O   UNL A   1      33.120  30.056  26.522  1.00  0.00    -0.462 OA
BRANCH   2   3
ATOM      3  C   UNL A   1      32.557  29.366  25.498  1.00  0.00     0.313 C 
ATOM      4  O   UNL A   1      31.345  29.270  25.328  1.00  0.00    -0.252 OA
BRANCH   3   5
ATOM      5  C   UNL A   1      33.559  28.648  24.596  1.00  0.00     0.126 C 
ATOM      6  C   UNL A   1      33.353  29.069  23.144  1.00  0.00     0.025 C 
BRANCH   5   7
ATOM      7  C   UNL A   1      33.680  27.133  24.714  1.00  0.00    -0.031 A 
ATOM      8  C   UNL A   1      33.719  24.285  24.833  1.00  0.00     0.025 A 
ATOM      9  C   UNL A   1      33.638  25.062  25.996  1.00  0.00     0.012 A 
ATOM     10  C   UNL A   1      33.855  24.962  23.615  1.00  0.00     0.131 A 
ATOM     11  C   UNL A   1      33.566  26.456  25.934  1.00  0.00     0.005 A 
ATOM     12  C   UNL A   1      33.846  26.358  23.553  1.00  0.00     0.044 A 
ATOM     13  F   UNL A   1      33.953  24.275  22.466  1.00  0.00    -0.206 F 
BRANCH   8  14
ATOM     14  C   UNL A   1      33.664  22.817  24.925  1.00  0.00     0.069 A 
ATOM     15  C   UNL A   1      32.406  22.187  24.733  1.00  0.00     0.130 A 
ATOM     16  C   UNL A   1      32.255  20.799  24.707  1.00  0.00     0.047 A 
ATOM     17  C   UNL A   1      33.369  19.990  24.864  1.00  0.00     0.008 A 
ATOM     18  C   UNL A   1      34.785  21.979  25.125  1.00  0.00     0.130 A 
ATOM     19  C   UNL A   1      34.612  20.579  25.082  1.00  0.00     0.047 A 
BRANCH  15  20
ATOM     20  O   UNL A   1      31.276  22.967  24.677  1.00  0.00    -0.493 OA
BRANCH  20  21
ATOM     21  C   UNL A   1      30.829  23.229  23.345  1.00  0.00     0.226 C 
ATOM     22  C   UNL A   1      30.259  24.633  23.320  1.00  0.00     0.049 C 
ENDBRANCH  20  21
ENDBRANCH  15  20
BRANCH  18  23
ATOM     23  O   UNL A   1      36.097  22.267  25.387  1.00  0.00    -0.493 OA
BRANCH  23  24
ATOM     24  C   UNL A   1      37.142  22.204  24.429  1.00  0.00     0.226 C 
ATOM     25  C   UNL A   1      36.628  22.702  23.088  1.00  0.00     0.049 C 
ENDBRANCH  23  24
ENDBRANCH  18  23
ENDBRANCH   8  14
ENDBRANCH   5   7
ENDBRANCH   3   5
ENDBRANCH   2   3
ENDBRANCH   1   2
BRANCH   1  26
ATOM     26  C   UNL A   1      35.221  30.493  27.727  1.00  0.00     0.275 C 
BRANCH  26  27
ATOM     27  O   UNL A   1      36.588  30.074  27.556  1.00  0.00    -0.458 OA
BRANCH  27  28
ATOM     28  C   UNL A   1      37.174  29.604  28.679  1.00  0.00     0.338 C 
ATOM     29  O   UNL A   1      36.602  29.227  29.694  1.00  0.00    -0.246 OA
BRANCH  28  30
ATOM     30  C   UNL A   1      38.619  29.455  28.488  1.00  0.00     0.060 A 
ATOM     31  C   UNL A   1      39.096  29.347  27.179  1.00  0.00     0.016 A 
ATOM     32  C   UNL A   1      39.488  29.346  29.575  1.00  0.00     0.016 A 
ATOM     33  C   UNL A   1      40.450  29.145  26.944  1.00  0.00     0.010 A 
ATOM     34  C   UNL A   1      40.850  29.139  29.337  1.00  0.00     0.010 A 
ATOM     35  C   UNL A   1      41.337  29.038  28.022  1.00  0.00    -0.014 A 
BRANCH  35  36
ATOM     36  C   UNL A   1      42.774  28.804  27.761  1.00  0.00     0.031 A 
ATOM     37  C   UNL A   1      43.766  29.909  27.976  1.00  0.00     0.074 A 
ATOM     38  C   UNL A   1      43.180  27.587  27.352  1.00  0.00     0.049 A 
ATOM     39  N   UNL A   1      45.048  29.923  27.726  1.00  0.00    -0.248 NA
ATOM     40  C   UNL A   1      43.246  31.160  28.550  1.00  0.00     0.031 C 
ATOM     41  C   UNL A   1      42.309  26.426  27.162  1.00  0.00     0.029 A 
ATOM     42  N   UNL A   1      44.429  27.127  27.022  1.00  0.00    -0.354 N 
ATOM     43  C   UNL A   1      45.490  31.188  28.094  1.00  0.00     0.074 A 
ATOM     44  C   UNL A   1      44.334  31.918  28.573  1.00  0.00     0.031 C 
ATOM     45  C   UNL A   1      43.051  25.387  26.746  1.00  0.00     0.029 A 
ATOM     46  C   UNL A   1      44.435  25.821  26.595  1.00  0.00     0.049 A 
ATOM     47  H   UNL A   1      45.242  27.679  27.084  1.00  0.00     0.167 HD
ATOM     48  C   UNL A   1      46.747  31.692  28.038  1.00  0.00     0.031 A 
ATOM     49  C   UNL A   1      45.440  25.069  26.106  1.00  0.00     0.031 A 
ATOM     50  C   UNL A   1      47.887  30.959  27.551  1.00  0.00     0.049 A 
ATOM     51  C   UNL A   1      46.812  25.672  25.991  1.00  0.00     0.074 A 
ATOM     52  C   UNL A   1      49.199  31.383  27.436  1.00  0.00     0.029 A 
ATOM     53  N   UNL A   1      47.848  29.648  27.101  1.00  0.00    -0.354 N 
ATOM     54  N   UNL A   1      47.211  26.877  26.322  1.00  0.00    -0.248 NA
ATOM     55  C   UNL A   1      47.868  24.816  25.436  1.00  0.00     0.031 C 
ATOM     56  C   UNL A   1      49.947  30.341  26.878  1.00  0.00     0.029 A 
ATOM     57  C   UNL A   1      49.110  29.251  26.692  1.00  0.00     0.049 A 
ATOM     58  H   UNL A   1      47.043  29.082  27.076  1.00  0.00     0.167 HD
ATOM     59  C   UNL A   1      48.569  26.920  26.030  1.00  0.00     0.074 A 
ATOM     60  C   UNL A   1      48.926  25.614  25.512  1.00  0.00     0.031 C 
ATOM     61  C   UNL A   1      49.442  27.947  26.176  1.00  0.00     0.031 A 
BRANCH  48  62
ATOM     62  C   UNL A   1      46.941  33.119  28.475  1.00  0.00    -0.014 A 
ATOM     63  C   UNL A   1      46.827  33.490  29.827  1.00  0.00     0.010 A 
ATOM     64  C   UNL A   1      47.268  34.100  27.522  1.00  0.00     0.010 A 
ATOM     65  C   UNL A   1      46.999  34.822  30.212  1.00  0.00     0.020 A 
ATOM     66  C   UNL A   1      47.462  35.430  27.905  1.00  0.00     0.020 A 
ATOM     67  C   UNL A   1      47.308  35.786  29.247  1.00  0.00     0.054 A 
BRANCH  67  68
ATOM     68  S   UNL A   1      47.536  37.508  29.771  1.00  0.00     0.124 S 
ATOM     69  O   UNL A   1      48.087  37.344  31.113  1.00  0.00    -0.237 OA
ATOM     70  O   UNL A   1      48.465  38.030  28.771  1.00  0.00    -0.237 OA
ATOM     71  O   UNL A   1      46.188  38.069  29.715  1.00  0.00    -0.744 OA
ENDBRANCH  67  68
ENDBRANCH  48  62
BRANCH  49  72
ATOM     72  C   UNL A   1      45.168  23.680  25.649  1.00  0.00    -0.014 A 
ATOM     73  C   UNL A   1      45.120  23.367  24.280  1.00  0.00     0.010 A 
ATOM     74  C   UNL A   1      44.974  22.653  26.593  1.00  0.00     0.010 A 
ATOM     75  C   UNL A   1      44.868  22.056  23.863  1.00  0.00     0.020 A 
ATOM     76  C   UNL A   1      44.748  21.337  26.180  1.00  0.00     0.020 A 
ATOM     77  C   UNL A   1      44.686  21.050  24.815  1.00  0.00     0.054 A 
BRANCH  77  78
ATOM     78  S   UNL A   1      44.415  19.345  24.256  1.00  0.00     0.124 S 
ATOM     79  O   UNL A   1      43.108  19.042  24.828  1.00  0.00    -0.237 OA
ATOM     80  O   UNL A   1      44.454  19.477  22.801  1.00  0.00    -0.237 OA
ATOM     81  O   UNL A   1      45.539  18.613  24.836  1.00  0.00    -0.744 OA
ENDBRANCH  77  78
ENDBRANCH  49  72
BRANCH  61  82
ATOM     82  C   UNL A   1      50.874  27.690  25.794  1.00  0.00    -0.014 A 
ATOM     83  C   UNL A   1      51.802  27.214  26.736  1.00  0.00     0.010 A 
ATOM     84  C   UNL A   1      51.282  27.880  24.460  1.00  0.00     0.010 A 
ATOM     85  C   UNL A   1      53.122  26.957  26.357  1.00  0.00     0.020 A 
ATOM     86  C   UNL A   1      52.595  27.603  24.074  1.00  0.00     0.020 A 
ATOM     87  C   UNL A   1      53.510  27.155  25.029  1.00  0.00     0.054 A 
BRANCH  87  88
ATOM     88  S   UNL A   1      55.217  26.772  24.549  1.00  0.00     0.124 S 
ATOM     89  O   UNL A   1      55.171  26.945  23.100  1.00  0.00    -0.237 OA
ATOM     90  O   UNL A   1      55.990  27.775  25.278  1.00  0.00    -0.237 OA
ATOM     91  O   UNL A   1      55.405  25.396  25.007  1.00  0.00    -0.744 OA
ENDBRANCH  87  88
ENDBRANCH  61  82
ENDBRANCH  35  36
ENDBRANCH  28  30
ENDBRANCH  27  28
ENDBRANCH  26  27
ENDBRANCH   1  26
TORSDOF 20
ENDMDL
