MODEL 1
REMARK VINA RESULT:     -10.1      0.000      0.000
REMARK SMILES CC[C@@H]1SC[C@@H](C(=O)OCCOC(=O)c2ccc(-c3c4nc(c(-c5ccc(S(=O)(=O)[O-])cc5)c5ccc([nH]5)c(-c5ccc(S(=O)(=O)[O-])cc5)c5nc(c(-c6ccc(S(=O)(=O)[O-])cc6)c6ccc3[nH]6)C=C5)C=C4)cc2)N1C(=O)c1ccc(C[NH3+])o1
REMARK SMILES IDX 10 1 9 2 7 3 8 4 6 5 3 6 4 7 75 8 5 9 2 10 1 11 76 12 77 13
REMARK SMILES IDX 78 14 79 15 84 16 80 17 81 18 82 19 83 20 11 24 12 25 13 26
REMARK SMILES IDX 14 27 15 28 16 29 74 30 17 31 73 32 18 33 19 34 20 35 67 36
REMARK SMILES IDX 21 37 72 38 66 39 68 40 22 41 71 42 65 43 64 44 23 46 53 47
REMARK SMILES IDX 34 48 52 49 35 50 38 51 51 52 69 53 36 54 37 55 50 57 70 58
REMARK SMILES IDX 39 59 24 60 25 61 33 62 26 63 32 64 27 65 28 66 29 67 30 68
REMARK SMILES IDX 31 69 54 70 55 71 63 72 56 73 62 74 57 75 58 76 59 77 60 78
REMARK SMILES IDX 61 79 40 80 41 81 49 82 42 83 48 84 43 85 44 86 45 87 46 88
REMARK SMILES IDX 47 89
REMARK H PARENT 83 21 83 22 83 23 68 45 38 56
REMARK Flexibility Score: inf
ROOT
ATOM      1  C   UNL A   1      36.261  20.916  25.042  1.00  0.00     0.274 C 
ENDROOT
BRANCH   1   2
ATOM      2  O   UNL A   1      35.041  21.682  24.986  1.00  0.00    -0.461 OA
BRANCH   2   3
ATOM      3  C   UNL A   1      34.317  21.707  26.140  1.00  0.00     0.329 C 
ATOM      4  O   UNL A   1      34.799  21.602  27.265  1.00  0.00    -0.250 OA
BRANCH   3   5
ATOM      5  C   UNL A   1      32.799  21.764  25.910  1.00  0.00     0.206 C 
ATOM      6  C   UNL A   1      32.132  23.213  24.024  1.00  0.00     0.144 C 
ATOM      7  S   UNL A   1      32.612  21.590  23.304  1.00  0.00    -0.134 SA
ATOM      8  N   UNL A   1      32.234  23.051  25.471  1.00  0.00    -0.309 N 
ATOM      9  C   UNL A   1      32.440  20.710  24.877  1.00  0.00     0.109 C 
BRANCH   6  10
ATOM     10  C   UNL A   1      30.752  23.603  23.464  1.00  0.00     0.033 C 
ATOM     11  C   UNL A   1      30.518  25.092  23.237  1.00  0.00     0.007 C 
ENDBRANCH   6  10
BRANCH   8  12
ATOM     12  C   UNL A   1      31.907  23.981  26.454  1.00  0.00     0.291 C 
ATOM     13  O   UNL A   1      31.048  23.702  27.291  1.00  0.00    -0.265 OA
BRANCH  12  14
ATOM     14  C   UNL A   1      32.470  25.309  26.400  1.00  0.00     0.192 A 
ATOM     15  C   UNL A   1      33.657  25.728  25.828  1.00  0.00     0.057 A 
ATOM     16  O   UNL A   1      31.772  26.388  26.872  1.00  0.00    -0.450 OA
ATOM     17  C   UNL A   1      33.695  27.132  25.954  1.00  0.00     0.052 A 
ATOM     18  C   UNL A   1      32.502  27.500  26.541  1.00  0.00     0.159 A 
BRANCH  18  19
ATOM     19  C   UNL A   1      31.889  28.826  26.799  1.00  0.00     0.335 C 
BRANCH  19  20
ATOM     20  N   UNL A   1      32.774  29.670  27.596  1.00  0.00    -0.351 N 
ATOM     21  H   UNL A   1      32.884  29.266  28.526  1.00  0.00     0.344 HD
ATOM     22  H   UNL A   1      32.373  30.604  27.676  1.00  0.00     0.344 HD
ATOM     23  H   UNL A   1      33.687  29.731  27.142  1.00  0.00     0.344 HD
ENDBRANCH  19  20
ENDBRANCH  18  19
ENDBRANCH  12  14
ENDBRANCH   8  12
ENDBRANCH   3   5
ENDBRANCH   2   3
ENDBRANCH   1   2
BRANCH   1  24
ATOM     24  C   UNL A   1      37.477  21.816  24.853  1.00  0.00     0.275 C 
BRANCH  24  25
ATOM     25  O   UNL A   1      37.860  22.387  26.112  1.00  0.00    -0.458 OA
BRANCH  25  26
ATOM     26  C   UNL A   1      39.172  22.704  26.222  1.00  0.00     0.338 C 
ATOM     27  O   UNL A   1      40.128  21.985  25.965  1.00  0.00    -0.246 OA
BRANCH  26  28
ATOM     28  C   UNL A   1      39.310  24.062  26.762  1.00  0.00     0.060 A 
ATOM     29  C   UNL A   1      40.030  25.024  26.056  1.00  0.00     0.016 A 
ATOM     30  C   UNL A   1      38.843  24.329  28.047  1.00  0.00     0.016 A 
ATOM     31  C   UNL A   1      40.382  26.222  26.677  1.00  0.00     0.010 A 
ATOM     32  C   UNL A   1      39.128  25.562  28.640  1.00  0.00     0.010 A 
ATOM     33  C   UNL A   1      39.947  26.497  27.981  1.00  0.00    -0.014 A 
BRANCH  33  34
ATOM     34  C   UNL A   1      40.421  27.712  28.692  1.00  0.00     0.031 A 
ATOM     35  C   UNL A   1      41.828  27.764  29.228  1.00  0.00     0.074 A 
ATOM     36  C   UNL A   1      39.606  28.774  28.844  1.00  0.00     0.049 A 
ATOM     37  N   UNL A   1      42.395  28.676  29.977  1.00  0.00    -0.248 NA
ATOM     38  C   UNL A   1      42.711  26.635  28.888  1.00  0.00     0.031 C 
ATOM     39  C   UNL A   1      38.238  28.874  28.336  1.00  0.00     0.029 A 
ATOM     40  N   UNL A   1      39.820  29.978  29.468  1.00  0.00    -0.354 N 
ATOM     41  C   UNL A   1      43.680  28.211  30.234  1.00  0.00     0.074 A 
ATOM     42  C   UNL A   1      43.807  26.931  29.570  1.00  0.00     0.031 C 
ATOM     43  C   UNL A   1      37.742  30.083  28.647  1.00  0.00     0.029 A 
ATOM     44  C   UNL A   1      38.733  30.818  29.424  1.00  0.00     0.049 A 
ATOM     45  H   UNL A   1      40.669  30.216  29.904  1.00  0.00     0.167 HD
ATOM     46  C   UNL A   1      44.667  28.794  30.956  1.00  0.00     0.031 A 
ATOM     47  C   UNL A   1      38.547  32.036  29.968  1.00  0.00     0.031 A 
ATOM     48  C   UNL A   1      44.553  30.083  31.588  1.00  0.00     0.049 A 
ATOM     49  C   UNL A   1      39.652  32.662  30.771  1.00  0.00     0.074 A 
ATOM     50  C   UNL A   1      45.497  30.762  32.339  1.00  0.00     0.029 A 
ATOM     51  N   UNL A   1      43.433  30.897  31.525  1.00  0.00    -0.354 N 
ATOM     52  N   UNL A   1      40.845  32.188  31.042  1.00  0.00    -0.248 NA
ATOM     53  C   UNL A   1      39.384  33.988  31.344  1.00  0.00     0.031 C 
ATOM     54  C   UNL A   1      44.938  31.976  32.754  1.00  0.00     0.029 A 
ATOM     55  C   UNL A   1      43.660  32.070  32.225  1.00  0.00     0.049 A 
ATOM     56  H   UNL A   1      42.600  30.675  31.051  1.00  0.00     0.167 HD
ATOM     57  C   UNL A   1      41.475  33.164  31.805  1.00  0.00     0.074 A 
ATOM     58  C   UNL A   1      40.539  34.262  31.938  1.00  0.00     0.031 C 
ATOM     59  C   UNL A   1      42.718  33.151  32.348  1.00  0.00     0.031 A 
BRANCH  46  60
ATOM     60  C   UNL A   1      45.946  28.022  31.131  1.00  0.00    -0.014 A 
ATOM     61  C   UNL A   1      47.040  28.213  30.269  1.00  0.00     0.010 A 
ATOM     62  C   UNL A   1      46.061  27.102  32.189  1.00  0.00     0.010 A 
ATOM     63  C   UNL A   1      48.211  27.466  30.435  1.00  0.00     0.020 A 
ATOM     64  C   UNL A   1      47.237  26.370  32.374  1.00  0.00     0.020 A 
ATOM     65  C   UNL A   1      48.298  26.543  31.482  1.00  0.00     0.054 A 
BRANCH  65  66
ATOM     66  S   UNL A   1      49.829  25.590  31.686  1.00  0.00     0.124 S 
ATOM     67  O   UNL A   1      50.784  26.633  32.057  1.00  0.00    -0.237 OA
ATOM     68  O   UNL A   1      49.487  24.648  32.747  1.00  0.00    -0.237 OA
ATOM     69  O   UNL A   1      50.042  24.991  30.371  1.00  0.00    -0.744 OA
ENDBRANCH  65  66
ENDBRANCH  46  60
BRANCH  47  70
ATOM     70  C   UNL A   1      37.248  32.735  29.783  1.00  0.00    -0.014 A 
ATOM     71  C   UNL A   1      36.259  32.678  30.780  1.00  0.00     0.010 A 
ATOM     72  C   UNL A   1      37.003  33.480  28.615  1.00  0.00     0.010 A 
ATOM     73  C   UNL A   1      35.043  33.345  30.607  1.00  0.00     0.020 A 
ATOM     74  C   UNL A   1      35.799  34.168  28.450  1.00  0.00     0.020 A 
ATOM     75  C   UNL A   1      34.821  34.087  29.443  1.00  0.00     0.054 A 
BRANCH  75  76
ATOM     76  S   UNL A   1      33.263  35.000  29.263  1.00  0.00     0.124 S 
ATOM     77  O   UNL A   1      32.551  34.192  28.277  1.00  0.00    -0.237 OA
ATOM     78  O   UNL A   1      32.717  34.971  30.618  1.00  0.00    -0.237 OA
ATOM     79  O   UNL A   1      33.694  36.317  28.803  1.00  0.00    -0.744 OA
ENDBRANCH  75  76
ENDBRANCH  47  70
BRANCH  59  80
ATOM     80  C   UNL A   1      43.142  34.377  33.109  1.00  0.00    -0.014 A 
ATOM     81  C   UNL A   1      43.616  35.519  32.442  1.00  0.00     0.010 A 
ATOM     82  C   UNL A   1      43.040  34.391  34.512  1.00  0.00     0.010 A 
ATOM     83  C   UNL A   1      44.020  36.643  33.167  1.00  0.00     0.020 A 
ATOM     84  C   UNL A   1      43.424  35.521  35.239  1.00  0.00     0.020 A 
ATOM     85  C   UNL A   1      43.928  36.633  34.562  1.00  0.00     0.054 A 
BRANCH  85  86
ATOM     86  S   UNL A   1      44.437  38.109  35.487  1.00  0.00     0.124 S 
ATOM     87  O   UNL A   1      43.750  37.918  36.762  1.00  0.00    -0.237 OA
ATOM     88  O   UNL A   1      45.892  37.979  35.532  1.00  0.00    -0.237 OA
ATOM     89  O   UNL A   1      43.942  39.214  34.671  1.00  0.00    -0.744 OA
ENDBRANCH  85  86
ENDBRANCH  59  80
ENDBRANCH  33  34
ENDBRANCH  26  28
ENDBRANCH  25  26
ENDBRANCH  24  25
ENDBRANCH   1  24
TORSDOF 19
ENDMDL
MODEL 2
REMARK VINA RESULT:      -9.8      1.414      2.885
REMARK SMILES CC[C@@H]1SC[C@@H](C(=O)OCCOC(=O)c2ccc(-c3c4nc(c(-c5ccc(S(=O)(=O)[O-])cc5)c5ccc([nH]5)c(-c5ccc(S(=O)(=O)[O-])cc5)c5nc(c(-c6ccc(S(=O)(=O)[O-])cc6)c6ccc3[nH]6)C=C5)C=C4)cc2)N1C(=O)c1ccc(C[NH3+])o1
REMARK SMILES IDX 10 1 9 2 7 3 8 4 6 5 3 6 4 7 75 8 5 9 2 10 1 11 76 12 77 13
REMARK SMILES IDX 78 14 79 15 84 16 80 17 81 18 82 19 83 20 11 24 12 25 13 26
REMARK SMILES IDX 14 27 15 28 16 29 74 30 17 31 73 32 18 33 19 34 20 35 67 36
REMARK SMILES IDX 21 37 72 38 66 39 68 40 22 41 71 42 65 43 64 44 23 46 53 47
REMARK SMILES IDX 34 48 52 49 35 50 38 51 51 52 69 53 36 54 37 55 50 57 70 58
REMARK SMILES IDX 39 59 24 60 25 61 33 62 26 63 32 64 27 65 28 66 29 67 30 68
REMARK SMILES IDX 31 69 54 70 55 71 63 72 56 73 62 74 57 75 58 76 59 77 60 78
REMARK SMILES IDX 61 79 40 80 41 81 49 82 42 83 48 84 43 85 44 86 45 87 46 88
REMARK SMILES IDX 47 89
REMARK H PARENT 83 21 83 22 83 23 68 45 38 56
REMARK Flexibility Score: inf
ROOT
ATOM      1  C   UNL A   1      36.211  22.175  25.496  1.00  0.00     0.274 C 
ENDROOT
BRANCH   1   2
ATOM      2  O   UNL A   1      35.792  23.314  26.276  1.00  0.00    -0.461 OA
BRANCH   2   3
ATOM      3  C   UNL A   1      34.454  23.572  26.255  1.00  0.00     0.329 C 
ATOM      4  O   UNL A   1      33.647  23.123  27.064  1.00  0.00    -0.250 OA
BRANCH   3   5
ATOM      5  C   UNL A   1      34.011  24.399  25.038  1.00  0.00     0.206 C 
ATOM      6  C   UNL A   1      31.578  24.324  24.617  1.00  0.00     0.144 C 
ATOM      7  S   UNL A   1      31.854  25.595  25.918  1.00  0.00    -0.134 SA
ATOM      8  N   UNL A   1      32.905  23.862  24.227  1.00  0.00    -0.309 N 
ATOM      9  C   UNL A   1      33.612  25.780  25.528  1.00  0.00     0.109 C 
BRANCH   6  10
ATOM     10  C   UNL A   1      30.706  24.946  23.511  1.00  0.00     0.033 C 
ATOM     11  C   UNL A   1      29.721  26.020  23.959  1.00  0.00     0.007 C 
ENDBRANCH   6  10
BRANCH   8  12
ATOM     12  C   UNL A   1      33.225  22.949  23.224  1.00  0.00     0.291 C 
ATOM     13  O   UNL A   1      33.765  23.348  22.192  1.00  0.00    -0.265 OA
BRANCH  12  14
ATOM     14  C   UNL A   1      32.796  21.576  23.342  1.00  0.00     0.192 A 
ATOM     15  C   UNL A   1      32.167  20.777  22.405  1.00  0.00     0.057 A 
ATOM     16  O   UNL A   1      33.082  20.844  24.463  1.00  0.00    -0.450 OA
ATOM     17  C   UNL A   1      32.058  19.492  22.975  1.00  0.00     0.052 A 
ATOM     18  C   UNL A   1      32.681  19.559  24.204  1.00  0.00     0.159 A 
BRANCH  18  19
ATOM     19  C   UNL A   1      33.022  18.518  25.204  1.00  0.00     0.335 C 
BRANCH  19  20
ATOM     20  N   UNL A   1      32.934  19.043  26.563  1.00  0.00    -0.351 N 
ATOM     21  H   UNL A   1      33.277  18.343  27.221  1.00  0.00     0.344 HD
ATOM     22  H   UNL A   1      31.964  19.267  26.779  1.00  0.00     0.344 HD
ATOM     23  H   UNL A   1      33.503  19.887  26.639  1.00  0.00     0.344 HD
ENDBRANCH  19  20
ENDBRANCH  18  19
ENDBRANCH  12  14
ENDBRANCH   8  12
ENDBRANCH   3   5
ENDBRANCH   2   3
ENDBRANCH   1   2
BRANCH   1  24
ATOM     24  C   UNL A   1      37.705  22.240  25.199  1.00  0.00     0.275 C 
BRANCH  24  25
ATOM     25  O   UNL A   1      38.444  22.287  26.428  1.00  0.00    -0.458 OA
BRANCH  25  26
ATOM     26  C   UNL A   1      39.704  22.771  26.321  1.00  0.00     0.338 C 
ATOM     27  O   UNL A   1      40.687  22.180  25.895  1.00  0.00    -0.246 OA
BRANCH  26  28
ATOM     28  C   UNL A   1      39.756  24.139  26.850  1.00  0.00     0.060 A 
ATOM     29  C   UNL A   1      40.275  25.171  26.069  1.00  0.00     0.016 A 
ATOM     30  C   UNL A   1      39.422  24.361  28.184  1.00  0.00     0.016 A 
ATOM     31  C   UNL A   1      40.565  26.404  26.651  1.00  0.00     0.010 A 
ATOM     32  C   UNL A   1      39.639  25.621  28.747  1.00  0.00     0.010 A 
ATOM     33  C   UNL A   1      40.264  26.636  28.001  1.00  0.00    -0.014 A 
BRANCH  33  34
ATOM     34  C   UNL A   1      40.684  27.900  28.658  1.00  0.00     0.031 A 
ATOM     35  C   UNL A   1      42.094  28.044  29.171  1.00  0.00     0.074 A 
ATOM     36  C   UNL A   1      39.818  28.925  28.782  1.00  0.00     0.049 A 
ATOM     37  N   UNL A   1      42.623  29.013  29.876  1.00  0.00    -0.248 NA
ATOM     38  C   UNL A   1      43.028  26.950  28.861  1.00  0.00     0.031 C 
ATOM     39  C   UNL A   1      38.440  28.935  28.290  1.00  0.00     0.029 A 
ATOM     40  N   UNL A   1      39.978  30.161  29.356  1.00  0.00    -0.354 N 
ATOM     41  C   UNL A   1      43.933  28.624  30.132  1.00  0.00     0.074 A 
ATOM     42  C   UNL A   1      44.117  27.328  29.515  1.00  0.00     0.031 C 
ATOM     43  C   UNL A   1      37.887  30.129  28.563  1.00  0.00     0.029 A 
ATOM     44  C   UNL A   1      38.849  30.943  29.297  1.00  0.00     0.049 A 
ATOM     45  H   UNL A   1      40.819  30.459  29.771  1.00  0.00     0.167 HD
ATOM     46  C   UNL A   1      44.898  29.284  30.817  1.00  0.00     0.031 A 
ATOM     47  C   UNL A   1      38.607  32.170  29.797  1.00  0.00     0.031 A 
ATOM     48  C   UNL A   1      44.726  30.589  31.400  1.00  0.00     0.049 A 
ATOM     49  C   UNL A   1      39.689  32.882  30.560  1.00  0.00     0.074 A 
ATOM     50  C   UNL A   1      45.644  31.343  32.112  1.00  0.00     0.029 A 
ATOM     51  N   UNL A   1      43.565  31.342  31.323  1.00  0.00    -0.354 N 
ATOM     52  N   UNL A   1      40.908  32.480  30.830  1.00  0.00    -0.248 NA
ATOM     53  C   UNL A   1      39.361  34.214  31.086  1.00  0.00     0.031 C 
ATOM     54  C   UNL A   1      45.029  32.543  32.488  1.00  0.00     0.029 A 
ATOM     55  C   UNL A   1      43.741  32.551  31.975  1.00  0.00     0.049 A 
ATOM     56  H   UNL A   1      42.739  31.059  30.870  1.00  0.00     0.167 HD
ATOM     57  C   UNL A   1      41.497  33.516  31.546  1.00  0.00     0.074 A 
ATOM     58  C   UNL A   1      40.508  34.568  31.651  1.00  0.00     0.031 C 
ATOM     59  C   UNL A   1      42.746  33.587  32.071  1.00  0.00     0.031 A 
BRANCH  46  60
ATOM     60  C   UNL A   1      46.217  28.585  31.001  1.00  0.00    -0.014 A 
ATOM     61  C   UNL A   1      47.271  28.756  30.086  1.00  0.00     0.010 A 
ATOM     62  C   UNL A   1      46.411  27.756  32.122  1.00  0.00     0.010 A 
ATOM     63  C   UNL A   1      48.480  28.077  30.265  1.00  0.00     0.020 A 
ATOM     64  C   UNL A   1      47.626  27.093  32.317  1.00  0.00     0.020 A 
ATOM     65  C   UNL A   1      48.646  27.243  31.375  1.00  0.00     0.054 A 
BRANCH  65  66
ATOM     66  S   UNL A   1      50.227  26.378  31.593  1.00  0.00     0.124 S 
ATOM     67  O   UNL A   1      49.794  24.989  31.723  1.00  0.00    -0.237 OA
ATOM     68  O   UNL A   1      50.946  26.699  30.363  1.00  0.00    -0.237 OA
ATOM     69  O   UNL A   1      50.782  26.973  32.807  1.00  0.00    -0.744 OA
ENDBRANCH  65  66
ENDBRANCH  46  60
BRANCH  47  70
ATOM     70  C   UNL A   1      37.272  32.795  29.605  1.00  0.00    -0.014 A 
ATOM     71  C   UNL A   1      36.219  32.513  30.492  1.00  0.00     0.010 A 
ATOM     72  C   UNL A   1      37.055  33.692  28.544  1.00  0.00     0.010 A 
ATOM     73  C   UNL A   1      34.967  33.110  30.314  1.00  0.00     0.020 A 
ATOM     74  C   UNL A   1      35.812  34.309  28.378  1.00  0.00     0.020 A 
ATOM     75  C   UNL A   1      34.772  34.005  29.259  1.00  0.00     0.054 A 
BRANCH  75  76
ATOM     76  S   UNL A   1      33.162  34.821  29.080  1.00  0.00     0.124 S 
ATOM     77  O   UNL A   1      33.542  36.134  28.569  1.00  0.00    -0.237 OA
ATOM     78  O   UNL A   1      32.465  33.951  28.135  1.00  0.00    -0.237 OA
ATOM     79  O   UNL A   1      32.622  34.808  30.438  1.00  0.00    -0.744 OA
ENDBRANCH  75  76
ENDBRANCH  47  70
BRANCH  59  80
ATOM     80  C   UNL A   1      43.116  34.861  32.779  1.00  0.00    -0.014 A 
ATOM     81  C   UNL A   1      42.851  35.036  34.148  1.00  0.00     0.010 A 
ATOM     82  C   UNL A   1      43.761  35.887  32.065  1.00  0.00     0.010 A 
ATOM     83  C   UNL A   1      43.189  36.233  34.784  1.00  0.00     0.020 A 
ATOM     84  C   UNL A   1      44.119  37.077  32.703  1.00  0.00     0.020 A 
ATOM     85  C   UNL A   1      43.814  37.249  34.055  1.00  0.00     0.054 A 
BRANCH  85  86
ATOM     86  S   UNL A   1      44.265  38.789  34.902  1.00  0.00     0.124 S 
ATOM     87  O   UNL A   1      45.665  38.948  34.515  1.00  0.00    -0.237 OA
ATOM     88  O   UNL A   1      43.340  39.762  34.324  1.00  0.00    -0.237 OA
ATOM     89  O   UNL A   1      44.038  38.486  36.312  1.00  0.00    -0.744 OA
ENDBRANCH  85  86
ENDBRANCH  59  80
ENDBRANCH  33  34
ENDBRANCH  26  28
ENDBRANCH  25  26
ENDBRANCH  24  25
ENDBRANCH   1  24
TORSDOF 19
ENDMDL
MODEL 3
REMARK VINA RESULT:      -9.8      3.141      9.097
REMARK SMILES CC[C@@H]1SC[C@@H](C(=O)OCCOC(=O)c2ccc(-c3c4nc(c(-c5ccc(S(=O)(=O)[O-])cc5)c5ccc([nH]5)c(-c5ccc(S(=O)(=O)[O-])cc5)c5nc(c(-c6ccc(S(=O)(=O)[O-])cc6)c6ccc3[nH]6)C=C5)C=C4)cc2)N1C(=O)c1ccc(C[NH3+])o1
REMARK SMILES IDX 10 1 9 2 7 3 8 4 6 5 3 6 4 7 75 8 5 9 2 10 1 11 76 12 77 13
REMARK SMILES IDX 78 14 79 15 84 16 80 17 81 18 82 19 83 20 11 24 12 25 13 26
REMARK SMILES IDX 14 27 15 28 16 29 74 30 17 31 73 32 18 33 19 34 20 35 67 36
REMARK SMILES IDX 21 37 72 38 66 39 68 40 22 41 71 42 65 43 64 44 23 46 53 47
REMARK SMILES IDX 34 48 52 49 35 50 38 51 51 52 69 53 36 54 37 55 50 57 70 58
REMARK SMILES IDX 39 59 24 60 25 61 33 62 26 63 32 64 27 65 28 66 29 67 30 68
REMARK SMILES IDX 31 69 54 70 55 71 63 72 56 73 62 74 57 75 58 76 59 77 60 78
REMARK SMILES IDX 61 79 40 80 41 81 49 82 42 83 48 84 43 85 44 86 45 87 46 88
REMARK SMILES IDX 47 89
REMARK H PARENT 83 21 83 22 83 23 68 45 38 56
REMARK Flexibility Score: inf
ROOT
ATOM      1  C   UNL A   1      36.132  21.053  24.909  1.00  0.00     0.274 C 
ENDROOT
BRANCH   1   2
ATOM      2  O   UNL A   1      35.695  22.421  24.776  1.00  0.00    -0.461 OA
BRANCH   2   3
ATOM      3  C   UNL A   1      35.544  22.861  23.495  1.00  0.00     0.329 C 
ATOM      4  O   UNL A   1      36.467  23.013  22.699  1.00  0.00    -0.250 OA
BRANCH   3   5
ATOM      5  C   UNL A   1      34.103  23.269  23.155  1.00  0.00     0.206 C 
ATOM      6  C   UNL A   1      32.570  23.223  25.091  1.00  0.00     0.144 C 
ATOM      7  S   UNL A   1      33.464  24.830  25.157  1.00  0.00    -0.134 SA
ATOM      8  N   UNL A   1      33.020  22.570  23.867  1.00  0.00    -0.309 N 
ATOM      9  C   UNL A   1      33.960  24.758  23.418  1.00  0.00     0.109 C 
BRANCH   6  10
ATOM     10  C   UNL A   1      31.062  23.503  25.216  1.00  0.00     0.033 C 
ATOM     11  C   UNL A   1      30.352  22.836  26.389  1.00  0.00     0.007 C 
ENDBRANCH   6  10
BRANCH   8  12
ATOM     12  C   UNL A   1      32.577  21.359  23.339  1.00  0.00     0.291 C 
ATOM     13  O   UNL A   1      31.911  21.357  22.304  1.00  0.00    -0.265 OA
BRANCH  12  14
ATOM     14  C   UNL A   1      32.780  20.138  24.081  1.00  0.00     0.192 A 
ATOM     15  C   UNL A   1      32.558  19.887  25.422  1.00  0.00     0.057 A 
ATOM     16  O   UNL A   1      33.158  18.985  23.446  1.00  0.00    -0.450 OA
ATOM     17  C   UNL A   1      32.812  18.515  25.626  1.00  0.00     0.052 A 
ATOM     18  C   UNL A   1      33.116  17.989  24.388  1.00  0.00     0.159 A 
BRANCH  18  19
ATOM     19  C   UNL A   1      33.331  16.597  23.924  1.00  0.00     0.335 C 
BRANCH  19  20
ATOM     20  N   UNL A   1      33.286  15.656  25.040  1.00  0.00    -0.351 N 
ATOM     21  H   UNL A   1      33.589  14.736  24.722  1.00  0.00     0.344 HD
ATOM     22  H   UNL A   1      32.333  15.597  25.396  1.00  0.00     0.344 HD
ATOM     23  H   UNL A   1      33.906  15.980  25.784  1.00  0.00     0.344 HD
ENDBRANCH  19  20
ENDBRANCH  18  19
ENDBRANCH  12  14
ENDBRANCH   8  12
ENDBRANCH   3   5
ENDBRANCH   2   3
ENDBRANCH   1   2
BRANCH   1  24
ATOM     24  C   UNL A   1      37.647  20.978  25.059  1.00  0.00     0.275 C 
BRANCH  24  25
ATOM     25  O   UNL A   1      38.115  22.091  25.832  1.00  0.00    -0.458 OA
BRANCH  25  26
ATOM     26  C   UNL A   1      39.385  21.979  26.287  1.00  0.00     0.338 C 
ATOM     27  O   UNL A   1      40.092  20.980  26.263  1.00  0.00    -0.246 OA
BRANCH  26  28
ATOM     28  C   UNL A   1      39.812  23.250  26.887  1.00  0.00     0.060 A 
ATOM     29  C   UNL A   1      39.445  24.458  26.296  1.00  0.00     0.016 A 
ATOM     30  C   UNL A   1      40.702  23.226  27.958  1.00  0.00     0.016 A 
ATOM     31  C   UNL A   1      40.056  25.643  26.704  1.00  0.00     0.010 A 
ATOM     32  C   UNL A   1      41.254  24.424  28.419  1.00  0.00     0.010 A 
ATOM     33  C   UNL A   1      40.978  25.636  27.760  1.00  0.00    -0.014 A 
BRANCH  33  34
ATOM     34  C   UNL A   1      41.724  26.870  28.116  1.00  0.00     0.031 A 
ATOM     35  C   UNL A   1      40.989  28.043  28.711  1.00  0.00     0.074 A 
ATOM     36  C   UNL A   1      43.056  26.939  27.928  1.00  0.00     0.049 A 
ATOM     37  N   UNL A   1      41.430  29.247  28.979  1.00  0.00    -0.248 NA
ATOM     38  C   UNL A   1      39.567  27.841  29.036  1.00  0.00     0.031 C 
ATOM     39  C   UNL A   1      43.897  25.862  27.404  1.00  0.00     0.029 A 
ATOM     40  N   UNL A   1      43.937  27.965  28.166  1.00  0.00    -0.354 N 
ATOM     41  C   UNL A   1      40.334  29.955  29.458  1.00  0.00     0.074 A 
ATOM     42  C   UNL A   1      39.205  29.051  29.436  1.00  0.00     0.031 C 
ATOM     43  C   UNL A   1      45.175  26.275  27.382  1.00  0.00     0.029 A 
ATOM     44  C   UNL A   1      45.236  27.661  27.834  1.00  0.00     0.049 A 
ATOM     45  H   UNL A   1      43.665  28.834  28.538  1.00  0.00     0.167 HD
ATOM     46  C   UNL A   1      40.271  31.241  29.879  1.00  0.00     0.031 A 
ATOM     47  C   UNL A   1      46.348  28.419  27.869  1.00  0.00     0.031 A 
ATOM     48  C   UNL A   1      41.402  32.131  29.935  1.00  0.00     0.049 A 
ATOM     49  C   UNL A   1      46.255  29.845  28.334  1.00  0.00     0.074 A 
ATOM     50  C   UNL A   1      41.441  33.451  30.349  1.00  0.00     0.029 A 
ATOM     51  N   UNL A   1      42.697  31.784  29.583  1.00  0.00    -0.354 N 
ATOM     52  N   UNL A   1      45.201  30.511  28.741  1.00  0.00    -0.248 NA
ATOM     53  C   UNL A   1      47.502  30.621  28.341  1.00  0.00     0.031 C 
ATOM     54  C   UNL A   1      42.757  33.912  30.223  1.00  0.00     0.029 A 
ATOM     55  C   UNL A   1      43.543  32.865  29.768  1.00  0.00     0.049 A 
ATOM     56  H   UNL A   1      42.974  30.900  29.252  1.00  0.00     0.167 HD
ATOM     57  C   UNL A   1      45.661  31.782  29.067  1.00  0.00     0.074 A 
ATOM     58  C   UNL A   1      47.089  31.785  28.827  1.00  0.00     0.031 C 
ATOM     59  C   UNL A   1      44.962  32.851  29.523  1.00  0.00     0.031 A 
BRANCH  46  60
ATOM     60  C   UNL A   1      38.922  31.773  30.281  1.00  0.00    -0.014 A 
ATOM     61  C   UNL A   1      38.411  31.571  31.576  1.00  0.00     0.010 A 
ATOM     62  C   UNL A   1      38.160  32.503  29.350  1.00  0.00     0.010 A 
ATOM     63  C   UNL A   1      37.145  32.053  31.919  1.00  0.00     0.020 A 
ATOM     64  C   UNL A   1      36.903  33.006  29.696  1.00  0.00     0.020 A 
ATOM     65  C   UNL A   1      36.395  32.760  30.974  1.00  0.00     0.054 A 
BRANCH  65  66
ATOM     66  S   UNL A   1      34.757  33.385  31.443  1.00  0.00     0.124 S 
ATOM     67  O   UNL A   1      35.083  34.701  31.989  1.00  0.00    -0.237 OA
ATOM     68  O   UNL A   1      34.036  33.394  30.173  1.00  0.00    -0.237 OA
ATOM     69  O   UNL A   1      34.280  32.408  32.418  1.00  0.00    -0.744 OA
ENDBRANCH  65  66
ENDBRANCH  46  60
BRANCH  47  70
ATOM     70  C   UNL A   1      47.647  27.843  27.432  1.00  0.00    -0.014 A 
ATOM     71  C   UNL A   1      48.052  27.936  26.089  1.00  0.00     0.010 A 
ATOM     72  C   UNL A   1      48.494  27.214  28.362  1.00  0.00     0.010 A 
ATOM     73  C   UNL A   1      49.279  27.403  25.682  1.00  0.00     0.020 A 
ATOM     74  C   UNL A   1      49.731  26.701  27.964  1.00  0.00     0.020 A 
ATOM     75  C   UNL A   1      50.111  26.789  26.623  1.00  0.00     0.054 A 
BRANCH  75  76
ATOM     76  S   UNL A   1      51.728  26.160  26.093  1.00  0.00     0.124 S 
ATOM     77  O   UNL A   1      51.681  24.777  26.558  1.00  0.00    -0.237 OA
ATOM     78  O   UNL A   1      51.682  26.341  24.643  1.00  0.00    -0.237 OA
ATOM     79  O   UNL A   1      52.675  27.026  26.790  1.00  0.00    -0.744 OA
ENDBRANCH  75  76
ENDBRANCH  47  70
BRANCH  59  80
ATOM     80  C   UNL A   1      45.743  34.101  29.819  1.00  0.00    -0.014 A 
ATOM     81  C   UNL A   1      46.400  34.273  31.049  1.00  0.00     0.010 A 
ATOM     82  C   UNL A   1      45.839  35.106  28.840  1.00  0.00     0.010 A 
ATOM     83  C   UNL A   1      47.109  35.448  31.312  1.00  0.00     0.020 A 
ATOM     84  C   UNL A   1      46.565  36.273  29.092  1.00  0.00     0.020 A 
ATOM     85  C   UNL A   1      47.180  36.444  30.334  1.00  0.00     0.054 A 
BRANCH  85  86
ATOM     86  S   UNL A   1      48.122  37.955  30.683  1.00  0.00     0.124 S 
ATOM     87  O   UNL A   1      49.492  37.451  30.741  1.00  0.00    -0.237 OA
ATOM     88  O   UNL A   1      47.814  38.804  29.535  1.00  0.00    -0.237 OA
ATOM     89  O   UNL A   1      47.573  38.417  31.955  1.00  0.00    -0.744 OA
ENDBRANCH  85  86
ENDBRANCH  59  80
ENDBRANCH  33  34
ENDBRANCH  26  28
ENDBRANCH  25  26
ENDBRANCH  24  25
ENDBRANCH   1  24
TORSDOF 19
ENDMDL
