MODEL 1
REMARK VINA RESULT:     -11.3      0.000      0.000
REMARK SMILES C[C@](Nc1ccc(C(N)=O)nn1)(C(=O)OCCOC(=O)c1ccc(-c2c3nc(c(-c4ccc(S(=O)(=O)[O-])cc4)c4ccc([nH]4)c(-c4ccc(S(=O)(=O)[O-])cc4)c4nc(c(-c5ccc(S(=O)(=O)[O-])cc5)c5ccc2[nH]5)C=C4)C=C3)cc1)c1ccccc1
REMARK SMILES IDX 16 1 15 2 13 3 14 4 2 5 1 6 81 7 82 8 86 9 83 10 85 11 84 12
REMARK SMILES IDX 3 13 4 15 5 16 12 17 6 18 11 19 7 20 8 21 9 22 10 23 17 26
REMARK SMILES IDX 18 27 19 28 20 29 21 30 22 31 80 32 23 33 79 34 24 35 25 36
REMARK SMILES IDX 26 37 73 38 27 39 78 40 72 41 74 42 28 43 77 44 71 45 70 46
REMARK SMILES IDX 29 48 59 49 40 50 58 51 41 52 44 53 57 54 75 55 42 56 43 57
REMARK SMILES IDX 56 59 76 60 45 61 30 62 31 63 39 64 32 65 38 66 33 67 34 68
REMARK SMILES IDX 35 69 36 70 37 71 60 72 61 73 69 74 62 75 68 76 63 77 64 78
REMARK SMILES IDX 65 79 66 80 67 81 46 82 47 83 55 84 48 85 54 86 49 87 50 88
REMARK SMILES IDX 51 89 52 90 53 91
REMARK H PARENT 3 14 9 24 9 25 74 47 44 58
REMARK Flexibility Score: inf
ROOT
ATOM      1  C   UNL A   1      36.380  20.581  25.060  1.00  0.00     0.274 C 
ENDROOT
BRANCH   1   2
ATOM      2  O   UNL A   1      35.359  21.566  24.810  1.00  0.00    -0.460 OA
BRANCH   2   3
ATOM      3  C   UNL A   1      34.304  21.608  25.681  1.00  0.00     0.336 C 
ATOM      4  O   UNL A   1      34.401  21.388  26.884  1.00  0.00    -0.249 OA
BRANCH   3   5
ATOM      5  C   UNL A   1      32.946  21.882  24.935  1.00  0.00     0.160 C 
ATOM      6  C   UNL A   1      31.932  22.074  26.083  1.00  0.00     0.053 C 
BRANCH   5   7
ATOM      7  C   UNL A   1      33.080  23.144  24.051  1.00  0.00    -0.012 A 
ATOM      8  C   UNL A   1      33.400  24.405  24.593  1.00  0.00     0.007 A 
ATOM      9  C   UNL A   1      32.937  23.070  22.648  1.00  0.00     0.007 A 
ATOM     10  C   UNL A   1      33.539  25.536  23.780  1.00  0.00     0.000 A 
ATOM     11  C   UNL A   1      33.077  24.202  21.837  1.00  0.00     0.000 A 
ATOM     12  C   UNL A   1      33.373  25.436  22.403  1.00  0.00     0.000 A 
ENDBRANCH   5   7
BRANCH   5  13
ATOM     13  N   UNL A   1      32.626  20.728  24.054  1.00  0.00    -0.350 N 
ATOM     14  H   UNL A   1      32.253  20.964  23.175  1.00  0.00     0.163 HD
BRANCH  13  15
ATOM     15  C   UNL A   1      32.771  19.389  24.281  1.00  0.00     0.149 A 
ATOM     16  C   UNL A   1      33.542  18.539  23.505  1.00  0.00     0.051 A 
ATOM     17  N   UNL A   1      32.135  18.902  25.371  1.00  0.00    -0.132 NA
ATOM     18  C   UNL A   1      33.600  17.179  23.809  1.00  0.00     0.040 A 
ATOM     19  N   UNL A   1      32.192  17.570  25.697  1.00  0.00    -0.143 NA
ATOM     20  C   UNL A   1      32.906  16.734  24.915  1.00  0.00     0.150 A 
BRANCH  20  21
ATOM     21  C   UNL A   1      32.920  15.299  25.312  1.00  0.00     0.269 C 
ATOM     22  N   UNL A   1      31.709  14.768  25.672  1.00  0.00    -0.364 N 
ATOM     23  O   UNL A   1      33.944  14.629  25.321  1.00  0.00    -0.268 OA
ATOM     24  H   UNL A   1      30.900  15.329  25.655  1.00  0.00     0.160 HD
ATOM     25  H   UNL A   1      31.648  13.825  25.947  1.00  0.00     0.160 HD
ENDBRANCH  20  21
ENDBRANCH  13  15
ENDBRANCH   5  13
ENDBRANCH   3   5
ENDBRANCH   2   3
ENDBRANCH   1   2
BRANCH   1  26
ATOM     26  C   UNL A   1      37.773  21.181  24.892  1.00  0.00     0.275 C 
BRANCH  26  27
ATOM     27  O   UNL A   1      38.111  21.990  26.030  1.00  0.00    -0.458 OA
BRANCH  27  28
ATOM     28  C   UNL A   1      39.412  21.948  26.397  1.00  0.00     0.338 C 
ATOM     29  O   UNL A   1      40.203  21.036  26.234  1.00  0.00    -0.246 OA
BRANCH  28  30
ATOM     30  C   UNL A   1      39.784  23.244  26.973  1.00  0.00     0.060 A 
ATOM     31  C   UNL A   1      39.188  24.393  26.459  1.00  0.00     0.016 A 
ATOM     32  C   UNL A   1      40.806  23.336  27.917  1.00  0.00     0.016 A 
ATOM     33  C   UNL A   1      39.669  25.646  26.818  1.00  0.00     0.010 A 
ATOM     34  C   UNL A   1      41.236  24.600  28.333  1.00  0.00     0.010 A 
ATOM     35  C   UNL A   1      40.697  25.767  27.760  1.00  0.00    -0.014 A 
BRANCH  35  36
ATOM     36  C   UNL A   1      41.249  27.103  28.103  1.00  0.00     0.031 A 
ATOM     37  C   UNL A   1      42.722  27.366  27.948  1.00  0.00     0.074 A 
ATOM     38  C   UNL A   1      40.445  28.089  28.543  1.00  0.00     0.049 A 
ATOM     39  N   UNL A   1      43.437  28.355  28.418  1.00  0.00    -0.248 NA
ATOM     40  C   UNL A   1      43.492  26.377  27.177  1.00  0.00     0.031 C 
ATOM     41  C   UNL A   1      38.989  28.007  28.671  1.00  0.00     0.029 A 
ATOM     42  N   UNL A   1      40.745  29.360  28.964  1.00  0.00    -0.354 N 
ATOM     43  C   UNL A   1      44.752  28.065  28.075  1.00  0.00     0.074 A 
ATOM     44  C   UNL A   1      44.731  26.825  27.329  1.00  0.00     0.031 C 
ATOM     45  C   UNL A   1      38.521  29.185  29.112  1.00  0.00     0.029 A 
ATOM     46  C   UNL A   1      39.647  30.071  29.383  1.00  0.00     0.049 A 
ATOM     47  H   UNL A   1      41.659  29.727  28.968  1.00  0.00     0.167 HD
ATOM     48  C   UNL A   1      45.874  28.758  28.380  1.00  0.00     0.031 A 
ATOM     49  C   UNL A   1      39.552  31.279  29.971  1.00  0.00     0.031 A 
ATOM     50  C   UNL A   1      45.883  30.015  29.078  1.00  0.00     0.049 A 
ATOM     51  C   UNL A   1      40.802  32.040  30.294  1.00  0.00     0.074 A 
ATOM     52  C   UNL A   1      46.968  30.791  29.449  1.00  0.00     0.029 A 
ATOM     53  N   UNL A   1      44.747  30.695  29.488  1.00  0.00    -0.354 N 
ATOM     54  N   UNL A   1      42.049  31.702  30.067  1.00  0.00    -0.248 NA
ATOM     55  C   UNL A   1      40.637  33.329  30.979  1.00  0.00     0.031 C 
ATOM     56  C   UNL A   1      46.486  31.933  30.101  1.00  0.00     0.029 A 
ATOM     57  C   UNL A   1      45.100  31.881  30.109  1.00  0.00     0.049 A 
ATOM     58  H   UNL A   1      43.822  30.380  29.357  1.00  0.00     0.167 HD
ATOM     59  C   UNL A   1      42.819  32.730  30.595  1.00  0.00     0.074 A 
ATOM     60  C   UNL A   1      41.898  33.714  31.129  1.00  0.00     0.031 C 
ATOM     61  C   UNL A   1      44.169  32.841  30.643  1.00  0.00     0.031 A 
BRANCH  48  62
ATOM     62  C   UNL A   1      47.187  28.121  28.021  1.00  0.00    -0.014 A 
ATOM     63  C   UNL A   1      47.777  28.304  26.759  1.00  0.00     0.010 A 
ATOM     64  C   UNL A   1      47.834  27.311  28.974  1.00  0.00     0.010 A 
ATOM     65  C   UNL A   1      48.968  27.646  26.438  1.00  0.00     0.020 A 
ATOM     66  C   UNL A   1      49.034  26.668  28.663  1.00  0.00     0.020 A 
ATOM     67  C   UNL A   1      49.581  26.821  27.388  1.00  0.00     0.054 A 
BRANCH  67  68
ATOM     68  S   UNL A   1      51.119  25.960  26.954  1.00  0.00     0.124 S 
ATOM     69  O   UNL A   1      51.369  26.458  25.603  1.00  0.00    -0.237 OA
ATOM     70  O   UNL A   1      52.055  26.423  27.976  1.00  0.00    -0.237 OA
ATOM     71  O   UNL A   1      50.757  24.548  27.042  1.00  0.00    -0.744 OA
ENDBRANCH  67  68
ENDBRANCH  48  62
BRANCH  49  72
ATOM     72  C   UNL A   1      38.208  31.790  30.343  1.00  0.00    -0.014 A 
ATOM     73  C   UNL A   1      37.671  31.517  31.611  1.00  0.00     0.010 A 
ATOM     74  C   UNL A   1      37.513  32.647  29.469  1.00  0.00     0.010 A 
ATOM     75  C   UNL A   1      36.473  32.117  32.011  1.00  0.00     0.020 A 
ATOM     76  C   UNL A   1      36.327  33.263  29.874  1.00  0.00     0.020 A 
ATOM     77  C   UNL A   1      35.817  32.997  31.146  1.00  0.00     0.054 A 
BRANCH  77  78
ATOM     78  S   UNL A   1      34.345  33.886  31.729  1.00  0.00     0.124 S 
ATOM     79  O   UNL A   1      34.934  35.028  32.418  1.00  0.00    -0.237 OA
ATOM     80  O   UNL A   1      33.636  34.191  30.488  1.00  0.00    -0.237 OA
ATOM     81  O   UNL A   1      33.680  32.906  32.586  1.00  0.00    -0.744 OA
ENDBRANCH  77  78
ENDBRANCH  49  72
BRANCH  61  82
ATOM     82  C   UNL A   1      44.732  34.070  31.295  1.00  0.00    -0.014 A 
ATOM     83  C   UNL A   1      44.948  35.240  30.547  1.00  0.00     0.010 A 
ATOM     84  C   UNL A   1      44.993  34.072  32.676  1.00  0.00     0.010 A 
ATOM     85  C   UNL A   1      45.434  36.392  31.170  1.00  0.00     0.020 A 
ATOM     86  C   UNL A   1      45.468  35.227  33.304  1.00  0.00     0.020 A 
ATOM     87  C   UNL A   1      45.695  36.377  32.543  1.00  0.00     0.054 A 
BRANCH  87  88
ATOM     88  S   UNL A   1      46.280  37.897  33.345  1.00  0.00     0.124 S 
ATOM     89  O   UNL A   1      45.281  38.870  32.914  1.00  0.00    -0.237 OA
ATOM     90  O   UNL A   1      46.249  37.549  34.763  1.00  0.00    -0.237 OA
ATOM     91  O   UNL A   1      47.617  38.085  32.787  1.00  0.00    -0.744 OA
ENDBRANCH  87  88
ENDBRANCH  61  82
ENDBRANCH  35  36
ENDBRANCH  28  30
ENDBRANCH  27  28
ENDBRANCH  26  27
ENDBRANCH   1  26
TORSDOF 18
ENDMDL
MODEL 2
REMARK VINA RESULT:     -10.9      4.720      5.659
REMARK SMILES C[C@](Nc1ccc(C(N)=O)nn1)(C(=O)OCCOC(=O)c1ccc(-c2c3nc(c(-c4ccc(S(=O)(=O)[O-])cc4)c4ccc([nH]4)c(-c4ccc(S(=O)(=O)[O-])cc4)c4nc(c(-c5ccc(S(=O)(=O)[O-])cc5)c5ccc2[nH]5)C=C4)C=C3)cc1)c1ccccc1
REMARK SMILES IDX 16 1 15 2 13 3 14 4 2 5 1 6 81 7 82 8 86 9 83 10 85 11 84 12
REMARK SMILES IDX 3 13 4 15 5 16 12 17 6 18 11 19 7 20 8 21 9 22 10 23 17 26
REMARK SMILES IDX 18 27 19 28 20 29 21 30 22 31 80 32 23 33 79 34 24 35 25 36
REMARK SMILES IDX 26 37 73 38 27 39 78 40 72 41 74 42 28 43 77 44 71 45 70 46
REMARK SMILES IDX 29 48 59 49 40 50 58 51 41 52 44 53 57 54 75 55 42 56 43 57
REMARK SMILES IDX 56 59 76 60 45 61 30 62 31 63 39 64 32 65 38 66 33 67 34 68
REMARK SMILES IDX 35 69 36 70 37 71 60 72 61 73 69 74 62 75 68 76 63 77 64 78
REMARK SMILES IDX 65 79 66 80 67 81 46 82 47 83 55 84 48 85 54 86 49 87 50 88
REMARK SMILES IDX 51 89 52 90 53 91
REMARK H PARENT 3 14 9 24 9 25 74 47 44 58
REMARK Flexibility Score: inf
ROOT
ATOM      1  C   UNL A   1      37.051  22.349  26.180  1.00  0.00     0.274 C 
ENDROOT
BRANCH   1   2
ATOM      2  O   UNL A   1      35.797  23.021  25.955  1.00  0.00    -0.460 OA
BRANCH   2   3
ATOM      3  C   UNL A   1      34.695  22.522  26.595  1.00  0.00     0.336 C 
ATOM      4  O   UNL A   1      34.743  21.889  27.645  1.00  0.00    -0.249 OA
BRANCH   3   5
ATOM      5  C   UNL A   1      33.379  22.780  25.773  1.00  0.00     0.160 C 
ATOM      6  C   UNL A   1      32.263  22.692  26.835  1.00  0.00     0.053 C 
BRANCH   5   7
ATOM      7  C   UNL A   1      33.446  24.174  25.104  1.00  0.00    -0.012 A 
ATOM      8  C   UNL A   1      33.424  25.365  25.857  1.00  0.00     0.007 A 
ATOM      9  C   UNL A   1      33.585  24.305  23.705  1.00  0.00     0.007 A 
ATOM     10  C   UNL A   1      33.506  26.620  25.242  1.00  0.00     0.000 A 
ATOM     11  C   UNL A   1      33.668  25.561  23.092  1.00  0.00     0.000 A 
ATOM     12  C   UNL A   1      33.623  26.718  23.860  1.00  0.00     0.000 A 
ENDBRANCH   5   7
BRANCH   5  13
ATOM     13  N   UNL A   1      33.256  21.756  24.703  1.00  0.00    -0.350 N 
ATOM     14  H   UNL A   1      33.042  22.108  23.810  1.00  0.00     0.163 HD
BRANCH  13  15
ATOM     15  C   UNL A   1      33.395  20.399  24.773  1.00  0.00     0.149 A 
ATOM     16  C   UNL A   1      34.577  19.716  24.530  1.00  0.00     0.051 A 
ATOM     17  N   UNL A   1      32.293  19.710  25.146  1.00  0.00    -0.132 NA
ATOM     18  C   UNL A   1      34.604  18.324  24.602  1.00  0.00     0.040 A 
ATOM     19  N   UNL A   1      32.302  18.341  25.238  1.00  0.00    -0.143 NA
ATOM     20  C   UNL A   1      33.441  17.673  24.958  1.00  0.00     0.150 A 
BRANCH  20  21
ATOM     21  C   UNL A   1      33.385  16.189  25.063  1.00  0.00     0.269 C 
ATOM     22  N   UNL A   1      32.133  15.644  25.175  1.00  0.00    -0.364 N 
ATOM     23  O   UNL A   1      34.391  15.491  25.053  1.00  0.00    -0.268 OA
ATOM     24  H   UNL A   1      31.340  16.229  25.180  1.00  0.00     0.160 HD
ATOM     25  H   UNL A   1      32.025  14.669  25.250  1.00  0.00     0.160 HD
ENDBRANCH  20  21
ENDBRANCH  13  15
ENDBRANCH   5  13
ENDBRANCH   3   5
ENDBRANCH   2   3
ENDBRANCH   1   2
BRANCH   1  26
ATOM     26  C   UNL A   1      38.229  23.271  25.878  1.00  0.00     0.275 C 
BRANCH  26  27
ATOM     27  O   UNL A   1      38.268  24.359  26.815  1.00  0.00    -0.458 OA
BRANCH  27  28
ATOM     28  C   UNL A   1      39.429  25.055  26.837  1.00  0.00     0.338 C 
ATOM     29  O   UNL A   1      40.384  24.934  26.090  1.00  0.00    -0.246 OA
BRANCH  28  30
ATOM     30  C   UNL A   1      39.345  26.083  27.878  1.00  0.00     0.060 A 
ATOM     31  C   UNL A   1      39.828  27.358  27.591  1.00  0.00     0.016 A 
ATOM     32  C   UNL A   1      38.918  25.758  29.165  1.00  0.00     0.016 A 
ATOM     33  C   UNL A   1      39.970  28.292  28.610  1.00  0.00     0.010 A 
ATOM     34  C   UNL A   1      38.992  26.727  30.171  1.00  0.00     0.010 A 
ATOM     35  C   UNL A   1      39.554  27.991  29.912  1.00  0.00    -0.014 A 
BRANCH  35  36
ATOM     36  C   UNL A   1      39.757  28.968  31.011  1.00  0.00     0.031 A 
ATOM     37  C   UNL A   1      40.980  28.871  31.882  1.00  0.00     0.074 A 
ATOM     38  C   UNL A   1      38.864  29.951  31.235  1.00  0.00     0.049 A 
ATOM     39  N   UNL A   1      41.223  29.450  33.030  1.00  0.00    -0.248 NA
ATOM     40  C   UNL A   1      42.062  27.996  31.406  1.00  0.00     0.031 C 
ATOM     41  C   UNL A   1      37.671  30.217  30.428  1.00  0.00     0.029 A 
ATOM     42  N   UNL A   1      38.824  30.911  32.215  1.00  0.00    -0.354 N 
ATOM     43  C   UNL A   1      42.445  28.944  33.455  1.00  0.00     0.074 A 
ATOM     44  C   UNL A   1      42.908  28.036  32.426  1.00  0.00     0.031 C 
ATOM     45  C   UNL A   1      37.034  31.287  30.927  1.00  0.00     0.029 A 
ATOM     46  C   UNL A   1      37.720  31.724  32.139  1.00  0.00     0.049 A 
ATOM     47  H   UNL A   1      39.519  31.008  32.906  1.00  0.00     0.167 HD
ATOM     48  C   UNL A   1      43.104  29.194  34.610  1.00  0.00     0.031 A 
ATOM     49  C   UNL A   1      37.271  32.680  32.975  1.00  0.00     0.031 A 
ATOM     50  C   UNL A   1      42.663  30.135  35.605  1.00  0.00     0.049 A 
ATOM     51  C   UNL A   1      38.015  32.953  34.246  1.00  0.00     0.074 A 
ATOM     52  C   UNL A   1      43.252  30.451  36.817  1.00  0.00     0.029 A 
ATOM     53  N   UNL A   1      41.536  30.932  35.488  1.00  0.00    -0.354 N 
ATOM     54  N   UNL A   1      39.110  32.386  34.693  1.00  0.00    -0.248 NA
ATOM     55  C   UNL A   1      37.450  33.973  35.141  1.00  0.00     0.031 C 
ATOM     56  C   UNL A   1      42.467  31.429  37.442  1.00  0.00     0.029 A 
ATOM     57  C   UNL A   1      41.407  31.740  36.604  1.00  0.00     0.049 A 
ATOM     58  H   UNL A   1      40.915  30.924  34.723  1.00  0.00     0.167 HD
ATOM     59  C   UNL A   1      39.359  32.969  35.929  1.00  0.00     0.074 A 
ATOM     60  C   UNL A   1      38.315  33.951  36.148  1.00  0.00     0.031 C 
ATOM     61  C   UNL A   1      40.356  32.703  36.808  1.00  0.00     0.031 A 
BRANCH  48  62
ATOM     62  C   UNL A   1      44.333  28.375  34.885  1.00  0.00    -0.014 A 
ATOM     63  C   UNL A   1      44.265  27.138  35.546  1.00  0.00     0.010 A 
ATOM     64  C   UNL A   1      45.587  28.870  34.477  1.00  0.00     0.010 A 
ATOM     65  C   UNL A   1      45.436  26.431  35.840  1.00  0.00     0.020 A 
ATOM     66  C   UNL A   1      46.757  28.158  34.752  1.00  0.00     0.020 A 
ATOM     67  C   UNL A   1      46.675  26.954  35.454  1.00  0.00     0.054 A 
BRANCH  67  68
ATOM     68  S   UNL A   1      48.188  26.035  35.854  1.00  0.00     0.124 S 
ATOM     69  O   UNL A   1      48.935  26.131  34.602  1.00  0.00    -0.237 OA
ATOM     70  O   UNL A   1      48.744  26.789  36.975  1.00  0.00    -0.237 OA
ATOM     71  O   UNL A   1      47.699  24.700  36.190  1.00  0.00    -0.744 OA
ENDBRANCH  67  68
ENDBRANCH  48  62
BRANCH  49  72
ATOM     72  C   UNL A   1      36.008  33.387  32.641  1.00  0.00    -0.014 A 
ATOM     73  C   UNL A   1      34.839  33.139  33.377  1.00  0.00     0.010 A 
ATOM     74  C   UNL A   1      36.005  34.396  31.659  1.00  0.00     0.010 A 
ATOM     75  C   UNL A   1      33.693  33.909  33.157  1.00  0.00     0.020 A 
ATOM     76  C   UNL A   1      34.867  35.179  31.451  1.00  0.00     0.020 A 
ATOM     77  C   UNL A   1      33.718  34.932  32.205  1.00  0.00     0.054 A 
BRANCH  77  78
ATOM     78  S   UNL A   1      32.276  36.022  32.032  1.00  0.00     0.124 S 
ATOM     79  O   UNL A   1      32.653  37.157  32.865  1.00  0.00    -0.237 OA
ATOM     80  O   UNL A   1      32.234  36.278  30.594  1.00  0.00    -0.237 OA
ATOM     81  O   UNL A   1      31.176  35.204  32.539  1.00  0.00    -0.744 OA
ENDBRANCH  77  78
ENDBRANCH  49  72
BRANCH  61  82
ATOM     82  C   UNL A   1      40.366  33.487  38.088  1.00  0.00    -0.014 A 
ATOM     83  C   UNL A   1      41.252  34.564  38.258  1.00  0.00     0.010 A 
ATOM     84  C   UNL A   1      39.444  33.180  39.104  1.00  0.00     0.010 A 
ATOM     85  C   UNL A   1      41.228  35.314  39.437  1.00  0.00     0.020 A 
ATOM     86  C   UNL A   1      39.410  33.936  40.278  1.00  0.00     0.020 A 
ATOM     87  C   UNL A   1      40.310  34.993  40.441  1.00  0.00     0.054 A 
BRANCH  87  88
ATOM     88  S   UNL A   1      40.259  36.007  41.945  1.00  0.00     0.124 S 
ATOM     89  O   UNL A   1      38.852  35.919  42.323  1.00  0.00    -0.237 OA
ATOM     90  O   UNL A   1      41.193  35.320  42.833  1.00  0.00    -0.237 OA
ATOM     91  O   UNL A   1      40.702  37.322  41.486  1.00  0.00    -0.744 OA
ENDBRANCH  87  88
ENDBRANCH  61  82
ENDBRANCH  35  36
ENDBRANCH  28  30
ENDBRANCH  27  28
ENDBRANCH  26  27
ENDBRANCH   1  26
TORSDOF 18
ENDMDL
MODEL 3
REMARK VINA RESULT:     -10.8      2.121      2.749
REMARK SMILES C[C@](Nc1ccc(C(N)=O)nn1)(C(=O)OCCOC(=O)c1ccc(-c2c3nc(c(-c4ccc(S(=O)(=O)[O-])cc4)c4ccc([nH]4)c(-c4ccc(S(=O)(=O)[O-])cc4)c4nc(c(-c5ccc(S(=O)(=O)[O-])cc5)c5ccc2[nH]5)C=C4)C=C3)cc1)c1ccccc1
REMARK SMILES IDX 16 1 15 2 13 3 14 4 2 5 1 6 81 7 82 8 86 9 83 10 85 11 84 12
REMARK SMILES IDX 3 13 4 15 5 16 12 17 6 18 11 19 7 20 8 21 9 22 10 23 17 26
REMARK SMILES IDX 18 27 19 28 20 29 21 30 22 31 80 32 23 33 79 34 24 35 25 36
REMARK SMILES IDX 26 37 73 38 27 39 78 40 72 41 74 42 28 43 77 44 71 45 70 46
REMARK SMILES IDX 29 48 59 49 40 50 58 51 41 52 44 53 57 54 75 55 42 56 43 57
REMARK SMILES IDX 56 59 76 60 45 61 30 62 31 63 39 64 32 65 38 66 33 67 34 68
REMARK SMILES IDX 35 69 36 70 37 71 60 72 61 73 69 74 62 75 68 76 63 77 64 78
REMARK SMILES IDX 65 79 66 80 67 81 46 82 47 83 55 84 48 85 54 86 49 87 50 88
REMARK SMILES IDX 51 89 52 90 53 91
REMARK H PARENT 3 14 9 24 9 25 74 47 44 58
REMARK Flexibility Score: inf
ROOT
ATOM      1  C   UNL A   1      36.041  21.809  24.724  1.00  0.00     0.274 C 
ENDROOT
BRANCH   1   2
ATOM      2  O   UNL A   1      34.946  22.303  25.520  1.00  0.00    -0.460 OA
BRANCH   2   3
ATOM      3  C   UNL A   1      33.913  22.909  24.856  1.00  0.00     0.336 C 
ATOM      4  O   UNL A   1      34.038  23.491  23.784  1.00  0.00    -0.249 OA
BRANCH   3   5
ATOM      5  C   UNL A   1      32.575  22.842  25.681  1.00  0.00     0.160 C 
ATOM      6  C   UNL A   1      33.053  22.745  27.145  1.00  0.00     0.053 C 
BRANCH   5   7
ATOM      7  C   UNL A   1      31.736  24.116  25.418  1.00  0.00    -0.012 A 
ATOM      8  C   UNL A   1      30.874  24.227  24.309  1.00  0.00     0.007 A 
ATOM      9  C   UNL A   1      31.765  25.206  26.316  1.00  0.00     0.007 A 
ATOM     10  C   UNL A   1      30.105  25.376  24.093  1.00  0.00     0.000 A 
ATOM     11  C   UNL A   1      30.995  26.354  26.099  1.00  0.00     0.000 A 
ATOM     12  C   UNL A   1      30.169  26.441  24.985  1.00  0.00     0.000 A 
ENDBRANCH   5   7
BRANCH   5  13
ATOM     13  N   UNL A   1      31.782  21.664  25.240  1.00  0.00    -0.350 N 
ATOM     14  H   UNL A   1      30.807  21.791  25.245  1.00  0.00     0.163 HD
BRANCH  13  15
ATOM     15  C   UNL A   1      32.204  20.432  24.830  1.00  0.00     0.149 A 
ATOM     16  C   UNL A   1      32.333  20.046  23.505  1.00  0.00     0.051 A 
ATOM     17  N   UNL A   1      32.548  19.568  25.811  1.00  0.00    -0.132 NA
ATOM     18  C   UNL A   1      32.747  18.751  23.194  1.00  0.00     0.040 A 
ATOM     19  N   UNL A   1      32.972  18.294  25.527  1.00  0.00    -0.143 NA
ATOM     20  C   UNL A   1      33.055  17.903  24.238  1.00  0.00     0.150 A 
BRANCH  20  21
ATOM     21  C   UNL A   1      33.510  16.507  23.994  1.00  0.00     0.269 C 
ATOM     22  N   UNL A   1      33.347  15.634  25.037  1.00  0.00    -0.364 N 
ATOM     23  O   UNL A   1      34.002  16.152  22.930  1.00  0.00    -0.268 OA
ATOM     24  H   UNL A   1      32.948  15.945  25.882  1.00  0.00     0.160 HD
ATOM     25  H   UNL A   1      33.628  14.695  24.943  1.00  0.00     0.160 HD
ENDBRANCH  20  21
ENDBRANCH  13  15
ENDBRANCH   5  13
ENDBRANCH   3   5
ENDBRANCH   2   3
ENDBRANCH   1   2
BRANCH   1  26
ATOM     26  C   UNL A   1      37.054  22.915  24.440  1.00  0.00     0.275 C 
BRANCH  26  27
ATOM     27  O   UNL A   1      37.449  23.559  25.662  1.00  0.00    -0.458 OA
BRANCH  27  28
ATOM     28  C   UNL A   1      38.612  23.117  26.193  1.00  0.00     0.338 C 
ATOM     29  O   UNL A   1      39.084  21.995  26.123  1.00  0.00    -0.246 OA
BRANCH  28  30
ATOM     30  C   UNL A   1      39.303  24.244  26.826  1.00  0.00     0.060 A 
ATOM     31  C   UNL A   1      39.075  24.485  28.179  1.00  0.00     0.016 A 
ATOM     32  C   UNL A   1      40.063  25.130  26.065  1.00  0.00     0.016 A 
ATOM     33  C   UNL A   1      39.530  25.662  28.761  1.00  0.00     0.010 A 
ATOM     34  C   UNL A   1      40.584  26.276  26.674  1.00  0.00     0.010 A 
ATOM     35  C   UNL A   1      40.292  26.572  28.019  1.00  0.00    -0.014 A 
BRANCH  35  36
ATOM     36  C   UNL A   1      40.731  27.855  28.624  1.00  0.00     0.031 A 
ATOM     37  C   UNL A   1      42.152  28.015  29.089  1.00  0.00     0.074 A 
ATOM     38  C   UNL A   1      39.874  28.885  28.754  1.00  0.00     0.049 A 
ATOM     39  N   UNL A   1      42.669  28.939  29.858  1.00  0.00    -0.248 NA
ATOM     40  C   UNL A   1      43.113  26.994  28.643  1.00  0.00     0.031 C 
ATOM     41  C   UNL A   1      38.488  28.905  28.281  1.00  0.00     0.029 A 
ATOM     42  N   UNL A   1      40.047  30.120  29.327  1.00  0.00    -0.354 N 
ATOM     43  C   UNL A   1      43.991  28.564  30.059  1.00  0.00     0.074 A 
ATOM     44  C   UNL A   1      44.206  27.347  29.303  1.00  0.00     0.031 C 
ATOM     45  C   UNL A   1      37.947  30.101  28.557  1.00  0.00     0.029 A 
ATOM     46  C   UNL A   1      38.915  30.897  29.305  1.00  0.00     0.049 A 
ATOM     47  H   UNL A   1      40.900  30.420  29.717  1.00  0.00     0.167 HD
ATOM     48  C   UNL A   1      44.931  29.166  30.826  1.00  0.00     0.031 A 
ATOM     49  C   UNL A   1      38.656  32.093  29.867  1.00  0.00     0.031 A 
ATOM     50  C   UNL A   1      44.725  30.401  31.533  1.00  0.00     0.049 A 
ATOM     51  C   UNL A   1      39.708  32.754  30.706  1.00  0.00     0.074 A 
ATOM     52  C   UNL A   1      45.608  31.087  32.350  1.00  0.00     0.029 A 
ATOM     53  N   UNL A   1      43.560  31.150  31.486  1.00  0.00    -0.354 N 
ATOM     54  N   UNL A   1      40.919  32.334  30.982  1.00  0.00    -0.248 NA
ATOM     55  C   UNL A   1      39.351  34.034  31.333  1.00  0.00     0.031 C 
ATOM     56  C   UNL A   1      44.968  32.244  32.811  1.00  0.00     0.029 A 
ATOM     57  C   UNL A   1      43.697  32.291  32.258  1.00  0.00     0.049 A 
ATOM     58  H   UNL A   1      42.752  30.906  30.978  1.00  0.00     0.167 HD
ATOM     59  C   UNL A   1      41.465  33.290  31.828  1.00  0.00     0.074 A 
ATOM     60  C   UNL A   1      40.463  34.323  31.998  1.00  0.00     0.031 C 
ATOM     61  C   UNL A   1      42.684  33.302  32.422  1.00  0.00     0.031 A 
BRANCH  48  62
ATOM     62  C   UNL A   1      46.239  28.446  30.993  1.00  0.00    -0.014 A 
ATOM     63  C   UNL A   1      47.323  28.671  30.128  1.00  0.00     0.010 A 
ATOM     64  C   UNL A   1      46.374  27.513  32.039  1.00  0.00     0.010 A 
ATOM     65  C   UNL A   1      48.505  27.938  30.275  1.00  0.00     0.020 A 
ATOM     66  C   UNL A   1      47.560  26.792  32.200  1.00  0.00     0.020 A 
ATOM     67  C   UNL A   1      48.609  26.993  31.302  1.00  0.00     0.054 A 
BRANCH  67  68
ATOM     68  S   UNL A   1      50.142  26.037  31.474  1.00  0.00     0.124 S 
ATOM     69  O   UNL A   1      50.055  25.127  30.333  1.00  0.00    -0.237 OA
ATOM     70  O   UNL A   1      51.180  27.060  31.382  1.00  0.00    -0.237 OA
ATOM     71  O   UNL A   1      50.007  25.408  32.786  1.00  0.00    -0.744 OA
ENDBRANCH  67  68
ENDBRANCH  48  62
BRANCH  49  72
ATOM     72  C   UNL A   1      37.307  32.690  29.693  1.00  0.00    -0.014 A 
ATOM     73  C   UNL A   1      36.295  32.441  30.632  1.00  0.00     0.010 A 
ATOM     74  C   UNL A   1      37.070  33.600  28.646  1.00  0.00     0.010 A 
ATOM     75  C   UNL A   1      35.074  33.117  30.546  1.00  0.00     0.020 A 
ATOM     76  C   UNL A   1      35.858  34.291  28.568  1.00  0.00     0.020 A 
ATOM     77  C   UNL A   1      34.869  34.047  29.522  1.00  0.00     0.054 A 
BRANCH  77  78
ATOM     78  S   UNL A   1      33.340  35.027  29.505  1.00  0.00     0.124 S 
ATOM     79  O   UNL A   1      32.524  34.298  28.541  1.00  0.00    -0.237 OA
ATOM     80  O   UNL A   1      32.893  34.956  30.894  1.00  0.00    -0.237 OA
ATOM     81  O   UNL A   1      33.795  36.348  29.076  1.00  0.00    -0.744 OA
ENDBRANCH  77  78
ENDBRANCH  49  72
BRANCH  61  82
ATOM     82  C   UNL A   1      43.002  34.470  33.308  1.00  0.00    -0.014 A 
ATOM     83  C   UNL A   1      42.671  34.442  34.674  1.00  0.00     0.010 A 
ATOM     84  C   UNL A   1      43.686  35.580  32.784  1.00  0.00     0.010 A 
ATOM     85  C   UNL A   1      43.006  35.517  35.501  1.00  0.00     0.020 A 
ATOM     86  C   UNL A   1      44.034  36.651  33.612  1.00  0.00     0.020 A 
ATOM     87  C   UNL A   1      43.681  36.617  34.964  1.00  0.00     0.054 A 
BRANCH  87  88
ATOM     88  S   UNL A   1      44.151  37.983  36.061  1.00  0.00     0.124 S 
ATOM     89  O   UNL A   1      43.346  37.709  37.248  1.00  0.00    -0.237 OA
ATOM     90  O   UNL A   1      45.591  37.792  36.221  1.00  0.00    -0.237 OA
ATOM     91  O   UNL A   1      43.769  39.175  35.308  1.00  0.00    -0.744 OA
ENDBRANCH  87  88
ENDBRANCH  61  82
ENDBRANCH  35  36
ENDBRANCH  28  30
ENDBRANCH  27  28
ENDBRANCH  26  27
ENDBRANCH   1  26
TORSDOF 18
ENDMDL
