MODEL 1
REMARK VINA RESULT:     -11.5      0.000      0.000
REMARK SMILES Cc1[nH]cnc1C[NH+]1CCC(Oc2cccc(F)c2)(C(=O)OCCOC(=O)c2ccc(-c3c4nc(c(-c5ccc(S(=O)(=O)[O-])cc5)c5ccc([nH]5)c(-c5ccc(S(=O)(=O)[O-])cc5)c5nc(c(-c6ccc(S(=O)(=O)[O-])cc6)c6ccc3[nH]6)C=C5)C=C4)cc2)CC1
REMARK SMILES IDX 24 1 23 2 22 3 20 4 21 5 11 6 8 7 9 8 89 9 10 11 88 12 7 13
REMARK SMILES IDX 6 14 1 15 2 16 3 17 4 18 5 20 12 21 13 22 14 23 19 24 15 25
REMARK SMILES IDX 17 26 16 27 18 28 25 29 26 30 27 31 28 32 29 33 87 34 30 35
REMARK SMILES IDX 86 36 31 37 32 38 33 39 80 40 34 41 85 42 79 43 81 44 35 45
REMARK SMILES IDX 84 46 78 47 77 48 36 50 66 51 47 52 65 53 48 54 51 55 64 56
REMARK SMILES IDX 82 57 49 58 50 59 63 61 83 62 52 63 37 64 38 65 46 66 39 67
REMARK SMILES IDX 45 68 40 69 41 70 42 71 43 72 44 73 67 74 68 75 76 76 69 77
REMARK SMILES IDX 75 78 70 79 71 80 72 81 73 82 74 83 53 84 54 85 62 86 55 87
REMARK SMILES IDX 61 88 56 89 57 90 58 91 59 92 60 93
REMARK H PARENT 8 10 3 19 81 49 51 60
REMARK Flexibility Score: inf
ROOT
ATOM      1  C   UNL A   1      33.488  28.903  26.267  1.00  0.00     0.275 C 
ENDROOT
BRANCH   1   2
ATOM      2  C   UNL A   1      32.537  29.547  25.266  1.00  0.00     0.274 C 
BRANCH   2   3
ATOM      3  O   UNL A   1      31.712  28.559  24.613  1.00  0.00    -0.459 OA
BRANCH   3   4
ATOM      4  C   UNL A   1      31.967  28.372  23.286  1.00  0.00     0.351 C 
ATOM      5  O   UNL A   1      32.894  28.918  22.690  1.00  0.00    -0.247 OA
BRANCH   4   6
ATOM      6  C   UNL A   1      30.902  27.524  22.571  1.00  0.00     0.216 C 
ATOM      7  N   UNL A   1      30.708  24.727  23.342  1.00  0.00    -0.330 N 
ATOM      8  C   UNL A   1      30.203  25.736  24.270  1.00  0.00     0.267 C 
ATOM      9  C   UNL A   1      31.936  25.193  22.702  1.00  0.00     0.267 C 
ATOM     10  H   UNL A   1      29.992  24.609  22.627  1.00  0.00     0.348 HD
ATOM     11  C   UNL A   1      29.788  26.977  23.482  1.00  0.00     0.122 C 
ATOM     12  C   UNL A   1      31.607  26.382  21.801  1.00  0.00     0.122 C 
BRANCH   7  13
ATOM     13  C   UNL A   1      30.864  23.382  23.932  1.00  0.00     0.321 C 
BRANCH  13  14
ATOM     14  C   UNL A   1      31.628  23.337  25.221  1.00  0.00     0.115 A 
ATOM     15  C   UNL A   1      29.796  22.990  27.069  1.00  0.00     0.066 C 
ATOM     16  C   UNL A   1      31.154  23.165  26.512  1.00  0.00     0.040 A 
ATOM     17  N   UNL A   1      32.274  23.156  27.303  1.00  0.00    -0.348 N 
ATOM     18  C   UNL A   1      33.358  23.266  26.487  1.00  0.00     0.197 A 
ATOM     19  H   UNL A   1      32.290  23.083  28.285  1.00  0.00     0.167 HD
ATOM     20  N   UNL A   1      33.006  23.401  25.230  1.00  0.00    -0.236 NA
ENDBRANCH  13  14
ENDBRANCH   7  13
BRANCH   6  21
ATOM     21  O   UNL A   1      30.326  28.603  21.764  1.00  0.00    -0.475 OA
BRANCH  21  22
ATOM     22  C   UNL A   1      29.386  29.384  22.362  1.00  0.00     0.123 A 
ATOM     23  C   UNL A   1      28.132  28.847  22.650  1.00  0.00     0.047 A 
ATOM     24  C   UNL A   1      29.719  30.673  22.769  1.00  0.00     0.085 A 
ATOM     25  C   UNL A   1      27.176  29.627  23.299  1.00  0.00     0.007 A 
ATOM     26  C   UNL A   1      28.758  31.441  23.415  1.00  0.00     0.126 A 
ATOM     27  C   UNL A   1      27.489  30.933  23.677  1.00  0.00     0.039 A 
ATOM     28  F   UNL A   1      29.056  32.689  23.800  1.00  0.00    -0.207 F 
ENDBRANCH  21  22
ENDBRANCH   6  21
ENDBRANCH   4   6
ENDBRANCH   3   4
ENDBRANCH   2   3
ENDBRANCH   1   2
BRANCH   1  29
ATOM     29  O   UNL A   1      33.338  29.533  27.548  1.00  0.00    -0.458 OA
BRANCH  29  30
ATOM     30  C   UNL A   1      34.203  30.537  27.811  1.00  0.00     0.338 C 
ATOM     31  O   UNL A   1      33.953  31.736  27.773  1.00  0.00    -0.246 OA
BRANCH  30  32
ATOM     32  C   UNL A   1      35.540  30.002  28.142  1.00  0.00     0.060 A 
ATOM     33  C   UNL A   1      35.868  29.574  29.432  1.00  0.00     0.016 A 
ATOM     34  C   UNL A   1      36.529  30.052  27.158  1.00  0.00     0.016 A 
ATOM     35  C   UNL A   1      37.200  29.334  29.771  1.00  0.00     0.010 A 
ATOM     36  C   UNL A   1      37.850  29.742  27.478  1.00  0.00     0.010 A 
ATOM     37  C   UNL A   1      38.203  29.416  28.796  1.00  0.00    -0.014 A 
BRANCH  37  38
ATOM     38  C   UNL A   1      39.617  29.099  29.111  1.00  0.00     0.031 A 
ATOM     39  C   UNL A   1      40.559  30.164  29.603  1.00  0.00     0.074 A 
ATOM     40  C   UNL A   1      40.067  27.853  28.877  1.00  0.00     0.049 A 
ATOM     41  N   UNL A   1      41.865  30.131  29.687  1.00  0.00    -0.248 NA
ATOM     42  C   UNL A   1      39.960  31.429  30.052  1.00  0.00     0.031 C 
ATOM     43  C   UNL A   1      39.241  26.726  28.438  1.00  0.00     0.029 A 
ATOM     44  N   UNL A   1      41.333  27.333  28.945  1.00  0.00    -0.354 N 
ATOM     45  C   UNL A   1      42.249  31.376  30.172  1.00  0.00     0.074 A 
ATOM     46  C   UNL A   1      41.036  32.145  30.362  1.00  0.00     0.031 C 
ATOM     47  C   UNL A   1      40.023  25.651  28.266  1.00  0.00     0.029 A 
ATOM     48  C   UNL A   1      41.409  26.036  28.503  1.00  0.00     0.049 A 
ATOM     49  H   UNL A   1      42.110  27.839  29.278  1.00  0.00     0.167 HD
ATOM     50  C   UNL A   1      43.499  31.831  30.429  1.00  0.00     0.031 A 
ATOM     51  C   UNL A   1      42.474  25.255  28.247  1.00  0.00     0.031 A 
ATOM     52  C   UNL A   1      44.696  31.050  30.247  1.00  0.00     0.049 A 
ATOM     53  C   UNL A   1      43.850  25.804  28.455  1.00  0.00     0.074 A 
ATOM     54  C   UNL A   1      46.010  31.409  30.502  1.00  0.00     0.029 A 
ATOM     55  N   UNL A   1      44.726  29.749  29.765  1.00  0.00    -0.354 N 
ATOM     56  N   UNL A   1      44.201  26.997  28.872  1.00  0.00    -0.248 NA
ATOM     57  C   UNL A   1      44.973  24.911  28.145  1.00  0.00     0.031 C 
ATOM     58  C   UNL A   1      46.836  30.340  30.134  1.00  0.00     0.029 A 
ATOM     59  C   UNL A   1      46.035  29.300  29.690  1.00  0.00     0.049 A 
ATOM     60  H   UNL A   1      43.934  29.221  29.514  1.00  0.00     0.167 HD
ATOM     61  C   UNL A   1      45.589  26.998  28.881  1.00  0.00     0.074 A 
ATOM     62  C   UNL A   1      46.011  25.683  28.438  1.00  0.00     0.031 C 
ATOM     63  C   UNL A   1      46.436  27.997  29.225  1.00  0.00     0.031 A 
BRANCH  50  64
ATOM     64  C   UNL A   1      43.653  33.253  30.905  1.00  0.00    -0.014 A 
ATOM     65  C   UNL A   1      43.627  33.571  32.274  1.00  0.00     0.010 A 
ATOM     66  C   UNL A   1      43.914  34.271  29.971  1.00  0.00     0.010 A 
ATOM     67  C   UNL A   1      43.838  34.888  32.698  1.00  0.00     0.020 A 
ATOM     68  C   UNL A   1      44.142  35.586  30.390  1.00  0.00     0.020 A 
ATOM     69  C   UNL A   1      44.092  35.888  31.752  1.00  0.00     0.054 A 
BRANCH  69  70
ATOM     70  S   UNL A   1      44.405  37.582  32.326  1.00  0.00     0.124 S 
ATOM     71  O   UNL A   1      45.862  37.599  32.436  1.00  0.00    -0.237 OA
ATOM     72  O   UNL A   1      43.848  38.399  31.249  1.00  0.00    -0.237 OA
ATOM     73  O   UNL A   1      43.685  37.658  33.595  1.00  0.00    -0.744 OA
ENDBRANCH  69  70
ENDBRANCH  50  64
BRANCH  51  74
ATOM     74  C   UNL A   1      42.247  23.896  27.694  1.00  0.00    -0.014 A 
ATOM     75  C   UNL A   1      42.422  23.644  26.325  1.00  0.00     0.010 A 
ATOM     76  C   UNL A   1      41.959  22.825  28.562  1.00  0.00     0.010 A 
ATOM     77  C   UNL A   1      42.332  22.339  25.833  1.00  0.00     0.020 A 
ATOM     78  C   UNL A   1      41.892  21.517  28.078  1.00  0.00     0.020 A 
ATOM     79  C   UNL A   1      42.077  21.283  26.714  1.00  0.00     0.054 A 
BRANCH  79  80
ATOM     80  S   UNL A   1      42.086  19.582  26.083  1.00  0.00     0.124 S 
ATOM     81  O   UNL A   1      42.541  18.830  27.247  1.00  0.00    -0.237 OA
ATOM     82  O   UNL A   1      40.693  19.372  25.699  1.00  0.00    -0.237 OA
ATOM     83  O   UNL A   1      43.027  19.641  24.965  1.00  0.00    -0.744 OA
ENDBRANCH  79  80
ENDBRANCH  51  74
BRANCH  63  84
ATOM     84  C   UNL A   1      47.904  27.694  29.145  1.00  0.00    -0.014 A 
ATOM     85  C   UNL A   1      48.587  27.146  30.245  1.00  0.00     0.010 A 
ATOM     86  C   UNL A   1      48.605  27.947  27.953  1.00  0.00     0.010 A 
ATOM     87  C   UNL A   1      49.957  26.888  30.165  1.00  0.00     0.020 A 
ATOM     88  C   UNL A   1      49.972  27.674  27.865  1.00  0.00     0.020 A 
ATOM     89  C   UNL A   1      50.643  27.162  28.977  1.00  0.00     0.054 A 
BRANCH  89  90
ATOM     90  S   UNL A   1      52.419  26.806  28.887  1.00  0.00     0.124 S 
ATOM     91  O   UNL A   1      52.497  25.953  27.704  1.00  0.00    -0.237 OA
ATOM     92  O   UNL A   1      53.010  28.135  28.743  1.00  0.00    -0.237 OA
ATOM     93  O   UNL A   1      52.702  26.142  30.157  1.00  0.00    -0.744 OA
ENDBRANCH  89  90
ENDBRANCH  63  84
ENDBRANCH  37  38
ENDBRANCH  30  32
ENDBRANCH  29  30
ENDBRANCH   1  29
TORSDOF 18
ENDMDL
MODEL 2
REMARK VINA RESULT:     -11.5      3.438      9.443
REMARK SMILES Cc1[nH]cnc1C[NH+]1CCC(Oc2cccc(F)c2)(C(=O)OCCOC(=O)c2ccc(-c3c4nc(c(-c5ccc(S(=O)(=O)[O-])cc5)c5ccc([nH]5)c(-c5ccc(S(=O)(=O)[O-])cc5)c5nc(c(-c6ccc(S(=O)(=O)[O-])cc6)c6ccc3[nH]6)C=C5)C=C4)cc2)CC1
REMARK SMILES IDX 24 1 23 2 22 3 20 4 21 5 11 6 8 7 9 8 89 9 10 11 88 12 7 13
REMARK SMILES IDX 6 14 1 15 2 16 3 17 4 18 5 20 12 21 13 22 14 23 19 24 15 25
REMARK SMILES IDX 17 26 16 27 18 28 25 29 26 30 27 31 28 32 29 33 87 34 30 35
REMARK SMILES IDX 86 36 31 37 32 38 33 39 80 40 34 41 85 42 79 43 81 44 35 45
REMARK SMILES IDX 84 46 78 47 77 48 36 50 66 51 47 52 65 53 48 54 51 55 64 56
REMARK SMILES IDX 82 57 49 58 50 59 63 61 83 62 52 63 37 64 38 65 46 66 39 67
REMARK SMILES IDX 45 68 40 69 41 70 42 71 43 72 44 73 67 74 68 75 76 76 69 77
REMARK SMILES IDX 75 78 70 79 71 80 72 81 73 82 74 83 53 84 54 85 62 86 55 87
REMARK SMILES IDX 61 88 56 89 57 90 58 91 59 92 60 93
REMARK H PARENT 8 10 3 19 81 49 51 60
REMARK Flexibility Score: inf
ROOT
ATOM      1  C   UNL A   1      36.883  23.718  25.143  1.00  0.00     0.275 C 
ENDROOT
BRANCH   1   2
ATOM      2  C   UNL A   1      35.397  23.740  25.484  1.00  0.00     0.274 C 
BRANCH   2   3
ATOM      3  O   UNL A   1      34.887  25.089  25.532  1.00  0.00    -0.459 OA
BRANCH   3   4
ATOM      4  C   UNL A   1      33.543  25.211  25.332  1.00  0.00     0.351 C 
ATOM      5  O   UNL A   1      32.816  24.270  25.022  1.00  0.00    -0.247 OA
BRANCH   4   6
ATOM      6  C   UNL A   1      33.045  26.665  25.392  1.00  0.00     0.216 C 
ATOM      7  N   UNL A   1      30.943  27.415  23.530  1.00  0.00    -0.330 N 
ATOM      8  C   UNL A   1      30.587  26.572  24.669  1.00  0.00     0.267 C 
ATOM      9  C   UNL A   1      32.245  27.026  22.995  1.00  0.00     0.267 C 
ATOM     10  H   UNL A   1      31.006  28.368  23.885  1.00  0.00     0.348 HD
ATOM     11  C   UNL A   1      31.572  26.830  25.808  1.00  0.00     0.122 C 
ATOM     12  C   UNL A   1      33.322  27.344  24.030  1.00  0.00     0.122 C 
BRANCH   7  13
ATOM     13  C   UNL A   1      29.907  27.484  22.479  1.00  0.00     0.321 C 
BRANCH  13  14
ATOM     14  C   UNL A   1      29.254  28.824  22.316  1.00  0.00     0.115 A 
ATOM     15  C   UNL A   1      26.889  28.551  23.423  1.00  0.00     0.066 C 
ATOM     16  C   UNL A   1      27.996  29.238  22.727  1.00  0.00     0.040 A 
ATOM     17  N   UNL A   1      27.925  30.560  22.370  1.00  0.00    -0.348 N 
ATOM     18  C   UNL A   1      29.121  30.906  21.819  1.00  0.00     0.197 A 
ATOM     19  H   UNL A   1      27.147  31.152  22.489  1.00  0.00     0.167 HD
ATOM     20  N   UNL A   1      29.936  29.880  21.749  1.00  0.00    -0.236 NA
ENDBRANCH  13  14
ENDBRANCH   7  13
BRANCH   6  21
ATOM     21  O   UNL A   1      33.876  27.092  26.521  1.00  0.00    -0.475 OA
BRANCH  21  22
ATOM     22  C   UNL A   1      33.792  28.399  26.888  1.00  0.00     0.123 A 
ATOM     23  C   UNL A   1      34.945  29.074  27.285  1.00  0.00     0.047 A 
ATOM     24  C   UNL A   1      32.580  29.072  26.763  1.00  0.00     0.085 A 
ATOM     25  C   UNL A   1      34.876  30.425  27.624  1.00  0.00     0.007 A 
ATOM     26  C   UNL A   1      32.524  30.419  27.103  1.00  0.00     0.126 A 
ATOM     27  C   UNL A   1      33.658  31.098  27.538  1.00  0.00     0.039 A 
ATOM     28  F   UNL A   1      31.363  31.079  27.005  1.00  0.00    -0.207 F 
ENDBRANCH  21  22
ENDBRANCH   6  21
ENDBRANCH   4   6
ENDBRANCH   3   4
ENDBRANCH   2   3
ENDBRANCH   1   2
BRANCH   1  29
ATOM     29  O   UNL A   1      37.567  22.824  26.032  1.00  0.00    -0.458 OA
BRANCH  29  30
ATOM     30  C   UNL A   1      38.904  22.999  26.123  1.00  0.00     0.338 C 
ATOM     31  O   UNL A   1      39.765  22.209  25.751  1.00  0.00    -0.246 OA
BRANCH  30  32
ATOM     32  C   UNL A   1      39.220  24.292  26.766  1.00  0.00     0.060 A 
ATOM     33  C   UNL A   1      40.053  25.236  26.159  1.00  0.00     0.016 A 
ATOM     34  C   UNL A   1      38.767  24.504  28.069  1.00  0.00     0.016 A 
ATOM     35  C   UNL A   1      40.543  26.312  26.900  1.00  0.00     0.010 A 
ATOM     36  C   UNL A   1      39.200  25.619  28.787  1.00  0.00     0.010 A 
ATOM     37  C   UNL A   1      40.121  26.513  28.221  1.00  0.00    -0.014 A 
BRANCH  37  38
ATOM     38  C   UNL A   1      40.572  27.686  29.008  1.00  0.00     0.031 A 
ATOM     39  C   UNL A   1      41.840  27.637  29.815  1.00  0.00     0.074 A 
ATOM     40  C   UNL A   1      39.785  28.777  29.049  1.00  0.00     0.049 A 
ATOM     41  N   UNL A   1      42.254  28.458  30.747  1.00  0.00    -0.248 NA
ATOM     42  C   UNL A   1      42.758  26.520  29.548  1.00  0.00     0.031 C 
ATOM     43  C   UNL A   1      38.552  28.959  28.279  1.00  0.00     0.029 A 
ATOM     44  N   UNL A   1      39.887  29.924  29.792  1.00  0.00    -0.354 N 
ATOM     45  C   UNL A   1      43.466  27.946  31.197  1.00  0.00     0.074 A 
ATOM     46  C   UNL A   1      43.720  26.740  30.438  1.00  0.00     0.031 C 
ATOM     47  C   UNL A   1      38.008  30.141  28.597  1.00  0.00     0.029 A 
ATOM     48  C   UNL A   1      38.807  30.759  29.648  1.00  0.00     0.049 A 
ATOM     49  H   UNL A   1      40.658  30.129  30.371  1.00  0.00     0.167 HD
ATOM     50  C   UNL A   1      44.283  28.440  32.159  1.00  0.00     0.031 A 
ATOM     51  C   UNL A   1      38.453  31.864  30.329  1.00  0.00     0.031 A 
ATOM     52  C   UNL A   1      44.022  29.650  32.898  1.00  0.00     0.049 A 
ATOM     53  C   UNL A   1      39.325  32.346  31.445  1.00  0.00     0.074 A 
ATOM     54  C   UNL A   1      44.799  30.249  33.876  1.00  0.00     0.029 A 
ATOM     55  N   UNL A   1      42.897  30.446  32.740  1.00  0.00    -0.354 N 
ATOM     56  N   UNL A   1      40.445  31.829  31.890  1.00  0.00    -0.248 NA
ATOM     57  C   UNL A   1      38.881  33.548  32.160  1.00  0.00     0.031 C 
ATOM     58  C   UNL A   1      44.123  31.385  34.338  1.00  0.00     0.029 A 
ATOM     59  C   UNL A   1      42.945  31.516  33.619  1.00  0.00     0.049 A 
ATOM     60  H   UNL A   1      42.171  30.277  32.098  1.00  0.00     0.167 HD
ATOM     61  C   UNL A   1      40.846  32.648  32.937  1.00  0.00     0.074 A 
ATOM     62  C   UNL A   1      39.853  33.699  33.050  1.00  0.00     0.031 C 
ATOM     63  C   UNL A   1      41.937  32.538  33.732  1.00  0.00     0.031 A 
BRANCH  50  64
ATOM     64  C   UNL A   1      45.527  27.662  32.501  1.00  0.00    -0.014 A 
ATOM     65  C   UNL A   1      46.746  27.909  31.846  1.00  0.00     0.010 A 
ATOM     66  C   UNL A   1      45.493  26.729  33.553  1.00  0.00     0.010 A 
ATOM     67  C   UNL A   1      47.905  27.221  32.226  1.00  0.00     0.020 A 
ATOM     68  C   UNL A   1      46.651  26.052  33.947  1.00  0.00     0.020 A 
ATOM     69  C   UNL A   1      47.850  26.294  33.272  1.00  0.00     0.054 A 
BRANCH  69  70
ATOM     70  S   UNL A   1      49.373  25.445  33.776  1.00  0.00     0.124 S 
ATOM     71  O   UNL A   1      50.363  26.047  32.886  1.00  0.00    -0.237 OA
ATOM     72  O   UNL A   1      49.496  25.807  35.187  1.00  0.00    -0.237 OA
ATOM     73  O   UNL A   1      49.084  24.035  33.523  1.00  0.00    -0.744 OA
ENDBRANCH  69  70
ENDBRANCH  50  64
BRANCH  51  74
ATOM     74  C   UNL A   1      37.167  32.527  29.995  1.00  0.00    -0.014 A 
ATOM     75  C   UNL A   1      36.020  32.288  30.767  1.00  0.00     0.010 A 
ATOM     76  C   UNL A   1      37.119  33.486  28.965  1.00  0.00     0.010 A 
ATOM     77  C   UNL A   1      34.848  33.010  30.527  1.00  0.00     0.020 A 
ATOM     78  C   UNL A   1      35.958  34.227  28.738  1.00  0.00     0.020 A 
ATOM     79  C   UNL A   1      34.827  33.982  29.520  1.00  0.00     0.054 A 
BRANCH  79  80
ATOM     80  S   UNL A   1      33.341  34.999  29.303  1.00  0.00     0.124 S 
ATOM     81  O   UNL A   1      33.905  36.269  28.858  1.00  0.00    -0.237 OA
ATOM     82  O   UNL A   1      32.585  34.256  28.298  1.00  0.00    -0.237 OA
ATOM     83  O   UNL A   1      32.740  35.010  30.636  1.00  0.00    -0.744 OA
ENDBRANCH  79  80
ENDBRANCH  51  74
BRANCH  63  84
ATOM     84  C   UNL A   1      42.113  33.594  34.785  1.00  0.00    -0.014 A 
ATOM     85  C   UNL A   1      42.710  34.828  34.473  1.00  0.00     0.010 A 
ATOM     86  C   UNL A   1      41.664  33.355  36.095  1.00  0.00     0.010 A 
ATOM     87  C   UNL A   1      42.887  35.795  35.466  1.00  0.00     0.020 A 
ATOM     88  C   UNL A   1      41.824  34.326  37.086  1.00  0.00     0.020 A 
ATOM     89  C   UNL A   1      42.450  35.534  36.768  1.00  0.00     0.054 A 
BRANCH  89  90
ATOM     90  S   UNL A   1      42.675  36.806  38.041  1.00  0.00     0.124 S 
ATOM     91  O   UNL A   1      41.302  37.247  38.275  1.00  0.00    -0.237 OA
ATOM     92  O   UNL A   1      43.292  36.064  39.139  1.00  0.00    -0.237 OA
ATOM     93  O   UNL A   1      43.545  37.787  37.397  1.00  0.00    -0.744 OA
ENDBRANCH  89  90
ENDBRANCH  63  84
ENDBRANCH  37  38
ENDBRANCH  30  32
ENDBRANCH  29  30
ENDBRANCH   1  29
TORSDOF 18
ENDMDL
MODEL 3
REMARK VINA RESULT:     -11.4      4.407      9.847
REMARK SMILES Cc1[nH]cnc1C[NH+]1CCC(Oc2cccc(F)c2)(C(=O)OCCOC(=O)c2ccc(-c3c4nc(c(-c5ccc(S(=O)(=O)[O-])cc5)c5ccc([nH]5)c(-c5ccc(S(=O)(=O)[O-])cc5)c5nc(c(-c6ccc(S(=O)(=O)[O-])cc6)c6ccc3[nH]6)C=C5)C=C4)cc2)CC1
REMARK SMILES IDX 24 1 23 2 22 3 20 4 21 5 11 6 8 7 9 8 89 9 10 11 88 12 7 13
REMARK SMILES IDX 6 14 1 15 2 16 3 17 4 18 5 20 12 21 13 22 14 23 19 24 15 25
REMARK SMILES IDX 17 26 16 27 18 28 25 29 26 30 27 31 28 32 29 33 87 34 30 35
REMARK SMILES IDX 86 36 31 37 32 38 33 39 80 40 34 41 85 42 79 43 81 44 35 45
REMARK SMILES IDX 84 46 78 47 77 48 36 50 66 51 47 52 65 53 48 54 51 55 64 56
REMARK SMILES IDX 82 57 49 58 50 59 63 61 83 62 52 63 37 64 38 65 46 66 39 67
REMARK SMILES IDX 45 68 40 69 41 70 42 71 43 72 44 73 67 74 68 75 76 76 69 77
REMARK SMILES IDX 75 78 70 79 71 80 72 81 73 82 74 83 53 84 54 85 62 86 55 87
REMARK SMILES IDX 61 88 56 89 57 90 58 91 59 92 60 93
REMARK H PARENT 8 10 3 19 81 49 51 60
REMARK Flexibility Score: inf
ROOT
ATOM      1  C   UNL A   1      38.263  21.900  25.670  1.00  0.00     0.275 C 
ENDROOT
BRANCH   1   2
ATOM      2  C   UNL A   1      37.029  21.914  24.776  1.00  0.00     0.274 C 
BRANCH   2   3
ATOM      3  O   UNL A   1      36.156  23.017  25.100  1.00  0.00    -0.459 OA
BRANCH   3   4
ATOM      4  C   UNL A   1      35.117  23.211  24.237  1.00  0.00     0.351 C 
ATOM      5  O   UNL A   1      35.253  23.673  23.106  1.00  0.00    -0.247 OA
BRANCH   4   6
ATOM      6  C   UNL A   1      33.741  22.930  24.863  1.00  0.00     0.216 C 
ATOM      7  N   UNL A   1      32.451  20.427  24.142  1.00  0.00    -0.330 N 
ATOM      8  C   UNL A   1      33.589  20.378  25.058  1.00  0.00     0.267 C 
ATOM      9  C   UNL A   1      32.678  21.422  23.098  1.00  0.00     0.267 C 
ATOM     10  H   UNL A   1      31.646  20.714  24.698  1.00  0.00     0.348 HD
ATOM     11  C   UNL A   1      33.690  21.710  25.799  1.00  0.00     0.122 C 
ATOM     12  C   UNL A   1      32.692  22.812  23.731  1.00  0.00     0.122 C 
BRANCH   7  13
ATOM     13  C   UNL A   1      32.063  19.115  23.586  1.00  0.00     0.321 C 
BRANCH  13  14
ATOM     14  C   UNL A   1      32.585  17.926  24.336  1.00  0.00     0.115 A 
ATOM     15  C   UNL A   1      34.284  16.793  22.685  1.00  0.00     0.066 C 
ATOM     16  C   UNL A   1      33.516  16.980  23.934  1.00  0.00     0.040 A 
ATOM     17  N   UNL A   1      33.662  16.146  25.012  1.00  0.00    -0.348 N 
ATOM     18  C   UNL A   1      32.879  16.627  26.017  1.00  0.00     0.197 A 
ATOM     19  H   UNL A   1      34.229  15.343  25.052  1.00  0.00     0.167 HD
ATOM     20  N   UNL A   1      32.199  17.683  25.637  1.00  0.00    -0.236 NA
ENDBRANCH  13  14
ENDBRANCH   7  13
BRANCH   6  21
ATOM     21  O   UNL A   1      33.676  24.134  25.697  1.00  0.00    -0.475 OA
BRANCH  21  22
ATOM     22  C   UNL A   1      32.627  24.973  25.486  1.00  0.00     0.123 A 
ATOM     23  C   UNL A   1      31.419  24.738  26.141  1.00  0.00     0.047 A 
ATOM     24  C   UNL A   1      32.802  26.110  24.702  1.00  0.00     0.085 A 
ATOM     25  C   UNL A   1      30.350  25.616  25.962  1.00  0.00     0.007 A 
ATOM     26  C   UNL A   1      31.731  26.978  24.531  1.00  0.00     0.126 A 
ATOM     27  C   UNL A   1      30.506  26.738  25.148  1.00  0.00     0.039 A 
ATOM     28  F   UNL A   1      31.876  28.069  23.767  1.00  0.00    -0.207 F 
ENDBRANCH  21  22
ENDBRANCH   6  21
ENDBRANCH   4   6
ENDBRANCH   3   4
ENDBRANCH   2   3
ENDBRANCH   1   2
BRANCH   1  29
ATOM     29  O   UNL A   1      38.554  23.235  26.109  1.00  0.00    -0.458 OA
BRANCH  29  30
ATOM     30  C   UNL A   1      39.853  23.494  26.374  1.00  0.00     0.338 C 
ATOM     31  O   UNL A   1      40.807  22.780  26.084  1.00  0.00    -0.246 OA
BRANCH  30  32
ATOM     32  C   UNL A   1      39.995  24.774  27.100  1.00  0.00     0.060 A 
ATOM     33  C   UNL A   1      40.910  25.753  26.700  1.00  0.00     0.016 A 
ATOM     34  C   UNL A   1      39.279  24.938  28.287  1.00  0.00     0.016 A 
ATOM     35  C   UNL A   1      41.208  26.818  27.552  1.00  0.00     0.010 A 
ATOM     36  C   UNL A   1      39.525  26.040  29.104  1.00  0.00     0.010 A 
ATOM     37  C   UNL A   1      40.518  26.970  28.762  1.00  0.00    -0.014 A 
BRANCH  37  38
ATOM     38  C   UNL A   1      40.766  28.129  29.653  1.00  0.00     0.031 A 
ATOM     39  C   UNL A   1      41.888  28.111  30.654  1.00  0.00     0.074 A 
ATOM     40  C   UNL A   1      39.918  29.173  29.606  1.00  0.00     0.049 A 
ATOM     41  N   UNL A   1      42.098  28.911  31.669  1.00  0.00    -0.248 NA
ATOM     42  C   UNL A   1      42.903  27.058  30.500  1.00  0.00     0.031 C 
ATOM     43  C   UNL A   1      38.816  29.323  28.652  1.00  0.00     0.029 A 
ATOM     44  N   UNL A   1      39.831  30.289  30.396  1.00  0.00    -0.354 N 
ATOM     45  C   UNL A   1      43.251  28.445  32.292  1.00  0.00     0.074 A 
ATOM     46  C   UNL A   1      43.695  27.289  31.541  1.00  0.00     0.031 C 
ATOM     47  C   UNL A   1      38.157  30.459  28.920  1.00  0.00     0.029 A 
ATOM     48  C   UNL A   1      38.740  31.071  30.108  1.00  0.00     0.049 A 
ATOM     49  H   UNL A   1      40.485  30.509  31.099  1.00  0.00     0.167 HD
ATOM     50  C   UNL A   1      43.872  28.938  33.390  1.00  0.00     0.031 A 
ATOM     51  C   UNL A   1      38.215  32.124  30.761  1.00  0.00     0.031 A 
ATOM     52  C   UNL A   1      43.424  30.097  34.120  1.00  0.00     0.049 A 
ATOM     53  C   UNL A   1      38.867  32.601  32.021  1.00  0.00     0.074 A 
ATOM     54  C   UNL A   1      43.997  30.693  35.232  1.00  0.00     0.029 A 
ATOM     55  N   UNL A   1      42.293  30.839  33.810  1.00  0.00    -0.354 N 
ATOM     56  N   UNL A   1      39.930  32.126  32.623  1.00  0.00    -0.248 NA
ATOM     57  C   UNL A   1      38.242  33.744  32.696  1.00  0.00     0.031 C 
ATOM     58  C   UNL A   1      43.189  31.769  35.618  1.00  0.00     0.029 A 
ATOM     59  C   UNL A   1      42.136  31.869  34.723  1.00  0.00     0.049 A 
ATOM     60  H   UNL A   1      41.690  30.660  33.053  1.00  0.00     0.167 HD
ATOM     61  C   UNL A   1      40.108  32.916  33.750  1.00  0.00     0.074 A 
ATOM     62  C   UNL A   1      39.049  33.907  33.738  1.00  0.00     0.031 C 
ATOM     63  C   UNL A   1      41.062  32.830  34.707  1.00  0.00     0.031 A 
BRANCH  50  64
ATOM     64  C   UNL A   1      45.090  28.213  33.902  1.00  0.00    -0.014 A 
ATOM     65  C   UNL A   1      44.974  27.088  34.735  1.00  0.00     0.010 A 
ATOM     66  C   UNL A   1      46.368  28.616  33.472  1.00  0.00     0.010 A 
ATOM     67  C   UNL A   1      46.116  26.390  35.145  1.00  0.00     0.020 A 
ATOM     68  C   UNL A   1      47.510  27.912  33.864  1.00  0.00     0.020 A 
ATOM     69  C   UNL A   1      47.378  26.808  34.709  1.00  0.00     0.054 A 
BRANCH  69  70
ATOM     70  S   UNL A   1      48.842  25.863  35.218  1.00  0.00     0.124 S 
ATOM     71  O   UNL A   1      49.849  26.914  35.350  1.00  0.00    -0.237 OA
ATOM     72  O   UNL A   1      48.412  25.246  36.471  1.00  0.00    -0.237 OA
ATOM     73  O   UNL A   1      49.056  24.932  34.113  1.00  0.00    -0.744 OA
ENDBRANCH  69  70
ENDBRANCH  50  64
BRANCH  51  74
ATOM     74  C   UNL A   1      36.962  32.731  30.247  1.00  0.00    -0.014 A 
ATOM     75  C   UNL A   1      35.723  32.397  30.814  1.00  0.00     0.010 A 
ATOM     76  C   UNL A   1      37.022  33.731  29.258  1.00  0.00     0.010 A 
ATOM     77  C   UNL A   1      34.563  33.066  30.412  1.00  0.00     0.020 A 
ATOM     78  C   UNL A   1      35.870  34.418  28.871  1.00  0.00     0.020 A 
ATOM     79  C   UNL A   1      34.645  34.079  29.451  1.00  0.00     0.054 A 
BRANCH  79  80
ATOM     80  S   UNL A   1      33.154  35.023  29.031  1.00  0.00     0.124 S 
ATOM     81  O   UNL A   1      32.472  35.100  30.319  1.00  0.00    -0.237 OA
ATOM     82  O   UNL A   1      33.700  36.282  28.528  1.00  0.00    -0.237 OA
ATOM     83  O   UNL A   1      32.501  34.193  28.021  1.00  0.00    -0.744 OA
ENDBRANCH  79  80
ENDBRANCH  51  74
BRANCH  63  84
ATOM     84  C   UNL A   1      41.004  33.845  35.811  1.00  0.00    -0.014 A 
ATOM     85  C   UNL A   1      40.273  33.591  36.985  1.00  0.00     0.010 A 
ATOM     86  C   UNL A   1      41.698  35.060  35.679  1.00  0.00     0.010 A 
ATOM     87  C   UNL A   1      40.208  34.552  37.996  1.00  0.00     0.020 A 
ATOM     88  C   UNL A   1      41.649  36.016  36.696  1.00  0.00     0.020 A 
ATOM     89  C   UNL A   1      40.891  35.763  37.841  1.00  0.00     0.054 A 
BRANCH  89  90
ATOM     90  S   UNL A   1      40.809  36.994  39.171  1.00  0.00     0.124 S 
ATOM     91  O   UNL A   1      41.986  37.813  38.898  1.00  0.00    -0.237 OA
ATOM     92  O   UNL A   1      39.522  37.644  38.934  1.00  0.00    -0.237 OA
ATOM     93  O   UNL A   1      40.876  36.189  40.389  1.00  0.00    -0.744 OA
ENDBRANCH  89  90
ENDBRANCH  63  84
ENDBRANCH  37  38
ENDBRANCH  30  32
ENDBRANCH  29  30
ENDBRANCH   1  29
TORSDOF 18
ENDMDL
