MODEL 1
REMARK VINA RESULT:     -10.9      0.000      0.000
REMARK SMILES C[C@@H](C(=O)OCCOC(=O)c1ccc(-c2c3nc(c(-c4ccc(S(=O)(=O)[O-])cc4)c4ccc([nH]4)c(-c4ccc(S(=O)(=O)[O-])cc4)c4nc(c(-c5ccc(S(=O)(=O)[O-])cc5)c5ccc2[nH]5)C=C4)C=C3)cc1)c1ccc(-c2cccc(OC(=O)NC3CC3)c2)c(F)c1
REMARK SMILES IDX 6 1 5 2 3 3 4 4 2 5 1 6 71 7 72 8 90 9 73 10 88 11 74 12
REMARK SMILES IDX 89 13 75 14 76 15 87 16 77 17 79 18 78 19 80 20 81 21 82 22
REMARK SMILES IDX 83 23 84 25 85 26 86 27 7 28 8 29 9 30 10 31 11 32 12 33
REMARK SMILES IDX 70 34 13 35 69 36 14 37 15 38 16 39 63 40 17 41 68 42 62 43
REMARK SMILES IDX 64 44 18 45 67 46 61 47 60 48 19 50 49 51 30 52 48 53 31 54
REMARK SMILES IDX 34 55 47 56 65 57 32 58 33 59 46 61 66 62 35 63 20 64 21 65
REMARK SMILES IDX 29 66 22 67 28 68 23 69 24 70 25 71 26 72 27 73 50 74 51 75
REMARK SMILES IDX 59 76 52 77 58 78 53 79 54 80 55 81 56 82 57 83 36 84 37 85
REMARK SMILES IDX 45 86 38 87 44 88 39 89 40 90 41 91 42 92 43 93
REMARK H PARENT 83 24 64 49 34 60
REMARK Flexibility Score: inf
ROOT
ATOM      1  C   UNL A   1      42.498  18.503  26.286  1.00  0.00     0.274 C 
ENDROOT
BRANCH   1   2
ATOM      2  O   UNL A   1      42.081  19.874  26.115  1.00  0.00    -0.462 OA
BRANCH   2   3
ATOM      3  C   UNL A   1      41.327  20.422  27.110  1.00  0.00     0.313 C 
ATOM      4  O   UNL A   1      40.774  19.768  27.987  1.00  0.00    -0.252 OA
BRANCH   3   5
ATOM      5  C   UNL A   1      41.185  21.944  26.974  1.00  0.00     0.126 C 
ATOM      6  C   UNL A   1      41.611  22.718  28.224  1.00  0.00     0.025 C 
BRANCH   5   7
ATOM      7  C   UNL A   1      39.790  22.339  26.502  1.00  0.00    -0.031 A 
ATOM      8  C   UNL A   1      39.301  23.633  26.736  1.00  0.00     0.005 A 
ATOM      9  C   UNL A   1      38.980  21.461  25.777  1.00  0.00     0.044 A 
ATOM     10  C   UNL A   1      38.053  24.040  26.232  1.00  0.00     0.012 A 
ATOM     11  C   UNL A   1      37.743  21.877  25.274  1.00  0.00     0.131 A 
ATOM     12  C   UNL A   1      37.250  23.180  25.462  1.00  0.00     0.018 A 
ATOM     13  F   UNL A   1      37.074  20.995  24.515  1.00  0.00    -0.206 F 
BRANCH  12  14
ATOM     14  C   UNL A   1      35.986  23.645  24.833  1.00  0.00    -0.012 A 
ATOM     15  C   UNL A   1      35.583  23.194  23.561  1.00  0.00     0.009 A 
ATOM     16  C   UNL A   1      35.123  24.535  25.500  1.00  0.00     0.056 A 
ATOM     17  C   UNL A   1      34.368  23.594  22.991  1.00  0.00     0.004 A 
ATOM     18  C   UNL A   1      33.901  24.919  24.939  1.00  0.00     0.133 A 
ATOM     19  C   UNL A   1      33.520  24.449  23.685  1.00  0.00     0.047 A 
BRANCH  18  20
ATOM     20  O   UNL A   1      33.009  25.842  25.537  1.00  0.00    -0.410 OA
BRANCH  20  21
ATOM     21  C   UNL A   1      33.256  27.202  25.698  1.00  0.00     0.412 C 
ATOM     22  O   UNL A   1      34.032  27.710  26.503  1.00  0.00    -0.224 OA
ATOM     23  N   UNL A   1      32.552  27.994  24.828  1.00  0.00    -0.318 N 
ATOM     24  H   UNL A   1      32.729  28.961  24.885  1.00  0.00     0.167 HD
BRANCH  23  25
ATOM     25  C   UNL A   1      31.597  27.594  23.851  1.00  0.00     0.085 C 
ATOM     26  C   UNL A   1      30.319  26.877  24.166  1.00  0.00     0.027 C 
ATOM     27  C   UNL A   1      30.281  28.326  23.792  1.00  0.00     0.027 C 
ENDBRANCH  23  25
ENDBRANCH  20  21
ENDBRANCH  18  20
ENDBRANCH  12  14
ENDBRANCH   5   7
ENDBRANCH   3   5
ENDBRANCH   2   3
ENDBRANCH   1   2
BRANCH   1  28
ATOM     28  C   UNL A   1      43.796  18.235  25.529  1.00  0.00     0.275 C 
BRANCH  28  29
ATOM     29  O   UNL A   1      43.903  19.132  24.410  1.00  0.00    -0.458 OA
BRANCH  29  30
ATOM     30  C   UNL A   1      45.067  19.813  24.322  1.00  0.00     0.338 C 
ATOM     31  O   UNL A   1      46.124  19.419  23.858  1.00  0.00    -0.246 OA
BRANCH  30  32
ATOM     32  C   UNL A   1      44.878  21.178  24.834  1.00  0.00     0.060 A 
ATOM     33  C   UNL A   1      44.458  22.171  23.956  1.00  0.00     0.016 A 
ATOM     34  C   UNL A   1      45.292  21.509  26.124  1.00  0.00     0.016 A 
ATOM     35  C   UNL A   1      44.586  23.508  24.327  1.00  0.00     0.010 A 
ATOM     36  C   UNL A   1      45.305  22.853  26.524  1.00  0.00     0.010 A 
ATOM     37  C   UNL A   1      45.016  23.883  25.611  1.00  0.00    -0.014 A 
BRANCH  37  38
ATOM     38  C   UNL A   1      45.235  25.329  25.958  1.00  0.00     0.031 A 
ATOM     39  C   UNL A   1      46.594  25.972  25.757  1.00  0.00     0.074 A 
ATOM     40  C   UNL A   1      44.223  26.087  26.431  1.00  0.00     0.049 A 
ATOM     41  N   UNL A   1      47.076  27.085  26.257  1.00  0.00    -0.248 NA
ATOM     42  C   UNL A   1      47.561  25.227  24.938  1.00  0.00     0.031 C 
ATOM     43  C   UNL A   1      42.855  25.624  26.678  1.00  0.00     0.029 A 
ATOM     44  N   UNL A   1      44.181  27.416  26.778  1.00  0.00    -0.354 N 
ATOM     45  C   UNL A   1      48.419  27.130  25.877  1.00  0.00     0.074 A 
ATOM     46  C   UNL A   1      48.679  25.908  25.148  1.00  0.00     0.031 C 
ATOM     47  C   UNL A   1      42.097  26.659  27.062  1.00  0.00     0.029 A 
ATOM     48  C   UNL A   1      42.944  27.834  27.210  1.00  0.00     0.049 A 
ATOM     49  H   UNL A   1      44.963  28.012  26.723  1.00  0.00     0.167 HD
ATOM     50  C   UNL A   1      49.337  28.109  26.099  1.00  0.00     0.031 A 
ATOM     51  C   UNL A   1      42.534  29.010  27.723  1.00  0.00     0.031 A 
ATOM     52  C   UNL A   1      49.003  29.370  26.737  1.00  0.00     0.049 A 
ATOM     53  C   UNL A   1      43.533  30.115  27.882  1.00  0.00     0.074 A 
ATOM     54  C   UNL A   1      49.826  30.443  27.045  1.00  0.00     0.029 A 
ATOM     55  N   UNL A   1      47.713  29.765  27.081  1.00  0.00    -0.354 N 
ATOM     56  N   UNL A   1      44.816  30.103  27.609  1.00  0.00    -0.248 NA
ATOM     57  C   UNL A   1      43.039  31.386  28.426  1.00  0.00     0.031 C 
ATOM     58  C   UNL A   1      49.041  31.477  27.567  1.00  0.00     0.029 A 
ATOM     59  C   UNL A   1      47.719  31.068  27.558  1.00  0.00     0.049 A 
ATOM     60  H   UNL A   1      46.910  29.200  26.999  1.00  0.00     0.167 HD
ATOM     61  C   UNL A   1      45.287  31.357  27.964  1.00  0.00     0.074 A 
ATOM     62  C   UNL A   1      44.142  32.123  28.416  1.00  0.00     0.031 C 
ATOM     63  C   UNL A   1      46.559  31.822  27.956  1.00  0.00     0.031 A 
BRANCH  50  64
ATOM     64  C   UNL A   1      50.767  27.907  25.607  1.00  0.00    -0.014 A 
ATOM     65  C   UNL A   1      51.769  27.390  26.450  1.00  0.00     0.010 A 
ATOM     66  C   UNL A   1      51.106  28.126  24.258  1.00  0.00     0.010 A 
ATOM     67  C   UNL A   1      53.044  27.074  25.974  1.00  0.00     0.020 A 
ATOM     68  C   UNL A   1      52.374  27.785  23.759  1.00  0.00     0.020 A 
ATOM     69  C   UNL A   1      53.333  27.255  24.622  1.00  0.00     0.054 A 
BRANCH  69  70
ATOM     70  S   UNL A   1      54.968  26.752  24.022  1.00  0.00     0.124 S 
ATOM     71  O   UNL A   1      55.146  25.452  24.665  1.00  0.00    -0.237 OA
ATOM     72  O   UNL A   1      54.770  26.709  22.574  1.00  0.00    -0.237 OA
ATOM     73  O   UNL A   1      55.857  27.809  24.499  1.00  0.00    -0.744 OA
ENDBRANCH  69  70
ENDBRANCH  50  64
BRANCH  51  74
ATOM     74  C   UNL A   1      41.128  29.152  28.197  1.00  0.00    -0.014 A 
ATOM     75  C   UNL A   1      40.818  29.205  29.566  1.00  0.00     0.010 A 
ATOM     76  C   UNL A   1      40.089  29.294  27.257  1.00  0.00     0.010 A 
ATOM     77  C   UNL A   1      39.498  29.402  29.984  1.00  0.00     0.020 A 
ATOM     78  C   UNL A   1      38.776  29.529  27.670  1.00  0.00     0.020 A 
ATOM     79  C   UNL A   1      38.487  29.574  29.033  1.00  0.00     0.054 A 
BRANCH  79  80
ATOM     80  S   UNL A   1      36.797  29.927  29.592  1.00  0.00     0.124 S 
ATOM     81  O   UNL A   1      36.667  29.039  30.743  1.00  0.00    -0.237 OA
ATOM     82  O   UNL A   1      36.855  31.354  29.896  1.00  0.00    -0.237 OA
ATOM     83  O   UNL A   1      35.976  29.579  28.434  1.00  0.00    -0.744 OA
ENDBRANCH  79  80
ENDBRANCH  51  74
BRANCH  63  84
ATOM     84  C   UNL A   1      46.758  33.240  28.416  1.00  0.00    -0.014 A 
ATOM     85  C   UNL A   1      46.821  33.544  29.788  1.00  0.00     0.010 A 
ATOM     86  C   UNL A   1      46.894  34.276  27.475  1.00  0.00     0.010 A 
ATOM     87  C   UNL A   1      46.983  34.864  30.213  1.00  0.00     0.020 A 
ATOM     88  C   UNL A   1      47.073  35.597  27.896  1.00  0.00     0.020 A 
ATOM     89  C   UNL A   1      47.103  35.883  29.263  1.00  0.00     0.054 A 
BRANCH  89  90
ATOM     90  S   UNL A   1      47.331  37.587  29.845  1.00  0.00     0.124 S 
ATOM     91  O   UNL A   1      46.998  37.471  31.262  1.00  0.00    -0.237 OA
ATOM     92  O   UNL A   1      48.738  37.841  29.548  1.00  0.00    -0.237 OA
ATOM     93  O   UNL A   1      46.381  38.357  29.045  1.00  0.00    -0.744 OA
ENDBRANCH  89  90
ENDBRANCH  63  84
ENDBRANCH  37  38
ENDBRANCH  30  32
ENDBRANCH  29  30
ENDBRANCH  28  29
ENDBRANCH   1  28
TORSDOF 19
ENDMDL
MODEL 2
REMARK VINA RESULT:     -10.6      0.930      8.095
REMARK SMILES C[C@@H](C(=O)OCCOC(=O)c1ccc(-c2c3nc(c(-c4ccc(S(=O)(=O)[O-])cc4)c4ccc([nH]4)c(-c4ccc(S(=O)(=O)[O-])cc4)c4nc(c(-c5ccc(S(=O)(=O)[O-])cc5)c5ccc2[nH]5)C=C4)C=C3)cc1)c1ccc(-c2cccc(OC(=O)NC3CC3)c2)c(F)c1
REMARK SMILES IDX 6 1 5 2 3 3 4 4 2 5 1 6 71 7 72 8 90 9 73 10 88 11 74 12
REMARK SMILES IDX 89 13 75 14 76 15 87 16 77 17 79 18 78 19 80 20 81 21 82 22
REMARK SMILES IDX 83 23 84 25 85 26 86 27 7 28 8 29 9 30 10 31 11 32 12 33
REMARK SMILES IDX 70 34 13 35 69 36 14 37 15 38 16 39 63 40 17 41 68 42 62 43
REMARK SMILES IDX 64 44 18 45 67 46 61 47 60 48 19 50 49 51 30 52 48 53 31 54
REMARK SMILES IDX 34 55 47 56 65 57 32 58 33 59 46 61 66 62 35 63 20 64 21 65
REMARK SMILES IDX 29 66 22 67 28 68 23 69 24 70 25 71 26 72 27 73 50 74 51 75
REMARK SMILES IDX 59 76 52 77 58 78 53 79 54 80 55 81 56 82 57 83 36 84 37 85
REMARK SMILES IDX 45 86 38 87 44 88 39 89 40 90 41 91 42 92 43 93
REMARK H PARENT 83 24 64 49 34 60
REMARK Flexibility Score: inf
ROOT
ATOM      1  C   UNL A   1      42.446  18.435  26.178  1.00  0.00     0.274 C 
ENDROOT
BRANCH   1   2
ATOM      2  O   UNL A   1      41.770  19.688  25.942  1.00  0.00    -0.462 OA
BRANCH   2   3
ATOM      3  C   UNL A   1      41.276  20.341  27.032  1.00  0.00     0.313 C 
ATOM      4  O   UNL A   1      40.951  19.783  28.074  1.00  0.00    -0.252 OA
BRANCH   3   5
ATOM      5  C   UNL A   1      41.103  21.846  26.791  1.00  0.00     0.126 C 
ATOM      6  C   UNL A   1      41.614  22.719  27.941  1.00  0.00     0.025 C 
BRANCH   5   7
ATOM      7  C   UNL A   1      39.670  22.194  26.401  1.00  0.00    -0.031 A 
ATOM      8  C   UNL A   1      39.153  23.471  26.660  1.00  0.00     0.005 A 
ATOM      9  C   UNL A   1      38.848  21.285  25.728  1.00  0.00     0.044 A 
ATOM     10  C   UNL A   1      37.865  23.835  26.229  1.00  0.00     0.012 A 
ATOM     11  C   UNL A   1      37.571  21.658  25.297  1.00  0.00     0.131 A 
ATOM     12  C   UNL A   1      37.046  22.945  25.510  1.00  0.00     0.018 A 
ATOM     13  F   UNL A   1      36.888  20.750  24.582  1.00  0.00    -0.206 F 
BRANCH  12  14
ATOM     14  C   UNL A   1      35.733  23.365  24.955  1.00  0.00    -0.012 A 
ATOM     15  C   UNL A   1      35.503  23.430  23.567  1.00  0.00     0.009 A 
ATOM     16  C   UNL A   1      34.653  23.686  25.799  1.00  0.00     0.056 A 
ATOM     17  C   UNL A   1      34.251  23.778  23.046  1.00  0.00     0.004 A 
ATOM     18  C   UNL A   1      33.398  24.014  25.280  1.00  0.00     0.133 A 
ATOM     19  C   UNL A   1      33.192  24.059  23.903  1.00  0.00     0.047 A 
BRANCH  18  20
ATOM     20  O   UNL A   1      32.284  24.387  26.070  1.00  0.00    -0.410 OA
BRANCH  20  21
ATOM     21  C   UNL A   1      31.042  23.760  26.048  1.00  0.00     0.412 C 
ATOM     22  O   UNL A   1      30.822  22.574  26.282  1.00  0.00    -0.224 OA
ATOM     23  N   UNL A   1      30.005  24.607  25.754  1.00  0.00    -0.318 N 
ATOM     24  H   UNL A   1      29.105  24.208  25.767  1.00  0.00     0.167 HD
BRANCH  23  25
ATOM     25  C   UNL A   1      30.065  25.992  25.433  1.00  0.00     0.085 C 
ATOM     26  C   UNL A   1      30.738  26.547  24.213  1.00  0.00     0.027 C 
ATOM     27  C   UNL A   1      29.243  26.498  24.275  1.00  0.00     0.027 C 
ENDBRANCH  23  25
ENDBRANCH  20  21
ENDBRANCH  18  20
ENDBRANCH  12  14
ENDBRANCH   5   7
ENDBRANCH   3   5
ENDBRANCH   2   3
ENDBRANCH   1   2
BRANCH   1  28
ATOM     28  C   UNL A   1      43.699  18.327  25.312  1.00  0.00     0.275 C 
BRANCH  28  29
ATOM     29  O   UNL A   1      43.792  19.468  24.442  1.00  0.00    -0.458 OA
BRANCH  29  30
ATOM     30  C   UNL A   1      45.000  20.074  24.408  1.00  0.00     0.338 C 
ATOM     31  O   UNL A   1      46.036  19.637  23.937  1.00  0.00    -0.246 OA
BRANCH  30  32
ATOM     32  C   UNL A   1      44.892  21.418  24.994  1.00  0.00     0.060 A 
ATOM     33  C   UNL A   1      44.606  22.492  24.159  1.00  0.00     0.016 A 
ATOM     34  C   UNL A   1      45.254  21.637  26.323  1.00  0.00     0.016 A 
ATOM     35  C   UNL A   1      44.820  23.790  24.619  1.00  0.00     0.010 A 
ATOM     36  C   UNL A   1      45.352  22.950  26.807  1.00  0.00     0.010 A 
ATOM     37  C   UNL A   1      45.201  24.052  25.946  1.00  0.00    -0.014 A 
BRANCH  37  38
ATOM     38  C   UNL A   1      45.516  25.451  26.394  1.00  0.00     0.031 A 
ATOM     39  C   UNL A   1      44.439  26.324  27.008  1.00  0.00     0.074 A 
ATOM     40  C   UNL A   1      46.766  25.949  26.279  1.00  0.00     0.049 A 
ATOM     41  N   UNL A   1      44.412  27.625  27.180  1.00  0.00    -0.248 NA
ATOM     42  C   UNL A   1      43.201  25.650  27.423  1.00  0.00     0.031 C 
ATOM     43  C   UNL A   1      47.917  25.240  25.715  1.00  0.00     0.029 A 
ATOM     44  N   UNL A   1      47.286  27.168  26.645  1.00  0.00    -0.354 N 
ATOM     45  C   UNL A   1      43.130  27.927  27.647  1.00  0.00     0.074 A 
ATOM     46  C   UNL A   1      42.404  26.677  27.682  1.00  0.00     0.031 C 
ATOM     47  C   UNL A   1      49.013  25.999  25.838  1.00  0.00     0.029 A 
ATOM     48  C   UNL A   1      48.629  27.296  26.375  1.00  0.00     0.049 A 
ATOM     49  H   UNL A   1      46.749  27.880  27.061  1.00  0.00     0.167 HD
ATOM     50  C   UNL A   1      42.622  29.129  28.028  1.00  0.00     0.031 A 
ATOM     51  C   UNL A   1      49.459  28.351  26.489  1.00  0.00     0.031 A 
ATOM     52  C   UNL A   1      43.422  30.340  28.084  1.00  0.00     0.049 A 
ATOM     53  C   UNL A   1      48.910  29.650  26.995  1.00  0.00     0.074 A 
ATOM     54  C   UNL A   1      43.042  31.628  28.429  1.00  0.00     0.029 A 
ATOM     55  N   UNL A   1      44.798  30.389  27.873  1.00  0.00    -0.354 N 
ATOM     56  N   UNL A   1      47.678  29.939  27.336  1.00  0.00    -0.248 NA
ATOM     57  C   UNL A   1      49.854  30.767  27.123  1.00  0.00     0.031 C 
ATOM     58  C   UNL A   1      44.177  32.447  28.432  1.00  0.00     0.029 A 
ATOM     59  C   UNL A   1      45.276  31.667  28.118  1.00  0.00     0.049 A 
ATOM     60  H   UNL A   1      45.352  29.625  27.590  1.00  0.00     0.167 HD
ATOM     61  C   UNL A   1      47.693  31.276  27.702  1.00  0.00     0.074 A 
ATOM     62  C   UNL A   1      49.067  31.724  27.598  1.00  0.00     0.031 C 
ATOM     63  C   UNL A   1      46.656  32.074  28.054  1.00  0.00     0.031 A 
BRANCH  50  64
ATOM     64  C   UNL A   1      41.165  29.207  28.474  1.00  0.00    -0.014 A 
ATOM     65  C   UNL A   1      40.817  29.392  29.826  1.00  0.00     0.010 A 
ATOM     66  C   UNL A   1      40.118  29.209  27.531  1.00  0.00     0.010 A 
ATOM     67  C   UNL A   1      39.495  29.600  30.226  1.00  0.00     0.020 A 
ATOM     68  C   UNL A   1      38.789  29.447  27.916  1.00  0.00     0.020 A 
ATOM     69  C   UNL A   1      38.488  29.647  29.263  1.00  0.00     0.054 A 
BRANCH  69  70
ATOM     70  S   UNL A   1      36.797  30.007  29.809  1.00  0.00     0.124 S 
ATOM     71  O   UNL A   1      36.845  31.449  30.032  1.00  0.00    -0.237 OA
ATOM     72  O   UNL A   1      36.000  29.580  28.660  1.00  0.00    -0.237 OA
ATOM     73  O   UNL A   1      36.637  29.196  31.014  1.00  0.00    -0.744 OA
ENDBRANCH  69  70
ENDBRANCH  50  64
BRANCH  51  74
ATOM     74  C   UNL A   1      50.872  28.224  26.030  1.00  0.00    -0.014 A 
ATOM     75  C   UNL A   1      51.892  27.815  26.903  1.00  0.00     0.010 A 
ATOM     76  C   UNL A   1      51.186  28.465  24.678  1.00  0.00     0.010 A 
ATOM     77  C   UNL A   1      53.199  27.643  26.431  1.00  0.00     0.020 A 
ATOM     78  C   UNL A   1      52.480  28.259  24.196  1.00  0.00     0.020 A 
ATOM     79  C   UNL A   1      53.482  27.856  25.078  1.00  0.00     0.054 A 
BRANCH  79  80
ATOM     80  S   UNL A   1      55.158  27.533  24.464  1.00  0.00     0.124 S 
ATOM     81  O   UNL A   1      55.228  28.410  23.301  1.00  0.00    -0.237 OA
ATOM     82  O   UNL A   1      55.992  27.917  25.599  1.00  0.00    -0.237 OA
ATOM     83  O   UNL A   1      55.142  26.101  24.171  1.00  0.00    -0.744 OA
ENDBRANCH  79  80
ENDBRANCH  51  74
BRANCH  63  84
ATOM     84  C   UNL A   1      46.992  33.501  28.388  1.00  0.00    -0.014 A 
ATOM     85  C   UNL A   1      47.318  33.868  29.707  1.00  0.00     0.010 A 
ATOM     86  C   UNL A   1      46.995  34.482  27.380  1.00  0.00     0.010 A 
ATOM     87  C   UNL A   1      47.608  35.198  30.019  1.00  0.00     0.020 A 
ATOM     88  C   UNL A   1      47.301  35.811  27.687  1.00  0.00     0.020 A 
ATOM     89  C   UNL A   1      47.592  36.162  29.007  1.00  0.00     0.054 A 
BRANCH  89  90
ATOM     90  S   UNL A   1      47.990  37.879  29.440  1.00  0.00     0.124 S 
ATOM     91  O   UNL A   1      48.473  38.409  28.168  1.00  0.00    -0.237 OA
ATOM     92  O   UNL A   1      46.702  38.401  29.891  1.00  0.00    -0.237 OA
ATOM     93  O   UNL A   1      49.004  37.748  30.484  1.00  0.00    -0.744 OA
ENDBRANCH  89  90
ENDBRANCH  63  84
ENDBRANCH  37  38
ENDBRANCH  30  32
ENDBRANCH  29  30
ENDBRANCH  28  29
ENDBRANCH   1  28
TORSDOF 19
ENDMDL
MODEL 3
REMARK VINA RESULT:     -10.3      1.891      8.446
REMARK SMILES C[C@@H](C(=O)OCCOC(=O)c1ccc(-c2c3nc(c(-c4ccc(S(=O)(=O)[O-])cc4)c4ccc([nH]4)c(-c4ccc(S(=O)(=O)[O-])cc4)c4nc(c(-c5ccc(S(=O)(=O)[O-])cc5)c5ccc2[nH]5)C=C4)C=C3)cc1)c1ccc(-c2cccc(OC(=O)NC3CC3)c2)c(F)c1
REMARK SMILES IDX 6 1 5 2 3 3 4 4 2 5 1 6 71 7 72 8 90 9 73 10 88 11 74 12
REMARK SMILES IDX 89 13 75 14 76 15 87 16 77 17 79 18 78 19 80 20 81 21 82 22
REMARK SMILES IDX 83 23 84 25 85 26 86 27 7 28 8 29 9 30 10 31 11 32 12 33
REMARK SMILES IDX 70 34 13 35 69 36 14 37 15 38 16 39 63 40 17 41 68 42 62 43
REMARK SMILES IDX 64 44 18 45 67 46 61 47 60 48 19 50 49 51 30 52 48 53 31 54
REMARK SMILES IDX 34 55 47 56 65 57 32 58 33 59 46 61 66 62 35 63 20 64 21 65
REMARK SMILES IDX 29 66 22 67 28 68 23 69 24 70 25 71 26 72 27 73 50 74 51 75
REMARK SMILES IDX 59 76 52 77 58 78 53 79 54 80 55 81 56 82 57 83 36 84 37 85
REMARK SMILES IDX 45 86 38 87 44 88 39 89 40 90 41 91 42 92 43 93
REMARK H PARENT 83 24 64 49 34 60
REMARK Flexibility Score: inf
ROOT
ATOM      1  C   UNL A   1      42.737  18.834  26.366  1.00  0.00     0.274 C 
ENDROOT
BRANCH   1   2
ATOM      2  O   UNL A   1      42.190  20.155  26.177  1.00  0.00    -0.462 OA
BRANCH   2   3
ATOM      3  C   UNL A   1      41.530  20.711  27.232  1.00  0.00     0.313 C 
ATOM      4  O   UNL A   1      41.216  20.094  28.244  1.00  0.00    -0.252 OA
BRANCH   3   5
ATOM      5  C   UNL A   1      41.158  22.180  26.989  1.00  0.00     0.126 C 
ATOM      6  C   UNL A   1      41.417  23.090  28.193  1.00  0.00     0.025 C 
BRANCH   5   7
ATOM      7  C   UNL A   1      39.735  22.321  26.461  1.00  0.00    -0.031 A 
ATOM      8  C   UNL A   1      39.052  23.540  26.574  1.00  0.00     0.005 A 
ATOM      9  C   UNL A   1      39.087  21.273  25.799  1.00  0.00     0.044 A 
ATOM     10  C   UNL A   1      37.773  23.712  26.015  1.00  0.00     0.012 A 
ATOM     11  C   UNL A   1      37.818  21.456  25.240  1.00  0.00     0.131 A 
ATOM     12  C   UNL A   1      37.131  22.680  25.307  1.00  0.00     0.018 A 
ATOM     13  F   UNL A   1      37.311  20.423  24.548  1.00  0.00    -0.206 F 
BRANCH  12  14
ATOM     14  C   UNL A   1      35.831  22.896  24.618  1.00  0.00    -0.012 A 
ATOM     15  C   UNL A   1      35.498  24.137  24.040  1.00  0.00     0.009 A 
ATOM     16  C   UNL A   1      34.891  21.856  24.489  1.00  0.00     0.056 A 
ATOM     17  C   UNL A   1      34.294  24.324  23.349  1.00  0.00     0.004 A 
ATOM     18  C   UNL A   1      33.700  22.037  23.783  1.00  0.00     0.133 A 
ATOM     19  C   UNL A   1      33.398  23.270  23.210  1.00  0.00     0.047 A 
BRANCH  18  20
ATOM     20  O   UNL A   1      32.696  21.048  23.653  1.00  0.00    -0.410 OA
BRANCH  20  21
ATOM     21  C   UNL A   1      32.156  20.314  24.705  1.00  0.00     0.412 C 
ATOM     22  O   UNL A   1      31.385  20.733  25.564  1.00  0.00    -0.224 OA
ATOM     23  N   UNL A   1      32.545  18.999  24.711  1.00  0.00    -0.318 N 
ATOM     24  H   UNL A   1      32.153  18.437  25.419  1.00  0.00     0.167 HD
BRANCH  23  25
ATOM     25  C   UNL A   1      33.442  18.343  23.823  1.00  0.00     0.085 C 
ATOM     26  C   UNL A   1      34.789  17.817  24.221  1.00  0.00     0.027 C 
ATOM     27  C   UNL A   1      33.661  16.860  23.988  1.00  0.00     0.027 C 
ENDBRANCH  23  25
ENDBRANCH  20  21
ENDBRANCH  18  20
ENDBRANCH  12  14
ENDBRANCH   5   7
ENDBRANCH   3   5
ENDBRANCH   2   3
ENDBRANCH   1   2
BRANCH   1  28
ATOM     28  C   UNL A   1      43.661  18.460  25.210  1.00  0.00     0.275 C 
BRANCH  28  29
ATOM     29  O   UNL A   1      43.868  19.603  24.362  1.00  0.00    -0.458 OA
BRANCH  29  30
ATOM     30  C   UNL A   1      45.120  20.114  24.372  1.00  0.00     0.338 C 
ATOM     31  O   UNL A   1      46.142  19.580  23.976  1.00  0.00    -0.246 OA
BRANCH  30  32
ATOM     32  C   UNL A   1      45.087  21.485  24.901  1.00  0.00     0.060 A 
ATOM     33  C   UNL A   1      44.871  22.538  24.020  1.00  0.00     0.016 A 
ATOM     34  C   UNL A   1      45.452  21.738  26.223  1.00  0.00     0.016 A 
ATOM     35  C   UNL A   1      45.158  23.839  24.429  1.00  0.00     0.010 A 
ATOM     36  C   UNL A   1      45.624  23.062  26.654  1.00  0.00     0.010 A 
ATOM     37  C   UNL A   1      45.545  24.133  25.747  1.00  0.00    -0.014 A 
BRANCH  37  38
ATOM     38  C   UNL A   1      45.938  25.529  26.140  1.00  0.00     0.031 A 
ATOM     39  C   UNL A   1      44.913  26.484  26.721  1.00  0.00     0.074 A 
ATOM     40  C   UNL A   1      47.213  25.952  26.005  1.00  0.00     0.049 A 
ATOM     41  N   UNL A   1      44.959  27.790  26.842  1.00  0.00    -0.248 NA
ATOM     42  C   UNL A   1      43.641  25.896  27.163  1.00  0.00     0.031 C 
ATOM     43  C   UNL A   1      48.322  25.158  25.467  1.00  0.00     0.029 A 
ATOM     44  N   UNL A   1      47.802  27.153  26.322  1.00  0.00    -0.354 N 
ATOM     45  C   UNL A   1      43.698  28.181  27.298  1.00  0.00     0.074 A 
ATOM     46  C   UNL A   1      42.903  26.975  27.383  1.00  0.00     0.031 C 
ATOM     47  C   UNL A   1      49.458  25.859  25.560  1.00  0.00     0.029 A 
ATOM     48  C   UNL A   1      49.149  27.196  26.046  1.00  0.00     0.049 A 
ATOM     49  H   UNL A   1      47.306  27.910  26.710  1.00  0.00     0.167 HD
ATOM     50  C   UNL A   1      43.258  29.423  27.633  1.00  0.00     0.031 A 
ATOM     51  C   UNL A   1      50.037  28.206  26.119  1.00  0.00     0.031 A 
ATOM     52  C   UNL A   1      44.125  30.589  27.641  1.00  0.00     0.049 A 
ATOM     53  C   UNL A   1      49.562  29.553  26.574  1.00  0.00     0.074 A 
ATOM     54  C   UNL A   1      43.818  31.908  27.936  1.00  0.00     0.029 A 
ATOM     55  N   UNL A   1      45.500  30.553  27.427  1.00  0.00    -0.354 N 
ATOM     56  N   UNL A   1      48.349  29.922  26.905  1.00  0.00    -0.248 NA
ATOM     57  C   UNL A   1      50.568  30.620  26.658  1.00  0.00     0.031 C 
ATOM     58  C   UNL A   1      44.997  32.663  27.905  1.00  0.00     0.029 A 
ATOM     59  C   UNL A   1      46.050  31.811  27.622  1.00  0.00     0.049 A 
ATOM     60  H   UNL A   1      46.010  29.749  27.173  1.00  0.00     0.167 HD
ATOM     61  C   UNL A   1      48.440  31.270  27.218  1.00  0.00     0.074 A 
ATOM     62  C   UNL A   1      49.837  31.637  27.096  1.00  0.00     0.031 C 
ATOM     63  C   UNL A   1      47.450  32.138  27.540  1.00  0.00     0.031 A 
BRANCH  50  64
ATOM     64  C   UNL A   1      41.809  29.600  28.077  1.00  0.00    -0.014 A 
ATOM     65  C   UNL A   1      40.734  29.252  27.237  1.00  0.00     0.010 A 
ATOM     66  C   UNL A   1      41.499  30.013  29.387  1.00  0.00     0.010 A 
ATOM     67  C   UNL A   1      39.410  29.281  27.683  1.00  0.00     0.020 A 
ATOM     68  C   UNL A   1      40.175  30.019  29.857  1.00  0.00     0.020 A 
ATOM     69  C   UNL A   1      39.140  29.646  29.000  1.00  0.00     0.054 A 
BRANCH  69  70
ATOM     70  S   UNL A   1      37.419  29.589  29.569  1.00  0.00     0.124 S 
ATOM     71  O   UNL A   1      36.710  29.165  28.364  1.00  0.00    -0.237 OA
ATOM     72  O   UNL A   1      37.477  28.597  30.641  1.00  0.00    -0.237 OA
ATOM     73  O   UNL A   1      37.146  30.957  30.001  1.00  0.00    -0.744 OA
ENDBRANCH  69  70
ENDBRANCH  50  64
BRANCH  51  74
ATOM     74  C   UNL A   1      51.439  27.984  25.663  1.00  0.00    -0.014 A 
ATOM     75  C   UNL A   1      52.412  27.447  26.522  1.00  0.00     0.010 A 
ATOM     76  C   UNL A   1      51.787  28.263  24.327  1.00  0.00     0.010 A 
ATOM     77  C   UNL A   1      53.704  27.188  26.051  1.00  0.00     0.020 A 
ATOM     78  C   UNL A   1      53.064  27.972  23.844  1.00  0.00     0.020 A 
ATOM     79  C   UNL A   1      54.019  27.443  24.712  1.00  0.00     0.054 A 
BRANCH  79  80
ATOM     80  S   UNL A   1      55.668  27.010  24.094  1.00  0.00     0.124 S 
ATOM     81  O   UNL A   1      55.421  26.838  22.666  1.00  0.00    -0.237 OA
ATOM     82  O   UNL A   1      56.463  28.178  24.463  1.00  0.00    -0.237 OA
ATOM     83  O   UNL A   1      55.996  25.789  24.827  1.00  0.00    -0.744 OA
ENDBRANCH  79  80
ENDBRANCH  51  74
BRANCH  63  84
ATOM     84  C   UNL A   1      47.866  33.556  27.818  1.00  0.00    -0.014 A 
ATOM     85  C   UNL A   1      48.088  33.989  29.139  1.00  0.00     0.010 A 
ATOM     86  C   UNL A   1      48.049  34.460  26.757  1.00  0.00     0.010 A 
ATOM     87  C   UNL A   1      48.452  35.312  29.396  1.00  0.00     0.020 A 
ATOM     88  C   UNL A   1      48.430  35.782  27.011  1.00  0.00     0.020 A 
ATOM     89  C   UNL A   1      48.616  36.201  28.330  1.00  0.00     0.054 A 
BRANCH  89  90
ATOM     90  S   UNL A   1      49.106  37.910  28.694  1.00  0.00     0.124 S 
ATOM     91  O   UNL A   1      47.815  38.587  28.776  1.00  0.00    -0.237 OA
ATOM     92  O   UNL A   1      49.826  37.773  29.958  1.00  0.00    -0.237 OA
ATOM     93  O   UNL A   1      49.934  38.285  27.550  1.00  0.00    -0.744 OA
ENDBRANCH  89  90
ENDBRANCH  63  84
ENDBRANCH  37  38
ENDBRANCH  30  32
ENDBRANCH  29  30
ENDBRANCH  28  29
ENDBRANCH   1  28
TORSDOF 19
ENDMDL
