MODEL 1
REMARK VINA RESULT:     -12.5      0.000      0.000
REMARK SMILES CCOc1ccc(-c2ccc(C(=O)OCCOC(=O)c3ccc(-c4c5nc(c(-c6ccc(S(=O)(=O)[O-])cc6)c6ccc([nH]6)c(-c6ccc(S(=O)(=O)[O-])cc6)c6nc(c(-c7ccc(S(=O)(=O)[O-])cc7)c7ccc4[nH]7)C=C6)C=C5)cc3)cn2)c(C)c1
REMARK SMILES IDX 15 1 14 2 12 3 13 4 11 5 8 6 9 7 81 8 10 9 80 10 7 11 4 12
REMARK SMILES IDX 5 13 84 14 6 15 82 16 83 17 3 18 2 19 1 20 16 21 17 22 18 23
REMARK SMILES IDX 19 24 20 25 21 26 79 27 22 28 78 29 23 30 24 31 25 32 72 33
REMARK SMILES IDX 26 34 77 35 71 36 73 37 27 38 76 39 70 40 69 41 28 43 58 44
REMARK SMILES IDX 39 45 57 46 40 47 43 48 56 49 74 50 41 51 42 52 55 54 75 55
REMARK SMILES IDX 44 56 29 57 30 58 38 59 31 60 37 61 32 62 33 63 34 64 35 65
REMARK SMILES IDX 36 66 59 67 60 68 68 69 61 70 67 71 62 72 63 73 64 74 65 75
REMARK SMILES IDX 66 76 45 77 46 78 54 79 47 80 53 81 48 82 49 83 50 84 51 85
REMARK SMILES IDX 52 86
REMARK H PARENT 73 42 43 53
REMARK Flexibility Score: inf
ROOT
ATOM      1  C   UNL A   1      33.337  29.544  26.014  1.00  0.00     0.275 C 
ENDROOT
BRANCH   1   2
ATOM      2  O   UNL A   1      32.750  28.368  25.429  1.00  0.00    -0.458 OA
BRANCH   2   3
ATOM      3  C   UNL A   1      33.507  27.863  24.426  1.00  0.00     0.339 C 
ATOM      4  O   UNL A   1      33.946  28.506  23.481  1.00  0.00    -0.246 OA
BRANCH   3   5
ATOM      5  C   UNL A   1      33.692  26.406  24.498  1.00  0.00     0.078 A 
ATOM      6  C   UNL A   1      33.676  23.662  24.809  1.00  0.00     0.070 A 
ATOM      7  C   UNL A   1      33.905  24.475  25.916  1.00  0.00     0.030 A 
ATOM      8  N   UNL A   1      33.578  24.182  23.561  1.00  0.00    -0.255 NA
ATOM      9  C   UNL A   1      33.888  25.855  25.763  1.00  0.00     0.019 A 
ATOM     10  C   UNL A   1      33.585  25.538  23.425  1.00  0.00     0.127 A 
BRANCH   6  11
ATOM     11  C   UNL A   1      33.586  22.194  24.939  1.00  0.00     0.003 A 
ATOM     12  C   UNL A   1      33.252  19.402  24.777  1.00  0.00     0.119 A 
ATOM     13  C   UNL A   1      32.153  20.220  25.001  1.00  0.00     0.047 A 
ATOM     14  C   UNL A   1      34.532  19.944  24.790  1.00  0.00     0.050 A 
ATOM     15  C   UNL A   1      32.316  21.602  25.053  1.00  0.00     0.014 A 
ATOM     16  C   UNL A   1      34.716  21.335  24.920  1.00  0.00    -0.038 A 
ATOM     17  C   UNL A   1      36.130  21.844  25.049  1.00  0.00     0.045 C 
BRANCH  12  18
ATOM     18  O   UNL A   1      33.104  18.051  24.629  1.00  0.00    -0.494 OA
BRANCH  18  19
ATOM     19  C   UNL A   1      33.270  17.638  23.263  1.00  0.00     0.226 C 
ATOM     20  C   UNL A   1      34.295  16.521  23.124  1.00  0.00     0.049 C 
ENDBRANCH  18  19
ENDBRANCH  12  18
ENDBRANCH   6  11
ENDBRANCH   3   5
ENDBRANCH   2   3
ENDBRANCH   1   2
BRANCH   1  21
ATOM     21  C   UNL A   1      34.625  29.226  26.792  1.00  0.00     0.275 C 
BRANCH  21  22
ATOM     22  O   UNL A   1      34.991  30.099  27.883  1.00  0.00    -0.458 OA
BRANCH  22  23
ATOM     23  C   UNL A   1      36.199  30.725  27.790  1.00  0.00     0.338 C 
ATOM     24  O   UNL A   1      36.341  31.928  27.791  1.00  0.00    -0.246 OA
BRANCH  23  25
ATOM     25  C   UNL A   1      37.267  29.702  27.948  1.00  0.00     0.060 A 
ATOM     26  C   UNL A   1      38.389  29.731  27.106  1.00  0.00     0.016 A 
ATOM     27  C   UNL A   1      37.273  28.933  29.111  1.00  0.00     0.016 A 
ATOM     28  C   UNL A   1      39.569  29.093  27.483  1.00  0.00     0.010 A 
ATOM     29  C   UNL A   1      38.457  28.400  29.536  1.00  0.00     0.010 A 
ATOM     30  C   UNL A   1      39.595  28.459  28.716  1.00  0.00    -0.014 A 
BRANCH  30  31
ATOM     31  C   UNL A   1      40.670  27.632  29.227  1.00  0.00     0.031 A 
ATOM     32  C   UNL A   1      40.858  26.233  28.780  1.00  0.00     0.074 A 
ATOM     33  C   UNL A   1      41.646  28.415  29.751  1.00  0.00     0.049 A 
ATOM     34  N   UNL A   1      41.887  25.536  29.107  1.00  0.00    -0.248 NA
ATOM     35  C   UNL A   1      39.928  25.467  27.947  1.00  0.00     0.031 C 
ATOM     36  C   UNL A   1      43.085  28.210  29.787  1.00  0.00     0.029 A 
ATOM     37  N   UNL A   1      41.505  29.648  30.404  1.00  0.00    -0.354 N 
ATOM     38  C   UNL A   1      41.932  24.416  28.300  1.00  0.00     0.074 A 
ATOM     39  C   UNL A   1      40.637  24.356  27.672  1.00  0.00     0.031 C 
ATOM     40  C   UNL A   1      43.610  29.068  30.684  1.00  0.00     0.029 A 
ATOM     41  C   UNL A   1      42.483  29.655  31.399  1.00  0.00     0.049 A 
ATOM     42  H   UNL A   1      40.855  30.360  30.202  1.00  0.00     0.167 HD
ATOM     43  C   UNL A   1      43.126  23.769  28.190  1.00  0.00     0.031 A 
ATOM     44  C   UNL A   1      42.171  29.380  32.711  1.00  0.00     0.031 A 
ATOM     45  C   UNL A   1      44.095  24.375  29.098  1.00  0.00     0.049 A 
ATOM     46  C   UNL A   1      42.871  28.124  33.221  1.00  0.00     0.074 A 
ATOM     47  C   UNL A   1      45.111  25.299  28.935  1.00  0.00     0.029 A 
ATOM     48  N   UNL A   1      43.847  24.292  30.452  1.00  0.00    -0.354 N 
ATOM     49  N   UNL A   1      43.332  27.183  32.442  1.00  0.00    -0.248 NA
ATOM     50  C   UNL A   1      43.071  27.805  34.633  1.00  0.00     0.031 C 
ATOM     51  C   UNL A   1      45.463  25.781  30.229  1.00  0.00     0.029 A 
ATOM     52  C   UNL A   1      44.674  25.131  31.160  1.00  0.00     0.049 A 
ATOM     53  H   UNL A   1      43.165  23.709  30.857  1.00  0.00     0.167 HD
ATOM     54  C   UNL A   1      43.925  26.203  33.183  1.00  0.00     0.074 A 
ATOM     55  C   UNL A   1      43.686  26.608  34.557  1.00  0.00     0.031 C 
ATOM     56  C   UNL A   1      44.559  25.139  32.607  1.00  0.00     0.031 A 
BRANCH  43  57
ATOM     57  C   UNL A   1      43.564  22.728  27.185  1.00  0.00    -0.014 A 
ATOM     58  C   UNL A   1      42.672  21.655  26.938  1.00  0.00     0.010 A 
ATOM     59  C   UNL A   1      44.792  22.683  26.502  1.00  0.00     0.010 A 
ATOM     60  C   UNL A   1      42.997  20.567  26.127  1.00  0.00     0.020 A 
ATOM     61  C   UNL A   1      45.129  21.592  25.667  1.00  0.00     0.020 A 
ATOM     62  C   UNL A   1      44.235  20.531  25.505  1.00  0.00     0.054 A 
BRANCH  62  63
ATOM     63  S   UNL A   1      44.639  19.072  24.508  1.00  0.00     0.124 S 
ATOM     64  O   UNL A   1      44.525  19.586  23.145  1.00  0.00    -0.237 OA
ATOM     65  O   UNL A   1      45.995  18.750  24.945  1.00  0.00    -0.237 OA
ATOM     66  O   UNL A   1      43.618  18.097  24.888  1.00  0.00    -0.744 OA
ENDBRANCH  62  63
ENDBRANCH  43  57
BRANCH  44  67
ATOM     67  C   UNL A   1      40.770  29.763  33.093  1.00  0.00    -0.014 A 
ATOM     68  C   UNL A   1      40.455  31.137  33.196  1.00  0.00     0.010 A 
ATOM     69  C   UNL A   1      39.716  28.844  32.929  1.00  0.00     0.010 A 
ATOM     70  C   UNL A   1      39.151  31.591  32.964  1.00  0.00     0.020 A 
ATOM     71  C   UNL A   1      38.404  29.297  32.716  1.00  0.00     0.020 A 
ATOM     72  C   UNL A   1      38.143  30.669  32.679  1.00  0.00     0.054 A 
BRANCH  72  73
ATOM     73  S   UNL A   1      36.559  31.305  32.046  1.00  0.00     0.124 S 
ATOM     74  O   UNL A   1      35.883  30.084  31.618  1.00  0.00    -0.237 OA
ATOM     75  O   UNL A   1      35.996  31.953  33.229  1.00  0.00    -0.237 OA
ATOM     76  O   UNL A   1      36.962  32.215  30.978  1.00  0.00    -0.744 OA
ENDBRANCH  72  73
ENDBRANCH  44  67
BRANCH  56  77
ATOM     77  C   UNL A   1      45.117  23.963  33.354  1.00  0.00    -0.014 A 
ATOM     78  C   UNL A   1      44.365  22.825  33.661  1.00  0.00     0.010 A 
ATOM     79  C   UNL A   1      46.439  24.025  33.863  1.00  0.00     0.010 A 
ATOM     80  C   UNL A   1      44.940  21.759  34.364  1.00  0.00     0.020 A 
ATOM     81  C   UNL A   1      47.011  22.984  34.587  1.00  0.00     0.020 A 
ATOM     82  C   UNL A   1      46.263  21.841  34.808  1.00  0.00     0.054 A 
BRANCH  82  83
ATOM     83  S   UNL A   1      46.984  20.449  35.704  1.00  0.00     0.124 S 
ATOM     84  O   UNL A   1      48.295  20.312  35.070  1.00  0.00    -0.237 OA
ATOM     85  O   UNL A   1      46.998  20.951  37.075  1.00  0.00    -0.237 OA
ATOM     86  O   UNL A   1      46.056  19.349  35.453  1.00  0.00    -0.744 OA
ENDBRANCH  82  83
ENDBRANCH  56  77
ENDBRANCH  30  31
ENDBRANCH  23  25
ENDBRANCH  22  23
ENDBRANCH  21  22
ENDBRANCH   1  21
TORSDOF 17
ENDMDL
MODEL 2
REMARK VINA RESULT:     -11.6      4.760     10.878
REMARK SMILES CCOc1ccc(-c2ccc(C(=O)OCCOC(=O)c3ccc(-c4c5nc(c(-c6ccc(S(=O)(=O)[O-])cc6)c6ccc([nH]6)c(-c6ccc(S(=O)(=O)[O-])cc6)c6nc(c(-c7ccc(S(=O)(=O)[O-])cc7)c7ccc4[nH]7)C=C6)C=C5)cc3)cn2)c(C)c1
REMARK SMILES IDX 15 1 14 2 12 3 13 4 11 5 8 6 9 7 81 8 10 9 80 10 7 11 4 12
REMARK SMILES IDX 5 13 84 14 6 15 82 16 83 17 3 18 2 19 1 20 16 21 17 22 18 23
REMARK SMILES IDX 19 24 20 25 21 26 79 27 22 28 78 29 23 30 24 31 25 32 72 33
REMARK SMILES IDX 26 34 77 35 71 36 73 37 27 38 76 39 70 40 69 41 28 43 58 44
REMARK SMILES IDX 39 45 57 46 40 47 43 48 56 49 74 50 41 51 42 52 55 54 75 55
REMARK SMILES IDX 44 56 29 57 30 58 38 59 31 60 37 61 32 62 33 63 34 64 35 65
REMARK SMILES IDX 36 66 59 67 60 68 68 69 61 70 67 71 62 72 63 73 64 74 65 75
REMARK SMILES IDX 66 76 45 77 46 78 54 79 47 80 53 81 48 82 49 83 50 84 51 85
REMARK SMILES IDX 52 86
REMARK H PARENT 73 42 43 53
REMARK Flexibility Score: inf
ROOT
ATOM      1  C   UNL A   1      35.381  22.509  26.376  1.00  0.00     0.275 C 
ENDROOT
BRANCH   1   2
ATOM      2  O   UNL A   1      34.555  23.594  25.916  1.00  0.00    -0.458 OA
BRANCH   2   3
ATOM      3  C   UNL A   1      33.312  23.551  26.450  1.00  0.00     0.339 C 
ATOM      4  O   UNL A   1      32.964  22.824  27.372  1.00  0.00    -0.246 OA
BRANCH   3   5
ATOM      5  C   UNL A   1      32.336  24.401  25.750  1.00  0.00     0.078 A 
ATOM      6  C   UNL A   1      30.795  26.279  24.437  1.00  0.00     0.070 A 
ATOM      7  C   UNL A   1      31.026  26.418  25.804  1.00  0.00     0.030 A 
ATOM      8  N   UNL A   1      31.210  25.181  23.760  1.00  0.00    -0.255 NA
ATOM      9  C   UNL A   1      31.822  25.486  26.457  1.00  0.00     0.019 A 
ATOM     10  C   UNL A   1      31.972  24.265  24.422  1.00  0.00     0.127 A 
BRANCH   6  11
ATOM     11  C   UNL A   1      30.039  27.295  23.679  1.00  0.00     0.003 A 
ATOM     12  C   UNL A   1      28.463  29.379  22.627  1.00  0.00     0.119 A 
ATOM     13  C   UNL A   1      27.859  28.215  23.084  1.00  0.00     0.047 A 
ATOM     14  C   UNL A   1      29.849  29.453  22.543  1.00  0.00     0.050 A 
ATOM     15  C   UNL A   1      28.638  27.198  23.629  1.00  0.00     0.014 A 
ATOM     16  C   UNL A   1      30.649  28.396  23.021  1.00  0.00    -0.038 A 
ATOM     17  C   UNL A   1      32.137  28.486  22.789  1.00  0.00     0.045 C 
BRANCH  12  18
ATOM     18  O   UNL A   1      27.713  30.429  22.175  1.00  0.00    -0.494 OA
BRANCH  18  19
ATOM     19  C   UNL A   1      27.880  31.600  22.989  1.00  0.00     0.226 C 
ATOM     20  C   UNL A   1      28.489  32.757  22.209  1.00  0.00     0.049 C 
ENDBRANCH  18  19
ENDBRANCH  12  18
ENDBRANCH   6  11
ENDBRANCH   3   5
ENDBRANCH   2   3
ENDBRANCH   1   2
BRANCH   1  21
ATOM     21  C   UNL A   1      36.764  22.505  25.703  1.00  0.00     0.275 C 
BRANCH  21  22
ATOM     22  O   UNL A   1      37.683  23.568  26.038  1.00  0.00    -0.458 OA
BRANCH  22  23
ATOM     23  C   UNL A   1      38.936  23.197  26.428  1.00  0.00     0.338 C 
ATOM     24  O   UNL A   1      39.465  22.154  26.110  1.00  0.00    -0.246 OA
BRANCH  23  25
ATOM     25  C   UNL A   1      39.594  24.371  27.061  1.00  0.00     0.060 A 
ATOM     26  C   UNL A   1      40.375  25.237  26.282  1.00  0.00     0.016 A 
ATOM     27  C   UNL A   1      39.178  24.747  28.338  1.00  0.00     0.016 A 
ATOM     28  C   UNL A   1      40.640  26.533  26.719  1.00  0.00     0.010 A 
ATOM     29  C   UNL A   1      39.340  26.048  28.721  1.00  0.00     0.010 A 
ATOM     30  C   UNL A   1      40.088  26.933  27.927  1.00  0.00    -0.014 A 
BRANCH  30  31
ATOM     31  C   UNL A   1      40.352  28.181  28.613  1.00  0.00     0.031 A 
ATOM     32  C   UNL A   1      39.407  29.320  28.551  1.00  0.00     0.074 A 
ATOM     33  C   UNL A   1      41.260  27.983  29.600  1.00  0.00     0.049 A 
ATOM     34  N   UNL A   1      39.550  30.376  29.269  1.00  0.00    -0.248 NA
ATOM     35  C   UNL A   1      38.230  29.411  27.684  1.00  0.00     0.031 C 
ATOM     36  C   UNL A   1      41.386  28.635  30.894  1.00  0.00     0.029 A 
ATOM     37  N   UNL A   1      42.331  27.077  29.618  1.00  0.00    -0.354 N 
ATOM     38  C   UNL A   1      38.373  31.098  29.226  1.00  0.00     0.074 A 
ATOM     39  C   UNL A   1      37.621  30.521  28.141  1.00  0.00     0.031 C 
ATOM     40  C   UNL A   1      42.610  28.356  31.388  1.00  0.00     0.029 A 
ATOM     41  C   UNL A   1      43.357  27.728  30.304  1.00  0.00     0.049 A 
ATOM     42  H   UNL A   1      42.354  26.172  29.230  1.00  0.00     0.167 HD
ATOM     43  C   UNL A   1      38.160  32.011  30.214  1.00  0.00     0.031 A 
ATOM     44  C   UNL A   1      44.399  28.327  29.635  1.00  0.00     0.031 A 
ATOM     45  C   UNL A   1      39.346  32.100  31.061  1.00  0.00     0.049 A 
ATOM     46  C   UNL A   1      44.443  29.835  29.863  1.00  0.00     0.074 A 
ATOM     47  C   UNL A   1      39.693  31.552  32.282  1.00  0.00     0.029 A 
ATOM     48  N   UNL A   1      40.511  32.564  30.488  1.00  0.00    -0.354 N 
ATOM     49  N   UNL A   1      43.415  30.541  30.248  1.00  0.00    -0.248 NA
ATOM     50  C   UNL A   1      45.621  30.669  29.639  1.00  0.00     0.031 C 
ATOM     51  C   UNL A   1      41.104  31.688  32.427  1.00  0.00     0.029 A 
ATOM     52  C   UNL A   1      41.592  32.334  31.305  1.00  0.00     0.049 A 
ATOM     53  H   UNL A   1      40.562  33.002  29.608  1.00  0.00     0.167 HD
ATOM     54  C   UNL A   1      43.767  31.851  30.389  1.00  0.00     0.074 A 
ATOM     55  C   UNL A   1      45.147  31.895  29.940  1.00  0.00     0.031 C 
ATOM     56  C   UNL A   1      42.895  32.792  30.859  1.00  0.00     0.031 A 
BRANCH  43  57
ATOM     57  C   UNL A   1      36.884  32.720  30.607  1.00  0.00    -0.014 A 
ATOM     58  C   UNL A   1      36.243  33.494  29.607  1.00  0.00     0.010 A 
ATOM     59  C   UNL A   1      36.286  32.734  31.879  1.00  0.00     0.010 A 
ATOM     60  C   UNL A   1      35.128  34.293  29.862  1.00  0.00     0.020 A 
ATOM     61  C   UNL A   1      35.148  33.529  32.147  1.00  0.00     0.020 A 
ATOM     62  C   UNL A   1      34.592  34.321  31.140  1.00  0.00     0.054 A 
BRANCH  62  63
ATOM     63  S   UNL A   1      33.179  35.415  31.441  1.00  0.00     0.124 S 
ATOM     64  O   UNL A   1      32.426  35.302  30.193  1.00  0.00    -0.237 OA
ATOM     65  O   UNL A   1      32.548  34.809  32.610  1.00  0.00    -0.237 OA
ATOM     66  O   UNL A   1      33.793  36.721  31.674  1.00  0.00    -0.744 OA
ENDBRANCH  62  63
ENDBRANCH  43  57
BRANCH  44  67
ATOM     67  C   UNL A   1      44.728  27.676  28.321  1.00  0.00    -0.014 A 
ATOM     68  C   UNL A   1      44.317  28.320  27.132  1.00  0.00     0.010 A 
ATOM     69  C   UNL A   1      45.760  26.722  28.245  1.00  0.00     0.010 A 
ATOM     70  C   UNL A   1      45.033  28.146  25.942  1.00  0.00     0.020 A 
ATOM     71  C   UNL A   1      46.467  26.532  27.046  1.00  0.00     0.020 A 
ATOM     72  C   UNL A   1      46.132  27.288  25.919  1.00  0.00     0.054 A 
BRANCH  72  73
ATOM     73  S   UNL A   1      47.237  27.352  24.473  1.00  0.00     0.124 S 
ATOM     74  O   UNL A   1      48.413  28.029  25.010  1.00  0.00    -0.237 OA
ATOM     75  O   UNL A   1      47.414  25.935  24.163  1.00  0.00    -0.237 OA
ATOM     76  O   UNL A   1      46.464  28.105  23.490  1.00  0.00    -0.744 OA
ENDBRANCH  72  73
ENDBRANCH  44  67
BRANCH  56  77
ATOM     77  C   UNL A   1      43.169  34.267  30.917  1.00  0.00    -0.014 A 
ATOM     78  C   UNL A   1      43.183  35.087  29.786  1.00  0.00     0.010 A 
ATOM     79  C   UNL A   1      43.524  34.859  32.155  1.00  0.00     0.010 A 
ATOM     80  C   UNL A   1      43.449  36.457  29.902  1.00  0.00     0.020 A 
ATOM     81  C   UNL A   1      43.817  36.214  32.279  1.00  0.00     0.020 A 
ATOM     82  C   UNL A   1      43.748  37.012  31.150  1.00  0.00     0.054 A 
BRANCH  82  83
ATOM     83  S   UNL A   1      44.077  38.783  31.275  1.00  0.00     0.124 S 
ATOM     84  O   UNL A   1      43.362  39.319  30.118  1.00  0.00    -0.237 OA
ATOM     85  O   UNL A   1      43.497  39.103  32.577  1.00  0.00    -0.237 OA
ATOM     86  O   UNL A   1      45.533  38.877  31.203  1.00  0.00    -0.744 OA
ENDBRANCH  82  83
ENDBRANCH  56  77
ENDBRANCH  30  31
ENDBRANCH  23  25
ENDBRANCH  22  23
ENDBRANCH  21  22
ENDBRANCH   1  21
TORSDOF 17
ENDMDL
MODEL 3
REMARK VINA RESULT:     -11.2      2.302      3.360
REMARK SMILES CCOc1ccc(-c2ccc(C(=O)OCCOC(=O)c3ccc(-c4c5nc(c(-c6ccc(S(=O)(=O)[O-])cc6)c6ccc([nH]6)c(-c6ccc(S(=O)(=O)[O-])cc6)c6nc(c(-c7ccc(S(=O)(=O)[O-])cc7)c7ccc4[nH]7)C=C6)C=C5)cc3)cn2)c(C)c1
REMARK SMILES IDX 15 1 14 2 12 3 13 4 11 5 8 6 9 7 81 8 10 9 80 10 7 11 4 12
REMARK SMILES IDX 5 13 84 14 6 15 82 16 83 17 3 18 2 19 1 20 16 21 17 22 18 23
REMARK SMILES IDX 19 24 20 25 21 26 79 27 22 28 78 29 23 30 24 31 25 32 72 33
REMARK SMILES IDX 26 34 77 35 71 36 73 37 27 38 76 39 70 40 69 41 28 43 58 44
REMARK SMILES IDX 39 45 57 46 40 47 43 48 56 49 74 50 41 51 42 52 55 54 75 55
REMARK SMILES IDX 44 56 29 57 30 58 38 59 31 60 37 61 32 62 33 63 34 64 35 65
REMARK SMILES IDX 36 66 59 67 60 68 68 69 61 70 67 71 62 72 63 73 64 74 65 75
REMARK SMILES IDX 66 76 45 77 46 78 54 79 47 80 53 81 48 82 49 83 50 84 51 85
REMARK SMILES IDX 52 86
REMARK H PARENT 73 42 43 53
REMARK Flexibility Score: inf
ROOT
ATOM      1  C   UNL A   1      31.812  29.861  25.778  1.00  0.00     0.275 C 
ENDROOT
BRANCH   1   2
ATOM      2  O   UNL A   1      32.769  28.790  25.854  1.00  0.00    -0.458 OA
BRANCH   2   3
ATOM      3  C   UNL A   1      33.232  28.430  24.634  1.00  0.00     0.339 C 
ATOM      4  O   UNL A   1      33.277  29.160  23.652  1.00  0.00    -0.246 OA
BRANCH   3   5
ATOM      5  C   UNL A   1      33.601  27.009  24.535  1.00  0.00     0.078 A 
ATOM      6  C   UNL A   1      33.910  24.267  24.445  1.00  0.00     0.070 A 
ATOM      7  C   UNL A   1      33.819  24.905  25.680  1.00  0.00     0.030 A 
ATOM      8  N   UNL A   1      33.969  24.972  23.289  1.00  0.00    -0.255 NA
ATOM      9  C   UNL A   1      33.639  26.281  25.722  1.00  0.00     0.019 A 
ATOM     10  C   UNL A   1      33.812  26.324  23.351  1.00  0.00     0.127 A 
BRANCH   6  11
ATOM     11  C   UNL A   1      34.002  22.797  24.346  1.00  0.00     0.003 A 
ATOM     12  C   UNL A   1      34.154  19.995  24.597  1.00  0.00     0.119 A 
ATOM     13  C   UNL A   1      35.270  20.777  24.862  1.00  0.00     0.047 A 
ATOM     14  C   UNL A   1      33.012  20.578  24.058  1.00  0.00     0.050 A 
ATOM     15  C   UNL A   1      35.185  22.164  24.764  1.00  0.00     0.014 A 
ATOM     16  C   UNL A   1      32.941  21.975  23.881  1.00  0.00    -0.038 A 
ATOM     17  C   UNL A   1      31.726  22.530  23.181  1.00  0.00     0.045 C 
BRANCH  12  18
ATOM     18  O   UNL A   1      34.186  18.641  24.777  1.00  0.00    -0.494 OA
BRANCH  18  19
ATOM     19  C   UNL A   1      33.345  17.953  23.837  1.00  0.00     0.226 C 
ATOM     20  C   UNL A   1      33.918  16.599  23.440  1.00  0.00     0.049 C 
ENDBRANCH  18  19
ENDBRANCH  12  18
ENDBRANCH   6  11
ENDBRANCH   3   5
ENDBRANCH   2   3
ENDBRANCH   1   2
BRANCH   1  21
ATOM     21  C   UNL A   1      32.131  30.998  26.762  1.00  0.00     0.275 C 
BRANCH  21  22
ATOM     22  O   UNL A   1      33.265  30.835  27.641  1.00  0.00    -0.458 OA
BRANCH  22  23
ATOM     23  C   UNL A   1      34.084  31.915  27.794  1.00  0.00     0.338 C 
ATOM     24  O   UNL A   1      33.690  33.056  27.906  1.00  0.00    -0.246 OA
BRANCH  23  25
ATOM     25  C   UNL A   1      35.463  31.422  28.052  1.00  0.00     0.060 A 
ATOM     26  C   UNL A   1      36.534  32.328  28.082  1.00  0.00     0.016 A 
ATOM     27  C   UNL A   1      35.615  30.128  28.552  1.00  0.00     0.016 A 
ATOM     28  C   UNL A   1      37.724  31.993  28.724  1.00  0.00     0.010 A 
ATOM     29  C   UNL A   1      36.736  29.836  29.276  1.00  0.00     0.010 A 
ATOM     30  C   UNL A   1      37.796  30.754  29.343  1.00  0.00    -0.014 A 
BRANCH  30  31
ATOM     31  C   UNL A   1      38.979  30.168  29.942  1.00  0.00     0.031 A 
ATOM     32  C   UNL A   1      39.440  28.807  29.586  1.00  0.00     0.074 A 
ATOM     33  C   UNL A   1      39.769  31.144  30.455  1.00  0.00     0.049 A 
ATOM     34  N   UNL A   1      40.562  28.330  29.992  1.00  0.00    -0.248 NA
ATOM     35  C   UNL A   1      38.706  27.840  28.766  1.00  0.00     0.031 C 
ATOM     36  C   UNL A   1      41.218  31.210  30.556  1.00  0.00     0.029 A 
ATOM     37  N   UNL A   1      39.374  32.362  31.028  1.00  0.00    -0.354 N 
ATOM     38  C   UNL A   1      40.850  27.198  29.254  1.00  0.00     0.074 A 
ATOM     39  C   UNL A   1      39.618  26.867  28.584  1.00  0.00     0.031 C 
ATOM     40  C   UNL A   1      41.535  32.196  31.420  1.00  0.00     0.029 A 
ATOM     41  C   UNL A   1      40.286  32.600  32.057  1.00  0.00     0.049 A 
ATOM     42  H   UNL A   1      38.616  32.929  30.760  1.00  0.00     0.167 HD
ATOM     43  C   UNL A   1      42.145  26.778  29.227  1.00  0.00     0.031 A 
ATOM     44  C   UNL A   1      39.969  32.340  33.369  1.00  0.00     0.031 A 
ATOM     45  C   UNL A   1      42.943  27.599  30.133  1.00  0.00     0.049 A 
ATOM     46  C   UNL A   1      40.861  31.263  33.979  1.00  0.00     0.074 A 
ATOM     47  C   UNL A   1      43.780  28.685  29.954  1.00  0.00     0.029 A 
ATOM     48  N   UNL A   1      42.650  27.541  31.479  1.00  0.00    -0.354 N 
ATOM     49  N   UNL A   1      41.522  30.385  33.275  1.00  0.00    -0.248 NA
ATOM     50  C   UNL A   1      41.048  31.060  35.414  1.00  0.00     0.031 C 
ATOM     51  C   UNL A   1      43.976  29.289  31.229  1.00  0.00     0.029 A 
ATOM     52  C   UNL A   1      43.276  28.553  32.168  1.00  0.00     0.049 A 
ATOM     53  H   UNL A   1      42.068  26.863  31.893  1.00  0.00     0.167 HD
ATOM     54  C   UNL A   1      42.249  29.571  34.094  1.00  0.00     0.074 A 
ATOM     55  C   UNL A   1      41.875  29.995  35.432  1.00  0.00     0.031 C 
ATOM     56  C   UNL A   1      43.093  28.615  33.606  1.00  0.00     0.031 A 
BRANCH  43  57
ATOM     57  C   UNL A   1      42.814  25.785  28.303  1.00  0.00    -0.014 A 
ATOM     58  C   UNL A   1      44.029  26.188  27.695  1.00  0.00     0.010 A 
ATOM     59  C   UNL A   1      42.331  24.516  27.942  1.00  0.00     0.010 A 
ATOM     60  C   UNL A   1      44.688  25.422  26.733  1.00  0.00     0.020 A 
ATOM     61  C   UNL A   1      42.997  23.724  26.978  1.00  0.00     0.020 A 
ATOM     62  C   UNL A   1      44.159  24.195  26.364  1.00  0.00     0.054 A 
BRANCH  62  63
ATOM     63  S   UNL A   1      45.017  23.259  25.071  1.00  0.00     0.124 S 
ATOM     64  O   UNL A   1      43.910  22.621  24.362  1.00  0.00    -0.237 OA
ATOM     65  O   UNL A   1      45.716  24.305  24.328  1.00  0.00    -0.237 OA
ATOM     66  O   UNL A   1      45.881  22.346  25.816  1.00  0.00    -0.744 OA
ENDBRANCH  62  63
ENDBRANCH  43  57
BRANCH  44  67
ATOM     67  C   UNL A   1      38.504  32.476  33.676  1.00  0.00    -0.014 A 
ATOM     68  C   UNL A   1      37.996  33.764  33.960  1.00  0.00     0.010 A 
ATOM     69  C   UNL A   1      37.602  31.473  33.276  1.00  0.00     0.010 A 
ATOM     70  C   UNL A   1      36.662  34.083  33.683  1.00  0.00     0.020 A 
ATOM     71  C   UNL A   1      36.258  31.787  33.016  1.00  0.00     0.020 A 
ATOM     72  C   UNL A   1      35.813  33.103  33.168  1.00  0.00     0.054 A 
BRANCH  72  73
ATOM     73  S   UNL A   1      34.205  33.631  32.497  1.00  0.00     0.124 S 
ATOM     74  O   UNL A   1      33.263  33.028  33.436  1.00  0.00    -0.237 OA
ATOM     75  O   UNL A   1      34.312  35.087  32.562  1.00  0.00    -0.237 OA
ATOM     76  O   UNL A   1      34.201  33.074  31.148  1.00  0.00    -0.744 OA
ENDBRANCH  72  73
ENDBRANCH  44  67
BRANCH  56  77
ATOM     77  C   UNL A   1      43.820  27.601  34.442  1.00  0.00    -0.014 A 
ATOM     78  C   UNL A   1      43.252  26.388  34.839  1.00  0.00     0.010 A 
ATOM     79  C   UNL A   1      45.111  27.909  34.940  1.00  0.00     0.010 A 
ATOM     80  C   UNL A   1      43.978  25.483  35.623  1.00  0.00     0.020 A 
ATOM     81  C   UNL A   1      45.832  27.030  35.742  1.00  0.00     0.020 A 
ATOM     82  C   UNL A   1      45.269  25.804  36.054  1.00  0.00     0.054 A 
BRANCH  82  83
ATOM     83  S   UNL A   1      46.190  24.616  37.054  1.00  0.00     0.124 S 
ATOM     84  O   UNL A   1      46.526  25.399  38.243  1.00  0.00    -0.237 OA
ATOM     85  O   UNL A   1      45.198  23.563  37.256  1.00  0.00    -0.237 OA
ATOM     86  O   UNL A   1      47.325  24.250  36.212  1.00  0.00    -0.744 OA
ENDBRANCH  82  83
ENDBRANCH  56  77
ENDBRANCH  30  31
ENDBRANCH  23  25
ENDBRANCH  22  23
ENDBRANCH  21  22
ENDBRANCH   1  21
TORSDOF 17
ENDMDL
