MODEL 1
REMARK VINA RESULT:     -10.1      0.000      0.000
REMARK SMILES [NH3+][C@@H](CCCCC(=O)OCCOC(=O)c1ccc(-c2c3nc(c(-c4ccc(S(=O)(=O)[O-])cc4)c4ccc([nH]4)c(-c4ccc(S(=O)(=O)[O-])cc4)c4nc(c(-c5ccc(S(=O)(=O)[O-])cc5)c5ccc2[nH]5)C=C4)C=C3)cc1)c1ccc(-c2ccccc2)cc1
REMARK SMILES IDX 9 1 7 2 8 3 6 4 5 5 4 6 3 7 2 8 1 9 75 13 76 14 86 15 77 16
REMARK SMILES IDX 85 17 78 18 79 19 80 20 84 21 81 22 83 23 82 24 10 25 11 26
REMARK SMILES IDX 12 27 13 28 14 29 15 30 16 31 74 32 17 33 73 34 18 35 19 36
REMARK SMILES IDX 20 37 67 38 21 39 72 40 66 41 68 42 22 43 71 44 65 45 64 46
REMARK SMILES IDX 23 48 53 49 34 50 52 51 35 52 38 53 51 54 69 55 36 56 37 57
REMARK SMILES IDX 50 59 70 60 39 61 24 62 25 63 33 64 26 65 32 66 27 67 28 68
REMARK SMILES IDX 29 69 30 70 31 71 54 72 55 73 63 74 56 75 62 76 57 77 58 78
REMARK SMILES IDX 59 79 60 80 61 81 40 82 41 83 49 84 42 85 48 86 43 87 44 88
REMARK SMILES IDX 45 89 46 90 47 91
REMARK H PARENT 1 10 1 11 1 12 68 47 38 58
REMARK Flexibility Score: inf
ROOT
ATOM      1  O   UNL A   1      32.708  29.255  26.773  1.00  0.00    -0.462 OA
ENDROOT
BRANCH   1   2
ATOM      2  C   UNL A   1      31.998  28.121  27.005  1.00  0.00     0.305 C 
ATOM      3  O   UNL A   1      31.349  27.890  28.017  1.00  0.00    -0.252 OA
BRANCH   2   4
ATOM      4  C   UNL A   1      32.116  27.136  25.870  1.00  0.00     0.123 C 
BRANCH   4   5
ATOM      5  C   UNL A   1      31.410  27.565  24.581  1.00  0.00     0.012 C 
BRANCH   5   6
ATOM      6  C   UNL A   1      30.982  26.428  23.641  1.00  0.00     0.007 C 
BRANCH   6   7
ATOM      7  C   UNL A   1      31.470  25.007  23.974  1.00  0.00     0.070 C 
BRANCH   7   8
ATOM      8  C   UNL A   1      32.499  24.343  23.026  1.00  0.00     0.211 C 
BRANCH   8   9
ATOM      9  N   UNL A   1      31.916  23.155  22.388  1.00  0.00    -0.351 N 
ATOM     10  H   UNL A   1      32.662  22.570  22.012  1.00  0.00     0.345 HD
ATOM     11  H   UNL A   1      31.297  23.445  21.631  1.00  0.00     0.345 HD
ATOM     12  H   UNL A   1      31.383  22.625  23.077  1.00  0.00     0.345 HD
ENDBRANCH   8   9
BRANCH   8  13
ATOM     13  C   UNL A   1      33.857  24.085  23.654  1.00  0.00     0.009 A 
ATOM     14  C   UNL A   1      34.171  24.657  24.896  1.00  0.00     0.010 A 
ATOM     15  C   UNL A   1      34.812  23.245  23.066  1.00  0.00     0.010 A 
ATOM     16  C   UNL A   1      35.382  24.365  25.543  1.00  0.00     0.009 A 
ATOM     17  C   UNL A   1      36.012  22.943  23.721  1.00  0.00     0.009 A 
ATOM     18  C   UNL A   1      36.321  23.489  24.976  1.00  0.00    -0.018 A 
BRANCH  18  19
ATOM     19  C   UNL A   1      37.580  23.137  25.668  1.00  0.00    -0.018 A 
ATOM     20  C   UNL A   1      38.188  21.881  25.496  1.00  0.00     0.009 A 
ATOM     21  C   UNL A   1      38.233  24.063  26.504  1.00  0.00     0.009 A 
ATOM     22  C   UNL A   1      39.397  21.566  26.126  1.00  0.00     0.001 A 
ATOM     23  C   UNL A   1      39.443  23.753  27.130  1.00  0.00     0.001 A 
ATOM     24  C   UNL A   1      40.025  22.505  26.939  1.00  0.00     0.000 A 
ENDBRANCH  18  19
ENDBRANCH   8  13
ENDBRANCH   7   8
ENDBRANCH   6   7
ENDBRANCH   5   6
ENDBRANCH   4   5
ENDBRANCH   2   4
ENDBRANCH   1   2
BRANCH   1  25
ATOM     25  C   UNL A   1      34.114  29.070  26.533  1.00  0.00     0.274 C 
BRANCH  25  26
ATOM     26  C   UNL A   1      34.910  29.769  27.635  1.00  0.00     0.275 C 
BRANCH  26  27
ATOM     27  O   UNL A   1      36.281  29.328  27.601  1.00  0.00    -0.458 OA
BRANCH  27  28
ATOM     28  C   UNL A   1      36.938  29.325  28.782  1.00  0.00     0.338 C 
ATOM     29  O   UNL A   1      36.475  29.526  29.894  1.00  0.00    -0.246 OA
BRANCH  28  30
ATOM     30  C   UNL A   1      38.356  29.032  28.535  1.00  0.00     0.060 A 
ATOM     31  C   UNL A   1      39.153  28.535  29.570  1.00  0.00     0.016 A 
ATOM     32  C   UNL A   1      38.913  29.324  27.290  1.00  0.00     0.016 A 
ATOM     33  C   UNL A   1      40.518  28.333  29.365  1.00  0.00     0.010 A 
ATOM     34  C   UNL A   1      40.274  29.094  27.078  1.00  0.00     0.010 A 
ATOM     35  C   UNL A   1      41.091  28.610  28.116  1.00  0.00    -0.014 A 
BRANCH  35  36
ATOM     36  C   UNL A   1      42.549  28.440  27.892  1.00  0.00     0.031 A 
ATOM     37  C   UNL A   1      43.479  29.599  28.121  1.00  0.00     0.074 A 
ATOM     38  C   UNL A   1      43.035  27.263  27.455  1.00  0.00     0.049 A 
ATOM     39  N   UNL A   1      44.751  29.708  27.835  1.00  0.00    -0.248 NA
ATOM     40  C   UNL A   1      42.897  30.796  28.747  1.00  0.00     0.031 C 
ATOM     41  C   UNL A   1      42.247  26.052  27.228  1.00  0.00     0.029 A 
ATOM     42  N   UNL A   1      44.314  26.901  27.108  1.00  0.00    -0.354 N 
ATOM     43  C   UNL A   1      45.116  30.993  28.217  1.00  0.00     0.074 A 
ATOM     44  C   UNL A   1      43.928  31.630  28.746  1.00  0.00     0.031 C 
ATOM     45  C   UNL A   1      43.058  25.081  26.775  1.00  0.00     0.029 A 
ATOM     46  C   UNL A   1      44.410  25.616  26.631  1.00  0.00     0.049 A 
ATOM     47  H   UNL A   1      45.088  27.504  27.194  1.00  0.00     0.167 HD
ATOM     48  C   UNL A   1      46.330  31.589  28.135  1.00  0.00     0.031 A 
ATOM     49  C   UNL A   1      45.457  24.953  26.102  1.00  0.00     0.031 A 
ATOM     50  C   UNL A   1      47.511  30.953  27.616  1.00  0.00     0.049 A 
ATOM     51  C   UNL A   1      46.784  25.648  25.977  1.00  0.00     0.074 A 
ATOM     52  C   UNL A   1      48.788  31.473  27.494  1.00  0.00     0.029 A 
ATOM     53  N   UNL A   1      47.562  29.653  27.136  1.00  0.00    -0.354 N 
ATOM     54  N   UNL A   1      47.108  26.871  26.323  1.00  0.00    -0.248 NA
ATOM     55  C   UNL A   1      47.885  24.876  25.386  1.00  0.00     0.031 C 
ATOM     56  C   UNL A   1      49.604  30.498  26.907  1.00  0.00     0.029 A 
ATOM     57  C   UNL A   1      48.845  29.357  26.705  1.00  0.00     0.049 A 
ATOM     58  H   UNL A   1      46.800  29.032  27.106  1.00  0.00     0.167 HD
ATOM     59  C   UNL A   1      48.455  27.010  26.006  1.00  0.00     0.074 A 
ATOM     60  C   UNL A   1      48.888  25.742  25.455  1.00  0.00     0.031 C 
ATOM     61  C   UNL A   1      49.259  28.091  26.157  1.00  0.00     0.031 A 
BRANCH  48  62
ATOM     62  C   UNL A   1      46.427  33.022  28.587  1.00  0.00    -0.014 A 
ATOM     63  C   UNL A   1      46.356  34.082  27.665  1.00  0.00     0.010 A 
ATOM     64  C   UNL A   1      46.572  33.311  29.955  1.00  0.00     0.010 A 
ATOM     65  C   UNL A   1      46.469  35.405  28.101  1.00  0.00     0.020 A 
ATOM     66  C   UNL A   1      46.664  34.634  30.398  1.00  0.00     0.020 A 
ATOM     67  C   UNL A   1      46.632  35.672  29.464  1.00  0.00     0.054 A 
BRANCH  67  68
ATOM     68  S   UNL A   1      46.774  37.398  30.007  1.00  0.00     0.124 S 
ATOM     69  O   UNL A   1      45.463  37.934  29.647  1.00  0.00    -0.237 OA
ATOM     70  O   UNL A   1      47.026  37.267  31.439  1.00  0.00    -0.237 OA
ATOM     71  O   UNL A   1      47.895  37.915  29.225  1.00  0.00    -0.744 OA
ENDBRANCH  67  68
ENDBRANCH  48  62
BRANCH  49  72
ATOM     72  C   UNL A   1      45.278  23.558  25.618  1.00  0.00    -0.014 A 
ATOM     73  C   UNL A   1      45.328  22.478  26.516  1.00  0.00     0.010 A 
ATOM     74  C   UNL A   1      45.034  23.306  24.255  1.00  0.00     0.010 A 
ATOM     75  C   UNL A   1      45.142  21.170  26.059  1.00  0.00     0.020 A 
ATOM     76  C   UNL A   1      44.825  22.002  23.799  1.00  0.00     0.020 A 
ATOM     77  C   UNL A   1      44.890  20.940  24.703  1.00  0.00     0.054 A 
BRANCH  77  78
ATOM     78  S   UNL A   1      44.583  19.242  24.141  1.00  0.00     0.124 S 
ATOM     79  O   UNL A   1      44.522  19.409  22.693  1.00  0.00    -0.237 OA
ATOM     80  O   UNL A   1      45.749  18.522  24.648  1.00  0.00    -0.237 OA
ATOM     81  O   UNL A   1      43.318  18.894  24.787  1.00  0.00    -0.744 OA
ENDBRANCH  77  78
ENDBRANCH  49  72
BRANCH  61  82
ATOM     82  C   UNL A   1      50.698  27.941  25.748  1.00  0.00    -0.014 A 
ATOM     83  C   UNL A   1      51.673  27.510  26.666  1.00  0.00     0.010 A 
ATOM     84  C   UNL A   1      51.071  28.188  24.414  1.00  0.00     0.010 A 
ATOM     85  C   UNL A   1      53.001  27.354  26.262  1.00  0.00     0.020 A 
ATOM     86  C   UNL A   1      52.395  28.013  24.002  1.00  0.00     0.020 A 
ATOM     87  C   UNL A   1      53.355  27.611  24.933  1.00  0.00     0.054 A 
BRANCH  87  88
ATOM     88  S   UNL A   1      55.078  27.362  24.419  1.00  0.00     0.124 S 
ATOM     89  O   UNL A   1      54.915  26.708  23.124  1.00  0.00    -0.237 OA
ATOM     90  O   UNL A   1      55.603  28.724  24.373  1.00  0.00    -0.237 OA
ATOM     91  O   UNL A   1      55.635  26.523  25.477  1.00  0.00    -0.744 OA
ENDBRANCH  87  88
ENDBRANCH  61  82
ENDBRANCH  35  36
ENDBRANCH  28  30
ENDBRANCH  27  28
ENDBRANCH  26  27
ENDBRANCH  25  26
ENDBRANCH   1  25
TORSDOF 21
ENDMDL
MODEL 2
REMARK VINA RESULT:      -9.9      7.003     12.466
REMARK SMILES [NH3+][C@@H](CCCCC(=O)OCCOC(=O)c1ccc(-c2c3nc(c(-c4ccc(S(=O)(=O)[O-])cc4)c4ccc([nH]4)c(-c4ccc(S(=O)(=O)[O-])cc4)c4nc(c(-c5ccc(S(=O)(=O)[O-])cc5)c5ccc2[nH]5)C=C4)C=C3)cc1)c1ccc(-c2ccccc2)cc1
REMARK SMILES IDX 9 1 7 2 8 3 6 4 5 5 4 6 3 7 2 8 1 9 75 13 76 14 86 15 77 16
REMARK SMILES IDX 85 17 78 18 79 19 80 20 84 21 81 22 83 23 82 24 10 25 11 26
REMARK SMILES IDX 12 27 13 28 14 29 15 30 16 31 74 32 17 33 73 34 18 35 19 36
REMARK SMILES IDX 20 37 67 38 21 39 72 40 66 41 68 42 22 43 71 44 65 45 64 46
REMARK SMILES IDX 23 48 53 49 34 50 52 51 35 52 38 53 51 54 69 55 36 56 37 57
REMARK SMILES IDX 50 59 70 60 39 61 24 62 25 63 33 64 26 65 32 66 27 67 28 68
REMARK SMILES IDX 29 69 30 70 31 71 54 72 55 73 63 74 56 75 62 76 57 77 58 78
REMARK SMILES IDX 59 79 60 80 61 81 40 82 41 83 49 84 42 85 48 86 43 87 44 88
REMARK SMILES IDX 45 89 46 90 47 91
REMARK H PARENT 1 10 1 11 1 12 68 47 38 58
REMARK Flexibility Score: inf
ROOT
ATOM      1  O   UNL A   1      36.817  22.110  25.636  1.00  0.00    -0.462 OA
ENDROOT
BRANCH   1   2
ATOM      2  C   UNL A   1      36.165  22.071  24.445  1.00  0.00     0.305 C 
ATOM      3  O   UNL A   1      36.627  22.448  23.376  1.00  0.00    -0.252 OA
BRANCH   2   4
ATOM      4  C   UNL A   1      34.766  21.528  24.583  1.00  0.00     0.123 C 
BRANCH   4   5
ATOM      5  C   UNL A   1      33.659  22.552  24.320  1.00  0.00     0.012 C 
BRANCH   5   6
ATOM      6  C   UNL A   1      32.573  22.657  25.402  1.00  0.00     0.007 C 
BRANCH   6   7
ATOM      7  C   UNL A   1      31.133  22.944  24.940  1.00  0.00     0.070 C 
BRANCH   7   8
ATOM      8  C   UNL A   1      30.808  24.348  24.375  1.00  0.00     0.211 C 
BRANCH   8   9
ATOM      9  N   UNL A   1      30.928  24.352  22.911  1.00  0.00    -0.351 N 
ATOM     10  H   UNL A   1      31.901  24.187  22.649  1.00  0.00     0.345 HD
ATOM     11  H   UNL A   1      30.627  25.257  22.547  1.00  0.00     0.345 HD
ATOM     12  H   UNL A   1      30.342  23.616  22.519  1.00  0.00     0.345 HD
ENDBRANCH   8   9
BRANCH   8  13
ATOM     13  C   UNL A   1      31.560  25.484  25.046  1.00  0.00     0.009 A 
ATOM     14  C   UNL A   1      32.699  26.026  24.432  1.00  0.00     0.010 A 
ATOM     15  C   UNL A   1      31.132  26.065  26.247  1.00  0.00     0.010 A 
ATOM     16  C   UNL A   1      33.362  27.134  24.981  1.00  0.00     0.009 A 
ATOM     17  C   UNL A   1      31.786  27.180  26.785  1.00  0.00     0.009 A 
ATOM     18  C   UNL A   1      32.909  27.745  26.162  1.00  0.00    -0.018 A 
BRANCH  18  19
ATOM     19  C   UNL A   1      33.570  28.940  26.728  1.00  0.00    -0.018 A 
ATOM     20  C   UNL A   1      32.841  30.094  27.066  1.00  0.00     0.009 A 
ATOM     21  C   UNL A   1      34.956  28.955  26.976  1.00  0.00     0.009 A 
ATOM     22  C   UNL A   1      33.467  31.210  27.634  1.00  0.00     0.001 A 
ATOM     23  C   UNL A   1      35.583  30.066  27.547  1.00  0.00     0.001 A 
ATOM     24  C   UNL A   1      34.837  31.192  27.877  1.00  0.00     0.000 A 
ENDBRANCH  18  19
ENDBRANCH   8  13
ENDBRANCH   7   8
ENDBRANCH   6   7
ENDBRANCH   5   6
ENDBRANCH   4   5
ENDBRANCH   2   4
ENDBRANCH   1   2
BRANCH   1  25
ATOM     25  C   UNL A   1      37.405  23.375  25.982  1.00  0.00     0.274 C 
BRANCH  25  26
ATOM     26  C   UNL A   1      38.886  23.171  26.306  1.00  0.00     0.275 C 
BRANCH  26  27
ATOM     27  O   UNL A   1      39.576  24.434  26.245  1.00  0.00    -0.458 OA
BRANCH  27  28
ATOM     28  C   UNL A   1      40.737  24.515  26.932  1.00  0.00     0.338 C 
ATOM     29  O   UNL A   1      41.716  23.793  26.830  1.00  0.00    -0.246 OA
BRANCH  28  30
ATOM     30  C   UNL A   1      40.659  25.648  27.864  1.00  0.00     0.060 A 
ATOM     31  C   UNL A   1      41.731  26.539  27.965  1.00  0.00     0.016 A 
ATOM     32  C   UNL A   1      39.545  25.782  28.694  1.00  0.00     0.016 A 
ATOM     33  C   UNL A   1      41.696  27.569  28.906  1.00  0.00     0.010 A 
ATOM     34  C   UNL A   1      39.501  26.830  29.616  1.00  0.00     0.010 A 
ATOM     35  C   UNL A   1      40.580  27.723  29.740  1.00  0.00    -0.014 A 
BRANCH  35  36
ATOM     36  C   UNL A   1      40.544  28.788  30.775  1.00  0.00     0.031 A 
ATOM     37  C   UNL A   1      41.458  28.702  31.965  1.00  0.00     0.074 A 
ATOM     38  C   UNL A   1      39.674  29.810  30.667  1.00  0.00     0.049 A 
ATOM     39  N   UNL A   1      41.475  29.433  33.051  1.00  0.00    -0.248 NA
ATOM     40  C   UNL A   1      42.484  27.648  31.932  1.00  0.00     0.031 C 
ATOM     41  C   UNL A   1      38.759  30.030  29.547  1.00  0.00     0.029 A 
ATOM     42  N   UNL A   1      39.410  30.849  31.525  1.00  0.00    -0.354 N 
ATOM     43  C   UNL A   1      42.489  28.910  33.843  1.00  0.00     0.074 A 
ATOM     44  C   UNL A   1      43.059  27.793  33.119  1.00  0.00     0.031 C 
ATOM     45  C   UNL A   1      38.030  31.132  29.788  1.00  0.00     0.029 A 
ATOM     46  C   UNL A   1      38.389  31.666  31.100  1.00  0.00     0.049 A 
ATOM     47  H   UNL A   1      39.904  30.997  32.364  1.00  0.00     0.167 HD
ATOM     48  C   UNL A   1      42.909  29.323  35.064  1.00  0.00     0.031 A 
ATOM     49  C   UNL A   1      37.784  32.702  31.711  1.00  0.00     0.031 A 
ATOM     50  C   UNL A   1      42.347  30.437  35.779  1.00  0.00     0.049 A 
ATOM     51  C   UNL A   1      38.234  33.115  33.084  1.00  0.00     0.074 A 
ATOM     52  C   UNL A   1      42.706  30.934  37.021  1.00  0.00     0.029 A 
ATOM     53  N   UNL A   1      41.309  31.231  35.316  1.00  0.00    -0.354 N 
ATOM     54  N   UNL A   1      39.181  32.598  33.830  1.00  0.00    -0.248 NA
ATOM     55  C   UNL A   1      37.531  34.248  33.702  1.00  0.00     0.031 C 
ATOM     56  C   UNL A   1      41.860  32.009  37.323  1.00  0.00     0.029 A 
ATOM     57  C   UNL A   1      41.006  32.207  36.250  1.00  0.00     0.049 A 
ATOM     58  H   UNL A   1      40.855  31.119  34.450  1.00  0.00     0.167 HD
ATOM     59  C   UNL A   1      39.197  33.352  34.998  1.00  0.00     0.074 A 
ATOM     60  C   UNL A   1      38.177  34.370  34.854  1.00  0.00     0.031 C 
ATOM     61  C   UNL A   1      39.986  33.212  36.092  1.00  0.00     0.031 A 
BRANCH  48  62
ATOM     62  C   UNL A   1      44.012  28.533  35.717  1.00  0.00    -0.014 A 
ATOM     63  C   UNL A   1      43.725  27.463  36.585  1.00  0.00     0.010 A 
ATOM     64  C   UNL A   1      45.352  28.854  35.444  1.00  0.00     0.010 A 
ATOM     65  C   UNL A   1      44.762  26.756  37.199  1.00  0.00     0.020 A 
ATOM     66  C   UNL A   1      46.394  28.134  36.039  1.00  0.00     0.020 A 
ATOM     67  C   UNL A   1      46.090  27.102  36.929  1.00  0.00     0.054 A 
BRANCH  67  68
ATOM     68  S   UNL A   1      47.419  26.167  37.736  1.00  0.00     0.124 S 
ATOM     69  O   UNL A   1      46.869  25.956  39.072  1.00  0.00    -0.237 OA
ATOM     70  O   UNL A   1      47.524  24.970  36.904  1.00  0.00    -0.237 OA
ATOM     71  O   UNL A   1      48.567  27.069  37.669  1.00  0.00    -0.744 OA
ENDBRANCH  67  68
ENDBRANCH  48  62
BRANCH  49  72
ATOM     72  C   UNL A   1      36.659  33.402  31.035  1.00  0.00    -0.014 A 
ATOM     73  C   UNL A   1      36.863  34.072  29.816  1.00  0.00     0.010 A 
ATOM     74  C   UNL A   1      35.369  33.382  31.599  1.00  0.00     0.010 A 
ATOM     75  C   UNL A   1      35.798  34.713  29.176  1.00  0.00     0.020 A 
ATOM     76  C   UNL A   1      34.299  34.002  30.949  1.00  0.00     0.020 A 
ATOM     77  C   UNL A   1      34.522  34.673  29.746  1.00  0.00     0.054 A 
BRANCH  77  78
ATOM     78  S   UNL A   1      33.140  35.452  28.865  1.00  0.00     0.124 S 
ATOM     79  O   UNL A   1      32.622  34.341  28.072  1.00  0.00    -0.237 OA
ATOM     80  O   UNL A   1      32.282  35.907  29.955  1.00  0.00    -0.237 OA
ATOM     81  O   UNL A   1      33.783  36.521  28.102  1.00  0.00    -0.744 OA
ENDBRANCH  77  78
ENDBRANCH  49  72
BRANCH  61  82
ATOM     82  C   UNL A   1      39.798  34.203  37.208  1.00  0.00    -0.014 A 
ATOM     83  C   UNL A   1      38.977  33.907  38.311  1.00  0.00     0.010 A 
ATOM     84  C   UNL A   1      40.493  35.426  37.175  1.00  0.00     0.010 A 
ATOM     85  C   UNL A   1      38.833  34.831  39.349  1.00  0.00     0.020 A 
ATOM     86  C   UNL A   1      40.366  36.343  38.222  1.00  0.00     0.020 A 
ATOM     87  C   UNL A   1      39.525  36.045  39.297  1.00  0.00     0.054 A 
BRANCH  87  88
ATOM     88  S   UNL A   1      39.358  37.212  40.676  1.00  0.00     0.124 S 
ATOM     89  O   UNL A   1      40.716  37.732  40.800  1.00  0.00    -0.237 OA
ATOM     90  O   UNL A   1      38.365  38.161  40.179  1.00  0.00    -0.237 OA
ATOM     91  O   UNL A   1      38.907  36.374  41.784  1.00  0.00    -0.744 OA
ENDBRANCH  87  88
ENDBRANCH  61  82
ENDBRANCH  35  36
ENDBRANCH  28  30
ENDBRANCH  27  28
ENDBRANCH  26  27
ENDBRANCH  25  26
ENDBRANCH   1  25
TORSDOF 21
ENDMDL
MODEL 3
REMARK VINA RESULT:      -9.8      3.289      4.355
REMARK SMILES [NH3+][C@@H](CCCCC(=O)OCCOC(=O)c1ccc(-c2c3nc(c(-c4ccc(S(=O)(=O)[O-])cc4)c4ccc([nH]4)c(-c4ccc(S(=O)(=O)[O-])cc4)c4nc(c(-c5ccc(S(=O)(=O)[O-])cc5)c5ccc2[nH]5)C=C4)C=C3)cc1)c1ccc(-c2ccccc2)cc1
REMARK SMILES IDX 9 1 7 2 8 3 6 4 5 5 4 6 3 7 2 8 1 9 75 13 76 14 86 15 77 16
REMARK SMILES IDX 85 17 78 18 79 19 80 20 84 21 81 22 83 23 82 24 10 25 11 26
REMARK SMILES IDX 12 27 13 28 14 29 15 30 16 31 74 32 17 33 73 34 18 35 19 36
REMARK SMILES IDX 20 37 67 38 21 39 72 40 66 41 68 42 22 43 71 44 65 45 64 46
REMARK SMILES IDX 23 48 53 49 34 50 52 51 35 52 38 53 51 54 69 55 36 56 37 57
REMARK SMILES IDX 50 59 70 60 39 61 24 62 25 63 33 64 26 65 32 66 27 67 28 68
REMARK SMILES IDX 29 69 30 70 31 71 54 72 55 73 63 74 56 75 62 76 57 77 58 78
REMARK SMILES IDX 59 79 60 80 61 81 40 82 41 83 49 84 42 85 48 86 43 87 44 88
REMARK SMILES IDX 45 89 46 90 47 91
REMARK H PARENT 1 10 1 11 1 12 68 47 38 58
REMARK Flexibility Score: inf
ROOT
ATOM      1  O   UNL A   1      31.898  28.759  24.491  1.00  0.00    -0.462 OA
ENDROOT
BRANCH   1   2
ATOM      2  C   UNL A   1      32.138  28.503  23.179  1.00  0.00     0.305 C 
ATOM      3  O   UNL A   1      33.146  28.835  22.569  1.00  0.00    -0.252 OA
BRANCH   2   4
ATOM      4  C   UNL A   1      30.993  27.774  22.526  1.00  0.00     0.123 C 
BRANCH   4   5
ATOM      5  C   UNL A   1      31.382  26.457  21.849  1.00  0.00     0.012 C 
BRANCH   5   6
ATOM      6  C   UNL A   1      31.686  25.283  22.793  1.00  0.00     0.007 C 
BRANCH   6   7
ATOM      7  C   UNL A   1      33.155  24.848  22.938  1.00  0.00     0.070 C 
BRANCH   7   8
ATOM      8  C   UNL A   1      33.616  24.257  24.294  1.00  0.00     0.211 C 
BRANCH   8   9
ATOM      9  N   UNL A   1      34.888  24.862  24.709  1.00  0.00    -0.351 N 
ATOM     10  H   UNL A   1      35.288  24.320  25.477  1.00  0.00     0.345 HD
ATOM     11  H   UNL A   1      34.725  25.820  25.019  1.00  0.00     0.345 HD
ATOM     12  H   UNL A   1      35.537  24.865  23.923  1.00  0.00     0.345 HD
ENDBRANCH   8   9
BRANCH   8  13
ATOM     13  C   UNL A   1      33.622  22.740  24.349  1.00  0.00     0.009 A 
ATOM     14  C   UNL A   1      34.784  22.060  24.739  1.00  0.00     0.010 A 
ATOM     15  C   UNL A   1      32.482  21.972  24.073  1.00  0.00     0.010 A 
ATOM     16  C   UNL A   1      34.794  20.664  24.886  1.00  0.00     0.009 A 
ATOM     17  C   UNL A   1      32.490  20.581  24.235  1.00  0.00     0.009 A 
ATOM     18  C   UNL A   1      33.642  19.897  24.652  1.00  0.00    -0.018 A 
BRANCH  18  19
ATOM     19  C   UNL A   1      33.625  18.431  24.847  1.00  0.00    -0.018 A 
ATOM     20  C   UNL A   1      32.540  17.783  25.464  1.00  0.00     0.009 A 
ATOM     21  C   UNL A   1      34.687  17.626  24.393  1.00  0.00     0.009 A 
ATOM     22  C   UNL A   1      32.515  16.392  25.614  1.00  0.00     0.001 A 
ATOM     23  C   UNL A   1      34.662  16.236  24.537  1.00  0.00     0.001 A 
ATOM     24  C   UNL A   1      33.574  15.620  25.147  1.00  0.00     0.000 A 
ENDBRANCH  18  19
ENDBRANCH   8  13
ENDBRANCH   7   8
ENDBRANCH   6   7
ENDBRANCH   5   6
ENDBRANCH   4   5
ENDBRANCH   2   4
ENDBRANCH   1   2
BRANCH   1  25
ATOM     25  C   UNL A   1      33.060  29.019  25.297  1.00  0.00     0.274 C 
BRANCH  25  26
ATOM     26  C   UNL A   1      32.681  28.926  26.775  1.00  0.00     0.275 C 
BRANCH  26  27
ATOM     27  O   UNL A   1      33.873  28.873  27.582  1.00  0.00    -0.458 OA
BRANCH  27  28
ATOM     28  C   UNL A   1      34.431  30.062  27.905  1.00  0.00     0.338 C 
ATOM     29  O   UNL A   1      33.887  31.154  27.946  1.00  0.00    -0.246 OA
BRANCH  28  30
ATOM     30  C   UNL A   1      35.850  29.850  28.220  1.00  0.00     0.060 A 
ATOM     31  C   UNL A   1      36.811  29.980  27.213  1.00  0.00     0.016 A 
ATOM     32  C   UNL A   1      36.219  29.447  29.503  1.00  0.00     0.016 A 
ATOM     33  C   UNL A   1      38.150  29.700  27.486  1.00  0.00     0.010 A 
ATOM     34  C   UNL A   1      37.564  29.194  29.781  1.00  0.00     0.010 A 
ATOM     35  C   UNL A   1      38.539  29.305  28.773  1.00  0.00    -0.014 A 
BRANCH  35  36
ATOM     36  C   UNL A   1      39.953  28.963  29.071  1.00  0.00     0.031 A 
ATOM     37  C   UNL A   1      40.872  30.012  29.632  1.00  0.00     0.074 A 
ATOM     38  C   UNL A   1      40.422  27.729  28.809  1.00  0.00     0.049 A 
ATOM     39  N   UNL A   1      42.167  29.968  29.811  1.00  0.00    -0.248 NA
ATOM     40  C   UNL A   1      40.250  31.283  30.037  1.00  0.00     0.031 C 
ATOM     41  C   UNL A   1      39.628  26.611  28.298  1.00  0.00     0.029 A 
ATOM     42  N   UNL A   1      41.690  27.214  28.925  1.00  0.00    -0.354 N 
ATOM     43  C   UNL A   1      42.521  31.211  30.320  1.00  0.00     0.074 A 
ATOM     44  C   UNL A   1      41.305  31.993  30.412  1.00  0.00     0.031 C 
ATOM     45  C   UNL A   1      40.429  25.543  28.139  1.00  0.00     0.029 A 
ATOM     46  C   UNL A   1      41.798  25.915  28.487  1.00  0.00     0.049 A 
ATOM     47  H   UNL A   1      42.450  27.725  29.287  1.00  0.00     0.167 HD
ATOM     48  C   UNL A   1      43.748  31.662  30.680  1.00  0.00     0.031 A 
ATOM     49  C   UNL A   1      42.880  25.125  28.346  1.00  0.00     0.031 A 
ATOM     50  C   UNL A   1      44.953  30.883  30.595  1.00  0.00     0.049 A 
ATOM     51  C   UNL A   1      44.237  25.660  28.707  1.00  0.00     0.074 A 
ATOM     52  C   UNL A   1      46.244  31.250  30.937  1.00  0.00     0.029 A 
ATOM     53  N   UNL A   1      45.018  29.575  30.139  1.00  0.00    -0.354 N 
ATOM     54  N   UNL A   1      44.559  26.845  29.167  1.00  0.00    -0.248 NA
ATOM     55  C   UNL A   1      45.379  24.753  28.524  1.00  0.00     0.031 C 
ATOM     56  C   UNL A   1      47.095  30.175  30.655  1.00  0.00     0.029 A 
ATOM     57  C   UNL A   1      46.327  29.124  30.179  1.00  0.00     0.049 A 
ATOM     58  H   UNL A   1      44.248  29.045  29.832  1.00  0.00     0.167 HD
ATOM     59  C   UNL A   1      45.938  26.822  29.344  1.00  0.00     0.074 A 
ATOM     60  C   UNL A   1      46.387  25.500  28.956  1.00  0.00     0.031 C 
ATOM     61  C   UNL A   1      46.758  27.806  29.787  1.00  0.00     0.031 A 
BRANCH  48  62
ATOM     62  C   UNL A   1      43.845  33.084  31.164  1.00  0.00    -0.014 A 
ATOM     63  C   UNL A   1      44.047  34.147  30.264  1.00  0.00     0.010 A 
ATOM     64  C   UNL A   1      43.713  33.363  32.535  1.00  0.00     0.010 A 
ATOM     65  C   UNL A   1      44.157  35.458  30.734  1.00  0.00     0.020 A 
ATOM     66  C   UNL A   1      43.800  34.676  33.008  1.00  0.00     0.020 A 
ATOM     67  C   UNL A   1      44.042  35.714  32.105  1.00  0.00     0.054 A 
BRANCH  67  68
ATOM     68  S   UNL A   1      44.184  37.425  32.691  1.00  0.00     0.124 S 
ATOM     69  O   UNL A   1      43.133  37.483  33.703  1.00  0.00    -0.237 OA
ATOM     70  O   UNL A   1      45.551  37.479  33.202  1.00  0.00    -0.237 OA
ATOM     71  O   UNL A   1      43.938  38.223  31.492  1.00  0.00    -0.744 OA
ENDBRANCH  67  68
ENDBRANCH  48  62
BRANCH  49  72
ATOM     72  C   UNL A   1      42.721  23.749  27.804  1.00  0.00    -0.014 A 
ATOM     73  C   UNL A   1      42.301  22.697  28.636  1.00  0.00     0.010 A 
ATOM     74  C   UNL A   1      42.970  23.490  26.443  1.00  0.00     0.010 A 
ATOM     75  C   UNL A   1      42.137  21.409  28.119  1.00  0.00     0.020 A 
ATOM     76  C   UNL A   1      42.785  22.208  25.919  1.00  0.00     0.020 A 
ATOM     77  C   UNL A   1      42.379  21.172  26.762  1.00  0.00     0.054 A 
BRANCH  77  78
ATOM     78  S   UNL A   1      42.094  19.509  26.094  1.00  0.00     0.124 S 
ATOM     79  O   UNL A   1      40.648  19.507  25.894  1.00  0.00    -0.237 OA
ATOM     80  O   UNL A   1      42.902  19.511  24.878  1.00  0.00    -0.237 OA
ATOM     81  O   UNL A   1      42.582  18.629  27.155  1.00  0.00    -0.744 OA
ENDBRANCH  77  78
ENDBRANCH  49  72
BRANCH  61  82
ATOM     82  C   UNL A   1      48.222  27.483  29.905  1.00  0.00    -0.014 A 
ATOM     83  C   UNL A   1      49.117  27.779  28.862  1.00  0.00     0.010 A 
ATOM     84  C   UNL A   1      48.715  26.919  31.096  1.00  0.00     0.010 A 
ATOM     85  C   UNL A   1      50.478  27.492  28.999  1.00  0.00     0.020 A 
ATOM     86  C   UNL A   1      50.078  26.650  31.243  1.00  0.00     0.020 A 
ATOM     87  C   UNL A   1      50.950  26.926  30.187  1.00  0.00     0.054 A 
BRANCH  87  88
ATOM     88  S   UNL A   1      52.727  26.601  30.360  1.00  0.00     0.124 S 
ATOM     89  O   UNL A   1      52.742  25.518  31.340  1.00  0.00    -0.237 OA
ATOM     90  O   UNL A   1      53.122  26.227  29.005  1.00  0.00    -0.237 OA
ATOM     91  O   UNL A   1      53.266  27.875  30.830  1.00  0.00    -0.744 OA
ENDBRANCH  87  88
ENDBRANCH  61  82
ENDBRANCH  35  36
ENDBRANCH  28  30
ENDBRANCH  27  28
ENDBRANCH  26  27
ENDBRANCH  25  26
ENDBRANCH   1  25
TORSDOF 21
ENDMDL
