MODEL 1
REMARK VINA RESULT:      -9.7      0.000      0.000
REMARK SMILES O=C(CCCC[NH+]1CC2(CCOCC2)C1)OCCOC(=O)c1ccc(-c2c3nc(c(-c4ccc(S(=O)(=O)[O-])cc4)c4ccc([nH]4)c(-c4ccc(S(=O)(=O)[O-])cc4)c4nc(c(-c5ccc(S(=O)(=O)[O-])cc5)c5ccc2[nH]5)C=C4)C=C3)cc1
REMARK SMILES IDX 17 1 16 2 2 3 1 4 3 5 4 6 5 7 6 8 7 9 8 10 15 11 9 13 10 14
REMARK SMILES IDX 14 15 11 16 13 17 12 18 18 19 19 20 20 21 21 22 22 23 23 24
REMARK SMILES IDX 81 25 24 26 80 27 25 28 26 29 27 30 74 31 28 32 79 33 73 34
REMARK SMILES IDX 75 35 29 36 78 37 72 38 71 39 30 41 60 42 41 43 59 44 42 45
REMARK SMILES IDX 45 46 58 47 76 48 43 49 44 50 57 52 77 53 46 54 31 55 32 56
REMARK SMILES IDX 40 57 33 58 39 59 34 60 35 61 36 62 37 63 38 64 61 65 62 66
REMARK SMILES IDX 70 67 63 68 69 69 64 70 65 71 66 72 67 73 68 74 47 75 48 76
REMARK SMILES IDX 56 77 49 78 55 79 50 80 51 81 52 82 53 83 54 84
REMARK H PARENT 7 12 75 40 45 51
REMARK Flexibility Score: inf
ROOT
ATOM      1  C   UNL A   1      31.752  31.388  26.484  1.00  0.00     0.274 C 
ENDROOT
BRANCH   1   2
ATOM      2  O   UNL A   1      32.132  30.269  27.303  1.00  0.00    -0.462 OA
BRANCH   2   3
ATOM      3  C   UNL A   1      33.235  29.532  27.012  1.00  0.00     0.305 C 
ATOM      4  O   UNL A   1      34.344  30.049  26.931  1.00  0.00    -0.252 OA
BRANCH   3   5
ATOM      5  C   UNL A   1      33.005  28.084  26.649  1.00  0.00     0.123 C 
BRANCH   5   6
ATOM      6  C   UNL A   1      31.540  27.647  26.534  1.00  0.00     0.017 C 
BRANCH   6   7
ATOM      7  C   UNL A   1      30.966  27.455  25.115  1.00  0.00     0.062 C 
BRANCH   7   8
ATOM      8  C   UNL A   1      30.873  28.706  24.210  1.00  0.00     0.262 C 
BRANCH   8   9
ATOM      9  N   UNL A   1      30.356  28.604  22.837  1.00  0.00    -0.334 N 
ATOM     10  C   UNL A   1      30.327  29.844  22.051  1.00  0.00     0.275 C 
ATOM     11  C   UNL A   1      28.865  28.579  22.849  1.00  0.00     0.275 C 
ATOM     12  H   UNL A   1      30.929  27.834  22.489  1.00  0.00     0.348 HD
ATOM     13  C   UNL A   1      28.842  30.073  22.425  1.00  0.00     0.073 C 
ATOM     14  C   UNL A   1      27.882  30.408  21.278  1.00  0.00     0.047 C 
ATOM     15  C   UNL A   1      28.614  31.100  23.529  1.00  0.00     0.047 C 
ATOM     16  C   UNL A   1      28.133  31.848  20.828  1.00  0.00     0.161 C 
ATOM     17  C   UNL A   1      28.927  32.480  22.980  1.00  0.00     0.161 C 
ATOM     18  O   UNL A   1      28.024  32.766  21.917  1.00  0.00    -0.381 OA
ENDBRANCH   8   9
ENDBRANCH   7   8
ENDBRANCH   6   7
ENDBRANCH   5   6
ENDBRANCH   3   5
ENDBRANCH   2   3
ENDBRANCH   1   2
BRANCH   1  19
ATOM     19  C   UNL A   1      31.875  32.740  27.195  1.00  0.00     0.275 C 
BRANCH  19  20
ATOM     20  O   UNL A   1      33.242  33.130  27.443  1.00  0.00    -0.458 OA
BRANCH  20  21
ATOM     21  C   UNL A   1      33.406  34.032  28.449  1.00  0.00     0.338 C 
ATOM     22  O   UNL A   1      32.678  34.975  28.689  1.00  0.00    -0.246 OA
BRANCH  21  23
ATOM     23  C   UNL A   1      34.559  33.664  29.309  1.00  0.00     0.060 A 
ATOM     24  C   UNL A   1      35.813  34.197  28.985  1.00  0.00     0.016 A 
ATOM     25  C   UNL A   1      34.445  32.769  30.378  1.00  0.00     0.016 A 
ATOM     26  C   UNL A   1      36.955  33.819  29.701  1.00  0.00     0.010 A 
ATOM     27  C   UNL A   1      35.590  32.405  31.106  1.00  0.00     0.010 A 
ATOM     28  C   UNL A   1      36.863  32.903  30.758  1.00  0.00    -0.014 A 
BRANCH  28  29
ATOM     29  C   UNL A   1      38.097  32.364  31.407  1.00  0.00     0.031 A 
ATOM     30  C   UNL A   1      38.554  32.952  32.715  1.00  0.00     0.074 A 
ATOM     31  C   UNL A   1      38.813  31.354  30.872  1.00  0.00     0.049 A 
ATOM     32  N   UNL A   1      39.580  32.620  33.456  1.00  0.00    -0.248 NA
ATOM     33  C   UNL A   1      37.744  34.050  33.264  1.00  0.00     0.031 C 
ATOM     34  C   UNL A   1      38.480  30.647  29.645  1.00  0.00     0.029 A 
ATOM     35  N   UNL A   1      39.983  30.759  31.285  1.00  0.00    -0.354 N 
ATOM     36  C   UNL A   1      39.525  33.449  34.567  1.00  0.00     0.074 A 
ATOM     37  C   UNL A   1      38.413  34.353  34.365  1.00  0.00     0.031 C 
ATOM     38  C   UNL A   1      39.445  29.755  29.363  1.00  0.00     0.029 A 
ATOM     39  C   UNL A   1      40.461  29.809  30.408  1.00  0.00     0.049 A 
ATOM     40  H   UNL A   1      40.436  30.989  32.127  1.00  0.00     0.167 HD
ATOM     41  C   UNL A   1      40.298  33.440  35.680  1.00  0.00     0.031 A 
ATOM     42  C   UNL A   1      41.584  29.064  30.435  1.00  0.00     0.031 A 
ATOM     43  C   UNL A   1      41.413  32.559  35.891  1.00  0.00     0.049 A 
ATOM     44  C   UNL A   1      42.502  29.148  31.624  1.00  0.00     0.074 A 
ATOM     45  C   UNL A   1      42.227  32.456  37.005  1.00  0.00     0.029 A 
ATOM     46  N   UNL A   1      41.884  31.640  34.965  1.00  0.00    -0.354 N 
ATOM     47  N   UNL A   1      42.387  29.888  32.701  1.00  0.00    -0.248 NA
ATOM     48  C   UNL A   1      43.679  28.266  31.623  1.00  0.00     0.031 C 
ATOM     49  C   UNL A   1      43.222  31.510  36.733  1.00  0.00     0.029 A 
ATOM     50  C   UNL A   1      42.995  30.986  35.471  1.00  0.00     0.049 A 
ATOM     51  H   UNL A   1      41.485  31.477  34.080  1.00  0.00     0.167 HD
ATOM     52  C   UNL A   1      43.442  29.519  33.528  1.00  0.00     0.074 A 
ATOM     53  C   UNL A   1      44.194  28.502  32.823  1.00  0.00     0.031 C 
ATOM     54  C   UNL A   1      43.740  29.970  34.772  1.00  0.00     0.031 A 
BRANCH  41  55
ATOM     55  C   UNL A   1      39.946  34.436  36.748  1.00  0.00    -0.014 A 
ATOM     56  C   UNL A   1      40.506  35.728  36.740  1.00  0.00     0.010 A 
ATOM     57  C   UNL A   1      39.073  34.071  37.785  1.00  0.00     0.010 A 
ATOM     58  C   UNL A   1      40.252  36.613  37.790  1.00  0.00     0.020 A 
ATOM     59  C   UNL A   1      38.794  34.965  38.823  1.00  0.00     0.020 A 
ATOM     60  C   UNL A   1      39.408  36.220  38.832  1.00  0.00     0.054 A 
BRANCH  60  61
ATOM     61  S   UNL A   1      39.123  37.371  40.203  1.00  0.00     0.124 S 
ATOM     62  O   UNL A   1      38.234  38.354  39.587  1.00  0.00    -0.237 OA
ATOM     63  O   UNL A   1      38.507  36.519  41.217  1.00  0.00    -0.237 OA
ATOM     64  O   UNL A   1      40.460  37.858  40.529  1.00  0.00    -0.744 OA
ENDBRANCH  60  61
ENDBRANCH  41  55
BRANCH  42  65
ATOM     65  C   UNL A   1      41.889  28.134  29.311  1.00  0.00    -0.014 A 
ATOM     66  C   UNL A   1      42.714  28.541  28.249  1.00  0.00     0.010 A 
ATOM     67  C   UNL A   1      41.351  26.834  29.299  1.00  0.00     0.010 A 
ATOM     68  C   UNL A   1      42.984  27.672  27.187  1.00  0.00     0.020 A 
ATOM     69  C   UNL A   1      41.633  25.955  28.247  1.00  0.00     0.020 A 
ATOM     70  C   UNL A   1      42.442  26.383  27.193  1.00  0.00     0.054 A 
BRANCH  70  71
ATOM     71  S   UNL A   1      42.847  25.258  25.827  1.00  0.00     0.124 S 
ATOM     72  O   UNL A   1      42.053  24.079  26.156  1.00  0.00    -0.237 OA
ATOM     73  O   UNL A   1      42.405  26.011  24.657  1.00  0.00    -0.237 OA
ATOM     74  O   UNL A   1      44.294  25.088  25.939  1.00  0.00    -0.744 OA
ENDBRANCH  70  71
ENDBRANCH  42  65
BRANCH  54  75
ATOM     75  C   UNL A   1      44.900  29.332  35.488  1.00  0.00    -0.014 A 
ATOM     76  C   UNL A   1      46.192  29.882  35.434  1.00  0.00     0.010 A 
ATOM     77  C   UNL A   1      44.675  28.192  36.283  1.00  0.00     0.010 A 
ATOM     78  C   UNL A   1      47.243  29.291  36.143  1.00  0.00     0.020 A 
ATOM     79  C   UNL A   1      45.717  27.613  37.014  1.00  0.00     0.020 A 
ATOM     80  C   UNL A   1      46.998  28.160  36.928  1.00  0.00     0.054 A 
BRANCH  80  81
ATOM     81  S   UNL A   1      48.364  27.443  37.886  1.00  0.00     0.124 S 
ATOM     82  O   UNL A   1      49.482  28.304  37.510  1.00  0.00    -0.237 OA
ATOM     83  O   UNL A   1      47.899  27.582  39.264  1.00  0.00    -0.237 OA
ATOM     84  O   UNL A   1      48.444  26.068  37.397  1.00  0.00    -0.744 OA
ENDBRANCH  80  81
ENDBRANCH  54  75
ENDBRANCH  28  29
ENDBRANCH  21  23
ENDBRANCH  20  21
ENDBRANCH  19  20
ENDBRANCH   1  19
TORSDOF 18
ENDMDL
MODEL 2
REMARK VINA RESULT:      -9.5      3.319      9.418
REMARK SMILES O=C(CCCC[NH+]1CC2(CCOCC2)C1)OCCOC(=O)c1ccc(-c2c3nc(c(-c4ccc(S(=O)(=O)[O-])cc4)c4ccc([nH]4)c(-c4ccc(S(=O)(=O)[O-])cc4)c4nc(c(-c5ccc(S(=O)(=O)[O-])cc5)c5ccc2[nH]5)C=C4)C=C3)cc1
REMARK SMILES IDX 17 1 16 2 2 3 1 4 3 5 4 6 5 7 6 8 7 9 8 10 15 11 9 13 10 14
REMARK SMILES IDX 14 15 11 16 13 17 12 18 18 19 19 20 20 21 21 22 22 23 23 24
REMARK SMILES IDX 81 25 24 26 80 27 25 28 26 29 27 30 74 31 28 32 79 33 73 34
REMARK SMILES IDX 75 35 29 36 78 37 72 38 71 39 30 41 60 42 41 43 59 44 42 45
REMARK SMILES IDX 45 46 58 47 76 48 43 49 44 50 57 52 77 53 46 54 31 55 32 56
REMARK SMILES IDX 40 57 33 58 39 59 34 60 35 61 36 62 37 63 38 64 61 65 62 66
REMARK SMILES IDX 70 67 63 68 69 69 64 70 65 71 66 72 67 73 68 74 47 75 48 76
REMARK SMILES IDX 56 77 49 78 55 79 50 80 51 81 52 82 53 83 54 84
REMARK H PARENT 7 12 75 40 45 51
REMARK Flexibility Score: inf
ROOT
ATOM      1  C   UNL A   1      39.775  22.506  26.888  1.00  0.00     0.274 C 
ENDROOT
BRANCH   1   2
ATOM      2  O   UNL A   1      39.087  21.950  25.754  1.00  0.00    -0.462 OA
BRANCH   2   3
ATOM      3  C   UNL A   1      37.755  22.145  25.579  1.00  0.00     0.305 C 
ATOM      4  O   UNL A   1      37.172  23.082  26.116  1.00  0.00    -0.252 OA
BRANCH   3   5
ATOM      5  C   UNL A   1      37.007  21.076  24.820  1.00  0.00     0.123 C 
BRANCH   5   6
ATOM      6  C   UNL A   1      35.627  20.701  25.375  1.00  0.00     0.017 C 
BRANCH   6   7
ATOM      7  C   UNL A   1      34.405  20.959  24.470  1.00  0.00     0.062 C 
BRANCH   7   8
ATOM      8  C   UNL A   1      33.674  22.313  24.631  1.00  0.00     0.262 C 
BRANCH   8   9
ATOM      9  N   UNL A   1      34.249  23.385  25.456  1.00  0.00    -0.334 N 
ATOM     10  C   UNL A   1      33.317  24.124  26.317  1.00  0.00     0.275 C 
ATOM     11  C   UNL A   1      34.458  24.611  24.633  1.00  0.00     0.275 C 
ATOM     12  H   UNL A   1      35.009  22.874  25.906  1.00  0.00     0.348 HD
ATOM     13  C   UNL A   1      33.176  25.237  25.250  1.00  0.00     0.073 C 
ATOM     14  C   UNL A   1      33.327  26.684  25.732  1.00  0.00     0.047 C 
ATOM     15  C   UNL A   1      31.902  25.162  24.415  1.00  0.00     0.047 C 
ATOM     16  C   UNL A   1      32.070  27.080  26.507  1.00  0.00     0.161 C 
ATOM     17  C   UNL A   1      30.724  25.538  25.295  1.00  0.00     0.161 C 
ATOM     18  O   UNL A   1      30.888  26.884  25.729  1.00  0.00    -0.381 OA
ENDBRANCH   8   9
ENDBRANCH   7   8
ENDBRANCH   6   7
ENDBRANCH   5   6
ENDBRANCH   3   5
ENDBRANCH   2   3
ENDBRANCH   1   2
BRANCH   1  19
ATOM     19  C   UNL A   1      40.580  23.767  26.560  1.00  0.00     0.275 C 
BRANCH  19  20
ATOM     20  O   UNL A   1      39.770  24.959  26.497  1.00  0.00    -0.458 OA
BRANCH  20  21
ATOM     21  C   UNL A   1      40.469  26.123  26.414  1.00  0.00     0.338 C 
ATOM     22  O   UNL A   1      41.142  26.487  25.470  1.00  0.00    -0.246 OA
BRANCH  21  23
ATOM     23  C   UNL A   1      40.229  26.973  27.608  1.00  0.00     0.060 A 
ATOM     24  C   UNL A   1      40.901  28.199  27.683  1.00  0.00     0.016 A 
ATOM     25  C   UNL A   1      39.414  26.566  28.669  1.00  0.00     0.016 A 
ATOM     26  C   UNL A   1      40.788  29.005  28.822  1.00  0.00     0.010 A 
ATOM     27  C   UNL A   1      39.288  27.386  29.803  1.00  0.00     0.010 A 
ATOM     28  C   UNL A   1      39.995  28.601  29.906  1.00  0.00    -0.014 A 
BRANCH  28  29
ATOM     29  C   UNL A   1      40.013  29.368  31.188  1.00  0.00     0.031 A 
ATOM     30  C   UNL A   1      41.055  29.041  32.225  1.00  0.00     0.074 A 
ATOM     31  C   UNL A   1      39.138  30.361  31.450  1.00  0.00     0.049 A 
ATOM     32  N   UNL A   1      41.262  29.596  33.391  1.00  0.00    -0.248 NA
ATOM     33  C   UNL A   1      41.990  27.954  31.899  1.00  0.00     0.031 C 
ATOM     34  C   UNL A   1      38.105  30.832  30.538  1.00  0.00     0.029 A 
ATOM     35  N   UNL A   1      38.963  31.141  32.571  1.00  0.00    -0.354 N 
ATOM     36  C   UNL A   1      42.363  28.944  33.927  1.00  0.00     0.074 A 
ATOM     37  C   UNL A   1      42.730  27.899  32.995  1.00  0.00     0.031 C 
ATOM     38  C   UNL A   1      37.364  31.774  31.145  1.00  0.00     0.029 A 
ATOM     39  C   UNL A   1      37.885  31.995  32.490  1.00  0.00     0.049 A 
ATOM     40  H   UNL A   1      39.554  31.093  33.356  1.00  0.00     0.167 HD
ATOM     41  C   UNL A   1      43.041  29.209  35.070  1.00  0.00     0.031 A 
ATOM     42  C   UNL A   1      37.370  32.858  33.387  1.00  0.00     0.031 A 
ATOM     43  C   UNL A   1      42.683  30.233  36.012  1.00  0.00     0.049 A 
ATOM     44  C   UNL A   1      38.064  33.059  34.706  1.00  0.00     0.074 A 
ATOM     45  C   UNL A   1      43.337  30.595  37.176  1.00  0.00     0.029 A 
ATOM     46  N   UNL A   1      41.566  31.048  35.910  1.00  0.00    -0.354 N 
ATOM     47  N   UNL A   1      39.151  32.483  35.159  1.00  0.00    -0.248 NA
ATOM     48  C   UNL A   1      37.488  34.059  35.619  1.00  0.00     0.031 C 
ATOM     49  C   UNL A   1      42.587  31.596  37.805  1.00  0.00     0.029 A 
ATOM     50  C   UNL A   1      41.496  31.893  37.006  1.00  0.00     0.049 A 
ATOM     51  H   UNL A   1      40.919  31.029  35.167  1.00  0.00     0.167 HD
ATOM     52  C   UNL A   1      39.421  33.090  36.381  1.00  0.00     0.074 A 
ATOM     53  C   UNL A   1      38.376  34.068  36.605  1.00  0.00     0.031 C 
ATOM     54  C   UNL A   1      40.459  32.870  37.226  1.00  0.00     0.031 A 
BRANCH  41  55
ATOM     55  C   UNL A   1      44.244  28.353  35.349  1.00  0.00    -0.014 A 
ATOM     56  C   UNL A   1      44.123  27.162  36.091  1.00  0.00     0.010 A 
ATOM     57  C   UNL A   1      45.510  28.754  34.893  1.00  0.00     0.010 A 
ATOM     58  C   UNL A   1      45.258  26.425  36.431  1.00  0.00     0.020 A 
ATOM     59  C   UNL A   1      46.646  28.003  35.208  1.00  0.00     0.020 A 
ATOM     60  C   UNL A   1      46.515  26.859  35.998  1.00  0.00     0.054 A 
BRANCH  60  61
ATOM     61  S   UNL A   1      47.979  25.906  36.483  1.00  0.00     0.124 S 
ATOM     62  O   UNL A   1      47.780  25.765  37.924  1.00  0.00    -0.237 OA
ATOM     63  O   UNL A   1      47.835  24.676  35.708  1.00  0.00    -0.237 OA
ATOM     64  O   UNL A   1      49.094  26.762  36.089  1.00  0.00    -0.744 OA
ENDBRANCH  60  61
ENDBRANCH  41  55
BRANCH  42  65
ATOM     65  C   UNL A   1      36.143  33.636  33.055  1.00  0.00    -0.014 A 
ATOM     66  C   UNL A   1      34.866  33.087  33.269  1.00  0.00     0.010 A 
ATOM     67  C   UNL A   1      36.247  34.932  32.518  1.00  0.00     0.010 A 
ATOM     68  C   UNL A   1      33.717  33.812  32.939  1.00  0.00     0.020 A 
ATOM     69  C   UNL A   1      35.100  35.669  32.203  1.00  0.00     0.020 A 
ATOM     70  C   UNL A   1      33.841  35.100  32.408  1.00  0.00     0.054 A 
BRANCH  70  71
ATOM     71  S   UNL A   1      32.334  36.040  32.034  1.00  0.00     0.124 S 
ATOM     72  O   UNL A   1      32.530  37.257  32.815  1.00  0.00    -0.237 OA
ATOM     73  O   UNL A   1      32.414  36.199  30.585  1.00  0.00    -0.237 OA
ATOM     74  O   UNL A   1      31.259  35.165  32.498  1.00  0.00    -0.744 OA
ENDBRANCH  70  71
ENDBRANCH  42  65
BRANCH  54  75
ATOM     75  C   UNL A   1      40.560  33.737  38.452  1.00  0.00    -0.014 A 
ATOM     76  C   UNL A   1      40.028  33.329  39.688  1.00  0.00     0.010 A 
ATOM     77  C   UNL A   1      41.258  34.957  38.377  1.00  0.00     0.010 A 
ATOM     78  C   UNL A   1      40.172  34.137  40.820  1.00  0.00     0.020 A 
ATOM     79  C   UNL A   1      41.427  35.755  39.512  1.00  0.00     0.020 A 
ATOM     80  C   UNL A   1      40.871  35.345  40.724  1.00  0.00     0.054 A 
BRANCH  80  81
ATOM     81  S   UNL A   1      41.096  36.350  42.220  1.00  0.00     0.124 S 
ATOM     82  O   UNL A   1      40.944  37.706  41.700  1.00  0.00    -0.237 OA
ATOM     83  O   UNL A   1      40.015  35.884  43.086  1.00  0.00    -0.237 OA
ATOM     84  O   UNL A   1      42.442  36.002  42.671  1.00  0.00    -0.744 OA
ENDBRANCH  80  81
ENDBRANCH  54  75
ENDBRANCH  28  29
ENDBRANCH  21  23
ENDBRANCH  20  21
ENDBRANCH  19  20
ENDBRANCH   1  19
TORSDOF 18
ENDMDL
MODEL 3
REMARK VINA RESULT:      -9.4      0.685      8.450
REMARK SMILES O=C(CCCC[NH+]1CC2(CCOCC2)C1)OCCOC(=O)c1ccc(-c2c3nc(c(-c4ccc(S(=O)(=O)[O-])cc4)c4ccc([nH]4)c(-c4ccc(S(=O)(=O)[O-])cc4)c4nc(c(-c5ccc(S(=O)(=O)[O-])cc5)c5ccc2[nH]5)C=C4)C=C3)cc1
REMARK SMILES IDX 17 1 16 2 2 3 1 4 3 5 4 6 5 7 6 8 7 9 8 10 15 11 9 13 10 14
REMARK SMILES IDX 14 15 11 16 13 17 12 18 18 19 19 20 20 21 21 22 22 23 23 24
REMARK SMILES IDX 81 25 24 26 80 27 25 28 26 29 27 30 74 31 28 32 79 33 73 34
REMARK SMILES IDX 75 35 29 36 78 37 72 38 71 39 30 41 60 42 41 43 59 44 42 45
REMARK SMILES IDX 45 46 58 47 76 48 43 49 44 50 57 52 77 53 46 54 31 55 32 56
REMARK SMILES IDX 40 57 33 58 39 59 34 60 35 61 36 62 37 63 38 64 61 65 62 66
REMARK SMILES IDX 70 67 63 68 69 69 64 70 65 71 66 72 67 73 68 74 47 75 48 76
REMARK SMILES IDX 56 77 49 78 55 79 50 80 51 81 52 82 53 83 54 84
REMARK H PARENT 7 12 75 40 45 51
REMARK Flexibility Score: inf
ROOT
ATOM      1  C   UNL A   1      31.599  31.201  26.303  1.00  0.00     0.274 C 
ENDROOT
BRANCH   1   2
ATOM      2  O   UNL A   1      31.762  30.050  27.149  1.00  0.00    -0.462 OA
BRANCH   2   3
ATOM      3  C   UNL A   1      32.880  29.283  27.080  1.00  0.00     0.305 C 
ATOM      4  O   UNL A   1      33.987  29.748  27.331  1.00  0.00    -0.252 OA
BRANCH   3   5
ATOM      5  C   UNL A   1      32.710  27.884  26.538  1.00  0.00     0.123 C 
BRANCH   5   6
ATOM      6  C   UNL A   1      31.277  27.476  26.177  1.00  0.00     0.017 C 
BRANCH   6   7
ATOM      7  C   UNL A   1      30.906  27.439  24.680  1.00  0.00     0.062 C 
BRANCH   7   8
ATOM      8  C   UNL A   1      30.544  28.783  24.004  1.00  0.00     0.262 C 
BRANCH   8   9
ATOM      9  N   UNL A   1      29.934  28.811  22.667  1.00  0.00    -0.334 N 
ATOM     10  C   UNL A   1      30.018  30.080  21.932  1.00  0.00     0.275 C 
ATOM     11  C   UNL A   1      28.456  28.978  22.780  1.00  0.00     0.275 C 
ATOM     12  H   UNL A   1      30.377  27.991  22.252  1.00  0.00     0.348 HD
ATOM     13  C   UNL A   1      28.602  30.481  22.414  1.00  0.00     0.073 C 
ATOM     14  C   UNL A   1      27.625  30.988  21.349  1.00  0.00     0.047 C 
ATOM     15  C   UNL A   1      28.581  31.477  23.569  1.00  0.00     0.047 C 
ATOM     16  C   UNL A   1      28.033  32.403  20.937  1.00  0.00     0.161 C 
ATOM     17  C   UNL A   1      29.037  32.828  23.051  1.00  0.00     0.161 C 
ATOM     18  O   UNL A   1      28.115  33.277  22.064  1.00  0.00    -0.381 OA
ENDBRANCH   8   9
ENDBRANCH   7   8
ENDBRANCH   6   7
ENDBRANCH   5   6
ENDBRANCH   3   5
ENDBRANCH   2   3
ENDBRANCH   1   2
BRANCH   1  19
ATOM     19  C   UNL A   1      31.848  32.531  27.021  1.00  0.00     0.275 C 
BRANCH  19  20
ATOM     20  O   UNL A   1      33.192  32.660  27.529  1.00  0.00    -0.458 OA
BRANCH  20  21
ATOM     21  C   UNL A   1      33.406  33.754  28.310  1.00  0.00     0.338 C 
ATOM     22  O   UNL A   1      32.727  34.761  28.330  1.00  0.00    -0.246 OA
BRANCH  21  23
ATOM     23  C   UNL A   1      34.545  33.531  29.236  1.00  0.00     0.060 A 
ATOM     24  C   UNL A   1      35.778  34.109  28.908  1.00  0.00     0.016 A 
ATOM     25  C   UNL A   1      34.442  32.724  30.374  1.00  0.00     0.016 A 
ATOM     26  C   UNL A   1      36.911  33.863  29.692  1.00  0.00     0.010 A 
ATOM     27  C   UNL A   1      35.578  32.493  31.168  1.00  0.00     0.010 A 
ATOM     28  C   UNL A   1      36.832  33.036  30.821  1.00  0.00    -0.014 A 
BRANCH  28  29
ATOM     29  C   UNL A   1      38.069  32.629  31.554  1.00  0.00     0.031 A 
ATOM     30  C   UNL A   1      38.951  31.560  30.966  1.00  0.00     0.074 A 
ATOM     31  C   UNL A   1      38.440  33.196  32.720  1.00  0.00     0.049 A 
ATOM     32  N   UNL A   1      40.077  31.074  31.423  1.00  0.00    -0.248 NA
ATOM     33  C   UNL A   1      38.512  30.969  29.693  1.00  0.00     0.031 C 
ATOM     34  C   UNL A   1      37.728  34.272  33.394  1.00  0.00     0.029 A 
ATOM     35  N   UNL A   1      39.500  32.933  33.557  1.00  0.00    -0.354 N 
ATOM     36  C   UNL A   1      40.492  30.141  30.484  1.00  0.00     0.074 A 
ATOM     37  C   UNL A   1      39.458  30.069  29.474  1.00  0.00     0.031 C 
ATOM     38  C   UNL A   1      38.326  34.543  34.566  1.00  0.00     0.029 A 
ATOM     39  C   UNL A   1      39.485  33.672  34.720  1.00  0.00     0.049 A 
ATOM     40  H   UNL A   1      40.203  32.277  33.345  1.00  0.00     0.167 HD
ATOM     41  C   UNL A   1      41.646  29.432  30.436  1.00  0.00     0.031 A 
ATOM     42  C   UNL A   1      40.306  33.658  35.789  1.00  0.00     0.031 A 
ATOM     43  C   UNL A   1      42.676  29.480  31.437  1.00  0.00     0.049 A 
ATOM     44  C   UNL A   1      41.525  32.777  35.777  1.00  0.00     0.074 A 
ATOM     45  C   UNL A   1      43.894  28.824  31.447  1.00  0.00     0.029 A 
ATOM     46  N   UNL A   1      42.605  30.213  32.612  1.00  0.00    -0.354 N 
ATOM     47  N   UNL A   1      41.937  31.956  34.840  1.00  0.00    -0.248 NA
ATOM     48  C   UNL A   1      42.414  32.850  36.946  1.00  0.00     0.031 C 
ATOM     49  C   UNL A   1      44.538  29.120  32.654  1.00  0.00     0.029 A 
ATOM     50  C   UNL A   1      43.745  30.002  33.369  1.00  0.00     0.049 A 
ATOM     51  H   UNL A   1      41.855  30.797  32.868  1.00  0.00     0.167 HD
ATOM     52  C   UNL A   1      43.159  31.461  35.282  1.00  0.00     0.074 A 
ATOM     53  C   UNL A   1      43.414  32.061  36.575  1.00  0.00     0.031 C 
ATOM     54  C   UNL A   1      44.002  30.603  34.654  1.00  0.00     0.031 A 
BRANCH  41  55
ATOM     55  C   UNL A   1      41.831  28.535  29.244  1.00  0.00    -0.014 A 
ATOM     56  C   UNL A   1      41.421  27.190  29.286  1.00  0.00     0.010 A 
ATOM     57  C   UNL A   1      42.448  29.032  28.084  1.00  0.00     0.010 A 
ATOM     58  C   UNL A   1      41.687  26.338  28.212  1.00  0.00     0.020 A 
ATOM     59  C   UNL A   1      42.690  28.189  26.996  1.00  0.00     0.020 A 
ATOM     60  C   UNL A   1      42.333  26.841  27.079  1.00  0.00     0.054 A 
BRANCH  60  61
ATOM     61  S   UNL A   1      42.702  25.709  25.712  1.00  0.00     0.124 S 
ATOM     62  O   UNL A   1      41.498  25.826  24.893  1.00  0.00    -0.237 OA
ATOM     63  O   UNL A   1      43.913  26.286  25.133  1.00  0.00    -0.237 OA
ATOM     64  O   UNL A   1      42.884  24.419  26.372  1.00  0.00    -0.744 OA
ENDBRANCH  60  61
ENDBRANCH  41  55
BRANCH  42  65
ATOM     65  C   UNL A   1      40.027  34.542  36.956  1.00  0.00    -0.014 A 
ATOM     66  C   UNL A   1      39.240  34.085  38.028  1.00  0.00     0.010 A 
ATOM     67  C   UNL A   1      40.544  35.849  36.998  1.00  0.00     0.010 A 
ATOM     68  C   UNL A   1      38.964  34.923  39.113  1.00  0.00     0.020 A 
ATOM     69  C   UNL A   1      40.286  36.685  38.090  1.00  0.00     0.020 A 
ATOM     70  C   UNL A   1      39.491  36.218  39.138  1.00  0.00     0.054 A 
BRANCH  70  71
ATOM     71  S   UNL A   1      39.158  37.269  40.580  1.00  0.00     0.124 S 
ATOM     72  O   UNL A   1      40.487  37.780  40.899  1.00  0.00    -0.237 OA
ATOM     73  O   UNL A   1      38.215  38.248  40.047  1.00  0.00    -0.237 OA
ATOM     74  O   UNL A   1      38.594  36.341  41.559  1.00  0.00    -0.744 OA
ENDBRANCH  70  71
ENDBRANCH  42  65
BRANCH  54  75
ATOM     75  C   UNL A   1      45.316  30.297  35.323  1.00  0.00    -0.014 A 
ATOM     76  C   UNL A   1      46.477  31.037  35.038  1.00  0.00     0.010 A 
ATOM     77  C   UNL A   1      45.370  29.288  36.302  1.00  0.00     0.010 A 
ATOM     78  C   UNL A   1      47.674  30.757  35.705  1.00  0.00     0.020 A 
ATOM     79  C   UNL A   1      46.557  29.022  36.990  1.00  0.00     0.020 A 
ATOM     80  C   UNL A   1      47.706  29.751  36.677  1.00  0.00     0.054 A 
BRANCH  80  81
ATOM     81  S   UNL A   1      49.256  29.443  37.571  1.00  0.00     0.124 S 
ATOM     82  O   UNL A   1      49.103  30.297  38.746  1.00  0.00    -0.237 OA
ATOM     83  O   UNL A   1      49.200  28.006  37.826  1.00  0.00    -0.237 OA
ATOM     84  O   UNL A   1      50.289  29.863  36.627  1.00  0.00    -0.744 OA
ENDBRANCH  80  81
ENDBRANCH  54  75
ENDBRANCH  28  29
ENDBRANCH  21  23
ENDBRANCH  20  21
ENDBRANCH  19  20
ENDBRANCH   1  19
TORSDOF 18
ENDMDL
