MODEL 1
REMARK VINA RESULT:     -13.7      0.000      0.000
REMARK SMILES CC1=Nc2c(c(C)nn2-c2ccc(F)cc2)[C@H](c2ccc(C(=O)OCCOC(=O)c3ccc(-c4c5nc(c(-c6ccc(S(=O)(=O)[O-])cc6)c6ccc([nH]6)c(-c6ccc(S(=O)(=O)[O-])cc6)c6nc(c(-c7ccc(S(=O)(=O)[O-])cc7)c7ccc4[nH]7)C=C6)C=C5)cc3)cc2)S1
REMARK SMILES IDX 26 1 25 2 24 3 22 4 23 5 21 6 18 7 19 8 91 9 20 10 90 11
REMARK SMILES IDX 17 12 1 13 2 14 3 15 92 16 4 17 5 18 9 19 6 20 8 21 7 22
REMARK SMILES IDX 10 23 11 24 16 25 12 26 15 27 13 28 14 29 27 30 28 31 29 32
REMARK SMILES IDX 30 33 31 34 89 35 32 36 88 37 33 38 34 39 35 40 82 41 36 42
REMARK SMILES IDX 87 43 81 44 83 45 37 46 86 47 80 48 79 49 38 51 68 52 49 53
REMARK SMILES IDX 67 54 50 55 53 56 66 57 84 58 51 59 52 60 65 62 85 63 54 64
REMARK SMILES IDX 39 65 40 66 48 67 41 68 47 69 42 70 43 71 44 72 45 73 46 74
REMARK SMILES IDX 69 75 70 76 78 77 71 78 77 79 72 80 73 81 74 82 75 83 76 84
REMARK SMILES IDX 55 85 56 86 64 87 57 88 63 89 58 90 59 91 60 92 61 93 62 94
REMARK H PARENT 83 50 53 61
REMARK Flexibility Score: inf
ROOT
ATOM      1  C   UNL A   1      32.297  30.632  26.780  1.00  0.00     0.275 C 
ENDROOT
BRANCH   1   2
ATOM      2  C   UNL A   1      32.437  30.070  25.372  1.00  0.00     0.275 C 
BRANCH   2   3
ATOM      3  O   UNL A   1      31.148  29.794  24.797  1.00  0.00    -0.458 OA
BRANCH   3   4
ATOM      4  C   UNL A   1      31.140  28.825  23.847  1.00  0.00     0.338 C 
ATOM      5  O   UNL A   1      30.733  28.953  22.698  1.00  0.00    -0.246 OA
BRANCH   4   6
ATOM      6  C   UNL A   1      31.752  27.565  24.344  1.00  0.00     0.060 A 
ATOM      7  C   UNL A   1      32.902  25.233  25.475  1.00  0.00    -0.030 A 
ATOM      8  C   UNL A   1      31.801  25.872  26.077  1.00  0.00     0.006 A 
ATOM      9  C   UNL A   1      33.363  25.753  24.251  1.00  0.00     0.006 A 
ATOM     10  C   UNL A   1      31.227  27.013  25.515  1.00  0.00     0.016 A 
ATOM     11  C   UNL A   1      32.806  26.915  23.697  1.00  0.00     0.016 A 
BRANCH   7  12
ATOM     12  C   UNL A   1      33.557  24.069  26.210  1.00  0.00     0.119 C 
ATOM     13  C   UNL A   1      36.954  23.131  24.046  1.00  0.00     0.075 C 
ATOM     14  C   UNL A   1      35.645  22.958  24.768  1.00  0.00     0.074 C 
ATOM     15  N   UNL A   1      34.868  21.997  24.386  1.00  0.00    -0.227 NA
ATOM     16  S   UNL A   1      35.383  24.055  26.118  1.00  0.00    -0.098 SA
ATOM     17  C   UNL A   1      33.651  21.886  24.971  1.00  0.00     0.161 A 
ATOM     18  C   UNL A   1      32.962  22.799  25.739  1.00  0.00     0.038 A 
ATOM     19  N   UNL A   1      32.815  20.793  24.809  1.00  0.00    -0.215 N 
ATOM     20  C   UNL A   1      31.703  22.186  25.979  1.00  0.00     0.067 A 
ATOM     21  N   UNL A   1      31.588  21.016  25.337  1.00  0.00    -0.171 NA
ATOM     22  C   UNL A   1      30.568  22.666  26.808  1.00  0.00     0.069 C 
BRANCH  19  23
ATOM     23  C   UNL A   1      33.147  19.538  24.245  1.00  0.00     0.067 A 
ATOM     24  C   UNL A   1      34.258  18.828  24.727  1.00  0.00     0.031 A 
ATOM     25  C   UNL A   1      32.370  19.020  23.202  1.00  0.00     0.031 A 
ATOM     26  C   UNL A   1      34.602  17.608  24.149  1.00  0.00     0.041 A 
ATOM     27  C   UNL A   1      32.755  17.823  22.593  1.00  0.00     0.041 A 
ATOM     28  C   UNL A   1      33.862  17.129  23.073  1.00  0.00     0.123 A 
ATOM     29  F   UNL A   1      34.227  15.978  22.492  1.00  0.00    -0.207 F 
ENDBRANCH  19  23
ENDBRANCH   7  12
ENDBRANCH   4   6
ENDBRANCH   3   4
ENDBRANCH   2   3
ENDBRANCH   1   2
BRANCH   1  30
ATOM     30  O   UNL A   1      33.419  30.310  27.603  1.00  0.00    -0.458 OA
BRANCH  30  31
ATOM     31  C   UNL A   1      34.144  31.381  28.002  1.00  0.00     0.338 C 
ATOM     32  O   UNL A   1      33.741  32.516  28.186  1.00  0.00    -0.246 OA
BRANCH  31  33
ATOM     33  C   UNL A   1      35.571  31.047  27.933  1.00  0.00     0.060 A 
ATOM     34  C   UNL A   1      35.916  29.717  27.665  1.00  0.00     0.016 A 
ATOM     35  C   UNL A   1      36.518  31.974  28.393  1.00  0.00     0.016 A 
ATOM     36  C   UNL A   1      37.192  29.288  27.973  1.00  0.00     0.010 A 
ATOM     37  C   UNL A   1      37.781  31.539  28.719  1.00  0.00     0.010 A 
ATOM     38  C   UNL A   1      38.089  30.191  28.553  1.00  0.00    -0.014 A 
BRANCH  38  39
ATOM     39  C   UNL A   1      39.425  29.728  28.874  1.00  0.00     0.031 A 
ATOM     40  C   UNL A   1      39.698  29.673  30.327  1.00  0.00     0.074 A 
ATOM     41  C   UNL A   1      40.263  29.217  27.954  1.00  0.00     0.049 A 
ATOM     42  N   UNL A   1      40.540  30.379  31.006  1.00  0.00    -0.248 NA
ATOM     43  C   UNL A   1      38.812  28.831  31.150  1.00  0.00     0.031 C 
ATOM     44  C   UNL A   1      39.973  28.919  26.550  1.00  0.00     0.029 A 
ATOM     45  N   UNL A   1      41.521  28.728  28.124  1.00  0.00    -0.354 N 
ATOM     46  C   UNL A   1      40.447  29.908  32.310  1.00  0.00     0.074 A 
ATOM     47  C   UNL A   1      39.241  29.123  32.376  1.00  0.00     0.031 C 
ATOM     48  C   UNL A   1      40.930  28.093  26.069  1.00  0.00     0.029 A 
ATOM     49  C   UNL A   1      41.953  27.911  27.088  1.00  0.00     0.049 A 
ATOM     50  H   UNL A   1      42.076  28.935  28.911  1.00  0.00     0.167 HD
ATOM     51  C   UNL A   1      41.508  29.955  33.162  1.00  0.00     0.031 A 
ATOM     52  C   UNL A   1      43.024  27.079  27.108  1.00  0.00     0.031 A 
ATOM     53  C   UNL A   1      42.531  30.854  32.699  1.00  0.00     0.049 A 
ATOM     54  C   UNL A   1      43.912  27.521  28.213  1.00  0.00     0.074 A 
ATOM     55  C   UNL A   1      42.575  32.196  32.376  1.00  0.00     0.029 A 
ATOM     56  N   UNL A   1      43.654  30.289  32.140  1.00  0.00    -0.354 N 
ATOM     57  N   UNL A   1      44.565  28.648  28.209  1.00  0.00    -0.248 NA
ATOM     58  C   UNL A   1      43.757  26.900  29.520  1.00  0.00     0.031 C 
ATOM     59  C   UNL A   1      43.469  32.283  31.270  1.00  0.00     0.029 A 
ATOM     60  C   UNL A   1      43.963  31.003  31.012  1.00  0.00     0.049 A 
ATOM     61  H   UNL A   1      44.146  29.511  32.487  1.00  0.00     0.167 HD
ATOM     62  C   UNL A   1      44.524  29.091  29.524  1.00  0.00     0.074 A 
ATOM     63  C   UNL A   1      44.120  27.923  30.300  1.00  0.00     0.031 C 
ATOM     64  C   UNL A   1      44.548  30.424  29.820  1.00  0.00     0.031 A 
BRANCH  51  65
ATOM     65  C   UNL A   1      41.795  28.860  34.163  1.00  0.00    -0.014 A 
ATOM     66  C   UNL A   1      41.977  29.207  35.515  1.00  0.00     0.010 A 
ATOM     67  C   UNL A   1      42.180  27.556  33.781  1.00  0.00     0.010 A 
ATOM     68  C   UNL A   1      42.590  28.325  36.415  1.00  0.00     0.020 A 
ATOM     69  C   UNL A   1      42.744  26.651  34.678  1.00  0.00     0.020 A 
ATOM     70  C   UNL A   1      42.984  27.058  35.982  1.00  0.00     0.054 A 
BRANCH  70  71
ATOM     71  S   UNL A   1      43.885  25.970  37.110  1.00  0.00     0.124 S 
ATOM     72  O   UNL A   1      45.268  26.370  36.868  1.00  0.00    -0.237 OA
ATOM     73  O   UNL A   1      43.332  26.346  38.408  1.00  0.00    -0.237 OA
ATOM     74  O   UNL A   1      43.528  24.630  36.651  1.00  0.00    -0.744 OA
ENDBRANCH  70  71
ENDBRANCH  51  65
BRANCH  52  75
ATOM     75  C   UNL A   1      43.173  25.763  26.440  1.00  0.00    -0.014 A 
ATOM     76  C   UNL A   1      44.117  25.576  25.413  1.00  0.00     0.010 A 
ATOM     77  C   UNL A   1      42.578  24.611  26.996  1.00  0.00     0.010 A 
ATOM     78  C   UNL A   1      44.501  24.287  25.006  1.00  0.00     0.020 A 
ATOM     79  C   UNL A   1      42.945  23.324  26.588  1.00  0.00     0.020 A 
ATOM     80  C   UNL A   1      43.926  23.167  25.613  1.00  0.00     0.054 A 
BRANCH  80  81
ATOM     81  S   UNL A   1      44.560  21.510  25.221  1.00  0.00     0.124 S 
ATOM     82  O   UNL A   1      43.612  20.642  25.916  1.00  0.00    -0.237 OA
ATOM     83  O   UNL A   1      44.494  21.480  23.764  1.00  0.00    -0.237 OA
ATOM     84  O   UNL A   1      45.913  21.519  25.777  1.00  0.00    -0.744 OA
ENDBRANCH  80  81
ENDBRANCH  52  75
BRANCH  64  85
ATOM     85  C   UNL A   1      44.982  31.394  28.746  1.00  0.00    -0.014 A 
ATOM     86  C   UNL A   1      44.124  31.894  27.746  1.00  0.00     0.010 A 
ATOM     87  C   UNL A   1      46.279  31.926  28.844  1.00  0.00     0.010 A 
ATOM     88  C   UNL A   1      44.570  32.875  26.848  1.00  0.00     0.020 A 
ATOM     89  C   UNL A   1      46.721  32.919  27.966  1.00  0.00     0.020 A 
ATOM     90  C   UNL A   1      45.868  33.381  26.964  1.00  0.00     0.054 A 
BRANCH  90  91
ATOM     91  S   UNL A   1      46.426  34.681  25.827  1.00  0.00     0.124 S 
ATOM     92  O   UNL A   1      45.523  34.516  24.690  1.00  0.00    -0.237 OA
ATOM     93  O   UNL A   1      46.237  35.900  26.609  1.00  0.00    -0.237 OA
ATOM     94  O   UNL A   1      47.822  34.335  25.561  1.00  0.00    -0.744 OA
ENDBRANCH  90  91
ENDBRANCH  64  85
ENDBRANCH  38  39
ENDBRANCH  31  33
ENDBRANCH  30  31
ENDBRANCH   1  30
TORSDOF 16
ENDMDL
MODEL 2
REMARK VINA RESULT:     -13.1      1.800      2.659
REMARK SMILES CC1=Nc2c(c(C)nn2-c2ccc(F)cc2)[C@H](c2ccc(C(=O)OCCOC(=O)c3ccc(-c4c5nc(c(-c6ccc(S(=O)(=O)[O-])cc6)c6ccc([nH]6)c(-c6ccc(S(=O)(=O)[O-])cc6)c6nc(c(-c7ccc(S(=O)(=O)[O-])cc7)c7ccc4[nH]7)C=C6)C=C5)cc3)cc2)S1
REMARK SMILES IDX 26 1 25 2 24 3 22 4 23 5 21 6 18 7 19 8 91 9 20 10 90 11
REMARK SMILES IDX 17 12 1 13 2 14 3 15 92 16 4 17 5 18 9 19 6 20 8 21 7 22
REMARK SMILES IDX 10 23 11 24 16 25 12 26 15 27 13 28 14 29 27 30 28 31 29 32
REMARK SMILES IDX 30 33 31 34 89 35 32 36 88 37 33 38 34 39 35 40 82 41 36 42
REMARK SMILES IDX 87 43 81 44 83 45 37 46 86 47 80 48 79 49 38 51 68 52 49 53
REMARK SMILES IDX 67 54 50 55 53 56 66 57 84 58 51 59 52 60 65 62 85 63 54 64
REMARK SMILES IDX 39 65 40 66 48 67 41 68 47 69 42 70 43 71 44 72 45 73 46 74
REMARK SMILES IDX 69 75 70 76 78 77 71 78 77 79 72 80 73 81 74 82 75 83 76 84
REMARK SMILES IDX 55 85 56 86 64 87 57 88 63 89 58 90 59 91 60 92 61 93 62 94
REMARK H PARENT 83 50 53 61
REMARK Flexibility Score: inf
ROOT
ATOM      1  C   UNL A   1      32.485  30.233  26.443  1.00  0.00     0.275 C 
ENDROOT
BRANCH   1   2
ATOM      2  C   UNL A   1      32.125  29.711  25.060  1.00  0.00     0.275 C 
BRANCH   2   3
ATOM      3  O   UNL A   1      30.700  29.599  24.906  1.00  0.00    -0.458 OA
BRANCH   3   4
ATOM      4  C   UNL A   1      30.291  29.042  23.737  1.00  0.00     0.338 C 
ATOM      5  O   UNL A   1      29.778  29.642  22.801  1.00  0.00    -0.246 OA
BRANCH   4   6
ATOM      6  C   UNL A   1      30.597  27.589  23.686  1.00  0.00     0.060 A 
ATOM      7  C   UNL A   1      31.258  24.832  23.769  1.00  0.00    -0.030 A 
ATOM      8  C   UNL A   1      30.737  25.495  24.896  1.00  0.00     0.006 A 
ATOM      9  C   UNL A   1      31.370  25.573  22.576  1.00  0.00     0.006 A 
ATOM     10  C   UNL A   1      30.400  26.848  24.853  1.00  0.00     0.016 A 
ATOM     11  C   UNL A   1      31.058  26.940  22.537  1.00  0.00     0.016 A 
BRANCH   7  12
ATOM     12  C   UNL A   1      31.722  23.389  23.923  1.00  0.00     0.119 C 
ATOM     13  C   UNL A   1      32.457  22.860  27.958  1.00  0.00     0.075 C 
ATOM     14  C   UNL A   1      32.676  22.858  26.469  1.00  0.00     0.074 C 
ATOM     15  N   UNL A   1      33.890  22.975  26.037  1.00  0.00    -0.227 NA
ATOM     16  S   UNL A   1      31.230  22.606  25.500  1.00  0.00    -0.098 SA
ATOM     17  C   UNL A   1      34.089  23.061  24.700  1.00  0.00     0.161 A 
ATOM     18  C   UNL A   1      33.184  23.320  23.695  1.00  0.00     0.038 A 
ATOM     19  N   UNL A   1      35.335  22.978  24.100  1.00  0.00    -0.215 N 
ATOM     20  C   UNL A   1      33.972  23.403  22.516  1.00  0.00     0.067 A 
ATOM     21  N   UNL A   1      35.279  23.287  22.783  1.00  0.00    -0.171 NA
ATOM     22  C   UNL A   1      33.538  23.592  21.108  1.00  0.00     0.069 C 
BRANCH  19  23
ATOM     23  C   UNL A   1      36.547  22.557  24.698  1.00  0.00     0.067 A 
ATOM     24  C   UNL A   1      36.939  21.212  24.606  1.00  0.00     0.031 A 
ATOM     25  C   UNL A   1      37.339  23.484  25.386  1.00  0.00     0.031 A 
ATOM     26  C   UNL A   1      38.116  20.793  25.222  1.00  0.00     0.041 A 
ATOM     27  C   UNL A   1      38.487  23.042  26.046  1.00  0.00     0.041 A 
ATOM     28  C   UNL A   1      38.866  21.706  25.955  1.00  0.00     0.123 A 
ATOM     29  F   UNL A   1      39.972  21.285  26.584  1.00  0.00    -0.207 F 
ENDBRANCH  19  23
ENDBRANCH   7  12
ENDBRANCH   4   6
ENDBRANCH   3   4
ENDBRANCH   2   3
ENDBRANCH   1   2
BRANCH   1  30
ATOM     30  O   UNL A   1      33.895  30.236  26.670  1.00  0.00    -0.458 OA
BRANCH  30  31
ATOM     31  C   UNL A   1      34.322  31.196  27.523  1.00  0.00     0.338 C 
ATOM     32  O   UNL A   1      33.913  32.341  27.608  1.00  0.00    -0.246 OA
BRANCH  31  33
ATOM     33  C   UNL A   1      35.555  30.743  28.178  1.00  0.00     0.060 A 
ATOM     34  C   UNL A   1      36.493  31.715  28.541  1.00  0.00     0.016 A 
ATOM     35  C   UNL A   1      35.874  29.378  28.173  1.00  0.00     0.016 A 
ATOM     36  C   UNL A   1      37.794  31.322  28.789  1.00  0.00     0.010 A 
ATOM     37  C   UNL A   1      37.174  28.990  28.398  1.00  0.00     0.010 A 
ATOM     38  C   UNL A   1      38.131  29.970  28.654  1.00  0.00    -0.014 A 
BRANCH  38  39
ATOM     39  C   UNL A   1      39.499  29.571  28.914  1.00  0.00     0.031 A 
ATOM     40  C   UNL A   1      39.841  29.534  30.353  1.00  0.00     0.074 A 
ATOM     41  C   UNL A   1      40.317  29.095  27.957  1.00  0.00     0.049 A 
ATOM     42  N   UNL A   1      40.680  30.281  30.990  1.00  0.00    -0.248 NA
ATOM     43  C   UNL A   1      39.034  28.656  31.217  1.00  0.00     0.031 C 
ATOM     44  C   UNL A   1      39.977  28.778  26.568  1.00  0.00     0.029 A 
ATOM     45  N   UNL A   1      41.603  28.665  28.070  1.00  0.00    -0.354 N 
ATOM     46  C   UNL A   1      40.670  29.812  32.298  1.00  0.00     0.074 A 
ATOM     47  C   UNL A   1      39.505  28.973  32.422  1.00  0.00     0.031 C 
ATOM     48  C   UNL A   1      40.948  27.996  26.046  1.00  0.00     0.029 A 
ATOM     49  C   UNL A   1      42.023  27.864  27.016  1.00  0.00     0.049 A 
ATOM     50  H   UNL A   1      42.183  28.901  28.830  1.00  0.00     0.167 HD
ATOM     51  C   UNL A   1      41.765  29.911  33.101  1.00  0.00     0.031 A 
ATOM     52  C   UNL A   1      43.133  27.084  26.989  1.00  0.00     0.031 A 
ATOM     53  C   UNL A   1      42.723  30.855  32.588  1.00  0.00     0.049 A 
ATOM     54  C   UNL A   1      44.049  27.570  28.050  1.00  0.00     0.074 A 
ATOM     55  C   UNL A   1      42.690  32.196  32.262  1.00  0.00     0.029 A 
ATOM     56  N   UNL A   1      43.844  30.340  31.980  1.00  0.00    -0.354 N 
ATOM     57  N   UNL A   1      44.648  28.727  28.014  1.00  0.00    -0.248 NA
ATOM     58  C   UNL A   1      43.983  26.948  29.365  1.00  0.00     0.031 C 
ATOM     59  C   UNL A   1      43.527  32.319  31.115  1.00  0.00     0.029 A 
ATOM     60  C   UNL A   1      44.068  31.062  30.837  1.00  0.00     0.049 A 
ATOM     61  H   UNL A   1      44.387  29.587  32.306  1.00  0.00     0.167 HD
ATOM     62  C   UNL A   1      44.647  29.172  29.328  1.00  0.00     0.074 A 
ATOM     63  C   UNL A   1      44.334  27.990  30.125  1.00  0.00     0.031 C 
ATOM     64  C   UNL A   1      44.623  30.506  29.621  1.00  0.00     0.031 A 
BRANCH  51  65
ATOM     65  C   UNL A   1      42.148  28.835  34.089  1.00  0.00    -0.014 A 
ATOM     66  C   UNL A   1      42.745  27.653  33.608  1.00  0.00     0.010 A 
ATOM     67  C   UNL A   1      41.680  28.817  35.421  1.00  0.00     0.010 A 
ATOM     68  C   UNL A   1      42.792  26.493  34.392  1.00  0.00     0.020 A 
ATOM     69  C   UNL A   1      41.768  27.684  36.228  1.00  0.00     0.020 A 
ATOM     70  C   UNL A   1      42.286  26.515  35.693  1.00  0.00     0.054 A 
BRANCH  70  71
ATOM     71  S   UNL A   1      42.236  24.987  36.656  1.00  0.00     0.124 S 
ATOM     72  O   UNL A   1      41.105  25.234  37.546  1.00  0.00    -0.237 OA
ATOM     73  O   UNL A   1      42.023  23.977  35.622  1.00  0.00    -0.237 OA
ATOM     74  O   UNL A   1      43.547  24.945  37.301  1.00  0.00    -0.744 OA
ENDBRANCH  70  71
ENDBRANCH  51  65
BRANCH  52  75
ATOM     75  C   UNL A   1      43.311  25.772  26.317  1.00  0.00    -0.014 A 
ATOM     76  C   UNL A   1      44.391  25.550  25.443  1.00  0.00     0.010 A 
ATOM     77  C   UNL A   1      42.575  24.648  26.745  1.00  0.00     0.010 A 
ATOM     78  C   UNL A   1      44.762  24.248  25.066  1.00  0.00     0.020 A 
ATOM     79  C   UNL A   1      42.930  23.348  26.365  1.00  0.00     0.020 A 
ATOM     80  C   UNL A   1      44.041  23.153  25.548  1.00  0.00     0.054 A 
BRANCH  80  81
ATOM     81  S   UNL A   1      44.636  21.468  25.215  1.00  0.00     0.124 S 
ATOM     82  O   UNL A   1      45.978  21.494  25.792  1.00  0.00    -0.237 OA
ATOM     83  O   UNL A   1      43.661  20.641  25.918  1.00  0.00    -0.237 OA
ATOM     84  O   UNL A   1      44.591  21.370  23.756  1.00  0.00    -0.744 OA
ENDBRANCH  80  81
ENDBRANCH  52  75
BRANCH  64  85
ATOM     85  C   UNL A   1      44.961  31.491  28.525  1.00  0.00    -0.014 A 
ATOM     86  C   UNL A   1      44.010  32.050  27.650  1.00  0.00     0.010 A 
ATOM     87  C   UNL A   1      46.281  31.972  28.477  1.00  0.00     0.010 A 
ATOM     88  C   UNL A   1      44.382  33.041  26.729  1.00  0.00     0.020 A 
ATOM     89  C   UNL A   1      46.653  32.973  27.577  1.00  0.00     0.020 A 
ATOM     90  C   UNL A   1      45.703  33.495  26.698  1.00  0.00     0.054 A 
BRANCH  90  91
ATOM     91  S   UNL A   1      46.170  34.806  25.534  1.00  0.00     0.124 S 
ATOM     92  O   UNL A   1      47.597  34.563  25.337  1.00  0.00    -0.237 OA
ATOM     93  O   UNL A   1      45.319  34.532  24.378  1.00  0.00    -0.237 OA
ATOM     94  O   UNL A   1      45.848  36.040  26.250  1.00  0.00    -0.744 OA
ENDBRANCH  90  91
ENDBRANCH  64  85
ENDBRANCH  38  39
ENDBRANCH  31  33
ENDBRANCH  30  31
ENDBRANCH   1  30
TORSDOF 16
ENDMDL
MODEL 3
REMARK VINA RESULT:     -12.8      2.045      3.325
REMARK SMILES CC1=Nc2c(c(C)nn2-c2ccc(F)cc2)[C@H](c2ccc(C(=O)OCCOC(=O)c3ccc(-c4c5nc(c(-c6ccc(S(=O)(=O)[O-])cc6)c6ccc([nH]6)c(-c6ccc(S(=O)(=O)[O-])cc6)c6nc(c(-c7ccc(S(=O)(=O)[O-])cc7)c7ccc4[nH]7)C=C6)C=C5)cc3)cc2)S1
REMARK SMILES IDX 26 1 25 2 24 3 22 4 23 5 21 6 18 7 19 8 91 9 20 10 90 11
REMARK SMILES IDX 17 12 1 13 2 14 3 15 92 16 4 17 5 18 9 19 6 20 8 21 7 22
REMARK SMILES IDX 10 23 11 24 16 25 12 26 15 27 13 28 14 29 27 30 28 31 29 32
REMARK SMILES IDX 30 33 31 34 89 35 32 36 88 37 33 38 34 39 35 40 82 41 36 42
REMARK SMILES IDX 87 43 81 44 83 45 37 46 86 47 80 48 79 49 38 51 68 52 49 53
REMARK SMILES IDX 67 54 50 55 53 56 66 57 84 58 51 59 52 60 65 62 85 63 54 64
REMARK SMILES IDX 39 65 40 66 48 67 41 68 47 69 42 70 43 71 44 72 45 73 46 74
REMARK SMILES IDX 69 75 70 76 78 77 71 78 77 79 72 80 73 81 74 82 75 83 76 84
REMARK SMILES IDX 55 85 56 86 64 87 57 88 63 89 58 90 59 91 60 92 61 93 62 94
REMARK H PARENT 83 50 53 61
REMARK Flexibility Score: inf
ROOT
ATOM      1  C   UNL A   1      33.329  34.075  28.645  1.00  0.00     0.275 C 
ENDROOT
BRANCH   1   2
ATOM      2  C   UNL A   1      33.943  33.050  27.703  1.00  0.00     0.275 C 
BRANCH   2   3
ATOM      3  O   UNL A   1      33.189  31.826  27.711  1.00  0.00    -0.458 OA
BRANCH   3   4
ATOM      4  C   UNL A   1      33.908  30.707  27.438  1.00  0.00     0.338 C 
ATOM      5  O   UNL A   1      35.054  30.487  27.808  1.00  0.00    -0.246 OA
BRANCH   4   6
ATOM      6  C   UNL A   1      33.110  29.717  26.669  1.00  0.00     0.060 A 
ATOM      7  C   UNL A   1      31.742  27.707  25.208  1.00  0.00    -0.030 A 
ATOM      8  C   UNL A   1      32.572  27.384  26.299  1.00  0.00     0.006 A 
ATOM      9  C   UNL A   1      31.559  29.073  24.917  1.00  0.00     0.006 A 
ATOM     10  C   UNL A   1      33.236  28.373  27.026  1.00  0.00     0.016 A 
ATOM     11  C   UNL A   1      32.246  30.068  25.628  1.00  0.00     0.016 A 
BRANCH   7  12
ATOM     12  C   UNL A   1      31.151  26.571  24.382  1.00  0.00     0.119 C 
ATOM     13  C   UNL A   1      29.459  23.954  27.100  1.00  0.00     0.075 C 
ATOM     14  C   UNL A   1      30.299  24.459  25.957  1.00  0.00     0.074 C 
ATOM     15  N   UNL A   1      31.383  23.812  25.674  1.00  0.00    -0.227 NA
ATOM     16  S   UNL A   1      29.634  25.837  25.091  1.00  0.00    -0.098 SA
ATOM     17  C   UNL A   1      32.190  24.307  24.705  1.00  0.00     0.161 A 
ATOM     18  C   UNL A   1      32.200  25.558  24.128  1.00  0.00     0.038 A 
ATOM     19  N   UNL A   1      33.260  23.612  24.163  1.00  0.00    -0.215 N 
ATOM     20  C   UNL A   1      33.327  25.544  23.263  1.00  0.00     0.067 A 
ATOM     21  N   UNL A   1      34.014  24.399  23.359  1.00  0.00    -0.171 NA
ATOM     22  C   UNL A   1      33.801  26.591  22.322  1.00  0.00     0.069 C 
BRANCH  19  23
ATOM     23  C   UNL A   1      33.552  22.236  24.317  1.00  0.00     0.067 A 
ATOM     24  C   UNL A   1      34.783  21.842  24.866  1.00  0.00     0.031 A 
ATOM     25  C   UNL A   1      32.616  21.278  23.910  1.00  0.00     0.031 A 
ATOM     26  C   UNL A   1      35.083  20.487  24.988  1.00  0.00     0.041 A 
ATOM     27  C   UNL A   1      32.948  19.924  23.985  1.00  0.00     0.041 A 
ATOM     28  C   UNL A   1      34.173  19.542  24.525  1.00  0.00     0.123 A 
ATOM     29  F   UNL A   1      34.488  18.242  24.602  1.00  0.00    -0.207 F 
ENDBRANCH  19  23
ENDBRANCH   7  12
ENDBRANCH   4   6
ENDBRANCH   3   4
ENDBRANCH   2   3
ENDBRANCH   1   2
BRANCH   1  30
ATOM     30  O   UNL A   1      34.295  34.639  29.534  1.00  0.00    -0.458 OA
BRANCH  30  31
ATOM     31  C   UNL A   1      34.186  34.218  30.816  1.00  0.00     0.338 C 
ATOM     32  O   UNL A   1      33.390  34.606  31.653  1.00  0.00    -0.246 OA
BRANCH  31  33
ATOM     33  C   UNL A   1      35.354  33.396  31.153  1.00  0.00     0.060 A 
ATOM     34  C   UNL A   1      36.585  34.045  31.300  1.00  0.00     0.016 A 
ATOM     35  C   UNL A   1      35.265  32.001  31.049  1.00  0.00     0.016 A 
ATOM     36  C   UNL A   1      37.743  33.295  31.227  1.00  0.00     0.010 A 
ATOM     37  C   UNL A   1      36.419  31.259  30.954  1.00  0.00     0.010 A 
ATOM     38  C   UNL A   1      37.645  31.919  30.993  1.00  0.00    -0.014 A 
BRANCH  38  39
ATOM     39  C   UNL A   1      38.867  31.144  30.914  1.00  0.00     0.031 A 
ATOM     40  C   UNL A   1      39.540  30.968  32.221  1.00  0.00     0.074 A 
ATOM     41  C   UNL A   1      39.249  30.488  29.803  1.00  0.00     0.049 A 
ATOM     42  N   UNL A   1      40.687  31.429  32.593  1.00  0.00    -0.248 NA
ATOM     43  C   UNL A   1      38.768  30.324  33.297  1.00  0.00     0.031 C 
ATOM     44  C   UNL A   1      38.492  30.323  28.560  1.00  0.00     0.029 A 
ATOM     45  N   UNL A   1      40.348  29.712  29.605  1.00  0.00    -0.354 N 
ATOM     46  C   UNL A   1      40.880  30.941  33.880  1.00  0.00     0.074 A 
ATOM     47  C   UNL A   1      39.599  30.458  34.329  1.00  0.00     0.031 C 
ATOM     48  C   UNL A   1      39.040  29.317  27.842  1.00  0.00     0.029 A 
ATOM     49  C   UNL A   1      40.246  28.859  28.514  1.00  0.00     0.049 A 
ATOM     50  H   UNL A   1      41.145  29.752  30.182  1.00  0.00     0.167 HD
ATOM     51  C   UNL A   1      42.126  30.704  34.374  1.00  0.00     0.031 A 
ATOM     52  C   UNL A   1      41.049  27.800  28.240  1.00  0.00     0.031 A 
ATOM     53  C   UNL A   1      43.146  31.357  33.597  1.00  0.00     0.049 A 
ATOM     54  C   UNL A   1      42.303  27.977  29.013  1.00  0.00     0.074 A 
ATOM     55  C   UNL A   1      43.406  32.663  33.232  1.00  0.00     0.029 A 
ATOM     56  N   UNL A   1      43.885  30.568  32.746  1.00  0.00    -0.354 N 
ATOM     57  N   UNL A   1      43.171  28.919  28.778  1.00  0.00    -0.248 NA
ATOM     58  C   UNL A   1      42.403  27.357  30.327  1.00  0.00     0.031 C 
ATOM     59  C   UNL A   1      43.924  32.583  31.907  1.00  0.00     0.029 A 
ATOM     60  C   UNL A   1      44.003  31.234  31.555  1.00  0.00     0.049 A 
ATOM     61  H   UNL A   1      44.261  29.683  32.956  1.00  0.00     0.167 HD
ATOM     62  C   UNL A   1      43.629  29.306  30.030  1.00  0.00     0.074 A 
ATOM     63  C   UNL A   1      43.212  28.234  30.929  1.00  0.00     0.031 C 
ATOM     64  C   UNL A   1      44.052  30.583  30.262  1.00  0.00     0.031 A 
BRANCH  51  65
ATOM     65  C   UNL A   1      42.432  29.532  35.278  1.00  0.00    -0.014 A 
ATOM     66  C   UNL A   1      43.350  29.710  36.330  1.00  0.00     0.010 A 
ATOM     67  C   UNL A   1      42.080  28.204  34.954  1.00  0.00     0.010 A 
ATOM     68  C   UNL A   1      43.946  28.613  36.966  1.00  0.00     0.020 A 
ATOM     69  C   UNL A   1      42.628  27.105  35.614  1.00  0.00     0.020 A 
ATOM     70  C   UNL A   1      43.591  27.317  36.588  1.00  0.00     0.054 A 
BRANCH  70  71
ATOM     71  S   UNL A   1      44.452  25.907  37.322  1.00  0.00     0.124 S 
ATOM     72  O   UNL A   1      43.525  24.814  37.040  1.00  0.00    -0.237 OA
ATOM     73  O   UNL A   1      45.705  25.886  36.573  1.00  0.00    -0.237 OA
ATOM     74  O   UNL A   1      44.578  26.278  38.729  1.00  0.00    -0.744 OA
ENDBRANCH  70  71
ENDBRANCH  51  65
BRANCH  52  75
ATOM     75  C   UNL A   1      40.678  26.513  27.601  1.00  0.00    -0.014 A 
ATOM     76  C   UNL A   1      41.492  25.939  26.607  1.00  0.00     0.010 A 
ATOM     77  C   UNL A   1      39.663  25.708  28.159  1.00  0.00     0.010 A 
ATOM     78  C   UNL A   1      41.342  24.592  26.236  1.00  0.00     0.020 A 
ATOM     79  C   UNL A   1      39.499  24.369  27.786  1.00  0.00     0.020 A 
ATOM     80  C   UNL A   1      40.358  23.809  26.845  1.00  0.00     0.054 A 
BRANCH  80  81
ATOM     81  S   UNL A   1      40.291  22.025  26.503  1.00  0.00     0.124 S 
ATOM     82  O   UNL A   1      38.969  21.873  25.901  1.00  0.00    -0.237 OA
ATOM     83  O   UNL A   1      41.423  21.831  25.603  1.00  0.00    -0.237 OA
ATOM     84  O   UNL A   1      40.444  21.416  27.824  1.00  0.00    -0.744 OA
ENDBRANCH  80  81
ENDBRANCH  52  75
BRANCH  64  85
ATOM     85  C   UNL A   1      44.362  31.468  29.077  1.00  0.00    -0.014 A 
ATOM     86  C   UNL A   1      45.397  31.213  28.155  1.00  0.00     0.010 A 
ATOM     87  C   UNL A   1      43.474  32.525  28.812  1.00  0.00     0.010 A 
ATOM     88  C   UNL A   1      45.555  32.019  27.018  1.00  0.00     0.020 A 
ATOM     89  C   UNL A   1      43.613  33.317  27.670  1.00  0.00     0.020 A 
ATOM     90  C   UNL A   1      44.661  33.068  26.784  1.00  0.00     0.054 A 
BRANCH  90  91
ATOM     91  S   UNL A   1      44.845  34.082  25.290  1.00  0.00     0.124 S 
ATOM     92  O   UNL A   1      46.280  34.352  25.265  1.00  0.00    -0.237 OA
ATOM     93  O   UNL A   1      44.352  33.199  24.236  1.00  0.00    -0.237 OA
ATOM     94  O   UNL A   1      44.002  35.247  25.554  1.00  0.00    -0.744 OA
ENDBRANCH  90  91
ENDBRANCH  64  85
ENDBRANCH  38  39
ENDBRANCH  31  33
ENDBRANCH  30  31
ENDBRANCH   1  30
TORSDOF 16
ENDMDL
