MODEL 1
REMARK VINA RESULT:     -10.0      0.000      0.000
REMARK SMILES COCC(=O)N[C@H]1C=C[C@@H](C(=O)OCCOC(=O)c2ccc(-c3c4nc(c(-c5ccc(S(=O)(=O)[O-])cc5)c5ccc([nH]5)c(-c5ccc(S(=O)(=O)[O-])cc5)c5nc(c(-c6ccc(S(=O)(=O)[O-])cc6)c6ccc3[nH]6)C=C5)C=C4)cc2)C1
REMARK SMILES IDX 14 1 13 2 11 3 12 4 10 5 7 6 8 7 79 8 9 9 6 10 4 11 5 12
REMARK SMILES IDX 3 14 2 15 1 16 15 17 16 18 17 19 18 20 19 21 20 22 78 23
REMARK SMILES IDX 21 24 77 25 22 26 23 27 24 28 71 29 25 30 76 31 70 32 72 33
REMARK SMILES IDX 26 34 75 35 69 36 68 37 27 39 57 40 38 41 56 42 39 43 42 44
REMARK SMILES IDX 55 45 73 46 40 47 41 48 54 50 74 51 43 52 28 53 29 54 37 55
REMARK SMILES IDX 30 56 36 57 31 58 32 59 33 60 34 61 35 62 58 63 59 64 67 65
REMARK SMILES IDX 60 66 66 67 61 68 62 69 63 70 64 71 65 72 44 73 45 74 53 75
REMARK SMILES IDX 46 76 52 77 47 78 48 79 49 80 50 81 51 82
REMARK H PARENT 6 13 72 38 42 49
REMARK Flexibility Score: inf
ROOT
ATOM      1  C   UNL A   1      40.013  22.101  26.783  1.00  0.00     0.274 C 
ENDROOT
BRANCH   1   2
ATOM      2  O   UNL A   1      39.093  21.703  25.749  1.00  0.00    -0.462 OA
BRANCH   2   3
ATOM      3  C   UNL A   1      38.002  22.488  25.571  1.00  0.00     0.312 C 
ATOM      4  O   UNL A   1      37.748  23.488  26.235  1.00  0.00    -0.252 OA
BRANCH   3   5
ATOM      5  C   UNL A   1      37.054  21.965  24.499  1.00  0.00     0.124 C 
ATOM      6  C   UNL A   1      34.667  21.657  24.102  1.00  0.00     0.106 C 
ATOM      7  C   UNL A   1      35.157  22.931  23.504  1.00  0.00    -0.006 C 
ATOM      8  C   UNL A   1      35.823  21.179  24.982  1.00  0.00     0.048 C 
ATOM      9  C   UNL A   1      36.468  23.097  23.708  1.00  0.00    -0.014 C 
BRANCH   6  10
ATOM     10  N   UNL A   1      33.357  21.851  24.680  1.00  0.00    -0.348 N 
ATOM     11  C   UNL A   1      32.312  21.024  24.945  1.00  0.00     0.246 C 
ATOM     12  O   UNL A   1      31.389  21.474  25.635  1.00  0.00    -0.272 OA
ATOM     13  H   UNL A   1      33.184  22.786  24.939  1.00  0.00     0.164 HD
BRANCH  11  14
ATOM     14  C   UNL A   1      32.236  19.602  24.384  1.00  0.00     0.259 C 
BRANCH  14  15
ATOM     15  O   UNL A   1      32.218  18.524  25.307  1.00  0.00    -0.375 OA
ATOM     16  C   UNL A   1      33.097  17.461  24.965  1.00  0.00     0.195 C 
ENDBRANCH  14  15
ENDBRANCH  11  14
ENDBRANCH   6  10
ENDBRANCH   3   5
ENDBRANCH   2   3
ENDBRANCH   1   2
BRANCH   1  17
ATOM     17  C   UNL A   1      41.240  22.798  26.194  1.00  0.00     0.275 C 
BRANCH  17  18
ATOM     18  O   UNL A   1      41.652  23.918  27.000  1.00  0.00    -0.458 OA
BRANCH  18  19
ATOM     19  C   UNL A   1      41.469  25.131  26.428  1.00  0.00     0.338 C 
ATOM     20  O   UNL A   1      41.440  25.395  25.239  1.00  0.00    -0.246 OA
BRANCH  19  21
ATOM     21  C   UNL A   1      41.154  26.128  27.460  1.00  0.00     0.060 A 
ATOM     22  C   UNL A   1      41.961  27.267  27.529  1.00  0.00     0.016 A 
ATOM     23  C   UNL A   1      40.150  25.907  28.404  1.00  0.00     0.016 A 
ATOM     24  C   UNL A   1      41.775  28.191  28.550  1.00  0.00     0.010 A 
ATOM     25  C   UNL A   1      39.965  26.837  29.433  1.00  0.00     0.010 A 
ATOM     26  C   UNL A   1      40.784  27.977  29.517  1.00  0.00    -0.014 A 
BRANCH  26  27
ATOM     27  C   UNL A   1      40.646  28.932  30.640  1.00  0.00     0.031 A 
ATOM     28  C   UNL A   1      41.557  28.827  31.830  1.00  0.00     0.074 A 
ATOM     29  C   UNL A   1      39.731  29.916  30.569  1.00  0.00     0.049 A 
ATOM     30  N   UNL A   1      41.566  29.540  32.926  1.00  0.00    -0.248 NA
ATOM     31  C   UNL A   1      42.596  27.786  31.779  1.00  0.00     0.031 C 
ATOM     32  C   UNL A   1      38.826  30.148  29.440  1.00  0.00     0.029 A 
ATOM     33  N   UNL A   1      39.412  30.906  31.462  1.00  0.00    -0.354 N 
ATOM     34  C   UNL A   1      42.597  29.028  33.703  1.00  0.00     0.074 A 
ATOM     35  C   UNL A   1      43.185  27.933  32.958  1.00  0.00     0.031 C 
ATOM     36  C   UNL A   1      38.058  31.216  29.709  1.00  0.00     0.029 A 
ATOM     37  C   UNL A   1      38.386  31.716  31.041  1.00  0.00     0.049 A 
ATOM     38  H   UNL A   1      39.875  31.025  32.322  1.00  0.00     0.167 HD
ATOM     39  C   UNL A   1      43.015  29.432  34.926  1.00  0.00     0.031 A 
ATOM     40  C   UNL A   1      37.761  32.731  31.669  1.00  0.00     0.031 A 
ATOM     41  C   UNL A   1      42.424  30.516  35.665  1.00  0.00     0.049 A 
ATOM     42  C   UNL A   1      38.203  33.120  33.052  1.00  0.00     0.074 A 
ATOM     43  C   UNL A   1      42.773  30.999  36.914  1.00  0.00     0.029 A 
ATOM     44  N   UNL A   1      41.359  31.287  35.222  1.00  0.00    -0.354 N 
ATOM     45  N   UNL A   1      39.174  32.617  33.778  1.00  0.00    -0.248 NA
ATOM     46  C   UNL A   1      37.466  34.212  33.703  1.00  0.00     0.031 C 
ATOM     47  C   UNL A   1      41.894  32.036  37.244  1.00  0.00     0.029 A 
ATOM     48  C   UNL A   1      41.028  32.229  36.180  1.00  0.00     0.049 A 
ATOM     49  H   UNL A   1      40.908  31.180  34.353  1.00  0.00     0.167 HD
ATOM     50  C   UNL A   1      39.171  33.340  34.965  1.00  0.00     0.074 A 
ATOM     51  C   UNL A   1      38.116  34.326  34.853  1.00  0.00     0.031 C 
ATOM     52  C   UNL A   1      39.970  33.199  36.051  1.00  0.00     0.031 A 
BRANCH  39  53
ATOM     53  C   UNL A   1      44.148  28.671  35.558  1.00  0.00    -0.014 A 
ATOM     54  C   UNL A   1      43.909  27.542  36.360  1.00  0.00     0.010 A 
ATOM     55  C   UNL A   1      45.475  29.072  35.313  1.00  0.00     0.010 A 
ATOM     56  C   UNL A   1      44.977  26.846  36.934  1.00  0.00     0.020 A 
ATOM     57  C   UNL A   1      46.545  28.365  35.869  1.00  0.00     0.020 A 
ATOM     58  C   UNL A   1      46.288  27.265  36.689  1.00  0.00     0.054 A 
BRANCH  58  59
ATOM     59  S   UNL A   1      47.657  26.333  37.429  1.00  0.00     0.124 S 
ATOM     60  O   UNL A   1      46.947  25.301  38.180  1.00  0.00    -0.237 OA
ATOM     61  O   UNL A   1      48.397  25.863  36.260  1.00  0.00    -0.237 OA
ATOM     62  O   UNL A   1      48.353  27.328  38.243  1.00  0.00    -0.744 OA
ENDBRANCH  58  59
ENDBRANCH  39  53
BRANCH  40  63
ATOM     63  C   UNL A   1      36.627  33.427  31.006  1.00  0.00    -0.014 A 
ATOM     64  C   UNL A   1      36.794  34.038  29.751  1.00  0.00     0.010 A 
ATOM     65  C   UNL A   1      35.367  33.475  31.630  1.00  0.00     0.010 A 
ATOM     66  C   UNL A   1      35.723  34.696  29.138  1.00  0.00     0.020 A 
ATOM     67  C   UNL A   1      34.289  34.110  31.009  1.00  0.00     0.020 A 
ATOM     68  C   UNL A   1      34.477  34.729  29.772  1.00  0.00     0.054 A 
BRANCH  68  69
ATOM     69  S   UNL A   1      33.085  35.540  28.938  1.00  0.00     0.124 S 
ATOM     70  O   UNL A   1      33.763  36.557  28.140  1.00  0.00    -0.237 OA
ATOM     71  O   UNL A   1      32.481  34.444  28.185  1.00  0.00    -0.237 OA
ATOM     72  O   UNL A   1      32.275  36.046  30.043  1.00  0.00    -0.744 OA
ENDBRANCH  68  69
ENDBRANCH  40  63
BRANCH  52  73
ATOM     73  C   UNL A   1      39.747  34.149  37.196  1.00  0.00    -0.014 A 
ATOM     74  C   UNL A   1      39.027  33.753  38.336  1.00  0.00     0.010 A 
ATOM     75  C   UNL A   1      40.308  35.439  37.149  1.00  0.00     0.010 A 
ATOM     76  C   UNL A   1      38.847  34.640  39.400  1.00  0.00     0.020 A 
ATOM     77  C   UNL A   1      40.148  36.320  38.221  1.00  0.00     0.020 A 
ATOM     78  C   UNL A   1      39.407  35.920  39.335  1.00  0.00     0.054 A 
BRANCH  78  79
ATOM     79  S   UNL A   1      39.198  37.041  40.744  1.00  0.00     0.124 S 
ATOM     80  O   UNL A   1      40.578  37.415  41.041  1.00  0.00    -0.237 OA
ATOM     81  O   UNL A   1      38.364  38.106  40.190  1.00  0.00    -0.237 OA
ATOM     82  O   UNL A   1      38.546  36.210  41.753  1.00  0.00    -0.744 OA
ENDBRANCH  78  79
ENDBRANCH  52  73
ENDBRANCH  26  27
ENDBRANCH  19  21
ENDBRANCH  18  19
ENDBRANCH  17  18
ENDBRANCH   1  17
TORSDOF 17
ENDMDL
MODEL 2
REMARK VINA RESULT:      -9.7      3.163      4.557
REMARK SMILES COCC(=O)N[C@H]1C=C[C@@H](C(=O)OCCOC(=O)c2ccc(-c3c4nc(c(-c5ccc(S(=O)(=O)[O-])cc5)c5ccc([nH]5)c(-c5ccc(S(=O)(=O)[O-])cc5)c5nc(c(-c6ccc(S(=O)(=O)[O-])cc6)c6ccc3[nH]6)C=C5)C=C4)cc2)C1
REMARK SMILES IDX 14 1 13 2 11 3 12 4 10 5 7 6 8 7 79 8 9 9 6 10 4 11 5 12
REMARK SMILES IDX 3 14 2 15 1 16 15 17 16 18 17 19 18 20 19 21 20 22 78 23
REMARK SMILES IDX 21 24 77 25 22 26 23 27 24 28 71 29 25 30 76 31 70 32 72 33
REMARK SMILES IDX 26 34 75 35 69 36 68 37 27 39 57 40 38 41 56 42 39 43 42 44
REMARK SMILES IDX 55 45 73 46 40 47 41 48 54 50 74 51 43 52 28 53 29 54 37 55
REMARK SMILES IDX 30 56 36 57 31 58 32 59 33 60 34 61 35 62 58 63 59 64 67 65
REMARK SMILES IDX 60 66 66 67 61 68 62 69 63 70 64 71 65 72 44 73 45 74 53 75
REMARK SMILES IDX 46 76 52 77 47 78 48 79 49 80 50 81 51 82
REMARK H PARENT 6 13 72 38 42 49
REMARK Flexibility Score: inf
ROOT
ATOM      1  C   UNL A   1      41.579  22.763  27.828  1.00  0.00     0.274 C 
ENDROOT
BRANCH   1   2
ATOM      2  O   UNL A   1      42.978  22.515  27.593  1.00  0.00    -0.462 OA
BRANCH   2   3
ATOM      3  C   UNL A   1      43.797  23.596  27.601  1.00  0.00     0.312 C 
ATOM      4  O   UNL A   1      43.560  24.644  28.191  1.00  0.00    -0.252 OA
BRANCH   3   5
ATOM      5  C   UNL A   1      45.035  23.418  26.731  1.00  0.00     0.124 C 
ATOM      6  C   UNL A   1      45.771  22.194  24.753  1.00  0.00     0.106 C 
ATOM      7  C   UNL A   1      45.327  23.573  24.404  1.00  0.00    -0.006 C 
ATOM      8  C   UNL A   1      45.316  22.001  26.201  1.00  0.00     0.048 C 
ATOM      9  C   UNL A   1      44.936  24.252  25.487  1.00  0.00    -0.014 C 
BRANCH   6  10
ATOM     10  N   UNL A   1      45.342  21.262  23.736  1.00  0.00    -0.348 N 
ATOM     11  C   UNL A   1      45.101  19.925  23.724  1.00  0.00     0.246 C 
ATOM     12  O   UNL A   1      44.548  19.453  22.723  1.00  0.00    -0.272 OA
ATOM     13  H   UNL A   1      45.190  21.688  22.861  1.00  0.00     0.164 HD
BRANCH  11  14
ATOM     14  C   UNL A   1      45.531  19.009  24.874  1.00  0.00     0.259 C 
BRANCH  14  15
ATOM     15  O   UNL A   1      44.612  18.021  25.314  1.00  0.00    -0.375 OA
ATOM     16  C   UNL A   1      43.453  18.553  25.940  1.00  0.00     0.195 C 
ENDBRANCH  14  15
ENDBRANCH  11  14
ENDBRANCH   6  10
ENDBRANCH   3   5
ENDBRANCH   2   3
ENDBRANCH   1   2
BRANCH   1  17
ATOM     17  C   UNL A   1      40.812  22.895  26.511  1.00  0.00     0.275 C 
BRANCH  17  18
ATOM     18  O   UNL A   1      40.043  24.112  26.465  1.00  0.00    -0.458 OA
BRANCH  18  19
ATOM     19  C   UNL A   1      40.754  25.226  26.175  1.00  0.00     0.338 C 
ATOM     20  O   UNL A   1      41.393  25.458  25.165  1.00  0.00    -0.246 OA
BRANCH  19  21
ATOM     21  C   UNL A   1      40.543  26.239  27.218  1.00  0.00     0.060 A 
ATOM     22  C   UNL A   1      41.335  27.390  27.174  1.00  0.00     0.016 A 
ATOM     23  C   UNL A   1      39.657  26.024  28.275  1.00  0.00     0.016 A 
ATOM     24  C   UNL A   1      41.252  28.332  28.193  1.00  0.00     0.010 A 
ATOM     25  C   UNL A   1      39.576  26.972  29.300  1.00  0.00     0.010 A 
ATOM     26  C   UNL A   1      40.381  28.124  29.270  1.00  0.00    -0.014 A 
BRANCH  26  27
ATOM     27  C   UNL A   1      40.357  29.099  30.383  1.00  0.00     0.031 A 
ATOM     28  C   UNL A   1      41.350  28.983  31.504  1.00  0.00     0.074 A 
ATOM     29  C   UNL A   1      39.469  30.110  30.364  1.00  0.00     0.049 A 
ATOM     30  N   UNL A   1      41.463  29.711  32.585  1.00  0.00    -0.248 NA
ATOM     31  C   UNL A   1      42.351  27.909  31.393  1.00  0.00     0.031 C 
ATOM     32  C   UNL A   1      38.490  30.354  29.302  1.00  0.00     0.029 A 
ATOM     33  N   UNL A   1      39.249  31.123  31.261  1.00  0.00    -0.354 N 
ATOM     34  C   UNL A   1      42.534  29.178  33.291  1.00  0.00     0.074 A 
ATOM     35  C   UNL A   1      43.030  28.055  32.523  1.00  0.00     0.031 C 
ATOM     36  C   UNL A   1      37.776  31.450  29.609  1.00  0.00     0.029 A 
ATOM     37  C   UNL A   1      38.218  31.959  30.905  1.00  0.00     0.049 A 
ATOM     38  H   UNL A   1      39.778  31.240  32.083  1.00  0.00     0.167 HD
ATOM     39  C   UNL A   1      43.054  29.586  34.472  1.00  0.00     0.031 A 
ATOM     40  C   UNL A   1      37.674  33.002  31.560  1.00  0.00     0.031 A 
ATOM     41  C   UNL A   1      42.554  30.700  35.234  1.00  0.00     0.049 A 
ATOM     42  C   UNL A   1      38.230  33.397  32.900  1.00  0.00     0.074 A 
ATOM     43  C   UNL A   1      43.010  31.189  36.446  1.00  0.00     0.029 A 
ATOM     44  N   UNL A   1      41.483  31.498  34.859  1.00  0.00    -0.354 N 
ATOM     45  N   UNL A   1      39.237  32.874  33.560  1.00  0.00    -0.248 NA
ATOM     46  C   UNL A   1      37.577  34.521  33.585  1.00  0.00     0.031 C 
ATOM     47  C   UNL A   1      42.190  32.258  36.822  1.00  0.00     0.029 A 
ATOM     48  C   UNL A   1      41.253  32.463  35.823  1.00  0.00     0.049 A 
ATOM     49  H   UNL A   1      40.964  31.392  34.029  1.00  0.00     0.167 HD
ATOM     50  C   UNL A   1      39.345  33.614  34.731  1.00  0.00     0.074 A 
ATOM     51  C   UNL A   1      38.315  34.631  34.682  1.00  0.00     0.031 C 
ATOM     52  C   UNL A   1      40.218  33.464  35.757  1.00  0.00     0.031 A 
BRANCH  39  53
ATOM     53  C   UNL A   1      44.208  28.800  35.031  1.00  0.00    -0.014 A 
ATOM     54  C   UNL A   1      45.528  29.268  34.922  1.00  0.00     0.010 A 
ATOM     55  C   UNL A   1      43.962  27.591  35.709  1.00  0.00     0.010 A 
ATOM     56  C   UNL A   1      46.587  28.525  35.453  1.00  0.00     0.020 A 
ATOM     57  C   UNL A   1      45.016  26.856  36.258  1.00  0.00     0.020 A 
ATOM     58  C   UNL A   1      46.325  27.321  36.113  1.00  0.00     0.054 A 
BRANCH  58  59
ATOM     59  S   UNL A   1      47.713  26.385  36.810  1.00  0.00     0.124 S 
ATOM     60  O   UNL A   1      48.842  27.267  36.526  1.00  0.00    -0.237 OA
ATOM     61  O   UNL A   1      47.347  26.267  38.219  1.00  0.00    -0.237 OA
ATOM     62  O   UNL A   1      47.697  25.132  36.059  1.00  0.00    -0.744 OA
ENDBRANCH  58  59
ENDBRANCH  39  53
BRANCH  40  63
ATOM     63  C   UNL A   1      36.515  33.724  30.971  1.00  0.00    -0.014 A 
ATOM     64  C   UNL A   1      36.530  34.132  29.627  1.00  0.00     0.010 A 
ATOM     65  C   UNL A   1      35.383  34.001  31.759  1.00  0.00     0.010 A 
ATOM     66  C   UNL A   1      35.438  34.816  29.083  1.00  0.00     0.020 A 
ATOM     67  C   UNL A   1      34.280  34.663  31.213  1.00  0.00     0.020 A 
ATOM     68  C   UNL A   1      34.320  35.078  29.881  1.00  0.00     0.054 A 
BRANCH  68  69
ATOM     69  S   UNL A   1      32.890  35.919  29.146  1.00  0.00     0.124 S 
ATOM     70  O   UNL A   1      32.060  36.182  30.317  1.00  0.00    -0.237 OA
ATOM     71  O   UNL A   1      33.496  37.093  28.523  1.00  0.00    -0.237 OA
ATOM     72  O   UNL A   1      32.361  34.931  28.209  1.00  0.00    -0.744 OA
ENDBRANCH  68  69
ENDBRANCH  40  63
BRANCH  52  73
ATOM     73  C   UNL A   1      40.111  34.438  36.899  1.00  0.00    -0.014 A 
ATOM     74  C   UNL A   1      40.917  35.587  36.948  1.00  0.00     0.010 A 
ATOM     75  C   UNL A   1      39.158  34.221  37.911  1.00  0.00     0.010 A 
ATOM     76  C   UNL A   1      40.791  36.493  38.005  1.00  0.00     0.020 A 
ATOM     77  C   UNL A   1      39.014  35.135  38.957  1.00  0.00     0.020 A 
ATOM     78  C   UNL A   1      39.842  36.259  39.005  1.00  0.00     0.054 A 
BRANCH  78  79
ATOM     79  S   UNL A   1      39.664  37.467  40.345  1.00  0.00     0.124 S 
ATOM     80  O   UNL A   1      38.317  37.978  40.116  1.00  0.00    -0.237 OA
ATOM     81  O   UNL A   1      39.830  36.648  41.544  1.00  0.00    -0.237 OA
ATOM     82  O   UNL A   1      40.744  38.420  40.096  1.00  0.00    -0.744 OA
ENDBRANCH  78  79
ENDBRANCH  52  73
ENDBRANCH  26  27
ENDBRANCH  19  21
ENDBRANCH  18  19
ENDBRANCH  17  18
ENDBRANCH   1  17
TORSDOF 17
ENDMDL
MODEL 3
REMARK VINA RESULT:      -9.6      1.561      2.104
REMARK SMILES COCC(=O)N[C@H]1C=C[C@@H](C(=O)OCCOC(=O)c2ccc(-c3c4nc(c(-c5ccc(S(=O)(=O)[O-])cc5)c5ccc([nH]5)c(-c5ccc(S(=O)(=O)[O-])cc5)c5nc(c(-c6ccc(S(=O)(=O)[O-])cc6)c6ccc3[nH]6)C=C5)C=C4)cc2)C1
REMARK SMILES IDX 14 1 13 2 11 3 12 4 10 5 7 6 8 7 79 8 9 9 6 10 4 11 5 12
REMARK SMILES IDX 3 14 2 15 1 16 15 17 16 18 17 19 18 20 19 21 20 22 78 23
REMARK SMILES IDX 21 24 77 25 22 26 23 27 24 28 71 29 25 30 76 31 70 32 72 33
REMARK SMILES IDX 26 34 75 35 69 36 68 37 27 39 57 40 38 41 56 42 39 43 42 44
REMARK SMILES IDX 55 45 73 46 40 47 41 48 54 50 74 51 43 52 28 53 29 54 37 55
REMARK SMILES IDX 30 56 36 57 31 58 32 59 33 60 34 61 35 62 58 63 59 64 67 65
REMARK SMILES IDX 60 66 66 67 61 68 62 69 63 70 64 71 65 72 44 73 45 74 53 75
REMARK SMILES IDX 46 76 52 77 47 78 48 79 49 80 50 81 51 82
REMARK H PARENT 6 13 72 38 42 49
REMARK Flexibility Score: inf
ROOT
ATOM      1  C   UNL A   1      39.047  22.296  26.280  1.00  0.00     0.274 C 
ENDROOT
BRANCH   1   2
ATOM      2  O   UNL A   1      37.768  22.918  26.050  1.00  0.00    -0.462 OA
BRANCH   2   3
ATOM      3  C   UNL A   1      37.016  22.405  25.045  1.00  0.00     0.312 C 
ATOM      4  O   UNL A   1      37.470  21.872  24.037  1.00  0.00    -0.252 OA
BRANCH   3   5
ATOM      5  C   UNL A   1      35.521  22.622  25.243  1.00  0.00     0.124 C 
ATOM      6  C   UNL A   1      33.510  21.367  25.824  1.00  0.00     0.106 C 
ATOM      7  C   UNL A   1      34.094  22.042  27.018  1.00  0.00    -0.006 C 
ATOM      8  C   UNL A   1      34.584  21.508  24.744  1.00  0.00     0.048 C 
ATOM      9  C   UNL A   1      35.188  22.741  26.702  1.00  0.00    -0.014 C 
BRANCH   6  10
ATOM     10  N   UNL A   1      33.021  20.056  26.184  1.00  0.00    -0.348 N 
ATOM     11  C   UNL A   1      32.893  18.882  25.513  1.00  0.00     0.246 C 
ATOM     12  O   UNL A   1      32.614  17.875  26.174  1.00  0.00    -0.272 OA
ATOM     13  H   UNL A   1      32.714  20.002  27.118  1.00  0.00     0.164 HD
BRANCH  11  14
ATOM     14  C   UNL A   1      33.039  18.792  23.992  1.00  0.00     0.259 C 
BRANCH  14  15
ATOM     15  O   UNL A   1      32.880  17.520  23.384  1.00  0.00    -0.375 OA
ATOM     16  C   UNL A   1      34.107  16.856  23.113  1.00  0.00     0.195 C 
ENDBRANCH  14  15
ENDBRANCH  11  14
ENDBRANCH   6  10
ENDBRANCH   3   5
ENDBRANCH   2   3
ENDBRANCH   1   2
BRANCH   1  17
ATOM     17  C   UNL A   1      40.081  23.319  26.754  1.00  0.00     0.275 C 
BRANCH  17  18
ATOM     18  O   UNL A   1      39.454  24.510  27.265  1.00  0.00    -0.458 OA
BRANCH  18  19
ATOM     19  C   UNL A   1      40.105  25.663  26.986  1.00  0.00     0.338 C 
ATOM     20  O   UNL A   1      40.606  25.996  25.926  1.00  0.00    -0.246 OA
BRANCH  19  21
ATOM     21  C   UNL A   1      40.015  26.578  28.132  1.00  0.00     0.060 A 
ATOM     22  C   UNL A   1      40.855  27.695  28.137  1.00  0.00     0.016 A 
ATOM     23  C   UNL A   1      39.195  26.297  29.225  1.00  0.00     0.016 A 
ATOM     24  C   UNL A   1      40.888  28.537  29.243  1.00  0.00     0.010 A 
ATOM     25  C   UNL A   1      39.230  27.144  30.338  1.00  0.00     0.010 A 
ATOM     26  C   UNL A   1      40.085  28.260  30.357  1.00  0.00    -0.014 A 
BRANCH  26  27
ATOM     27  C   UNL A   1      40.184  29.124  31.555  1.00  0.00     0.031 A 
ATOM     28  C   UNL A   1      41.323  28.943  32.518  1.00  0.00     0.074 A 
ATOM     29  C   UNL A   1      39.272  30.093  31.755  1.00  0.00     0.049 A 
ATOM     30  N   UNL A   1      41.560  29.570  33.641  1.00  0.00    -0.248 NA
ATOM     31  C   UNL A   1      42.330  27.928  32.169  1.00  0.00     0.031 C 
ATOM     32  C   UNL A   1      38.151  30.396  30.861  1.00  0.00     0.029 A 
ATOM     33  N   UNL A   1      39.147  31.006  32.770  1.00  0.00    -0.354 N 
ATOM     34  C   UNL A   1      42.732  29.017  34.142  1.00  0.00     0.074 A 
ATOM     35  C   UNL A   1      43.152  27.994  33.207  1.00  0.00     0.031 C 
ATOM     36  C   UNL A   1      37.455  31.427  31.368  1.00  0.00     0.029 A 
ATOM     37  C   UNL A   1      38.054  31.828  32.638  1.00  0.00     0.049 A 
ATOM     38  H   UNL A   1      39.779  31.067  33.522  1.00  0.00     0.167 HD
ATOM     39  C   UNL A   1      43.396  29.333  35.279  1.00  0.00     0.031 A 
ATOM     40  C   UNL A   1      37.574  32.780  33.461  1.00  0.00     0.031 A 
ATOM     41  C   UNL A   1      42.972  30.347  36.208  1.00  0.00     0.049 A 
ATOM     42  C   UNL A   1      38.295  33.070  34.748  1.00  0.00     0.074 A 
ATOM     43  C   UNL A   1      43.574  30.738  37.392  1.00  0.00     0.029 A 
ATOM     44  N   UNL A   1      41.837  31.131  36.060  1.00  0.00    -0.354 N 
ATOM     45  N   UNL A   1      39.397  32.529  35.213  1.00  0.00    -0.248 NA
ATOM     46  C   UNL A   1      37.709  34.095  35.622  1.00  0.00     0.031 C 
ATOM     47  C   UNL A   1      42.782  31.731  37.978  1.00  0.00     0.029 A 
ATOM     48  C   UNL A   1      41.712  31.990  37.137  1.00  0.00     0.049 A 
ATOM     49  H   UNL A   1      41.214  31.083  35.299  1.00  0.00     0.167 HD
ATOM     50  C   UNL A   1      39.641  33.158  36.428  1.00  0.00     0.074 A 
ATOM     51  C   UNL A   1      38.585  34.131  36.617  1.00  0.00     0.031 C 
ATOM     52  C   UNL A   1      40.650  32.948  37.309  1.00  0.00     0.031 A 
BRANCH  39  53
ATOM     53  C   UNL A   1      44.637  28.546  35.599  1.00  0.00    -0.014 A 
ATOM     54  C   UNL A   1      45.904  28.980  35.172  1.00  0.00     0.010 A 
ATOM     55  C   UNL A   1      44.537  27.375  36.372  1.00  0.00     0.010 A 
ATOM     56  C   UNL A   1      47.047  28.238  35.484  1.00  0.00     0.020 A 
ATOM     57  C   UNL A   1      45.680  26.641  36.703  1.00  0.00     0.020 A 
ATOM     58  C   UNL A   1      46.927  27.070  36.243  1.00  0.00     0.054 A 
BRANCH  58  59
ATOM     59  S   UNL A   1      48.427  26.135  36.652  1.00  0.00     0.124 S 
ATOM     60  O   UNL A   1      49.277  27.170  37.233  1.00  0.00    -0.237 OA
ATOM     61  O   UNL A   1      47.934  25.127  37.587  1.00  0.00    -0.237 OA
ATOM     62  O   UNL A   1      48.872  25.615  35.361  1.00  0.00    -0.744 OA
ENDBRANCH  58  59
ENDBRANCH  39  53
BRANCH  40  63
ATOM     63  C   UNL A   1      36.325  33.506  33.105  1.00  0.00    -0.014 A 
ATOM     64  C   UNL A   1      36.377  34.784  32.524  1.00  0.00     0.010 A 
ATOM     65  C   UNL A   1      35.072  32.911  33.343  1.00  0.00     0.010 A 
ATOM     66  C   UNL A   1      35.197  35.461  32.199  1.00  0.00     0.020 A 
ATOM     67  C   UNL A   1      33.892  33.574  32.997  1.00  0.00     0.020 A 
ATOM     68  C   UNL A   1      33.962  34.851  32.439  1.00  0.00     0.054 A 
BRANCH  68  69
ATOM     69  S   UNL A   1      32.443  35.721  31.961  1.00  0.00     0.124 S 
ATOM     70  O   UNL A   1      32.723  37.083  32.405  1.00  0.00    -0.237 OA
ATOM     71  O   UNL A   1      32.402  35.523  30.515  1.00  0.00    -0.237 OA
ATOM     72  O   UNL A   1      31.401  35.019  32.708  1.00  0.00    -0.744 OA
ENDBRANCH  68  69
ENDBRANCH  40  63
BRANCH  52  73
ATOM     73  C   UNL A   1      40.671  33.803  38.547  1.00  0.00    -0.014 A 
ATOM     74  C   UNL A   1      39.923  33.450  39.683  1.00  0.00     0.010 A 
ATOM     75  C   UNL A   1      41.487  34.949  38.587  1.00  0.00     0.010 A 
ATOM     76  C   UNL A   1      39.970  34.243  40.832  1.00  0.00     0.020 A 
ATOM     77  C   UNL A   1      41.552  35.731  39.742  1.00  0.00     0.020 A 
ATOM     78  C   UNL A   1      40.782  35.381  40.853  1.00  0.00     0.054 A 
BRANCH  78  79
ATOM     79  S   UNL A   1      40.862  36.374  42.369  1.00  0.00     0.124 S 
ATOM     80  O   UNL A   1      39.464  36.401  42.787  1.00  0.00    -0.237 OA
ATOM     81  O   UNL A   1      41.757  35.593  43.220  1.00  0.00    -0.237 OA
ATOM     82  O   UNL A   1      41.403  37.653  41.916  1.00  0.00    -0.744 OA
ENDBRANCH  78  79
ENDBRANCH  52  73
ENDBRANCH  26  27
ENDBRANCH  19  21
ENDBRANCH  18  19
ENDBRANCH  17  18
ENDBRANCH   1  17
TORSDOF 17
ENDMDL
