MODEL 1
REMARK VINA RESULT:     -10.0      0.000      0.000
REMARK SMILES Cc1cc(C)c2c(c1)C=C(C(=O)OCCOC(=O)c1ccc(-c3c4nc(c(-c5ccc(S(=O)(=O)[O-])cc5)c5ccc([nH]5)c(-c5ccc(S(=O)(=O)[O-])cc5)c5nc(c(-c6ccc(S(=O)(=O)[O-])cc6)c6ccc3[nH]6)C=C5)C=C4)cc1)[C@@H](C(F)(F)F)O2
REMARK SMILES IDX 15 1 14 2 13 3 11 4 12 5 10 6 1 7 2 8 3 9 8 10 4 11 7 12
REMARK SMILES IDX 5 13 6 14 9 15 84 16 79 17 80 18 81 19 82 20 83 21 16 22
REMARK SMILES IDX 17 23 18 24 19 25 20 26 78 27 21 28 77 29 22 30 23 31 24 32
REMARK SMILES IDX 71 33 25 34 76 35 70 36 72 37 26 38 75 39 69 40 68 41 27 43
REMARK SMILES IDX 57 44 38 45 56 46 39 47 42 48 55 49 73 50 40 51 41 52 54 54
REMARK SMILES IDX 74 55 43 56 28 57 29 58 37 59 30 60 36 61 31 62 32 63 33 64
REMARK SMILES IDX 34 65 35 66 58 67 59 68 67 69 60 70 66 71 61 72 62 73 63 74
REMARK SMILES IDX 64 75 65 76 44 77 45 78 53 79 46 80 52 81 47 82 48 83 49 84
REMARK SMILES IDX 50 85 51 86
REMARK H PARENT 72 42 42 53
REMARK Flexibility Score: inf
ROOT
ATOM      1  C   UNL A   1      40.422  20.299  26.125  1.00  0.00     0.275 C 
ENDROOT
BRANCH   1   2
ATOM      2  C   UNL A   1      41.947  20.217  26.131  1.00  0.00     0.275 C 
BRANCH   2   3
ATOM      3  O   UNL A   1      42.544  21.532  26.106  1.00  0.00    -0.459 OA
BRANCH   3   4
ATOM      4  C   UNL A   1      43.807  21.584  25.623  1.00  0.00     0.338 C 
ATOM      5  O   UNL A   1      44.218  21.051  24.604  1.00  0.00    -0.246 OA
BRANCH   4   6
ATOM      6  C   UNL A   1      44.665  22.400  26.499  1.00  0.00     0.087 C 
ATOM      7  C   UNL A   1      44.435  25.696  31.693  1.00  0.00     0.044 C 
ATOM      8  C   UNL A   1      45.058  25.137  30.447  1.00  0.00    -0.050 A 
ATOM      9  C   UNL A   1      46.292  25.611  29.986  1.00  0.00     0.010 A 
ATOM     10  C   UNL A   1      44.376  24.186  29.685  1.00  0.00     0.015 A 
ATOM     11  C   UNL A   1      46.858  25.126  28.792  1.00  0.00    -0.008 A 
ATOM     12  C   UNL A   1      44.923  23.709  28.488  1.00  0.00     0.018 A 
ATOM     13  C   UNL A   1      48.180  25.657  28.320  1.00  0.00     0.048 C 
ATOM     14  C   UNL A   1      46.163  24.166  28.044  1.00  0.00     0.130 A 
ATOM     15  C   UNL A   1      44.169  22.771  27.684  1.00  0.00     0.027 C 
ATOM     16  O   UNL A   1      46.754  23.709  26.894  1.00  0.00    -0.475 OA
ATOM     17  C   UNL A   1      45.974  22.901  25.969  1.00  0.00     0.316 C 
BRANCH  17  18
ATOM     18  C   UNL A   1      45.787  23.685  24.661  1.00  0.00     0.430 C 
ATOM     19  F   UNL A   1      46.016  22.900  23.578  1.00  0.00    -0.167 F 
ATOM     20  F   UNL A   1      44.517  24.144  24.534  1.00  0.00    -0.167 F 
ATOM     21  F   UNL A   1      46.613  24.750  24.571  1.00  0.00    -0.167 F 
ENDBRANCH  17  18
ENDBRANCH   4   6
ENDBRANCH   3   4
ENDBRANCH   2   3
ENDBRANCH   1   2
BRANCH   1  22
ATOM     22  O   UNL A   1      39.972  21.296  27.061  1.00  0.00    -0.458 OA
BRANCH  22  23
ATOM     23  C   UNL A   1      39.243  22.301  26.527  1.00  0.00     0.338 C 
ATOM     24  O   UNL A   1      38.312  22.204  25.745  1.00  0.00    -0.246 OA
BRANCH  23  25
ATOM     25  C   UNL A   1      39.677  23.591  27.085  1.00  0.00     0.060 A 
ATOM     26  C   UNL A   1      39.244  24.759  26.471  1.00  0.00     0.016 A 
ATOM     27  C   UNL A   1      40.653  23.646  28.075  1.00  0.00     0.016 A 
ATOM     28  C   UNL A   1      39.909  25.958  26.711  1.00  0.00     0.010 A 
ATOM     29  C   UNL A   1      41.203  24.885  28.433  1.00  0.00     0.010 A 
ATOM     30  C   UNL A   1      40.884  26.051  27.714  1.00  0.00    -0.014 A 
BRANCH  30  31
ATOM     31  C   UNL A   1      41.572  27.353  27.972  1.00  0.00     0.031 A 
ATOM     32  C   UNL A   1      40.883  28.445  28.759  1.00  0.00     0.074 A 
ATOM     33  C   UNL A   1      42.839  27.549  27.542  1.00  0.00     0.049 A 
ATOM     34  N   UNL A   1      41.270  29.679  28.970  1.00  0.00    -0.248 NA
ATOM     35  C   UNL A   1      39.589  28.116  29.380  1.00  0.00     0.031 C 
ATOM     36  C   UNL A   1      43.652  26.570  26.815  1.00  0.00     0.029 A 
ATOM     37  N   UNL A   1      43.681  28.628  27.679  1.00  0.00    -0.354 N 
ATOM     38  C   UNL A   1      40.247  30.283  29.695  1.00  0.00     0.074 A 
ATOM     39  C   UNL A   1      39.213  29.289  29.875  1.00  0.00     0.031 C 
ATOM     40  C   UNL A   1      44.891  27.054  26.649  1.00  0.00     0.029 A 
ATOM     41  C   UNL A   1      44.933  28.423  27.144  1.00  0.00     0.049 A 
ATOM     42  H   UNL A   1      43.413  29.467  28.118  1.00  0.00     0.167 HD
ATOM     43  C   UNL A   1      40.177  31.549  30.177  1.00  0.00     0.031 A 
ATOM     44  C   UNL A   1      45.991  29.249  27.024  1.00  0.00     0.031 A 
ATOM     45  C   UNL A   1      41.228  32.522  30.039  1.00  0.00     0.049 A 
ATOM     46  C   UNL A   1      45.864  30.665  27.504  1.00  0.00     0.074 A 
ATOM     47  C   UNL A   1      41.253  33.830  30.492  1.00  0.00     0.029 A 
ATOM     48  N   UNL A   1      42.447  32.290  29.421  1.00  0.00    -0.354 N 
ATOM     49  N   UNL A   1      44.863  31.232  28.130  1.00  0.00    -0.248 NA
ATOM     50  C   UNL A   1      46.999  31.560  27.237  1.00  0.00     0.031 C 
ATOM     51  C   UNL A   1      42.467  34.403  30.106  1.00  0.00     0.029 A 
ATOM     52  C   UNL A   1      43.223  33.437  29.464  1.00  0.00     0.049 A 
ATOM     53  H   UNL A   1      42.721  31.438  29.013  1.00  0.00     0.167 HD
ATOM     54  C   UNL A   1      45.248  32.551  28.339  1.00  0.00     0.074 A 
ATOM     55  C   UNL A   1      46.583  32.690  27.795  1.00  0.00     0.031 C 
ATOM     56  C   UNL A   1      44.552  33.558  28.919  1.00  0.00     0.031 A 
BRANCH  43  57
ATOM     57  C   UNL A   1      38.913  31.969  30.884  1.00  0.00    -0.014 A 
ATOM     58  C   UNL A   1      38.800  31.906  32.284  1.00  0.00     0.010 A 
ATOM     59  C   UNL A   1      37.843  32.499  30.138  1.00  0.00     0.010 A 
ATOM     60  C   UNL A   1      37.632  32.334  32.921  1.00  0.00     0.020 A 
ATOM     61  C   UNL A   1      36.683  32.955  30.773  1.00  0.00     0.020 A 
ATOM     62  C   UNL A   1      36.581  32.857  32.161  1.00  0.00     0.054 A 
BRANCH  62  63
ATOM     63  S   UNL A   1      35.091  33.435  33.021  1.00  0.00     0.124 S 
ATOM     64  O   UNL A   1      34.051  32.615  32.404  1.00  0.00    -0.237 OA
ATOM     65  O   UNL A   1      35.389  33.127  34.417  1.00  0.00    -0.237 OA
ATOM     66  O   UNL A   1      35.032  34.858  32.698  1.00  0.00    -0.744 OA
ENDBRANCH  62  63
ENDBRANCH  43  57
BRANCH  44  67
ATOM     67  C   UNL A   1      47.245  28.764  26.379  1.00  0.00    -0.014 A 
ATOM     68  C   UNL A   1      48.481  28.893  27.034  1.00  0.00     0.010 A 
ATOM     69  C   UNL A   1      47.206  28.148  25.113  1.00  0.00     0.010 A 
ATOM     70  C   UNL A   1      49.653  28.419  26.436  1.00  0.00     0.020 A 
ATOM     71  C   UNL A   1      48.370  27.643  24.527  1.00  0.00     0.020 A 
ATOM     72  C   UNL A   1      49.588  27.791  25.189  1.00  0.00     0.054 A 
BRANCH  72  73
ATOM     73  S   UNL A   1      51.115  27.135  24.460  1.00  0.00     0.124 S 
ATOM     74  O   UNL A   1      51.282  25.878  25.183  1.00  0.00    -0.237 OA
ATOM     75  O   UNL A   1      50.761  27.011  23.048  1.00  0.00    -0.237 OA
ATOM     76  O   UNL A   1      52.108  28.165  24.758  1.00  0.00    -0.744 OA
ENDBRANCH  72  73
ENDBRANCH  44  67
BRANCH  56  77
ATOM     77  C   UNL A   1      45.221  34.901  29.016  1.00  0.00    -0.014 A 
ATOM     78  C   UNL A   1      45.044  35.868  28.012  1.00  0.00     0.010 A 
ATOM     79  C   UNL A   1      45.963  35.228  30.166  1.00  0.00     0.010 A 
ATOM     80  C   UNL A   1      45.604  37.139  28.153  1.00  0.00     0.020 A 
ATOM     81  C   UNL A   1      46.502  36.508  30.322  1.00  0.00     0.020 A 
ATOM     82  C   UNL A   1      46.322  37.454  29.310  1.00  0.00     0.054 A 
BRANCH  82  83
ATOM     83  S   UNL A   1      46.971  39.137  29.499  1.00  0.00     0.124 S 
ATOM     84  O   UNL A   1      45.981  39.929  28.773  1.00  0.00    -0.237 OA
ATOM     85  O   UNL A   1      46.976  39.315  30.949  1.00  0.00    -0.237 OA
ATOM     86  O   UNL A   1      48.293  39.072  28.880  1.00  0.00    -0.744 OA
ENDBRANCH  82  83
ENDBRANCH  56  77
ENDBRANCH  30  31
ENDBRANCH  23  25
ENDBRANCH  22  23
ENDBRANCH   1  22
TORSDOF 15
ENDMDL
MODEL 2
REMARK VINA RESULT:      -9.8      4.708      9.370
REMARK SMILES Cc1cc(C)c2c(c1)C=C(C(=O)OCCOC(=O)c1ccc(-c3c4nc(c(-c5ccc(S(=O)(=O)[O-])cc5)c5ccc([nH]5)c(-c5ccc(S(=O)(=O)[O-])cc5)c5nc(c(-c6ccc(S(=O)(=O)[O-])cc6)c6ccc3[nH]6)C=C5)C=C4)cc1)[C@@H](C(F)(F)F)O2
REMARK SMILES IDX 15 1 14 2 13 3 11 4 12 5 10 6 1 7 2 8 3 9 8 10 4 11 7 12
REMARK SMILES IDX 5 13 6 14 9 15 84 16 79 17 80 18 81 19 82 20 83 21 16 22
REMARK SMILES IDX 17 23 18 24 19 25 20 26 78 27 21 28 77 29 22 30 23 31 24 32
REMARK SMILES IDX 71 33 25 34 76 35 70 36 72 37 26 38 75 39 69 40 68 41 27 43
REMARK SMILES IDX 57 44 38 45 56 46 39 47 42 48 55 49 73 50 40 51 41 52 54 54
REMARK SMILES IDX 74 55 43 56 28 57 29 58 37 59 30 60 36 61 31 62 32 63 33 64
REMARK SMILES IDX 34 65 35 66 58 67 59 68 67 69 60 70 66 71 61 72 62 73 63 74
REMARK SMILES IDX 64 75 65 76 44 77 45 78 53 79 46 80 52 81 47 82 48 83 49 84
REMARK SMILES IDX 50 85 51 86
REMARK H PARENT 72 42 42 53
REMARK Flexibility Score: inf
ROOT
ATOM      1  C   UNL A   1      32.463  28.599  27.181  1.00  0.00     0.275 C 
ENDROOT
BRANCH   1   2
ATOM      2  C   UNL A   1      32.084  27.152  26.873  1.00  0.00     0.275 C 
BRANCH   2   3
ATOM      3  O   UNL A   1      31.892  26.950  25.455  1.00  0.00    -0.459 OA
BRANCH   3   4
ATOM      4  C   UNL A   1      33.023  26.728  24.745  1.00  0.00     0.338 C 
ATOM      5  O   UNL A   1      33.580  27.517  24.000  1.00  0.00    -0.246 OA
BRANCH   4   6
ATOM      6  C   UNL A   1      33.533  25.368  24.993  1.00  0.00     0.087 C 
ATOM      7  C   UNL A   1      38.795  22.355  26.056  1.00  0.00     0.044 C 
ATOM      8  C   UNL A   1      37.324  22.501  25.798  1.00  0.00    -0.050 A 
ATOM      9  C   UNL A   1      36.531  21.385  25.507  1.00  0.00     0.010 A 
ATOM     10  C   UNL A   1      36.737  23.768  25.768  1.00  0.00     0.015 A 
ATOM     11  C   UNL A   1      35.161  21.521  25.216  1.00  0.00    -0.008 A 
ATOM     12  C   UNL A   1      35.379  23.916  25.464  1.00  0.00     0.018 A 
ATOM     13  C   UNL A   1      34.337  20.306  24.903  1.00  0.00     0.048 C 
ATOM     14  C   UNL A   1      34.587  22.800  25.199  1.00  0.00     0.130 A 
ATOM     15  C   UNL A   1      34.807  25.243  25.378  1.00  0.00     0.027 C 
ATOM     16  O   UNL A   1      33.246  22.889  24.923  1.00  0.00    -0.475 OA
ATOM     17  C   UNL A   1      32.662  24.196  24.659  1.00  0.00     0.316 C 
BRANCH  17  18
ATOM     18  C   UNL A   1      32.193  24.243  23.197  1.00  0.00     0.430 C 
ATOM     19  F   UNL A   1      31.078  25.004  23.061  1.00  0.00    -0.167 F 
ATOM     20  F   UNL A   1      33.132  24.800  22.392  1.00  0.00    -0.167 F 
ATOM     21  F   UNL A   1      31.909  23.018  22.702  1.00  0.00    -0.167 F 
ENDBRANCH  17  18
ENDBRANCH   4   6
ENDBRANCH   3   4
ENDBRANCH   2   3
ENDBRANCH   1   2
BRANCH   1  22
ATOM     22  O   UNL A   1      33.864  28.692  27.497  1.00  0.00    -0.458 OA
BRANCH  22  23
ATOM     23  C   UNL A   1      34.341  29.950  27.636  1.00  0.00     0.338 C 
ATOM     24  O   UNL A   1      33.741  30.993  27.449  1.00  0.00    -0.246 OA
BRANCH  23  25
ATOM     25  C   UNL A   1      35.724  29.911  28.137  1.00  0.00     0.060 A 
ATOM     26  C   UNL A   1      36.753  30.271  27.277  1.00  0.00     0.016 A 
ATOM     27  C   UNL A   1      36.018  29.340  29.373  1.00  0.00     0.016 A 
ATOM     28  C   UNL A   1      38.062  29.898  27.565  1.00  0.00     0.010 A 
ATOM     29  C   UNL A   1      37.356  29.120  29.730  1.00  0.00     0.010 A 
ATOM     30  C   UNL A   1      38.395  29.339  28.807  1.00  0.00    -0.014 A 
BRANCH  30  31
ATOM     31  C   UNL A   1      39.810  28.965  29.106  1.00  0.00     0.031 A 
ATOM     32  C   UNL A   1      40.714  29.913  29.861  1.00  0.00     0.074 A 
ATOM     33  C   UNL A   1      40.285  27.752  28.742  1.00  0.00     0.049 A 
ATOM     34  N   UNL A   1      41.999  29.816  30.098  1.00  0.00    -0.248 NA
ATOM     35  C   UNL A   1      40.102  31.134  30.413  1.00  0.00     0.031 C 
ATOM     36  C   UNL A   1      39.517  26.710  28.054  1.00  0.00     0.029 A 
ATOM     37  N   UNL A   1      41.518  27.173  28.928  1.00  0.00    -0.354 N 
ATOM     38  C   UNL A   1      42.355  30.981  30.772  1.00  0.00     0.074 A 
ATOM     39  C   UNL A   1      41.156  31.780  30.893  1.00  0.00     0.031 C 
ATOM     40  C   UNL A   1      40.262  25.600  27.954  1.00  0.00     0.029 A 
ATOM     41  C   UNL A   1      41.599  25.881  28.457  1.00  0.00     0.049 A 
ATOM     42  H   UNL A   1      42.272  27.638  29.356  1.00  0.00     0.167 HD
ATOM     43  C   UNL A   1      43.567  31.349  31.255  1.00  0.00     0.031 A 
ATOM     44  C   UNL A   1      42.637  25.024  28.395  1.00  0.00     0.031 A 
ATOM     45  C   UNL A   1      44.747  30.530  31.176  1.00  0.00     0.049 A 
ATOM     46  C   UNL A   1      43.984  25.481  28.875  1.00  0.00     0.074 A 
ATOM     47  C   UNL A   1      46.022  30.813  31.635  1.00  0.00     0.029 A 
ATOM     48  N   UNL A   1      44.796  29.260  30.620  1.00  0.00    -0.354 N 
ATOM     49  N   UNL A   1      44.310  26.611  29.451  1.00  0.00    -0.248 NA
ATOM     50  C   UNL A   1      45.109  24.557  28.671  1.00  0.00     0.031 C 
ATOM     51  C   UNL A   1      46.852  29.736  31.316  1.00  0.00     0.029 A 
ATOM     52  C   UNL A   1      46.084  28.757  30.709  1.00  0.00     0.049 A 
ATOM     53  H   UNL A   1      44.030  28.787  30.224  1.00  0.00     0.167 HD
ATOM     54  C   UNL A   1      45.677  26.534  29.686  1.00  0.00     0.074 A 
ATOM     55  C   UNL A   1      46.112  25.236  29.212  1.00  0.00     0.031 C 
ATOM     56  C   UNL A   1      46.500  27.461  30.234  1.00  0.00     0.031 A 
BRANCH  43  57
ATOM     57  C   UNL A   1      43.691  32.707  31.897  1.00  0.00    -0.014 A 
ATOM     58  C   UNL A   1      43.564  32.875  33.288  1.00  0.00     0.010 A 
ATOM     59  C   UNL A   1      44.005  33.826  31.102  1.00  0.00     0.010 A 
ATOM     60  C   UNL A   1      43.718  34.138  33.866  1.00  0.00     0.020 A 
ATOM     61  C   UNL A   1      44.188  35.087  31.680  1.00  0.00     0.020 A 
ATOM     62  C   UNL A   1      44.031  35.236  33.059  1.00  0.00     0.054 A 
BRANCH  62  63
ATOM     63  S   UNL A   1      44.256  36.856  33.843  1.00  0.00     0.124 S 
ATOM     64  O   UNL A   1      44.752  36.484  35.167  1.00  0.00    -0.237 OA
ATOM     65  O   UNL A   1      45.230  37.502  32.967  1.00  0.00    -0.237 OA
ATOM     66  O   UNL A   1      42.919  37.443  33.824  1.00  0.00    -0.744 OA
ENDBRANCH  62  63
ENDBRANCH  43  57
BRANCH  44  67
ATOM     67  C   UNL A   1      42.447  23.665  27.814  1.00  0.00    -0.014 A 
ATOM     68  C   UNL A   1      42.595  23.453  26.432  1.00  0.00     0.010 A 
ATOM     69  C   UNL A   1      42.142  22.569  28.643  1.00  0.00     0.010 A 
ATOM     70  C   UNL A   1      42.437  22.172  25.891  1.00  0.00     0.020 A 
ATOM     71  C   UNL A   1      42.017  21.282  28.111  1.00  0.00     0.020 A 
ATOM     72  C   UNL A   1      42.156  21.094  26.736  1.00  0.00     0.054 A 
BRANCH  72  73
ATOM     73  S   UNL A   1      42.011  19.435  26.017  1.00  0.00     0.124 S 
ATOM     74  O   UNL A   1      42.890  19.529  24.855  1.00  0.00    -0.237 OA
ATOM     75  O   UNL A   1      42.485  18.580  27.102  1.00  0.00    -0.237 OA
ATOM     76  O   UNL A   1      40.586  19.315  25.715  1.00  0.00    -0.744 OA
ENDBRANCH  72  73
ENDBRANCH  44  67
BRANCH  56  77
ATOM     77  C   UNL A   1      47.954  27.106  30.371  1.00  0.00    -0.014 A 
ATOM     78  C   UNL A   1      48.869  27.409  29.348  1.00  0.00     0.010 A 
ATOM     79  C   UNL A   1      48.424  26.545  31.573  1.00  0.00     0.010 A 
ATOM     80  C   UNL A   1      50.230  27.149  29.522  1.00  0.00     0.020 A 
ATOM     81  C   UNL A   1      49.788  26.307  31.760  1.00  0.00     0.020 A 
ATOM     82  C   UNL A   1      50.682  26.608  30.729  1.00  0.00     0.054 A 
BRANCH  82  83
ATOM     83  S   UNL A   1      52.463  26.353  30.954  1.00  0.00     0.124 S 
ATOM     84  O   UNL A   1      52.932  26.242  29.575  1.00  0.00    -0.237 OA
ATOM     85  O   UNL A   1      52.871  27.565  31.660  1.00  0.00    -0.237 OA
ATOM     86  O   UNL A   1      52.543  25.124  31.740  1.00  0.00    -0.744 OA
ENDBRANCH  82  83
ENDBRANCH  56  77
ENDBRANCH  30  31
ENDBRANCH  23  25
ENDBRANCH  22  23
ENDBRANCH   1  22
TORSDOF 15
ENDMDL
MODEL 3
REMARK VINA RESULT:      -9.6      5.341     12.637
REMARK SMILES Cc1cc(C)c2c(c1)C=C(C(=O)OCCOC(=O)c1ccc(-c3c4nc(c(-c5ccc(S(=O)(=O)[O-])cc5)c5ccc([nH]5)c(-c5ccc(S(=O)(=O)[O-])cc5)c5nc(c(-c6ccc(S(=O)(=O)[O-])cc6)c6ccc3[nH]6)C=C5)C=C4)cc1)[C@@H](C(F)(F)F)O2
REMARK SMILES IDX 15 1 14 2 13 3 11 4 12 5 10 6 1 7 2 8 3 9 8 10 4 11 7 12
REMARK SMILES IDX 5 13 6 14 9 15 84 16 79 17 80 18 81 19 82 20 83 21 16 22
REMARK SMILES IDX 17 23 18 24 19 25 20 26 78 27 21 28 77 29 22 30 23 31 24 32
REMARK SMILES IDX 71 33 25 34 76 35 70 36 72 37 26 38 75 39 69 40 68 41 27 43
REMARK SMILES IDX 57 44 38 45 56 46 39 47 42 48 55 49 73 50 40 51 41 52 54 54
REMARK SMILES IDX 74 55 43 56 28 57 29 58 37 59 30 60 36 61 31 62 32 63 33 64
REMARK SMILES IDX 34 65 35 66 58 67 59 68 67 69 60 70 66 71 61 72 62 73 63 74
REMARK SMILES IDX 64 75 65 76 44 77 45 78 53 79 46 80 52 81 47 82 48 83 49 84
REMARK SMILES IDX 50 85 51 86
REMARK H PARENT 72 42 42 53
REMARK Flexibility Score: inf
ROOT
ATOM      1  C   UNL A   1      33.566  33.456  28.043  1.00  0.00     0.275 C 
ENDROOT
BRANCH   1   2
ATOM      2  C   UNL A   1      33.951  34.351  29.220  1.00  0.00     0.275 C 
BRANCH   2   3
ATOM      3  O   UNL A   1      34.703  33.618  30.212  1.00  0.00    -0.459 OA
BRANCH   3   4
ATOM      4  C   UNL A   1      34.733  34.178  31.444  1.00  0.00     0.338 C 
ATOM      5  O   UNL A   1      33.769  34.458  32.139  1.00  0.00    -0.246 OA
BRANCH   4   6
ATOM      6  C   UNL A   1      36.122  34.413  31.875  1.00  0.00     0.087 C 
ATOM      7  C   UNL A   1      41.915  33.793  29.884  1.00  0.00     0.044 C 
ATOM      8  C   UNL A   1      40.826  34.108  30.869  1.00  0.00    -0.050 A 
ATOM      9  C   UNL A   1      41.121  34.322  32.222  1.00  0.00     0.010 A 
ATOM     10  C   UNL A   1      39.491  34.116  30.463  1.00  0.00     0.015 A 
ATOM     11  C   UNL A   1      40.101  34.569  33.158  1.00  0.00    -0.008 A 
ATOM     12  C   UNL A   1      38.467  34.345  31.390  1.00  0.00     0.018 A 
ATOM     13  C   UNL A   1      40.446  34.790  34.602  1.00  0.00     0.048 C 
ATOM     14  C   UNL A   1      38.765  34.582  32.731  1.00  0.00     0.130 A 
ATOM     15  C   UNL A   1      37.086  34.286  30.958  1.00  0.00     0.027 C 
ATOM     16  O   UNL A   1      37.801  34.839  33.672  1.00  0.00    -0.475 OA
ATOM     17  C   UNL A   1      36.403  34.627  33.331  1.00  0.00     0.316 C 
BRANCH  17  18
ATOM     18  C   UNL A   1      35.853  33.473  34.184  1.00  0.00     0.430 C 
ATOM     19  F   UNL A   1      34.665  33.801  34.750  1.00  0.00    -0.167 F 
ATOM     20  F   UNL A   1      35.624  32.366  33.434  1.00  0.00    -0.167 F 
ATOM     21  F   UNL A   1      36.692  33.119  35.182  1.00  0.00    -0.167 F 
ENDBRANCH  17  18
ENDBRANCH   4   6
ENDBRANCH   3   4
ENDBRANCH   2   3
ENDBRANCH   1   2
BRANCH   1  22
ATOM     22  O   UNL A   1      34.725  32.766  27.541  1.00  0.00    -0.458 OA
BRANCH  22  23
ATOM     23  C   UNL A   1      34.664  31.417  27.603  1.00  0.00     0.338 C 
ATOM     24  O   UNL A   1      33.728  30.703  27.287  1.00  0.00    -0.246 OA
BRANCH  23  25
ATOM     25  C   UNL A   1      35.957  30.875  28.051  1.00  0.00     0.060 A 
ATOM     26  C   UNL A   1      36.001  29.572  28.527  1.00  0.00     0.016 A 
ATOM     27  C   UNL A   1      37.068  31.703  28.185  1.00  0.00     0.016 A 
ATOM     28  C   UNL A   1      37.080  29.148  29.297  1.00  0.00     0.010 A 
ATOM     29  C   UNL A   1      38.220  31.213  28.817  1.00  0.00     0.010 A 
ATOM     30  C   UNL A   1      38.222  29.950  29.436  1.00  0.00    -0.014 A 
BRANCH  30  31
ATOM     31  C   UNL A   1      39.381  29.469  30.248  1.00  0.00     0.031 A 
ATOM     32  C   UNL A   1      40.388  28.507  29.660  1.00  0.00     0.074 A 
ATOM     33  C   UNL A   1      39.565  29.928  31.507  1.00  0.00     0.049 A 
ATOM     34  N   UNL A   1      41.378  27.885  30.251  1.00  0.00    -0.248 NA
ATOM     35  C   UNL A   1      40.263  28.191  28.226  1.00  0.00     0.031 C 
ATOM     36  C   UNL A   1      38.708  30.899  32.193  1.00  0.00     0.029 A 
ATOM     37  N   UNL A   1      40.553  29.665  32.427  1.00  0.00    -0.354 N 
ATOM     38  C   UNL A   1      41.953  27.069  29.281  1.00  0.00     0.074 A 
ATOM     39  C   UNL A   1      41.192  27.259  28.066  1.00  0.00     0.031 C 
ATOM     40  C   UNL A   1      39.249  31.213  33.379  1.00  0.00     0.029 A 
ATOM     41  C   UNL A   1      40.424  30.380  33.597  1.00  0.00     0.049 A 
ATOM     42  H   UNL A   1      41.283  29.026  32.265  1.00  0.00     0.167 HD
ATOM     43  C   UNL A   1      43.022  26.242  29.388  1.00  0.00     0.031 A 
ATOM     44  C   UNL A   1      41.139  30.349  34.739  1.00  0.00     0.031 A 
ATOM     45  C   UNL A   1      43.807  26.091  30.585  1.00  0.00     0.049 A 
ATOM     46  C   UNL A   1      42.276  29.376  34.856  1.00  0.00     0.074 A 
ATOM     47  C   UNL A   1      44.908  25.280  30.793  1.00  0.00     0.029 A 
ATOM     48  N   UNL A   1      43.588  26.780  31.768  1.00  0.00    -0.354 N 
ATOM     49  N   UNL A   1      42.762  28.568  33.945  1.00  0.00    -0.248 NA
ATOM     50  C   UNL A   1      42.944  29.290  36.162  1.00  0.00     0.031 C 
ATOM     51  C   UNL A   1      45.327  25.442  32.116  1.00  0.00     0.029 A 
ATOM     52  C   UNL A   1      44.523  26.397  32.716  1.00  0.00     0.049 A 
ATOM     53  H   UNL A   1      42.876  27.443  31.913  1.00  0.00     0.167 HD
ATOM     54  C   UNL A   1      43.798  27.882  34.566  1.00  0.00     0.074 A 
ATOM     55  C   UNL A   1      43.885  28.387  35.920  1.00  0.00     0.031 C 
ATOM     56  C   UNL A   1      44.597  26.912  34.060  1.00  0.00     0.031 A 
BRANCH  43  57
ATOM     57  C   UNL A   1      43.402  25.416  28.185  1.00  0.00    -0.014 A 
ATOM     58  C   UNL A   1      44.274  25.912  27.200  1.00  0.00     0.010 A 
ATOM     59  C   UNL A   1      42.930  24.094  28.073  1.00  0.00     0.010 A 
ATOM     60  C   UNL A   1      44.640  25.116  26.112  1.00  0.00     0.020 A 
ATOM     61  C   UNL A   1      43.316  23.283  27.001  1.00  0.00     0.020 A 
ATOM     62  C   UNL A   1      44.160  23.805  26.019  1.00  0.00     0.054 A 
BRANCH  62  63
ATOM     63  S   UNL A   1      44.681  22.786  24.612  1.00  0.00     0.124 S 
ATOM     64  O   UNL A   1      45.703  23.626  23.993  1.00  0.00    -0.237 OA
ATOM     65  O   UNL A   1      45.173  21.574  25.261  1.00  0.00    -0.237 OA
ATOM     66  O   UNL A   1      43.458  22.619  23.831  1.00  0.00    -0.744 OA
ENDBRANCH  62  63
ENDBRANCH  43  57
BRANCH  44  67
ATOM     67  C   UNL A   1      40.765  31.237  35.877  1.00  0.00    -0.014 A 
ATOM     68  C   UNL A   1      41.757  31.899  36.620  1.00  0.00     0.010 A 
ATOM     69  C   UNL A   1      39.413  31.445  36.207  1.00  0.00     0.010 A 
ATOM     70  C   UNL A   1      41.404  32.747  37.675  1.00  0.00     0.020 A 
ATOM     71  C   UNL A   1      39.054  32.318  37.238  1.00  0.00     0.020 A 
ATOM     72  C   UNL A   1      40.054  32.957  37.971  1.00  0.00     0.054 A 
BRANCH  72  73
ATOM     73  S   UNL A   1      39.621  34.106  39.306  1.00  0.00     0.124 S 
ATOM     74  O   UNL A   1      39.880  33.303  40.497  1.00  0.00    -0.237 OA
ATOM     75  O   UNL A   1      40.543  35.216  39.078  1.00  0.00    -0.237 OA
ATOM     76  O   UNL A   1      38.214  34.413  39.052  1.00  0.00    -0.744 OA
ENDBRANCH  72  73
ENDBRANCH  44  67
BRANCH  56  77
ATOM     77  C   UNL A   1      45.652  26.338  34.965  1.00  0.00    -0.014 A 
ATOM     78  C   UNL A   1      46.922  26.930  35.058  1.00  0.00     0.010 A 
ATOM     79  C   UNL A   1      45.336  25.247  35.798  1.00  0.00     0.010 A 
ATOM     80  C   UNL A   1      47.865  26.437  35.962  1.00  0.00     0.020 A 
ATOM     81  C   UNL A   1      46.268  24.768  36.722  1.00  0.00     0.020 A 
ATOM     82  C   UNL A   1      47.529  25.364  36.795  1.00  0.00     0.054 A 
BRANCH  82  83
ATOM     83  S   UNL A   1      48.747  24.796  38.013  1.00  0.00     0.124 S 
ATOM     84  O   UNL A   1      48.146  23.552  38.487  1.00  0.00    -0.237 OA
ATOM     85  O   UNL A   1      49.955  24.643  37.206  1.00  0.00    -0.237 OA
ATOM     86  O   UNL A   1      48.790  25.879  38.992  1.00  0.00    -0.744 OA
ENDBRANCH  82  83
ENDBRANCH  56  77
ENDBRANCH  30  31
ENDBRANCH  23  25
ENDBRANCH  22  23
ENDBRANCH   1  22
TORSDOF 15
ENDMDL
