MODEL 1
REMARK VINA RESULT:      -9.7      0.000      0.000
REMARK SMILES CCC[NH2+][C@@H]1COC[C@@H]1C(=O)N[C@@](C)(CC)C(=O)OCCOC(=O)c1ccc(-c2c3nc(c(-c4ccc(S(=O)(=O)[O-])cc4)c4ccc([nH]4)c(-c4ccc(S(=O)(=O)[O-])cc4)c4nc(c(-c5ccc(S(=O)(=O)[O-])cc5)c5ccc2[nH]5)C=C4)C=C3)cc1
REMARK SMILES IDX 20 1 19 2 17 3 18 4 13 5 14 6 12 7 10 8 11 9 9 11 5 12 6 13
REMARK SMILES IDX 7 14 8 15 4 16 3 19 2 20 1 21 15 22 16 23 21 24 22 25 23 26
REMARK SMILES IDX 24 27 25 28 26 29 84 30 27 31 83 32 28 33 29 34 30 35 77 36
REMARK SMILES IDX 31 37 82 38 76 39 78 40 32 41 81 42 75 43 74 44 33 46 63 47
REMARK SMILES IDX 44 48 62 49 45 50 48 51 61 52 79 53 46 54 47 55 60 57 80 58
REMARK SMILES IDX 49 59 34 60 35 61 43 62 36 63 42 64 37 65 38 66 39 67 40 68
REMARK SMILES IDX 41 69 64 70 65 71 73 72 66 73 72 74 67 75 68 76 69 77 70 78
REMARK SMILES IDX 71 79 50 80 51 81 59 82 52 83 58 84 53 85 54 86 55 87 56 88
REMARK SMILES IDX 57 89
REMARK H PARENT 12 10 4 17 4 18 78 45 48 56
REMARK Flexibility Score: inf
ROOT
ATOM      1  C   UNL A   1      32.217  28.566  25.505  1.00  0.00     0.274 C 
ENDROOT
BRANCH   1   2
ATOM      2  O   UNL A   1      32.969  27.349  25.608  1.00  0.00    -0.460 OA
BRANCH   2   3
ATOM      3  C   UNL A   1      32.249  26.242  25.930  1.00  0.00     0.331 C 
ATOM      4  O   UNL A   1      31.196  26.275  26.556  1.00  0.00    -0.249 OA
BRANCH   3   5
ATOM      5  C   UNL A   1      32.834  24.978  25.253  1.00  0.00     0.135 C 
ATOM      6  C   UNL A   1      33.301  25.346  23.832  1.00  0.00     0.047 C 
BRANCH   5   7
ATOM      7  N   UNL A   1      34.007  24.425  25.994  1.00  0.00    -0.340 N 
ATOM      8  C   UNL A   1      34.731  23.266  25.915  1.00  0.00     0.232 C 
ATOM      9  O   UNL A   1      35.133  22.839  27.003  1.00  0.00    -0.274 OA
ATOM     10  H   UNL A   1      34.333  25.031  26.699  1.00  0.00     0.164 HD
BRANCH   8  11
ATOM     11  C   UNL A   1      35.097  22.552  24.606  1.00  0.00     0.164 C 
ATOM     12  C   UNL A   1      35.294  21.029  24.703  1.00  0.00     0.223 C 
ATOM     13  C   UNL A   1      36.777  20.895  25.034  1.00  0.00     0.225 C 
ATOM     14  O   UNL A   1      37.398  21.873  24.197  1.00  0.00    -0.374 OA
ATOM     15  C   UNL A   1      36.480  22.976  24.122  1.00  0.00     0.180 C 
BRANCH  12  16
ATOM     16  N   UNL A   1      34.438  20.268  25.601  1.00  0.00    -0.341 N 
ATOM     17  H   UNL A   1      35.025  19.727  26.236  1.00  0.00     0.346 HD
ATOM     18  H   UNL A   1      33.851  20.928  26.111  1.00  0.00     0.346 HD
BRANCH  16  19
ATOM     19  C   UNL A   1      33.562  19.353  24.879  1.00  0.00     0.260 C 
BRANCH  19  20
ATOM     20  C   UNL A   1      34.321  18.110  24.422  1.00  0.00     0.058 C 
ATOM     21  C   UNL A   1      33.667  16.808  24.863  1.00  0.00     0.010 C 
ENDBRANCH  19  20
ENDBRANCH  16  19
ENDBRANCH  12  16
ENDBRANCH   8  11
ENDBRANCH   5   7
BRANCH   5  22
ATOM     22  C   UNL A   1      31.685  23.909  25.053  1.00  0.00     0.037 C 
ATOM     23  C   UNL A   1      31.373  23.458  23.632  1.00  0.00     0.007 C 
ENDBRANCH   5  22
ENDBRANCH   3   5
ENDBRANCH   2   3
ENDBRANCH   1   2
BRANCH   1  24
ATOM     24  C   UNL A   1      32.491  29.354  26.788  1.00  0.00     0.275 C 
BRANCH  24  25
ATOM     25  O   UNL A   1      33.916  29.402  27.002  1.00  0.00    -0.458 OA
BRANCH  25  26
ATOM     26  C   UNL A   1      34.368  30.379  27.825  1.00  0.00     0.338 C 
ATOM     27  O   UNL A   1      33.782  31.409  28.110  1.00  0.00    -0.246 OA
BRANCH  26  28
ATOM     28  C   UNL A   1      35.769  30.066  28.200  1.00  0.00     0.060 A 
ATOM     29  C   UNL A   1      36.809  30.107  27.268  1.00  0.00     0.016 A 
ATOM     30  C   UNL A   1      36.053  29.765  29.533  1.00  0.00     0.016 A 
ATOM     31  C   UNL A   1      38.131  29.857  27.659  1.00  0.00     0.010 A 
ATOM     32  C   UNL A   1      37.374  29.511  29.927  1.00  0.00     0.010 A 
ATOM     33  C   UNL A   1      38.423  29.536  28.990  1.00  0.00    -0.014 A 
BRANCH  33  34
ATOM     34  C   UNL A   1      39.749  28.955  29.341  1.00  0.00     0.031 A 
ATOM     35  C   UNL A   1      40.675  29.815  30.160  1.00  0.00     0.074 A 
ATOM     36  C   UNL A   1      40.134  27.710  28.998  1.00  0.00     0.049 A 
ATOM     37  N   UNL A   1      41.892  29.573  30.571  1.00  0.00    -0.248 NA
ATOM     38  C   UNL A   1      40.141  31.121  30.589  1.00  0.00     0.031 C 
ATOM     39  C   UNL A   1      39.313  26.724  28.304  1.00  0.00     0.029 A 
ATOM     40  N   UNL A   1      41.331  27.060  29.190  1.00  0.00    -0.354 N 
ATOM     41  C   UNL A   1      42.260  30.683  31.318  1.00  0.00     0.074 A 
ATOM     42  C   UNL A   1      41.159  31.619  31.269  1.00  0.00     0.031 C 
ATOM     43  C   UNL A   1      40.036  25.610  28.092  1.00  0.00     0.029 A 
ATOM     44  C   UNL A   1      41.379  25.800  28.636  1.00  0.00     0.049 A 
ATOM     45  H   UNL A   1      42.086  27.460  29.682  1.00  0.00     0.167 HD
ATOM     46  C   UNL A   1      43.404  30.907  32.005  1.00  0.00     0.031 A 
ATOM     47  C   UNL A   1      42.389  24.907  28.572  1.00  0.00     0.031 A 
ATOM     48  C   UNL A   1      44.521  30.010  32.030  1.00  0.00     0.049 A 
ATOM     49  C   UNL A   1      43.711  25.242  29.224  1.00  0.00     0.074 A 
ATOM     50  C   UNL A   1      45.749  30.178  32.643  1.00  0.00     0.029 A 
ATOM     51  N   UNL A   1      44.546  28.771  31.409  1.00  0.00    -0.354 N 
ATOM     52  N   UNL A   1      44.044  26.300  29.923  1.00  0.00    -0.248 NA
ATOM     53  C   UNL A   1      44.789  24.248  29.093  1.00  0.00     0.031 C 
ATOM     54  C   UNL A   1      46.531  29.052  32.364  1.00  0.00     0.029 A 
ATOM     55  C   UNL A   1      45.770  28.164  31.618  1.00  0.00     0.049 A 
ATOM     56  H   UNL A   1      43.801  28.380  30.896  1.00  0.00     0.167 HD
ATOM     57  C   UNL A   1      45.347  26.074  30.359  1.00  0.00     0.074 A 
ATOM     58  C   UNL A   1      45.744  24.782  29.842  1.00  0.00     0.031 C 
ATOM     59  C   UNL A   1      46.139  26.861  31.127  1.00  0.00     0.031 A 
BRANCH  46  60
ATOM     60  C   UNL A   1      43.487  32.205  32.755  1.00  0.00    -0.014 A 
ATOM     61  C   UNL A   1      43.042  32.289  34.087  1.00  0.00     0.010 A 
ATOM     62  C   UNL A   1      43.963  33.358  32.110  1.00  0.00     0.010 A 
ATOM     63  C   UNL A   1      43.018  33.521  34.743  1.00  0.00     0.020 A 
ATOM     64  C   UNL A   1      43.962  34.588  32.771  1.00  0.00     0.020 A 
ATOM     65  C   UNL A   1      43.466  34.665  34.076  1.00  0.00     0.054 A 
BRANCH  65  66
ATOM     66  S   UNL A   1      43.395  36.259  34.938  1.00  0.00     0.124 S 
ATOM     67  O   UNL A   1      42.747  37.109  33.943  1.00  0.00    -0.237 OA
ATOM     68  O   UNL A   1      42.594  35.951  36.119  1.00  0.00    -0.237 OA
ATOM     69  O   UNL A   1      44.798  36.570  35.205  1.00  0.00    -0.744 OA
ENDBRANCH  65  66
ENDBRANCH  46  60
BRANCH  47  70
ATOM     70  C   UNL A   1      42.222  23.603  27.866  1.00  0.00    -0.014 A 
ATOM     71  C   UNL A   1      41.304  22.646  28.336  1.00  0.00     0.010 A 
ATOM     72  C   UNL A   1      43.043  23.276  26.771  1.00  0.00     0.010 A 
ATOM     73  C   UNL A   1      41.244  21.373  27.758  1.00  0.00     0.020 A 
ATOM     74  C   UNL A   1      42.970  22.012  26.175  1.00  0.00     0.020 A 
ATOM     75  C   UNL A   1      42.085  21.060  26.688  1.00  0.00     0.054 A 
BRANCH  75  76
ATOM     76  S   UNL A   1      42.006  19.394  25.967  1.00  0.00     0.124 S 
ATOM     77  O   UNL A   1      42.872  19.529  24.799  1.00  0.00    -0.237 OA
ATOM     78  O   UNL A   1      42.526  18.557  27.045  1.00  0.00    -0.237 OA
ATOM     79  O   UNL A   1      40.586  19.213  25.675  1.00  0.00    -0.744 OA
ENDBRANCH  75  76
ENDBRANCH  47  70
BRANCH  59  80
ATOM     80  C   UNL A   1      47.488  26.330  31.526  1.00  0.00    -0.014 A 
ATOM     81  C   UNL A   1      47.662  25.569  32.695  1.00  0.00     0.010 A 
ATOM     82  C   UNL A   1      48.585  26.526  30.664  1.00  0.00     0.010 A 
ATOM     83  C   UNL A   1      48.913  25.025  33.002  1.00  0.00     0.020 A 
ATOM     84  C   UNL A   1      49.830  25.965  30.956  1.00  0.00     0.020 A 
ATOM     85  C   UNL A   1      49.988  25.224  32.129  1.00  0.00     0.054 A 
BRANCH  85  86
ATOM     86  S   UNL A   1      51.584  24.447  32.509  1.00  0.00     0.124 S 
ATOM     87  O   UNL A   1      52.491  25.161  31.615  1.00  0.00    -0.237 OA
ATOM     88  O   UNL A   1      51.750  24.731  33.932  1.00  0.00    -0.237 OA
ATOM     89  O   UNL A   1      51.367  23.039  32.183  1.00  0.00    -0.744 OA
ENDBRANCH  85  86
ENDBRANCH  59  80
ENDBRANCH  33  34
ENDBRANCH  26  28
ENDBRANCH  25  26
ENDBRANCH  24  25
ENDBRANCH   1  24
TORSDOF 20
ENDMDL
MODEL 2
REMARK VINA RESULT:      -9.5      2.797      9.710
REMARK SMILES CCC[NH2+][C@@H]1COC[C@@H]1C(=O)N[C@@](C)(CC)C(=O)OCCOC(=O)c1ccc(-c2c3nc(c(-c4ccc(S(=O)(=O)[O-])cc4)c4ccc([nH]4)c(-c4ccc(S(=O)(=O)[O-])cc4)c4nc(c(-c5ccc(S(=O)(=O)[O-])cc5)c5ccc2[nH]5)C=C4)C=C3)cc1
REMARK SMILES IDX 20 1 19 2 17 3 18 4 13 5 14 6 12 7 10 8 11 9 9 11 5 12 6 13
REMARK SMILES IDX 7 14 8 15 4 16 3 19 2 20 1 21 15 22 16 23 21 24 22 25 23 26
REMARK SMILES IDX 24 27 25 28 26 29 84 30 27 31 83 32 28 33 29 34 30 35 77 36
REMARK SMILES IDX 31 37 82 38 76 39 78 40 32 41 81 42 75 43 74 44 33 46 63 47
REMARK SMILES IDX 44 48 62 49 45 50 48 51 61 52 79 53 46 54 47 55 60 57 80 58
REMARK SMILES IDX 49 59 34 60 35 61 43 62 36 63 42 64 37 65 38 66 39 67 40 68
REMARK SMILES IDX 41 69 64 70 65 71 73 72 66 73 72 74 67 75 68 76 69 77 70 78
REMARK SMILES IDX 71 79 50 80 51 81 59 82 52 83 58 84 53 85 54 86 55 87 56 88
REMARK SMILES IDX 57 89
REMARK H PARENT 12 10 4 17 4 18 78 45 48 56
REMARK Flexibility Score: inf
ROOT
ATOM      1  C   UNL A   1      35.995  22.418  25.925  1.00  0.00     0.274 C 
ENDROOT
BRANCH   1   2
ATOM      2  O   UNL A   1      35.127  22.701  24.818  1.00  0.00    -0.460 OA
BRANCH   2   3
ATOM      3  C   UNL A   1      34.093  23.541  25.085  1.00  0.00     0.331 C 
ATOM      4  O   UNL A   1      33.835  23.965  26.206  1.00  0.00    -0.249 OA
BRANCH   3   5
ATOM      5  C   UNL A   1      33.415  24.025  23.781  1.00  0.00     0.135 C 
ATOM      6  C   UNL A   1      31.896  24.124  24.016  1.00  0.00     0.047 C 
BRANCH   5   7
ATOM      7  N   UNL A   1      33.902  25.369  23.349  1.00  0.00    -0.340 N 
ATOM      8  C   UNL A   1      33.383  26.635  23.384  1.00  0.00     0.232 C 
ATOM      9  O   UNL A   1      33.686  27.340  22.415  1.00  0.00    -0.274 OA
ATOM     10  H   UNL A   1      34.801  25.337  22.947  1.00  0.00     0.164 HD
BRANCH   8  11
ATOM     11  C   UNL A   1      32.543  27.202  24.537  1.00  0.00     0.164 C 
ATOM     12  C   UNL A   1      31.859  28.554  24.269  1.00  0.00     0.223 C 
ATOM     13  C   UNL A   1      32.911  29.565  24.716  1.00  0.00     0.225 C 
ATOM     14  O   UNL A   1      33.434  28.997  25.919  1.00  0.00    -0.374 OA
ATOM     15  C   UNL A   1      33.426  27.573  25.724  1.00  0.00     0.180 C 
BRANCH  12  16
ATOM     16  N   UNL A   1      31.339  28.825  22.937  1.00  0.00    -0.341 N 
ATOM     17  H   UNL A   1      30.964  29.773  22.916  1.00  0.00     0.346 HD
ATOM     18  H   UNL A   1      32.104  28.714  22.272  1.00  0.00     0.346 HD
BRANCH  16  19
ATOM     19  C   UNL A   1      30.280  27.895  22.564  1.00  0.00     0.260 C 
BRANCH  19  20
ATOM     20  C   UNL A   1      28.963  28.257  23.247  1.00  0.00     0.058 C 
ATOM     21  C   UNL A   1      28.171  29.323  22.502  1.00  0.00     0.010 C 
ENDBRANCH  19  20
ENDBRANCH  16  19
ENDBRANCH  12  16
ENDBRANCH   8  11
ENDBRANCH   5   7
BRANCH   5  22
ATOM     22  C   UNL A   1      33.593  22.926  22.656  1.00  0.00     0.037 C 
ATOM     23  C   UNL A   1      32.477  21.906  22.475  1.00  0.00     0.007 C 
ENDBRANCH   5  22
ENDBRANCH   3   5
ENDBRANCH   2   3
ENDBRANCH   1   2
BRANCH   1  24
ATOM     24  C   UNL A   1      37.419  22.700  25.443  1.00  0.00     0.275 C 
BRANCH  24  25
ATOM     25  O   UNL A   1      38.346  22.142  26.397  1.00  0.00    -0.458 OA
BRANCH  25  26
ATOM     26  C   UNL A   1      39.641  22.516  26.266  1.00  0.00     0.338 C 
ATOM     27  O   UNL A   1      40.564  21.804  25.908  1.00  0.00    -0.246 OA
BRANCH  26  28
ATOM     28  C   UNL A   1      39.787  23.898  26.784  1.00  0.00     0.060 A 
ATOM     29  C   UNL A   1      40.349  24.920  26.013  1.00  0.00     0.016 A 
ATOM     30  C   UNL A   1      39.309  24.187  28.063  1.00  0.00     0.016 A 
ATOM     31  C   UNL A   1      40.428  26.229  26.508  1.00  0.00     0.010 A 
ATOM     32  C   UNL A   1      39.390  25.495  28.562  1.00  0.00     0.010 A 
ATOM     33  C   UNL A   1      39.967  26.524  27.796  1.00  0.00    -0.014 A 
BRANCH  33  34
ATOM     34  C   UNL A   1      40.343  27.812  28.443  1.00  0.00     0.031 A 
ATOM     35  C   UNL A   1      41.755  27.934  28.951  1.00  0.00     0.074 A 
ATOM     36  C   UNL A   1      39.506  28.862  28.558  1.00  0.00     0.049 A 
ATOM     37  N   UNL A   1      42.331  28.923  29.582  1.00  0.00    -0.248 NA
ATOM     38  C   UNL A   1      42.641  26.785  28.691  1.00  0.00     0.031 C 
ATOM     39  C   UNL A   1      38.151  28.936  28.023  1.00  0.00     0.029 A 
ATOM     40  N   UNL A   1      39.680  30.080  29.176  1.00  0.00    -0.354 N 
ATOM     41  C   UNL A   1      43.646  28.523  29.777  1.00  0.00     0.074 A 
ATOM     42  C   UNL A   1      43.774  27.188  29.239  1.00  0.00     0.031 C 
ATOM     43  C   UNL A   1      37.600  30.115  28.364  1.00  0.00     0.029 A 
ATOM     44  C   UNL A   1      38.563  30.886  29.147  1.00  0.00     0.049 A 
ATOM     45  H   UNL A   1      40.527  30.351  29.599  1.00  0.00     0.167 HD
ATOM     46  C   UNL A   1      44.670  29.208  30.336  1.00  0.00     0.031 A 
ATOM     47  C   UNL A   1      38.344  32.101  29.692  1.00  0.00     0.031 A 
ATOM     48  C   UNL A   1      44.551  30.515  30.912  1.00  0.00     0.049 A 
ATOM     49  C   UNL A   1      39.464  32.786  30.440  1.00  0.00     0.074 A 
ATOM     50  C   UNL A   1      45.517  31.263  31.561  1.00  0.00     0.029 A 
ATOM     51  N   UNL A   1      43.389  31.270  30.909  1.00  0.00    -0.354 N 
ATOM     52  N   UNL A   1      40.702  32.391  30.620  1.00  0.00    -0.248 NA
ATOM     53  C   UNL A   1      39.160  34.093  31.045  1.00  0.00     0.031 C 
ATOM     54  C   UNL A   1      44.927  32.460  31.982  1.00  0.00     0.029 A 
ATOM     55  C   UNL A   1      43.609  32.474  31.551  1.00  0.00     0.049 A 
ATOM     56  H   UNL A   1      42.533  30.990  30.509  1.00  0.00     0.167 HD
ATOM     57  C   UNL A   1      41.334  33.423  31.308  1.00  0.00     0.074 A 
ATOM     58  C   UNL A   1      40.344  34.457  31.517  1.00  0.00     0.031 C 
ATOM     59  C   UNL A   1      42.623  33.510  31.720  1.00  0.00     0.031 A 
BRANCH  46  60
ATOM     60  C   UNL A   1      46.000  28.510  30.367  1.00  0.00    -0.014 A 
ATOM     61  C   UNL A   1      46.912  28.666  29.307  1.00  0.00     0.010 A 
ATOM     62  C   UNL A   1      46.317  27.653  31.433  1.00  0.00     0.010 A 
ATOM     63  C   UNL A   1      48.097  27.929  29.287  1.00  0.00     0.020 A 
ATOM     64  C   UNL A   1      47.513  26.932  31.427  1.00  0.00     0.020 A 
ATOM     65  C   UNL A   1      48.384  27.057  30.341  1.00  0.00     0.054 A 
BRANCH  65  66
ATOM     66  S   UNL A   1      49.914  26.087  30.276  1.00  0.00     0.124 S 
ATOM     67  O   UNL A   1      49.745  25.343  29.031  1.00  0.00    -0.237 OA
ATOM     68  O   UNL A   1      50.949  27.118  30.256  1.00  0.00    -0.237 OA
ATOM     69  O   UNL A   1      49.866  25.282  31.495  1.00  0.00    -0.744 OA
ENDBRANCH  65  66
ENDBRANCH  46  60
BRANCH  47  70
ATOM     70  C   UNL A   1      37.017  32.773  29.570  1.00  0.00    -0.014 A 
ATOM     71  C   UNL A   1      36.673  33.473  28.399  1.00  0.00     0.010 A 
ATOM     72  C   UNL A   1      36.125  32.789  30.658  1.00  0.00     0.010 A 
ATOM     73  C   UNL A   1      35.489  34.216  28.336  1.00  0.00     0.020 A 
ATOM     74  C   UNL A   1      34.928  33.512  30.590  1.00  0.00     0.020 A 
ATOM     75  C   UNL A   1      34.629  34.240  29.437  1.00  0.00     0.054 A 
BRANCH  75  76
ATOM     76  S   UNL A   1      33.107  35.228  29.341  1.00  0.00     0.124 S 
ATOM     77  O   UNL A   1      33.622  36.543  28.972  1.00  0.00    -0.237 OA
ATOM     78  O   UNL A   1      32.344  34.535  28.306  1.00  0.00    -0.237 OA
ATOM     79  O   UNL A   1      32.549  35.130  30.687  1.00  0.00    -0.744 OA
ENDBRANCH  75  76
ENDBRANCH  47  70
BRANCH  59  80
ATOM     80  C   UNL A   1      43.070  34.789  32.373  1.00  0.00    -0.014 A 
ATOM     81  C   UNL A   1      43.770  35.774  31.656  1.00  0.00     0.010 A 
ATOM     82  C   UNL A   1      42.703  35.042  33.709  1.00  0.00     0.010 A 
ATOM     83  C   UNL A   1      44.109  36.985  32.269  1.00  0.00     0.020 A 
ATOM     84  C   UNL A   1      43.019  36.258  34.317  1.00  0.00     0.020 A 
ATOM     85  C   UNL A   1      43.728  37.220  33.594  1.00  0.00     0.054 A 
BRANCH  85  86
ATOM     86  S   UNL A   1      44.111  38.827  34.346  1.00  0.00     0.124 S 
ATOM     87  O   UNL A   1      45.389  39.159  33.721  1.00  0.00    -0.237 OA
ATOM     88  O   UNL A   1      42.978  39.653  33.936  1.00  0.00    -0.237 OA
ATOM     89  O   UNL A   1      44.173  38.533  35.776  1.00  0.00    -0.744 OA
ENDBRANCH  85  86
ENDBRANCH  59  80
ENDBRANCH  33  34
ENDBRANCH  26  28
ENDBRANCH  25  26
ENDBRANCH  24  25
ENDBRANCH   1  24
TORSDOF 20
ENDMDL
MODEL 3
REMARK VINA RESULT:      -9.4      5.326     11.833
REMARK SMILES CCC[NH2+][C@@H]1COC[C@@H]1C(=O)N[C@@](C)(CC)C(=O)OCCOC(=O)c1ccc(-c2c3nc(c(-c4ccc(S(=O)(=O)[O-])cc4)c4ccc([nH]4)c(-c4ccc(S(=O)(=O)[O-])cc4)c4nc(c(-c5ccc(S(=O)(=O)[O-])cc5)c5ccc2[nH]5)C=C4)C=C3)cc1
REMARK SMILES IDX 20 1 19 2 17 3 18 4 13 5 14 6 12 7 10 8 11 9 9 11 5 12 6 13
REMARK SMILES IDX 7 14 8 15 4 16 3 19 2 20 1 21 15 22 16 23 21 24 22 25 23 26
REMARK SMILES IDX 24 27 25 28 26 29 84 30 27 31 83 32 28 33 29 34 30 35 77 36
REMARK SMILES IDX 31 37 82 38 76 39 78 40 32 41 81 42 75 43 74 44 33 46 63 47
REMARK SMILES IDX 44 48 62 49 45 50 48 51 61 52 79 53 46 54 47 55 60 57 80 58
REMARK SMILES IDX 49 59 34 60 35 61 43 62 36 63 42 64 37 65 38 66 39 67 40 68
REMARK SMILES IDX 41 69 64 70 65 71 73 72 66 73 72 74 67 75 68 76 69 77 70 78
REMARK SMILES IDX 71 79 50 80 51 81 59 82 52 83 58 84 53 85 54 86 55 87 56 88
REMARK SMILES IDX 57 89
REMARK H PARENT 12 10 4 17 4 18 78 45 48 56
REMARK Flexibility Score: inf
ROOT
ATOM      1  C   UNL A   1      41.186  22.364  26.137  1.00  0.00     0.274 C 
ENDROOT
BRANCH   1   2
ATOM      2  O   UNL A   1      42.402  22.230  25.389  1.00  0.00    -0.460 OA
BRANCH   2   3
ATOM      3  C   UNL A   1      43.197  21.187  25.747  1.00  0.00     0.331 C 
ATOM      4  O   UNL A   1      42.774  20.150  26.244  1.00  0.00    -0.249 OA
BRANCH   3   5
ATOM      5  C   UNL A   1      44.656  21.411  25.281  1.00  0.00     0.135 C 
ATOM      6  C   UNL A   1      44.639  22.125  23.917  1.00  0.00     0.047 C 
BRANCH   5   7
ATOM      7  N   UNL A   1      45.436  22.257  26.234  1.00  0.00    -0.340 N 
ATOM      8  C   UNL A   1      46.019  23.494  26.162  1.00  0.00     0.232 C 
ATOM      9  O   UNL A   1      47.076  23.599  26.794  1.00  0.00    -0.274 OA
ATOM     10  H   UNL A   1      45.559  21.829  27.112  1.00  0.00     0.164 HD
BRANCH   8  11
ATOM     11  C   UNL A   1      45.418  24.701  25.428  1.00  0.00     0.164 C 
ATOM     12  C   UNL A   1      46.407  25.815  25.044  1.00  0.00     0.223 C 
ATOM     13  C   UNL A   1      46.394  26.724  26.270  1.00  0.00     0.225 C 
ATOM     14  O   UNL A   1      45.013  26.776  26.635  1.00  0.00    -0.374 OA
ATOM     15  C   UNL A   1      44.472  25.478  26.339  1.00  0.00     0.180 C 
BRANCH  12  16
ATOM     16  N   UNL A   1      47.750  25.445  24.624  1.00  0.00    -0.341 N 
ATOM     17  H   UNL A   1      48.304  25.220  25.450  1.00  0.00     0.346 HD
ATOM     18  H   UNL A   1      47.674  24.642  23.999  1.00  0.00     0.346 HD
BRANCH  16  19
ATOM     19  C   UNL A   1      48.412  26.520  23.894  1.00  0.00     0.260 C 
BRANCH  19  20
ATOM     20  C   UNL A   1      49.621  27.045  24.664  1.00  0.00     0.058 C 
ATOM     21  C   UNL A   1      50.340  25.967  25.465  1.00  0.00     0.010 C 
ENDBRANCH  19  20
ENDBRANCH  16  19
ENDBRANCH  12  16
ENDBRANCH   8  11
ENDBRANCH   5   7
BRANCH   5  22
ATOM     22  C   UNL A   1      45.344  20.012  25.013  1.00  0.00     0.037 C 
ATOM     23  C   UNL A   1      45.005  19.290  23.716  1.00  0.00     0.007 C 
ENDBRANCH   5  22
ENDBRANCH   3   5
ENDBRANCH   2   3
ENDBRANCH   1   2
BRANCH   1  24
ATOM     24  C   UNL A   1      41.385  23.554  27.078  1.00  0.00     0.275 C 
BRANCH  24  25
ATOM     25  O   UNL A   1      40.293  24.477  26.888  1.00  0.00    -0.458 OA
BRANCH  25  26
ATOM     26  C   UNL A   1      40.622  25.715  26.448  1.00  0.00     0.338 C 
ATOM     27  O   UNL A   1      41.133  25.986  25.374  1.00  0.00    -0.246 OA
BRANCH  26  28
ATOM     28  C   UNL A   1      40.408  26.680  27.554  1.00  0.00     0.060 A 
ATOM     29  C   UNL A   1      40.955  27.966  27.526  1.00  0.00     0.016 A 
ATOM     30  C   UNL A   1      39.603  26.299  28.628  1.00  0.00     0.016 A 
ATOM     31  C   UNL A   1      40.695  28.876  28.560  1.00  0.00     0.010 A 
ATOM     32  C   UNL A   1      39.345  27.205  29.665  1.00  0.00     0.010 A 
ATOM     33  C   UNL A   1      39.903  28.497  29.650  1.00  0.00    -0.014 A 
BRANCH  33  34
ATOM     34  C   UNL A   1      39.895  29.326  30.888  1.00  0.00     0.031 A 
ATOM     35  C   UNL A   1      41.006  29.087  31.876  1.00  0.00     0.074 A 
ATOM     36  C   UNL A   1      38.981  30.283  31.140  1.00  0.00     0.049 A 
ATOM     37  N   UNL A   1      41.217  29.638  33.042  1.00  0.00    -0.248 NA
ATOM     38  C   UNL A   1      42.028  28.101  31.480  1.00  0.00     0.031 C 
ATOM     39  C   UNL A   1      37.915  30.704  30.237  1.00  0.00     0.029 A 
ATOM     40  N   UNL A   1      38.804  31.080  32.247  1.00  0.00    -0.354 N 
ATOM     41  C   UNL A   1      42.400  29.082  33.508  1.00  0.00     0.074 A 
ATOM     42  C   UNL A   1      42.839  28.118  32.523  1.00  0.00     0.031 C 
ATOM     43  C   UNL A   1      37.171  31.652  30.835  1.00  0.00     0.029 A 
ATOM     44  C   UNL A   1      37.705  31.908  32.170  1.00  0.00     0.049 A 
ATOM     45  H   UNL A   1      39.408  31.060  33.025  1.00  0.00     0.167 HD
ATOM     46  C   UNL A   1      43.081  29.355  34.644  1.00  0.00     0.031 A 
ATOM     47  C   UNL A   1      37.191  32.769  33.074  1.00  0.00     0.031 A 
ATOM     48  C   UNL A   1      42.639  30.276  35.650  1.00  0.00     0.049 A 
ATOM     49  C   UNL A   1      37.891  32.951  34.401  1.00  0.00     0.074 A 
ATOM     50  C   UNL A   1      43.226  30.571  36.867  1.00  0.00     0.029 A 
ATOM     51  N   UNL A   1      41.494  31.050  35.555  1.00  0.00    -0.354 N 
ATOM     52  N   UNL A   1      39.008  32.411  34.828  1.00  0.00    -0.248 NA
ATOM     53  C   UNL A   1      37.267  33.874  35.362  1.00  0.00     0.031 C 
ATOM     54  C   UNL A   1      42.416  31.503  37.525  1.00  0.00     0.029 A 
ATOM     55  C   UNL A   1      41.352  31.821  36.694  1.00  0.00     0.049 A 
ATOM     56  H   UNL A   1      40.874  31.053  34.789  1.00  0.00     0.167 HD
ATOM     57  C   UNL A   1      39.246  32.972  36.080  1.00  0.00     0.074 A 
ATOM     58  C   UNL A   1      38.157  33.887  36.345  1.00  0.00     0.031 C 
ATOM     59  C   UNL A   1      40.281  32.755  36.929  1.00  0.00     0.031 A 
BRANCH  46  60
ATOM     60  C   UNL A   1      44.365  28.604  34.849  1.00  0.00    -0.014 A 
ATOM     61  C   UNL A   1      44.392  27.438  35.635  1.00  0.00     0.010 A 
ATOM     62  C   UNL A   1      45.559  29.095  34.296  1.00  0.00     0.010 A 
ATOM     63  C   UNL A   1      45.605  26.806  35.913  1.00  0.00     0.020 A 
ATOM     64  C   UNL A   1      46.772  28.452  34.553  1.00  0.00     0.020 A 
ATOM     65  C   UNL A   1      46.789  27.325  35.381  1.00  0.00     0.054 A 
BRANCH  65  66
ATOM     66  S   UNL A   1      48.356  26.506  35.782  1.00  0.00     0.124 S 
ATOM     67  O   UNL A   1      49.294  27.206  34.909  1.00  0.00    -0.237 OA
ATOM     68  O   UNL A   1      48.505  26.777  37.210  1.00  0.00    -0.237 OA
ATOM     69  O   UNL A   1      48.112  25.106  35.440  1.00  0.00    -0.744 OA
ENDBRANCH  65  66
ENDBRANCH  46  60
BRANCH  47  70
ATOM     70  C   UNL A   1      35.945  33.537  32.785  1.00  0.00    -0.014 A 
ATOM     71  C   UNL A   1      36.009  34.891  32.405  1.00  0.00     0.010 A 
ATOM     72  C   UNL A   1      34.683  32.943  32.971  1.00  0.00     0.010 A 
ATOM     73  C   UNL A   1      34.840  35.647  32.266  1.00  0.00     0.020 A 
ATOM     74  C   UNL A   1      33.510  33.690  32.810  1.00  0.00     0.020 A 
ATOM     75  C   UNL A   1      33.598  35.045  32.481  1.00  0.00     0.054 A 
BRANCH  75  76
ATOM     76  S   UNL A   1      32.094  36.051  32.316  1.00  0.00     0.124 S 
ATOM     77  O   UNL A   1      32.345  37.130  33.267  1.00  0.00    -0.237 OA
ATOM     78  O   UNL A   1      32.121  36.432  30.907  1.00  0.00    -0.237 OA
ATOM     79  O   UNL A   1      31.022  35.129  32.685  1.00  0.00    -0.744 OA
ENDBRANCH  75  76
ENDBRANCH  47  70
BRANCH  59  80
ATOM     80  C   UNL A   1      40.338  33.567  38.194  1.00  0.00    -0.014 A 
ATOM     81  C   UNL A   1      40.812  34.890  38.196  1.00  0.00     0.010 A 
ATOM     82  C   UNL A   1      39.824  33.019  39.384  1.00  0.00     0.010 A 
ATOM     83  C   UNL A   1      40.784  35.646  39.373  1.00  0.00     0.020 A 
ATOM     84  C   UNL A   1      39.774  33.778  40.555  1.00  0.00     0.020 A 
ATOM     85  C   UNL A   1      40.262  35.086  40.544  1.00  0.00     0.054 A 
BRANCH  85  86
ATOM     86  S   UNL A   1      40.166  36.109  42.040  1.00  0.00     0.124 S 
ATOM     87  O   UNL A   1      41.576  36.324  42.352  1.00  0.00    -0.237 OA
ATOM     88  O   UNL A   1      39.437  37.288  41.578  1.00  0.00    -0.237 OA
ATOM     89  O   UNL A   1      39.439  35.267  42.987  1.00  0.00    -0.744 OA
ENDBRANCH  85  86
ENDBRANCH  59  80
ENDBRANCH  33  34
ENDBRANCH  26  28
ENDBRANCH  25  26
ENDBRANCH  24  25
ENDBRANCH   1  24
TORSDOF 20
ENDMDL
