MODEL 1
REMARK VINA RESULT:     -10.7      0.000      0.000
REMARK SMILES CC(C)(C)C[N@H+]1[C@@H](C(=O)OCCOC(=O)c2ccc(-c3c4nc(c(-c5ccc(S(=O)(=O)[O-])cc5)c5ccc([nH]5)c(-c5ccc(S(=O)(=O)[O-])cc5)c5nc(c(-c6ccc(S(=O)(=O)[O-])cc6)c6ccc3[nH]6)C=C5)C=C4)cc2)CC[C@H]2CCCC[C@@H]21
REMARK SMILES IDX 12 1 11 2 10 3 8 4 9 5 7 6 6 7 83 8 76 10 78 11 82 12 77 13
REMARK SMILES IDX 79 14 81 15 80 16 5 17 2 18 1 19 3 20 4 21 13 22 14 23 15 24
REMARK SMILES IDX 16 25 17 26 75 27 18 28 74 29 19 30 20 31 21 32 68 33 22 34
REMARK SMILES IDX 73 35 67 36 69 37 23 38 72 39 66 40 65 41 24 43 54 44 35 45
REMARK SMILES IDX 53 46 36 47 39 48 52 49 70 50 37 51 38 52 51 54 71 55 40 56
REMARK SMILES IDX 25 57 26 58 34 59 27 60 33 61 28 62 29 63 30 64 31 65 32 66
REMARK SMILES IDX 55 67 56 68 64 69 57 70 63 71 58 72 59 73 60 74 61 75 62 76
REMARK SMILES IDX 41 77 42 78 50 79 43 80 49 81 44 82 45 83 46 84 47 85 48 86
REMARK H PARENT 6 9 69 42 39 53
REMARK Flexibility Score: inf
ROOT
ATOM      1  C   UNL A   1      32.191  28.571  27.554  1.00  0.00     0.275 C 
ENDROOT
BRANCH   1   2
ATOM      2  C   UNL A   1      31.743  27.821  26.297  1.00  0.00     0.274 C 
BRANCH   2   3
ATOM      3  O   UNL A   1      32.486  26.589  26.171  1.00  0.00    -0.458 OA
BRANCH   3   4
ATOM      4  C   UNL A   1      31.767  25.439  26.178  1.00  0.00     0.365 C 
ATOM      5  O   UNL A   1      30.571  25.394  26.465  1.00  0.00    -0.245 OA
BRANCH   4   6
ATOM      6  C   UNL A   1      32.517  24.179  25.705  1.00  0.00     0.295 C 
ATOM      7  N   UNL A   1      33.287  24.238  24.419  1.00  0.00    -0.320 N 
ATOM      8  C   UNL A   1      34.087  22.966  24.294  1.00  0.00     0.187 C 
ATOM      9  H   UNL A   1      33.897  25.055  24.436  1.00  0.00     0.349 HD
ATOM     10  C   UNL A   1      31.536  22.995  25.717  1.00  0.00     0.078 C 
ATOM     11  C   UNL A   1      33.641  21.801  25.229  1.00  0.00     0.048 C 
ATOM     12  C   UNL A   1      35.583  23.198  24.570  1.00  0.00     0.065 C 
ATOM     13  C   UNL A   1      32.132  21.676  25.235  1.00  0.00     0.016 C 
ATOM     14  C   UNL A   1      34.350  20.505  24.839  1.00  0.00     0.010 C 
ATOM     15  C   UNL A   1      36.385  21.921  24.269  1.00  0.00     0.006 C 
ATOM     16  C   UNL A   1      35.859  20.685  25.003  1.00  0.00     0.001 C 
BRANCH   7  17
ATOM     17  C   UNL A   1      32.386  24.385  23.237  1.00  0.00     0.269 C 
BRANCH  17  18
ATOM     18  C   UNL A   1      32.463  25.750  22.482  1.00  0.00     0.011 C 
ATOM     19  C   UNL A   1      33.652  26.594  22.973  1.00  0.00     0.017 C 
ATOM     20  C   UNL A   1      31.165  26.530  22.776  1.00  0.00     0.017 C 
ATOM     21  C   UNL A   1      32.577  25.576  20.961  1.00  0.00     0.017 C 
ENDBRANCH  17  18
ENDBRANCH   7  17
ENDBRANCH   4   6
ENDBRANCH   3   4
ENDBRANCH   2   3
ENDBRANCH   1   2
BRANCH   1  22
ATOM     22  O   UNL A   1      33.621  28.702  27.530  1.00  0.00    -0.458 OA
BRANCH  22  23
ATOM     23  C   UNL A   1      34.122  29.947  27.735  1.00  0.00     0.338 C 
ATOM     24  O   UNL A   1      33.480  30.983  27.741  1.00  0.00    -0.246 OA
BRANCH  23  25
ATOM     25  C   UNL A   1      35.574  29.856  28.064  1.00  0.00     0.060 A 
ATOM     26  C   UNL A   1      36.544  30.185  27.119  1.00  0.00     0.016 A 
ATOM     27  C   UNL A   1      35.990  29.320  29.286  1.00  0.00     0.016 A 
ATOM     28  C   UNL A   1      37.880  29.825  27.323  1.00  0.00     0.010 A 
ATOM     29  C   UNL A   1      37.358  29.092  29.536  1.00  0.00     0.010 A 
ATOM     30  C   UNL A   1      38.328  29.296  28.539  1.00  0.00    -0.014 A 
BRANCH  30  31
ATOM     31  C   UNL A   1      39.773  28.929  28.743  1.00  0.00     0.031 A 
ATOM     32  C   UNL A   1      40.742  29.914  29.365  1.00  0.00     0.074 A 
ATOM     33  C   UNL A   1      40.255  27.708  28.415  1.00  0.00     0.049 A 
ATOM     34  N   UNL A   1      42.053  29.913  29.342  1.00  0.00    -0.248 NA
ATOM     35  C   UNL A   1      40.163  31.055  30.093  1.00  0.00     0.031 C 
ATOM     36  C   UNL A   1      39.478  26.587  27.883  1.00  0.00     0.029 A 
ATOM     37  N   UNL A   1      41.531  27.196  28.507  1.00  0.00    -0.354 N 
ATOM     38  C   UNL A   1      42.449  31.099  29.951  1.00  0.00     0.074 A 
ATOM     39  C   UNL A   1      41.241  31.780  30.364  1.00  0.00     0.031 C 
ATOM     40  C   UNL A   1      40.261  25.502  27.795  1.00  0.00     0.029 A 
ATOM     41  C   UNL A   1      41.632  25.883  28.105  1.00  0.00     0.049 A 
ATOM     42  H   UNL A   1      42.299  27.720  28.831  1.00  0.00     0.167 HD
ATOM     43  C   UNL A   1      43.703  31.585  30.130  1.00  0.00     0.031 A 
ATOM     44  C   UNL A   1      42.699  25.081  27.927  1.00  0.00     0.031 A 
ATOM     45  C   UNL A   1      44.910  30.871  29.801  1.00  0.00     0.049 A 
ATOM     46  C   UNL A   1      44.081  25.638  28.100  1.00  0.00     0.074 A 
ATOM     47  C   UNL A   1      46.225  31.291  29.926  1.00  0.00     0.029 A 
ATOM     48  N   UNL A   1      44.955  29.570  29.326  1.00  0.00    -0.354 N 
ATOM     49  N   UNL A   1      44.440  26.834  28.497  1.00  0.00    -0.248 NA
ATOM     50  C   UNL A   1      45.200  24.751  27.750  1.00  0.00     0.031 C 
ATOM     51  C   UNL A   1      47.063  30.252  29.504  1.00  0.00     0.029 A 
ATOM     52  C   UNL A   1      46.271  29.171  29.156  1.00  0.00     0.049 A 
ATOM     53  H   UNL A   1      44.167  29.011  29.137  1.00  0.00     0.167 HD
ATOM     54  C   UNL A   1      45.828  26.848  28.432  1.00  0.00     0.074 A 
ATOM     55  C   UNL A   1      46.245  25.533  27.989  1.00  0.00     0.031 C 
ATOM     56  C   UNL A   1      46.679  27.867  28.703  1.00  0.00     0.031 A 
BRANCH  43  57
ATOM     57  C   UNL A   1      43.837  32.994  30.646  1.00  0.00    -0.014 A 
ATOM     58  C   UNL A   1      43.713  34.113  29.805  1.00  0.00     0.010 A 
ATOM     59  C   UNL A   1      44.057  33.196  32.023  1.00  0.00     0.010 A 
ATOM     60  C   UNL A   1      43.850  35.405  30.325  1.00  0.00     0.020 A 
ATOM     61  C   UNL A   1      44.168  34.485  32.550  1.00  0.00     0.020 A 
ATOM     62  C   UNL A   1      44.086  35.582  31.692  1.00  0.00     0.054 A 
BRANCH  62  63
ATOM     63  S   UNL A   1      44.255  37.266  32.347  1.00  0.00     0.124 S 
ATOM     64  O   UNL A   1      44.029  38.076  31.153  1.00  0.00    -0.237 OA
ATOM     65  O   UNL A   1      43.201  37.330  33.356  1.00  0.00    -0.237 OA
ATOM     66  O   UNL A   1      45.618  37.298  32.874  1.00  0.00    -0.744 OA
ENDBRANCH  62  63
ENDBRANCH  43  57
BRANCH  44  67
ATOM     67  C   UNL A   1      42.498  23.680  27.463  1.00  0.00    -0.014 A 
ATOM     68  C   UNL A   1      42.531  23.373  26.091  1.00  0.00     0.010 A 
ATOM     69  C   UNL A   1      42.320  22.640  28.394  1.00  0.00     0.010 A 
ATOM     70  C   UNL A   1      42.407  22.049  25.661  1.00  0.00     0.020 A 
ATOM     71  C   UNL A   1      42.228  21.313  27.970  1.00  0.00     0.020 A 
ATOM     72  C   UNL A   1      42.266  21.026  26.604  1.00  0.00     0.054 A 
BRANCH  72  73
ATOM     73  S   UNL A   1      42.218  19.302  26.041  1.00  0.00     0.124 S 
ATOM     74  O   UNL A   1      40.807  19.133  25.707  1.00  0.00    -0.237 OA
ATOM     75  O   UNL A   1      43.140  19.308  24.908  1.00  0.00    -0.237 OA
ATOM     76  O   UNL A   1      42.683  18.553  27.206  1.00  0.00    -0.744 OA
ENDBRANCH  72  73
ENDBRANCH  44  67
BRANCH  56  77
ATOM     77  C   UNL A   1      48.148  27.593  28.543  1.00  0.00    -0.014 A 
ATOM     78  C   UNL A   1      48.801  27.844  27.323  1.00  0.00     0.010 A 
ATOM     79  C   UNL A   1      48.886  27.094  29.630  1.00  0.00     0.010 A 
ATOM     80  C   UNL A   1      50.165  27.570  27.185  1.00  0.00     0.020 A 
ATOM     81  C   UNL A   1      50.252  26.835  29.501  1.00  0.00     0.020 A 
ATOM     82  C   UNL A   1      50.881  27.060  28.272  1.00  0.00     0.054 A 
BRANCH  82  83
ATOM     83  S   UNL A   1      52.653  26.729  28.078  1.00  0.00     0.124 S 
ATOM     84  O   UNL A   1      53.137  27.983  27.510  1.00  0.00    -0.237 OA
ATOM     85  O   UNL A   1      53.083  26.453  29.448  1.00  0.00    -0.237 OA
ATOM     86  O   UNL A   1      52.693  25.579  27.178  1.00  0.00    -0.744 OA
ENDBRANCH  82  83
ENDBRANCH  56  77
ENDBRANCH  30  31
ENDBRANCH  23  25
ENDBRANCH  22  23
ENDBRANCH   1  22
TORSDOF 16
ENDMDL
MODEL 2
REMARK VINA RESULT:     -10.4      3.565      9.781
REMARK SMILES CC(C)(C)C[N@H+]1[C@@H](C(=O)OCCOC(=O)c2ccc(-c3c4nc(c(-c5ccc(S(=O)(=O)[O-])cc5)c5ccc([nH]5)c(-c5ccc(S(=O)(=O)[O-])cc5)c5nc(c(-c6ccc(S(=O)(=O)[O-])cc6)c6ccc3[nH]6)C=C5)C=C4)cc2)CC[C@H]2CCCC[C@@H]21
REMARK SMILES IDX 12 1 11 2 10 3 8 4 9 5 7 6 6 7 83 8 76 10 78 11 82 12 77 13
REMARK SMILES IDX 79 14 81 15 80 16 5 17 2 18 1 19 3 20 4 21 13 22 14 23 15 24
REMARK SMILES IDX 16 25 17 26 75 27 18 28 74 29 19 30 20 31 21 32 68 33 22 34
REMARK SMILES IDX 73 35 67 36 69 37 23 38 72 39 66 40 65 41 24 43 54 44 35 45
REMARK SMILES IDX 53 46 36 47 39 48 52 49 70 50 37 51 38 52 51 54 71 55 40 56
REMARK SMILES IDX 25 57 26 58 34 59 27 60 33 61 28 62 29 63 30 64 31 65 32 66
REMARK SMILES IDX 55 67 56 68 64 69 57 70 63 71 58 72 59 73 60 74 61 75 62 76
REMARK SMILES IDX 41 77 42 78 50 79 43 80 49 81 44 82 45 83 46 84 47 85 48 86
REMARK H PARENT 6 9 69 42 39 53
REMARK Flexibility Score: inf
ROOT
ATOM      1  C   UNL A   1      36.912  22.752  23.941  1.00  0.00     0.275 C 
ENDROOT
BRANCH   1   2
ATOM      2  C   UNL A   1      35.384  22.843  23.922  1.00  0.00     0.274 C 
BRANCH   2   3
ATOM      3  O   UNL A   1      34.976  24.223  23.811  1.00  0.00    -0.458 OA
BRANCH   3   4
ATOM      4  C   UNL A   1      33.888  24.478  23.043  1.00  0.00     0.365 C 
ATOM      5  O   UNL A   1      33.556  23.774  22.090  1.00  0.00    -0.245 OA
BRANCH   4   6
ATOM      6  C   UNL A   1      33.016  25.666  23.493  1.00  0.00     0.295 C 
ATOM      7  N   UNL A   1      32.323  25.589  24.822  1.00  0.00    -0.320 N 
ATOM      8  C   UNL A   1      31.719  26.939  25.112  1.00  0.00     0.187 C 
ATOM      9  H   UNL A   1      33.005  25.331  25.536  1.00  0.00     0.349 HD
ATOM     10  C   UNL A   1      32.027  26.000  22.364  1.00  0.00     0.078 C 
ATOM     11  C   UNL A   1      31.592  27.894  23.887  1.00  0.00     0.048 C 
ATOM     12  C   UNL A   1      32.515  27.708  26.183  1.00  0.00     0.065 C 
ATOM     13  C   UNL A   1      31.066  27.141  22.682  1.00  0.00     0.016 C 
ATOM     14  C   UNL A   1      30.749  29.115  24.248  1.00  0.00     0.010 C 
ATOM     15  C   UNL A   1      31.778  28.999  26.572  1.00  0.00     0.006 C 
ATOM     16  C   UNL A   1      31.434  29.888  25.374  1.00  0.00     0.001 C 
BRANCH   7  17
ATOM     17  C   UNL A   1      31.255  24.546  24.833  1.00  0.00     0.269 C 
BRANCH  17  18
ATOM     18  C   UNL A   1      31.493  23.331  25.784  1.00  0.00     0.011 C 
ATOM     19  C   UNL A   1      30.288  23.103  26.713  1.00  0.00     0.017 C 
ATOM     20  C   UNL A   1      32.724  23.648  26.660  1.00  0.00     0.017 C 
ATOM     21  C   UNL A   1      31.780  22.030  25.019  1.00  0.00     0.017 C 
ENDBRANCH  17  18
ENDBRANCH   7  17
ENDBRANCH   4   6
ENDBRANCH   3   4
ENDBRANCH   2   3
ENDBRANCH   1   2
BRANCH   1  22
ATOM     22  O   UNL A   1      37.406  23.508  25.058  1.00  0.00    -0.458 OA
BRANCH  22  23
ATOM     23  C   UNL A   1      38.440  22.965  25.751  1.00  0.00     0.338 C 
ATOM     24  O   UNL A   1      38.860  21.826  25.632  1.00  0.00    -0.246 OA
BRANCH  23  25
ATOM     25  C   UNL A   1      39.068  24.007  26.614  1.00  0.00     0.060 A 
ATOM     26  C   UNL A   1      38.816  24.048  27.984  1.00  0.00     0.016 A 
ATOM     27  C   UNL A   1      39.822  25.037  26.045  1.00  0.00     0.016 A 
ATOM     28  C   UNL A   1      39.161  25.177  28.732  1.00  0.00     0.010 A 
ATOM     29  C   UNL A   1      40.286  26.103  26.839  1.00  0.00     0.010 A 
ATOM     30  C   UNL A   1      39.924  26.220  28.193  1.00  0.00    -0.014 A 
BRANCH  30  31
ATOM     31  C   UNL A   1      40.296  27.421  29.019  1.00  0.00     0.031 A 
ATOM     32  C   UNL A   1      41.639  27.496  29.715  1.00  0.00     0.074 A 
ATOM     33  C   UNL A   1      39.472  28.486  29.147  1.00  0.00     0.049 A 
ATOM     34  N   UNL A   1      42.020  28.274  30.699  1.00  0.00    -0.248 NA
ATOM     35  C   UNL A   1      42.684  26.565  29.258  1.00  0.00     0.031 C 
ATOM     36  C   UNL A   1      38.172  28.656  28.494  1.00  0.00     0.029 A 
ATOM     37  N   UNL A   1      39.623  29.654  29.863  1.00  0.00    -0.354 N 
ATOM     38  C   UNL A   1      43.300  27.855  31.048  1.00  0.00     0.074 A 
ATOM     39  C   UNL A   1      43.645  26.776  30.148  1.00  0.00     0.031 C 
ATOM     40  C   UNL A   1      37.699  29.884  28.753  1.00  0.00     0.029 A 
ATOM     41  C   UNL A   1      38.573  30.533  29.719  1.00  0.00     0.049 A 
ATOM     42  H   UNL A   1      40.409  29.842  30.424  1.00  0.00     0.167 HD
ATOM     43  C   UNL A   1      44.104  28.313  32.041  1.00  0.00     0.031 A 
ATOM     44  C   UNL A   1      38.287  31.695  30.338  1.00  0.00     0.031 A 
ATOM     45  C   UNL A   1      43.801  29.444  32.879  1.00  0.00     0.049 A 
ATOM     46  C   UNL A   1      39.168  32.176  31.452  1.00  0.00     0.074 A 
ATOM     47  C   UNL A   1      44.544  29.969  33.925  1.00  0.00     0.029 A 
ATOM     48  N   UNL A   1      42.686  30.257  32.741  1.00  0.00    -0.354 N 
ATOM     49  N   UNL A   1      40.285  31.656  31.899  1.00  0.00    -0.248 NA
ATOM     50  C   UNL A   1      38.720  33.373  32.179  1.00  0.00     0.031 C 
ATOM     51  C   UNL A   1      43.866  31.084  34.434  1.00  0.00     0.029 A 
ATOM     52  C   UNL A   1      42.723  31.277  33.677  1.00  0.00     0.049 A 
ATOM     53  H   UNL A   1      41.973  30.127  32.075  1.00  0.00     0.167 HD
ATOM     54  C   UNL A   1      40.667  32.455  32.970  1.00  0.00     0.074 A 
ATOM     55  C   UNL A   1      39.680  33.512  33.083  1.00  0.00     0.031 C 
ATOM     56  C   UNL A   1      41.733  32.316  33.794  1.00  0.00     0.031 A 
BRANCH  43  57
ATOM     57  C   UNL A   1      45.368  27.544  32.326  1.00  0.00    -0.014 A 
ATOM     58  C   UNL A   1      45.367  26.360  33.081  1.00  0.00     0.010 A 
ATOM     59  C   UNL A   1      46.583  28.007  31.783  1.00  0.00     0.010 A 
ATOM     60  C   UNL A   1      46.564  25.679  33.327  1.00  0.00     0.020 A 
ATOM     61  C   UNL A   1      47.777  27.316  32.004  1.00  0.00     0.020 A 
ATOM     62  C   UNL A   1      47.762  26.166  32.795  1.00  0.00     0.054 A 
BRANCH  62  63
ATOM     63  S   UNL A   1      49.303  25.265  33.120  1.00  0.00     0.124 S 
ATOM     64  O   UNL A   1      50.124  26.293  33.755  1.00  0.00    -0.237 OA
ATOM     65  O   UNL A   1      48.867  24.182  33.998  1.00  0.00    -0.237 OA
ATOM     66  O   UNL A   1      49.745  24.845  31.792  1.00  0.00    -0.744 OA
ENDBRANCH  62  63
ENDBRANCH  43  57
BRANCH  44  67
ATOM     67  C   UNL A   1      37.047  32.436  29.977  1.00  0.00    -0.014 A 
ATOM     68  C   UNL A   1      35.828  32.136  30.610  1.00  0.00     0.010 A 
ATOM     69  C   UNL A   1      37.089  33.477  29.030  1.00  0.00     0.010 A 
ATOM     70  C   UNL A   1      34.680  32.876  30.317  1.00  0.00     0.020 A 
ATOM     71  C   UNL A   1      35.951  34.238  28.758  1.00  0.00     0.020 A 
ATOM     72  C   UNL A   1      34.751  33.929  29.399  1.00  0.00     0.054 A 
BRANCH  72  73
ATOM     73  S   UNL A   1      33.281  34.952  29.110  1.00  0.00     0.124 S 
ATOM     74  O   UNL A   1      32.689  35.015  30.443  1.00  0.00    -0.237 OA
ATOM     75  O   UNL A   1      33.851  36.201  28.611  1.00  0.00    -0.237 OA
ATOM     76  O   UNL A   1      32.525  34.185  28.122  1.00  0.00    -0.744 OA
ENDBRANCH  72  73
ENDBRANCH  44  67
BRANCH  56  77
ATOM     77  C   UNL A   1      41.898  33.342  34.880  1.00  0.00    -0.014 A 
ATOM     78  C   UNL A   1      41.273  33.177  36.128  1.00  0.00     0.010 A 
ATOM     79  C   UNL A   1      42.700  34.474  34.654  1.00  0.00     0.010 A 
ATOM     80  C   UNL A   1      41.422  34.147  37.124  1.00  0.00     0.020 A 
ATOM     81  C   UNL A   1      42.866  35.436  35.652  1.00  0.00     0.020 A 
ATOM     82  C   UNL A   1      42.212  35.274  36.877  1.00  0.00     0.054 A 
BRANCH  82  83
ATOM     83  S   UNL A   1      42.410  36.512  38.189  1.00  0.00     0.124 S 
ATOM     84  O   UNL A   1      43.197  37.542  37.519  1.00  0.00    -0.237 OA
ATOM     85  O   UNL A   1      41.029  36.878  38.499  1.00  0.00    -0.237 OA
ATOM     86  O   UNL A   1      43.105  35.783  39.248  1.00  0.00    -0.744 OA
ENDBRANCH  82  83
ENDBRANCH  56  77
ENDBRANCH  30  31
ENDBRANCH  23  25
ENDBRANCH  22  23
ENDBRANCH   1  22
TORSDOF 16
ENDMDL
MODEL 3
REMARK VINA RESULT:     -10.2      5.677     12.184
REMARK SMILES CC(C)(C)C[N@H+]1[C@@H](C(=O)OCCOC(=O)c2ccc(-c3c4nc(c(-c5ccc(S(=O)(=O)[O-])cc5)c5ccc([nH]5)c(-c5ccc(S(=O)(=O)[O-])cc5)c5nc(c(-c6ccc(S(=O)(=O)[O-])cc6)c6ccc3[nH]6)C=C5)C=C4)cc2)CC[C@H]2CCCC[C@@H]21
REMARK SMILES IDX 12 1 11 2 10 3 8 4 9 5 7 6 6 7 83 8 76 10 78 11 82 12 77 13
REMARK SMILES IDX 79 14 81 15 80 16 5 17 2 18 1 19 3 20 4 21 13 22 14 23 15 24
REMARK SMILES IDX 16 25 17 26 75 27 18 28 74 29 19 30 20 31 21 32 68 33 22 34
REMARK SMILES IDX 73 35 67 36 69 37 23 38 72 39 66 40 65 41 24 43 54 44 35 45
REMARK SMILES IDX 53 46 36 47 39 48 52 49 70 50 37 51 38 52 51 54 71 55 40 56
REMARK SMILES IDX 25 57 26 58 34 59 27 60 33 61 28 62 29 63 30 64 31 65 32 66
REMARK SMILES IDX 55 67 56 68 64 69 57 70 63 71 58 72 59 73 60 74 61 75 62 76
REMARK SMILES IDX 41 77 42 78 50 79 43 80 49 81 44 82 45 83 46 84 47 85 48 86
REMARK H PARENT 6 9 69 42 39 53
REMARK Flexibility Score: inf
ROOT
ATOM      1  C   UNL A   1      38.813  23.379  26.160  1.00  0.00     0.275 C 
ENDROOT
BRANCH   1   2
ATOM      2  C   UNL A   1      39.493  22.055  26.519  1.00  0.00     0.274 C 
BRANCH   2   3
ATOM      3  O   UNL A   1      40.852  22.054  26.030  1.00  0.00    -0.458 OA
BRANCH   3   4
ATOM      4  C   UNL A   1      41.830  21.850  26.947  1.00  0.00     0.365 C 
ATOM      5  O   UNL A   1      42.191  20.731  27.310  1.00  0.00    -0.245 OA
BRANCH   4   6
ATOM      6  C   UNL A   1      42.546  23.117  27.453  1.00  0.00     0.295 C 
ATOM      7  N   UNL A   1      43.634  23.715  26.611  1.00  0.00    -0.320 N 
ATOM      8  C   UNL A   1      44.019  25.041  27.216  1.00  0.00     0.187 C 
ATOM      9  H   UNL A   1      43.289  23.832  25.658  1.00  0.00     0.349 HD
ATOM     10  C   UNL A   1      43.026  22.865  28.891  1.00  0.00     0.078 C 
ATOM     11  C   UNL A   1      43.546  25.269  28.684  1.00  0.00     0.048 C 
ATOM     12  C   UNL A   1      43.479  26.226  26.395  1.00  0.00     0.065 C 
ATOM     13  C   UNL A   1      43.790  24.028  29.517  1.00  0.00     0.016 C 
ATOM     14  C   UNL A   1      44.200  26.521  29.265  1.00  0.00     0.010 C 
ATOM     15  C   UNL A   1      44.030  27.551  26.945  1.00  0.00     0.006 C 
ATOM     16  C   UNL A   1      43.780  27.739  28.444  1.00  0.00     0.001 C 
BRANCH   7  17
ATOM     17  C   UNL A   1      44.833  22.827  26.539  1.00  0.00     0.269 C 
BRANCH  17  18
ATOM     18  C   UNL A   1      45.379  22.527  25.107  1.00  0.00     0.011 C 
ATOM     19  C   UNL A   1      45.968  21.108  25.020  1.00  0.00     0.017 C 
ATOM     20  C   UNL A   1      46.508  23.536  24.809  1.00  0.00     0.017 C 
ATOM     21  C   UNL A   1      44.305  22.683  24.022  1.00  0.00     0.017 C 
ENDBRANCH  17  18
ENDBRANCH   7  17
ENDBRANCH   4   6
ENDBRANCH   3   4
ENDBRANCH   2   3
ENDBRANCH   1   2
BRANCH   1  22
ATOM     22  O   UNL A   1      39.070  24.329  27.206  1.00  0.00    -0.458 OA
BRANCH  22  23
ATOM     23  C   UNL A   1      39.788  25.430  26.865  1.00  0.00     0.338 C 
ATOM     24  O   UNL A   1      40.383  25.597  25.813  1.00  0.00    -0.246 OA
BRANCH  23  25
ATOM     25  C   UNL A   1      39.656  26.466  27.930  1.00  0.00     0.060 A 
ATOM     26  C   UNL A   1      40.102  27.769  27.719  1.00  0.00     0.016 A 
ATOM     27  C   UNL A   1      39.194  26.118  29.202  1.00  0.00     0.016 A 
ATOM     28  C   UNL A   1      40.247  28.649  28.796  1.00  0.00     0.010 A 
ATOM     29  C   UNL A   1      39.213  27.059  30.250  1.00  0.00     0.010 A 
ATOM     30  C   UNL A   1      39.785  28.333  30.080  1.00  0.00    -0.014 A 
BRANCH  30  31
ATOM     31  C   UNL A   1      39.938  29.299  31.222  1.00  0.00     0.031 A 
ATOM     32  C   UNL A   1      41.180  29.284  32.089  1.00  0.00     0.074 A 
ATOM     33  C   UNL A   1      39.000  30.234  31.500  1.00  0.00     0.049 A 
ATOM     34  N   UNL A   1      41.367  29.803  33.278  1.00  0.00    -0.248 NA
ATOM     35  C   UNL A   1      42.360  28.580  31.558  1.00  0.00     0.031 C 
ATOM     36  C   UNL A   1      37.771  30.477  30.743  1.00  0.00     0.029 A 
ATOM     37  N   UNL A   1      38.950  31.182  32.499  1.00  0.00    -0.354 N 
ATOM     38  C   UNL A   1      42.636  29.398  33.680  1.00  0.00     0.074 A 
ATOM     39  C   UNL A   1      43.188  28.618  32.594  1.00  0.00     0.031 C 
ATOM     40  C   UNL A   1      37.149  31.558  31.234  1.00  0.00     0.029 A 
ATOM     41  C   UNL A   1      37.838  31.991  32.440  1.00  0.00     0.049 A 
ATOM     42  H   UNL A   1      39.645  31.272  33.190  1.00  0.00     0.167 HD
ATOM     43  C   UNL A   1      43.273  29.637  34.854  1.00  0.00     0.031 A 
ATOM     44  C   UNL A   1      37.368  32.929  33.286  1.00  0.00     0.031 A 
ATOM     45  C   UNL A   1      42.764  30.486  35.901  1.00  0.00     0.049 A 
ATOM     46  C   UNL A   1      38.064  33.164  34.593  1.00  0.00     0.074 A 
ATOM     47  C   UNL A   1      43.327  30.770  37.135  1.00  0.00     0.029 A 
ATOM     48  N   UNL A   1      41.594  31.226  35.821  1.00  0.00    -0.354 N 
ATOM     49  N   UNL A   1      39.171  32.625  35.042  1.00  0.00    -0.248 NA
ATOM     50  C   UNL A   1      37.418  34.095  35.529  1.00  0.00     0.031 C 
ATOM     51  C   UNL A   1      42.486  31.664  37.810  1.00  0.00     0.029 A 
ATOM     52  C   UNL A   1      41.421  31.967  36.979  1.00  0.00     0.049 A 
ATOM     53  H   UNL A   1      40.977  31.225  35.054  1.00  0.00     0.167 HD
ATOM     54  C   UNL A   1      39.347  33.141  36.319  1.00  0.00     0.074 A 
ATOM     55  C   UNL A   1      38.251  34.059  36.560  1.00  0.00     0.031 C 
ATOM     56  C   UNL A   1      40.324  32.867  37.218  1.00  0.00     0.031 A 
BRANCH  43  57
ATOM     57  C   UNL A   1      44.569  28.910  35.105  1.00  0.00    -0.014 A 
ATOM     58  C   UNL A   1      45.816  29.481  34.802  1.00  0.00     0.010 A 
ATOM     59  C   UNL A   1      44.528  27.633  35.698  1.00  0.00     0.010 A 
ATOM     60  C   UNL A   1      46.995  28.769  35.046  1.00  0.00     0.020 A 
ATOM     61  C   UNL A   1      45.705  26.929  35.967  1.00  0.00     0.020 A 
ATOM     62  C   UNL A   1      46.932  27.494  35.618  1.00  0.00     0.054 A 
BRANCH  62  63
ATOM     63  S   UNL A   1      48.473  26.590  35.932  1.00  0.00     0.124 S 
ATOM     64  O   UNL A   1      49.397  27.675  36.252  1.00  0.00    -0.237 OA
ATOM     65  O   UNL A   1      48.118  25.720  37.050  1.00  0.00    -0.237 OA
ATOM     66  O   UNL A   1      48.734  25.901  34.670  1.00  0.00    -0.744 OA
ENDBRANCH  62  63
ENDBRANCH  43  57
BRANCH  44  67
ATOM     67  C   UNL A   1      36.106  33.649  32.958  1.00  0.00    -0.014 A 
ATOM     68  C   UNL A   1      34.859  33.039  33.181  1.00  0.00     0.010 A 
ATOM     69  C   UNL A   1      36.146  34.967  32.465  1.00  0.00     0.010 A 
ATOM     70  C   UNL A   1      33.676  33.741  32.934  1.00  0.00     0.020 A 
ATOM     71  C   UNL A   1      34.967  35.681  32.247  1.00  0.00     0.020 A 
ATOM     72  C   UNL A   1      33.737  35.062  32.477  1.00  0.00     0.054 A 
BRANCH  72  73
ATOM     73  S   UNL A   1      32.198  35.999  32.266  1.00  0.00     0.124 S 
ATOM     74  O   UNL A   1      31.195  35.036  32.712  1.00  0.00    -0.237 OA
ATOM     75  O   UNL A   1      32.401  37.152  33.140  1.00  0.00    -0.237 OA
ATOM     76  O   UNL A   1      32.184  36.306  30.838  1.00  0.00    -0.744 OA
ENDBRANCH  72  73
ENDBRANCH  44  67
BRANCH  56  77
ATOM     77  C   UNL A   1      40.260  33.582  38.538  1.00  0.00    -0.014 A 
ATOM     78  C   UNL A   1      40.983  34.769  38.751  1.00  0.00     0.010 A 
ATOM     79  C   UNL A   1      39.455  33.071  39.570  1.00  0.00     0.010 A 
ATOM     80  C   UNL A   1      40.926  35.416  39.989  1.00  0.00     0.020 A 
ATOM     81  C   UNL A   1      39.382  33.723  40.803  1.00  0.00     0.020 A 
ATOM     82  C   UNL A   1      40.131  34.885  41.010  1.00  0.00     0.054 A 
BRANCH  82  83
ATOM     83  S   UNL A   1      40.055  35.749  42.603  1.00  0.00     0.124 S 
ATOM     84  O   UNL A   1      38.630  35.690  42.914  1.00  0.00    -0.237 OA
ATOM     85  O   UNL A   1      40.919  34.935  43.455  1.00  0.00    -0.237 OA
ATOM     86  O   UNL A   1      40.573  37.081  42.297  1.00  0.00    -0.744 OA
ENDBRANCH  82  83
ENDBRANCH  56  77
ENDBRANCH  30  31
ENDBRANCH  23  25
ENDBRANCH  22  23
ENDBRANCH   1  22
TORSDOF 16
ENDMDL
