MODEL 1
REMARK VINA RESULT:     -11.2      0.000      0.000
REMARK SMILES Cn1ccc(C(=O)NCc2ccc(C(=O)OCCOC(=O)c3ccc(-c4c5nc(c(-c6ccc(S(=O)(=O)[O-])cc6)c6ccc([nH]6)c(-c6ccc(S(=O)(=O)[O-])cc6)c6nc(c(-c7ccc(S(=O)(=O)[O-])cc7)c7ccc4[nH]7)C=C6)C=C5)cc3)cc2)cc1=O
REMARK SMILES IDX 17 1 16 2 14 3 15 4 13 5 10 6 11 7 83 8 12 9 82 10 9 11 8 12
REMARK SMILES IDX 6 13 7 14 5 16 1 17 2 18 3 19 85 20 4 21 84 22 86 23 18 24
REMARK SMILES IDX 19 25 20 26 21 27 22 28 23 29 81 30 24 31 80 32 25 33 26 34
REMARK SMILES IDX 27 35 74 36 28 37 79 38 73 39 75 40 29 41 78 42 72 43 71 44
REMARK SMILES IDX 30 46 60 47 41 48 59 49 42 50 45 51 58 52 76 53 43 54 44 55
REMARK SMILES IDX 57 57 77 58 46 59 31 60 32 61 40 62 33 63 39 64 34 65 35 66
REMARK SMILES IDX 36 67 37 68 38 69 61 70 62 71 70 72 63 73 69 74 64 75 65 76
REMARK SMILES IDX 66 77 67 78 68 79 47 80 48 81 56 82 49 83 55 84 50 85 51 86
REMARK SMILES IDX 52 87 53 88 54 89
REMARK H PARENT 8 15 75 45 45 56
REMARK Flexibility Score: inf
ROOT
ATOM      1  C   UNL A   1      34.709  32.190  28.025  1.00  0.00     0.275 C 
ENDROOT
BRANCH   1   2
ATOM      2  O   UNL A   1      34.179  30.849  28.004  1.00  0.00    -0.458 OA
BRANCH   2   3
ATOM      3  C   UNL A   1      33.070  30.661  27.248  1.00  0.00     0.338 C 
ATOM      4  O   UNL A   1      32.320  31.531  26.830  1.00  0.00    -0.246 OA
BRANCH   3   5
ATOM      5  C   UNL A   1      32.922  29.229  26.891  1.00  0.00     0.060 A 
ATOM      6  C   UNL A   1      32.540  26.518  26.214  1.00  0.00    -0.029 A 
ATOM      7  C   UNL A   1      31.580  27.204  26.968  1.00  0.00     0.006 A 
ATOM      8  C   UNL A   1      33.689  27.214  25.798  1.00  0.00     0.006 A 
ATOM      9  C   UNL A   1      31.787  28.537  27.331  1.00  0.00     0.016 A 
ATOM     10  C   UNL A   1      33.881  28.559  26.129  1.00  0.00     0.016 A 
BRANCH   6  11
ATOM     11  C   UNL A   1      32.302  25.073  25.831  1.00  0.00     0.152 C 
BRANCH  11  12
ATOM     12  N   UNL A   1      32.605  24.834  24.435  1.00  0.00    -0.348 N 
ATOM     13  C   UNL A   1      32.037  25.220  23.268  1.00  0.00     0.251 C 
ATOM     14  O   UNL A   1      32.515  24.726  22.240  1.00  0.00    -0.269 OA
ATOM     15  H   UNL A   1      33.399  24.265  24.306  1.00  0.00     0.164 HD
BRANCH  13  16
ATOM     16  C   UNL A   1      30.946  26.245  23.149  1.00  0.00     0.046 A 
ATOM     17  C   UNL A   1      27.575  28.844  23.051  1.00  0.00     0.153 C 
ATOM     18  N   UNL A   1      28.742  27.979  23.094  1.00  0.00    -0.319 N 
ATOM     19  C   UNL A   1      28.683  26.824  23.844  1.00  0.00     0.089 A 
ATOM     20  C   UNL A   1      29.889  28.344  22.397  1.00  0.00     0.251 A 
ATOM     21  C   UNL A   1      29.716  25.976  23.886  1.00  0.00     0.032 A 
ATOM     22  C   UNL A   1      31.044  27.409  22.490  1.00  0.00     0.085 A 
ATOM     23  O   UNL A   1      30.006  29.362  21.722  1.00  0.00    -0.269 OA
ENDBRANCH  13  16
ENDBRANCH  11  12
ENDBRANCH   6  11
ENDBRANCH   3   5
ENDBRANCH   2   3
ENDBRANCH   1   2
BRANCH   1  24
ATOM     24  C   UNL A   1      34.971  32.643  29.461  1.00  0.00     0.275 C 
BRANCH  24  25
ATOM     25  O   UNL A   1      36.348  32.404  29.800  1.00  0.00    -0.458 OA
BRANCH  25  26
ATOM     26  C   UNL A   1      36.589  31.335  30.588  1.00  0.00     0.338 C 
ATOM     27  O   UNL A   1      35.902  30.923  31.514  1.00  0.00    -0.246 OA
BRANCH  26  28
ATOM     28  C   UNL A   1      37.840  30.686  30.169  1.00  0.00     0.060 A 
ATOM     29  C   UNL A   1      38.732  30.232  31.138  1.00  0.00     0.016 A 
ATOM     30  C   UNL A   1      38.186  30.627  28.820  1.00  0.00     0.016 A 
ATOM     31  C   UNL A   1      40.005  29.794  30.772  1.00  0.00     0.010 A 
ATOM     32  C   UNL A   1      39.428  30.100  28.449  1.00  0.00     0.010 A 
ATOM     33  C   UNL A   1      40.370  29.710  29.421  1.00  0.00    -0.014 A 
BRANCH  33  34
ATOM     34  C   UNL A   1      41.737  29.258  29.027  1.00  0.00     0.031 A 
ATOM     35  C   UNL A   1      42.889  30.235  29.024  1.00  0.00     0.074 A 
ATOM     36  C   UNL A   1      41.962  27.976  28.668  1.00  0.00     0.049 A 
ATOM     37  N   UNL A   1      44.099  30.085  28.546  1.00  0.00    -0.248 NA
ATOM     38  C   UNL A   1      42.645  31.558  29.623  1.00  0.00     0.031 C 
ATOM     39  C   UNL A   1      40.961  26.907  28.652  1.00  0.00     0.029 A 
ATOM     40  N   UNL A   1      43.113  27.352  28.248  1.00  0.00    -0.354 N 
ATOM     41  C   UNL A   1      44.734  31.310  28.722  1.00  0.00     0.074 A 
ATOM     42  C   UNL A   1      43.781  32.191  29.360  1.00  0.00     0.031 C 
ATOM     43  C   UNL A   1      41.545  25.759  28.277  1.00  0.00     0.029 A 
ATOM     44  C   UNL A   1      42.940  26.022  27.940  1.00  0.00     0.049 A 
ATOM     45  H   UNL A   1      43.980  27.813  28.174  1.00  0.00     0.167 HD
ATOM     46  C   UNL A   1      45.995  31.670  28.378  1.00  0.00     0.031 A 
ATOM     47  C   UNL A   1      43.784  25.119  27.404  1.00  0.00     0.031 A 
ATOM     48  C   UNL A   1      46.966  30.778  27.802  1.00  0.00     0.049 A 
ATOM     49  C   UNL A   1      45.178  25.543  27.032  1.00  0.00     0.074 A 
ATOM     50  C   UNL A   1      48.278  31.048  27.452  1.00  0.00     0.029 A 
ATOM     51  N   UNL A   1      46.740  29.443  27.506  1.00  0.00    -0.354 N 
ATOM     52  N   UNL A   1      45.745  26.717  27.171  1.00  0.00    -0.248 NA
ATOM     53  C   UNL A   1      46.040  24.524  26.414  1.00  0.00     0.031 C 
ATOM     54  C   UNL A   1      48.836  29.885  26.910  1.00  0.00     0.029 A 
ATOM     55  C   UNL A   1      47.884  28.881  26.966  1.00  0.00     0.049 A 
ATOM     56  H   UNL A   1      45.893  28.966  27.658  1.00  0.00     0.167 HD
ATOM     57  C   UNL A   1      47.031  26.576  26.663  1.00  0.00     0.074 A 
ATOM     58  C   UNL A   1      47.168  25.199  26.237  1.00  0.00     0.031 C 
ATOM     59  C   UNL A   1      48.007  27.508  26.549  1.00  0.00     0.031 A 
BRANCH  46  60
ATOM     60  C   UNL A   1      46.398  33.108  28.579  1.00  0.00    -0.014 A 
ATOM     61  C   UNL A   1      47.044  33.535  29.752  1.00  0.00     0.010 A 
ATOM     62  C   UNL A   1      46.193  34.028  27.534  1.00  0.00     0.010 A 
ATOM     63  C   UNL A   1      47.455  34.865  29.885  1.00  0.00     0.020 A 
ATOM     64  C   UNL A   1      46.624  35.352  27.655  1.00  0.00     0.020 A 
ATOM     65  C   UNL A   1      47.243  35.765  28.835  1.00  0.00     0.054 A 
BRANCH  65  66
ATOM     66  S   UNL A   1      47.830  37.473  29.014  1.00  0.00     0.124 S 
ATOM     67  O   UNL A   1      46.585  38.231  28.903  1.00  0.00    -0.237 OA
ATOM     68  O   UNL A   1      48.443  37.466  30.339  1.00  0.00    -0.237 OA
ATOM     69  O   UNL A   1      48.761  37.638  27.901  1.00  0.00    -0.744 OA
ENDBRANCH  65  66
ENDBRANCH  46  60
BRANCH  47  70
ATOM     70  C   UNL A   1      43.312  23.736  27.118  1.00  0.00    -0.014 A 
ATOM     71  C   UNL A   1      42.972  23.345  25.812  1.00  0.00     0.010 A 
ATOM     72  C   UNL A   1      43.202  22.800  28.163  1.00  0.00     0.010 A 
ATOM     73  C   UNL A   1      42.516  22.047  25.559  1.00  0.00     0.020 A 
ATOM     74  C   UNL A   1      42.776  21.494  27.909  1.00  0.00     0.020 A 
ATOM     75  C   UNL A   1      42.420  21.130  26.609  1.00  0.00     0.054 A 
BRANCH  75  76
ATOM     76  S   UNL A   1      41.875  19.436  26.258  1.00  0.00     0.124 S 
ATOM     77  O   UNL A   1      42.642  19.114  25.059  1.00  0.00    -0.237 OA
ATOM     78  O   UNL A   1      42.261  18.716  27.469  1.00  0.00    -0.237 OA
ATOM     79  O   UNL A   1      40.434  19.578  26.062  1.00  0.00    -0.744 OA
ENDBRANCH  75  76
ENDBRANCH  47  70
BRANCH  59  80
ATOM     80  C   UNL A   1      49.320  27.065  25.965  1.00  0.00    -0.014 A 
ATOM     81  C   UNL A   1      49.614  27.270  24.606  1.00  0.00     0.010 A 
ATOM     82  C   UNL A   1      50.289  26.479  26.799  1.00  0.00     0.010 A 
ATOM     83  C   UNL A   1      50.846  26.869  24.082  1.00  0.00     0.020 A 
ATOM     84  C   UNL A   1      51.531  26.097  26.283  1.00  0.00     0.020 A 
ATOM     85  C   UNL A   1      51.796  26.282  24.924  1.00  0.00     0.054 A 
BRANCH  85  86
ATOM     86  S   UNL A   1      53.405  25.806  24.234  1.00  0.00     0.124 S 
ATOM     87  O   UNL A   1      53.533  24.424  24.689  1.00  0.00    -0.237 OA
ATOM     88  O   UNL A   1      53.205  25.978  22.797  1.00  0.00    -0.237 OA
ATOM     89  O   UNL A   1      54.336  26.753  24.844  1.00  0.00    -0.744 OA
ENDBRANCH  85  86
ENDBRANCH  59  80
ENDBRANCH  33  34
ENDBRANCH  26  28
ENDBRANCH  25  26
ENDBRANCH  24  25
ENDBRANCH   1  24
TORSDOF 17
ENDMDL
MODEL 2
REMARK VINA RESULT:     -11.1      1.811      3.343
REMARK SMILES Cn1ccc(C(=O)NCc2ccc(C(=O)OCCOC(=O)c3ccc(-c4c5nc(c(-c6ccc(S(=O)(=O)[O-])cc6)c6ccc([nH]6)c(-c6ccc(S(=O)(=O)[O-])cc6)c6nc(c(-c7ccc(S(=O)(=O)[O-])cc7)c7ccc4[nH]7)C=C6)C=C5)cc3)cc2)cc1=O
REMARK SMILES IDX 17 1 16 2 14 3 15 4 13 5 10 6 11 7 83 8 12 9 82 10 9 11 8 12
REMARK SMILES IDX 6 13 7 14 5 16 1 17 2 18 3 19 85 20 4 21 84 22 86 23 18 24
REMARK SMILES IDX 19 25 20 26 21 27 22 28 23 29 81 30 24 31 80 32 25 33 26 34
REMARK SMILES IDX 27 35 74 36 28 37 79 38 73 39 75 40 29 41 78 42 72 43 71 44
REMARK SMILES IDX 30 46 60 47 41 48 59 49 42 50 45 51 58 52 76 53 43 54 44 55
REMARK SMILES IDX 57 57 77 58 46 59 31 60 32 61 40 62 33 63 39 64 34 65 35 66
REMARK SMILES IDX 36 67 37 68 38 69 61 70 62 71 70 72 63 73 69 74 64 75 65 76
REMARK SMILES IDX 66 77 67 78 68 79 47 80 48 81 56 82 49 83 55 84 50 85 51 86
REMARK SMILES IDX 52 87 53 88 54 89
REMARK H PARENT 8 15 75 45 45 56
REMARK Flexibility Score: inf
ROOT
ATOM      1  C   UNL A   1      33.700  31.118  27.455  1.00  0.00     0.275 C 
ENDROOT
BRANCH   1   2
ATOM      2  O   UNL A   1      32.718  30.063  27.497  1.00  0.00    -0.458 OA
BRANCH   2   3
ATOM      3  C   UNL A   1      32.221  29.666  26.299  1.00  0.00     0.338 C 
ATOM      4  O   UNL A   1      31.769  30.391  25.424  1.00  0.00    -0.246 OA
BRANCH   3   5
ATOM      5  C   UNL A   1      32.391  28.203  26.127  1.00  0.00     0.060 A 
ATOM      6  C   UNL A   1      32.815  25.434  25.809  1.00  0.00    -0.029 A 
ATOM      7  C   UNL A   1      33.791  26.353  25.404  1.00  0.00     0.006 A 
ATOM      8  C   UNL A   1      31.629  25.924  26.383  1.00  0.00     0.006 A 
ATOM      9  C   UNL A   1      33.565  27.725  25.531  1.00  0.00     0.016 A 
ATOM     10  C   UNL A   1      31.416  27.296  26.546  1.00  0.00     0.016 A 
BRANCH   6  11
ATOM     11  C   UNL A   1      33.075  23.949  25.661  1.00  0.00     0.152 C 
BRANCH  11  12
ATOM     12  N   UNL A   1      33.482  23.609  24.313  1.00  0.00    -0.348 N 
ATOM     13  C   UNL A   1      34.667  23.305  23.735  1.00  0.00     0.251 C 
ATOM     14  O   UNL A   1      34.655  23.169  22.506  1.00  0.00    -0.269 OA
ATOM     15  H   UNL A   1      32.730  23.596  23.677  1.00  0.00     0.164 HD
BRANCH  13  16
ATOM     16  C   UNL A   1      35.942  23.051  24.487  1.00  0.00     0.046 A 
ATOM     17  C   UNL A   1      39.513  21.876  26.486  1.00  0.00     0.153 C 
ATOM     18  N   UNL A   1      38.308  22.299  25.791  1.00  0.00    -0.319 N 
ATOM     19  C   UNL A   1      37.663  21.396  24.974  1.00  0.00     0.089 A 
ATOM     20  C   UNL A   1      37.848  23.601  25.953  1.00  0.00     0.251 A 
ATOM     21  C   UNL A   1      36.531  21.725  24.343  1.00  0.00     0.032 A 
ATOM     22  C   UNL A   1      36.611  23.962  25.209  1.00  0.00     0.085 A 
ATOM     23  O   UNL A   1      38.384  24.452  26.658  1.00  0.00    -0.269 OA
ENDBRANCH  13  16
ENDBRANCH  11  12
ENDBRANCH   6  11
ENDBRANCH   3   5
ENDBRANCH   2   3
ENDBRANCH   1   2
BRANCH   1  24
ATOM     24  C   UNL A   1      35.110  30.538  27.357  1.00  0.00     0.275 C 
BRANCH  24  25
ATOM     25  O   UNL A   1      35.992  31.256  28.237  1.00  0.00    -0.458 OA
BRANCH  25  26
ATOM     26  C   UNL A   1      36.400  30.594  29.340  1.00  0.00     0.338 C 
ATOM     27  O   UNL A   1      35.808  30.491  30.407  1.00  0.00    -0.246 OA
BRANCH  26  28
ATOM     28  C   UNL A   1      37.707  29.970  29.085  1.00  0.00     0.060 A 
ATOM     29  C   UNL A   1      38.526  29.636  30.161  1.00  0.00     0.016 A 
ATOM     30  C   UNL A   1      38.172  29.818  27.780  1.00  0.00     0.016 A 
ATOM     31  C   UNL A   1      39.841  29.228  29.944  1.00  0.00     0.010 A 
ATOM     32  C   UNL A   1      39.462  29.318  27.562  1.00  0.00     0.010 A 
ATOM     33  C   UNL A   1      40.327  29.052  28.641  1.00  0.00    -0.014 A 
BRANCH  33  34
ATOM     34  C   UNL A   1      41.741  28.631  28.404  1.00  0.00     0.031 A 
ATOM     35  C   UNL A   1      42.856  29.648  28.462  1.00  0.00     0.074 A 
ATOM     36  C   UNL A   1      42.040  27.342  28.135  1.00  0.00     0.049 A 
ATOM     37  N   UNL A   1      44.111  29.519  28.110  1.00  0.00    -0.248 NA
ATOM     38  C   UNL A   1      42.513  30.988  28.965  1.00  0.00     0.031 C 
ATOM     39  C   UNL A   1      41.079  26.237  28.078  1.00  0.00     0.029 A 
ATOM     40  N   UNL A   1      43.246  26.740  27.861  1.00  0.00    -0.354 N 
ATOM     41  C   UNL A   1      44.687  30.773  28.283  1.00  0.00     0.074 A 
ATOM     42  C   UNL A   1      43.649  31.649  28.780  1.00  0.00     0.031 C 
ATOM     43  C   UNL A   1      41.733  25.094  27.821  1.00  0.00     0.029 A 
ATOM     44  C   UNL A   1      43.145  25.391  27.607  1.00  0.00     0.049 A 
ATOM     45  H   UNL A   1      44.101  27.228  27.847  1.00  0.00     0.167 HD
ATOM     46  C   UNL A   1      45.964  31.162  28.044  1.00  0.00     0.031 A 
ATOM     47  C   UNL A   1      44.066  24.495  27.203  1.00  0.00     0.031 A 
ATOM     48  C   UNL A   1      47.014  30.278  27.612  1.00  0.00     0.049 A 
ATOM     49  C   UNL A   1      45.475  24.950  26.945  1.00  0.00     0.074 A 
ATOM     50  C   UNL A   1      48.345  30.579  27.376  1.00  0.00     0.029 A 
ATOM     51  N   UNL A   1      46.860  28.923  27.365  1.00  0.00    -0.354 N 
ATOM     52  N   UNL A   1      45.989  26.149  27.077  1.00  0.00    -0.248 NA
ATOM     53  C   UNL A   1      46.425  23.935  26.467  1.00  0.00     0.031 C 
ATOM     54  C   UNL A   1      48.990  29.412  26.952  1.00  0.00     0.029 A 
ATOM     55  C   UNL A   1      48.069  28.377  26.967  1.00  0.00     0.049 A 
ATOM     56  H   UNL A   1      46.018  28.424  27.458  1.00  0.00     0.167 HD
ATOM     57  C   UNL A   1      47.323  26.031  26.703  1.00  0.00     0.074 A 
ATOM     58  C   UNL A   1      47.543  24.641  26.365  1.00  0.00     0.031 C 
ATOM     59  C   UNL A   1      48.276  26.991  26.635  1.00  0.00     0.031 A 
BRANCH  46  60
ATOM     60  C   UNL A   1      46.300  32.621  28.209  1.00  0.00    -0.014 A 
ATOM     61  C   UNL A   1      46.803  33.130  29.418  1.00  0.00     0.010 A 
ATOM     62  C   UNL A   1      46.181  33.479  27.100  1.00  0.00     0.010 A 
ATOM     63  C   UNL A   1      47.158  34.478  29.522  1.00  0.00     0.020 A 
ATOM     64  C   UNL A   1      46.556  34.822  27.193  1.00  0.00     0.020 A 
ATOM     65  C   UNL A   1      47.032  35.316  28.408  1.00  0.00     0.054 A 
BRANCH  65  66
ATOM     66  S   UNL A   1      47.545  37.050  28.555  1.00  0.00     0.124 S 
ATOM     67  O   UNL A   1      46.269  37.722  28.791  1.00  0.00    -0.237 OA
ATOM     68  O   UNL A   1      48.459  37.021  29.694  1.00  0.00    -0.237 OA
ATOM     69  O   UNL A   1      48.171  37.337  27.267  1.00  0.00    -0.744 OA
ENDBRANCH  65  66
ENDBRANCH  46  60
BRANCH  47  70
ATOM     70  C   UNL A   1      43.667  23.083  26.944  1.00  0.00    -0.014 A 
ATOM     71  C   UNL A   1      43.113  22.292  27.964  1.00  0.00     0.010 A 
ATOM     72  C   UNL A   1      43.842  22.526  25.664  1.00  0.00     0.010 A 
ATOM     73  C   UNL A   1      42.755  20.963  27.713  1.00  0.00     0.020 A 
ATOM     74  C   UNL A   1      43.458  21.210  25.401  1.00  0.00     0.020 A 
ATOM     75  C   UNL A   1      42.931  20.430  26.433  1.00  0.00     0.054 A 
BRANCH  75  76
ATOM     76  S   UNL A   1      42.417  18.721  26.107  1.00  0.00     0.124 S 
ATOM     77  O   UNL A   1      43.318  18.335  25.028  1.00  0.00    -0.237 OA
ATOM     78  O   UNL A   1      42.649  18.065  27.391  1.00  0.00    -0.237 OA
ATOM     79  O   UNL A   1      41.011  18.856  25.732  1.00  0.00    -0.744 OA
ENDBRANCH  75  76
ENDBRANCH  47  70
BRANCH  59  80
ATOM     80  C   UNL A   1      49.653  26.569  26.204  1.00  0.00    -0.014 A 
ATOM     81  C   UNL A   1      50.169  26.951  24.954  1.00  0.00     0.010 A 
ATOM     82  C   UNL A   1      50.456  25.818  27.082  1.00  0.00     0.010 A 
ATOM     83  C   UNL A   1      51.458  26.565  24.576  1.00  0.00     0.020 A 
ATOM     84  C   UNL A   1      51.753  25.450  26.716  1.00  0.00     0.020 A 
ATOM     85  C   UNL A   1      52.241  25.814  25.459  1.00  0.00     0.054 A 
BRANCH  85  86
ATOM     86  S   UNL A   1      53.926  25.359  24.965  1.00  0.00     0.124 S 
ATOM     87  O   UNL A   1      53.810  23.914  24.787  1.00  0.00    -0.237 OA
ATOM     88  O   UNL A   1      54.124  26.128  23.739  1.00  0.00    -0.237 OA
ATOM     89  O   UNL A   1      54.745  25.785  26.098  1.00  0.00    -0.744 OA
ENDBRANCH  85  86
ENDBRANCH  59  80
ENDBRANCH  33  34
ENDBRANCH  26  28
ENDBRANCH  25  26
ENDBRANCH  24  25
ENDBRANCH   1  24
TORSDOF 17
ENDMDL
MODEL 3
REMARK VINA RESULT:     -10.9      0.693      8.227
REMARK SMILES Cn1ccc(C(=O)NCc2ccc(C(=O)OCCOC(=O)c3ccc(-c4c5nc(c(-c6ccc(S(=O)(=O)[O-])cc6)c6ccc([nH]6)c(-c6ccc(S(=O)(=O)[O-])cc6)c6nc(c(-c7ccc(S(=O)(=O)[O-])cc7)c7ccc4[nH]7)C=C6)C=C5)cc3)cc2)cc1=O
REMARK SMILES IDX 17 1 16 2 14 3 15 4 13 5 10 6 11 7 83 8 12 9 82 10 9 11 8 12
REMARK SMILES IDX 6 13 7 14 5 16 1 17 2 18 3 19 85 20 4 21 84 22 86 23 18 24
REMARK SMILES IDX 19 25 20 26 21 27 22 28 23 29 81 30 24 31 80 32 25 33 26 34
REMARK SMILES IDX 27 35 74 36 28 37 79 38 73 39 75 40 29 41 78 42 72 43 71 44
REMARK SMILES IDX 30 46 60 47 41 48 59 49 42 50 45 51 58 52 76 53 43 54 44 55
REMARK SMILES IDX 57 57 77 58 46 59 31 60 32 61 40 62 33 63 39 64 34 65 35 66
REMARK SMILES IDX 36 67 37 68 38 69 61 70 62 71 70 72 63 73 69 74 64 75 65 76
REMARK SMILES IDX 66 77 67 78 68 79 47 80 48 81 56 82 49 83 55 84 50 85 51 86
REMARK SMILES IDX 52 87 53 88 54 89
REMARK H PARENT 8 15 75 45 45 56
REMARK Flexibility Score: inf
ROOT
ATOM      1  C   UNL A   1      35.276  31.972  28.445  1.00  0.00     0.275 C 
ENDROOT
BRANCH   1   2
ATOM      2  O   UNL A   1      34.812  30.732  27.873  1.00  0.00    -0.458 OA
BRANCH   2   3
ATOM      3  C   UNL A   1      33.537  30.730  27.413  1.00  0.00     0.338 C 
ATOM      4  O   UNL A   1      32.824  31.709  27.245  1.00  0.00    -0.246 OA
BRANCH   3   5
ATOM      5  C   UNL A   1      33.127  29.358  27.029  1.00  0.00     0.060 A 
ATOM      6  C   UNL A   1      32.443  26.717  26.315  1.00  0.00    -0.029 A 
ATOM      7  C   UNL A   1      33.747  27.190  26.122  1.00  0.00     0.006 A 
ATOM      8  C   UNL A   1      31.490  27.585  26.878  1.00  0.00     0.006 A 
ATOM      9  C   UNL A   1      34.075  28.508  26.445  1.00  0.00     0.016 A 
ATOM     10  C   UNL A   1      31.826  28.894  27.236  1.00  0.00     0.016 A 
BRANCH   6  11
ATOM     11  C   UNL A   1      32.102  25.286  25.957  1.00  0.00     0.152 C 
BRANCH  11  12
ATOM     12  N   UNL A   1      32.421  24.990  24.575  1.00  0.00    -0.348 N 
ATOM     13  C   UNL A   1      31.880  25.346  23.386  1.00  0.00     0.251 C 
ATOM     14  O   UNL A   1      32.364  24.806  22.384  1.00  0.00    -0.269 OA
ATOM     15  H   UNL A   1      33.205  24.402  24.480  1.00  0.00     0.164 HD
BRANCH  13  16
ATOM     16  C   UNL A   1      30.812  26.388  23.213  1.00  0.00     0.046 A 
ATOM     17  C   UNL A   1      27.493  29.040  22.947  1.00  0.00     0.153 C 
ATOM     18  N   UNL A   1      28.642  28.156  23.048  1.00  0.00    -0.319 N 
ATOM     19  C   UNL A   1      28.529  27.004  23.796  1.00  0.00     0.089 A 
ATOM     20  C   UNL A   1      29.827  28.501  22.406  1.00  0.00     0.251 A 
ATOM     21  C   UNL A   1      29.544  26.141  23.890  1.00  0.00     0.032 A 
ATOM     22  C   UNL A   1      30.961  27.548  22.557  1.00  0.00     0.085 A 
ATOM     23  O   UNL A   1      29.993  29.516  21.736  1.00  0.00    -0.269 OA
ENDBRANCH  13  16
ENDBRANCH  11  12
ENDBRANCH   6  11
ENDBRANCH   3   5
ENDBRANCH   2   3
ENDBRANCH   1   2
BRANCH   1  24
ATOM     24  C   UNL A   1      35.189  31.928  29.970  1.00  0.00     0.275 C 
BRANCH  24  25
ATOM     25  O   UNL A   1      36.502  31.737  30.525  1.00  0.00    -0.458 OA
BRANCH  25  26
ATOM     26  C   UNL A   1      36.899  30.457  30.684  1.00  0.00     0.338 C 
ATOM     27  O   UNL A   1      36.254  29.530  31.158  1.00  0.00    -0.246 OA
BRANCH  26  28
ATOM     28  C   UNL A   1      38.273  30.301  30.181  1.00  0.00     0.060 A 
ATOM     29  C   UNL A   1      38.514  30.398  28.813  1.00  0.00     0.016 A 
ATOM     30  C   UNL A   1      39.304  29.946  31.048  1.00  0.00     0.016 A 
ATOM     31  C   UNL A   1      39.763  30.061  28.294  1.00  0.00     0.010 A 
ATOM     32  C   UNL A   1      40.583  29.699  30.535  1.00  0.00     0.010 A 
ATOM     33  C   UNL A   1      40.821  29.718  29.146  1.00  0.00    -0.014 A 
BRANCH  33  34
ATOM     34  C   UNL A   1      42.157  29.340  28.593  1.00  0.00     0.031 A 
ATOM     35  C   UNL A   1      42.393  27.945  28.066  1.00  0.00     0.074 A 
ATOM     36  C   UNL A   1      43.165  30.237  28.557  1.00  0.00     0.049 A 
ATOM     37  N   UNL A   1      43.519  27.373  27.717  1.00  0.00    -0.248 NA
ATOM     38  C   UNL A   1      41.215  27.073  27.929  1.00  0.00     0.031 C 
ATOM     39  C   UNL A   1      43.083  31.632  28.996  1.00  0.00     0.029 A 
ATOM     40  N   UNL A   1      44.465  30.107  28.125  1.00  0.00    -0.354 N 
ATOM     41  C   UNL A   1      43.195  26.062  27.387  1.00  0.00     0.074 A 
ATOM     42  C   UNL A   1      41.767  25.922  27.568  1.00  0.00     0.031 C 
ATOM     43  C   UNL A   1      44.263  32.234  28.783  1.00  0.00     0.029 A 
ATOM     44  C   UNL A   1      45.214  31.252  28.273  1.00  0.00     0.049 A 
ATOM     45  H   UNL A   1      44.825  29.273  27.745  1.00  0.00     0.167 HD
ATOM     46  C   UNL A   1      44.014  25.062  26.977  1.00  0.00     0.031 A 
ATOM     47  C   UNL A   1      46.525  31.484  28.072  1.00  0.00     0.031 A 
ATOM     48  C   UNL A   1      45.425  25.215  26.735  1.00  0.00     0.049 A 
ATOM     49  C   UNL A   1      47.413  30.360  27.616  1.00  0.00     0.074 A 
ATOM     50  C   UNL A   1      46.326  24.265  26.286  1.00  0.00     0.029 A 
ATOM     51  N   UNL A   1      46.136  26.393  26.904  1.00  0.00    -0.354 N 
ATOM     52  N   UNL A   1      47.093  29.117  27.348  1.00  0.00    -0.248 NA
ATOM     53  C   UNL A   1      48.842  30.665  27.453  1.00  0.00     0.031 C 
ATOM     54  C   UNL A   1      47.591  24.859  26.218  1.00  0.00     0.029 A 
ATOM     55  C   UNL A   1      47.467  26.189  26.581  1.00  0.00     0.049 A 
ATOM     56  H   UNL A   1      45.752  27.246  27.208  1.00  0.00     0.167 HD
ATOM     57  C   UNL A   1      48.279  28.494  26.979  1.00  0.00     0.074 A 
ATOM     58  C   UNL A   1      49.318  29.501  27.034  1.00  0.00     0.031 C 
ATOM     59  C   UNL A   1      48.490  27.200  26.637  1.00  0.00     0.031 A 
BRANCH  46  60
ATOM     60  C   UNL A   1      43.418  23.691  26.794  1.00  0.00    -0.014 A 
ATOM     61  C   UNL A   1      43.208  23.142  25.518  1.00  0.00     0.010 A 
ATOM     62  C   UNL A   1      43.137  22.910  27.931  1.00  0.00     0.010 A 
ATOM     63  C   UNL A   1      42.704  21.844  25.383  1.00  0.00     0.020 A 
ATOM     64  C   UNL A   1      42.655  21.605  27.800  1.00  0.00     0.020 A 
ATOM     65  C   UNL A   1      42.431  21.084  26.525  1.00  0.00     0.054 A 
BRANCH  65  66
ATOM     66  S   UNL A   1      41.825  19.386  26.322  1.00  0.00     0.124 S 
ATOM     67  O   UNL A   1      42.152  18.793  27.617  1.00  0.00    -0.237 OA
ATOM     68  O   UNL A   1      40.400  19.581  26.065  1.00  0.00    -0.237 OA
ATOM     69  O   UNL A   1      42.594  18.875  25.191  1.00  0.00    -0.744 OA
ENDBRANCH  65  66
ENDBRANCH  46  60
BRANCH  47  70
ATOM     70  C   UNL A   1      47.097  32.827  28.371  1.00  0.00    -0.014 A 
ATOM     71  C   UNL A   1      47.148  33.826  27.384  1.00  0.00     0.010 A 
ATOM     72  C   UNL A   1      47.594  33.110  29.657  1.00  0.00     0.010 A 
ATOM     73  C   UNL A   1      47.700  35.078  27.673  1.00  0.00     0.020 A 
ATOM     74  C   UNL A   1      48.118  34.368  29.958  1.00  0.00     0.020 A 
ATOM     75  C   UNL A   1      48.183  35.341  28.958  1.00  0.00     0.054 A 
BRANCH  75  76
ATOM     76  S   UNL A   1      48.851  36.986  29.334  1.00  0.00     0.124 S 
ATOM     77  O   UNL A   1      48.108  37.346  30.537  1.00  0.00    -0.237 OA
ATOM     78  O   UNL A   1      50.274  36.719  29.525  1.00  0.00    -0.237 OA
ATOM     79  O   UNL A   1      48.526  37.763  28.140  1.00  0.00    -0.744 OA
ENDBRANCH  75  76
ENDBRANCH  47  70
BRANCH  59  80
ATOM     80  C   UNL A   1      49.893  26.803  26.269  1.00  0.00    -0.014 A 
ATOM     81  C   UNL A   1      50.366  26.956  24.954  1.00  0.00     0.010 A 
ATOM     82  C   UNL A   1      50.760  26.314  27.262  1.00  0.00     0.010 A 
ATOM     83  C   UNL A   1      51.678  26.599  24.632  1.00  0.00     0.020 A 
ATOM     84  C   UNL A   1      52.079  25.977  26.948  1.00  0.00     0.020 A 
ATOM     85  C   UNL A   1      52.526  26.108  25.630  1.00  0.00     0.054 A 
BRANCH  85  86
ATOM     86  S   UNL A   1      54.238  25.690  25.200  1.00  0.00     0.124 S 
ATOM     87  O   UNL A   1      54.997  26.567  26.087  1.00  0.00    -0.237 OA
ATOM     88  O   UNL A   1      54.312  24.264  25.514  1.00  0.00    -0.237 OA
ATOM     89  O   UNL A   1      54.325  26.012  23.777  1.00  0.00    -0.744 OA
ENDBRANCH  85  86
ENDBRANCH  59  80
ENDBRANCH  33  34
ENDBRANCH  26  28
ENDBRANCH  25  26
ENDBRANCH  24  25
ENDBRANCH   1  24
TORSDOF 17
ENDMDL
