MODEL 1
REMARK VINA RESULT:     -12.1      0.000      0.000
REMARK SMILES O=C(OCCOC(=O)[C@H]1CC=CC[C@@H]1C(=O)N[C@@H]1CCCN(c2ccccc2F)C1=O)c1ccc(-c2c3nc(c(-c4ccc(S(=O)(=O)[O-])cc4)c4ccc([nH]4)c(-c4ccc(S(=O)(=O)[O-])cc4)c4nc(c(-c5ccc(S(=O)(=O)[O-])cc5)c5ccc2[nH]5)C=C4)C=C3)cc1
REMARK SMILES IDX 4 1 3 2 2 3 1 4 32 5 33 6 91 7 34 8 90 9 35 10 36 11 37 12
REMARK SMILES IDX 84 13 38 14 89 15 83 16 85 17 39 18 88 19 82 20 81 21 40 23
REMARK SMILES IDX 70 24 51 25 69 26 52 27 55 28 68 29 86 30 53 31 54 32 67 34
REMARK SMILES IDX 87 35 56 36 41 37 42 38 50 39 43 40 49 41 44 42 45 43 46 44
REMARK SMILES IDX 47 45 48 46 71 47 72 48 80 49 73 50 79 51 74 52 75 53 76 54
REMARK SMILES IDX 77 55 78 56 57 57 58 58 66 59 59 60 65 61 60 62 61 63 62 64
REMARK SMILES IDX 63 65 64 66 5 67 6 68 7 69 8 70 9 71 10 72 14 73 11 74 13 75
REMARK SMILES IDX 12 76 15 77 16 78 17 79 18 81 19 82 30 83 20 84 22 85 31 86
REMARK SMILES IDX 21 87 23 88 24 89 28 90 25 91 27 92 29 93 26 94
REMARK H PARENT 85 22 55 33 17 80
REMARK Flexibility Score: inf
ROOT
ATOM      1  C   UNL A   1      32.253  29.520  26.989  1.00  0.00     0.275 C 
ENDROOT
BRANCH   1   2
ATOM      2  O   UNL A   1      33.673  29.708  27.055  1.00  0.00    -0.458 OA
BRANCH   2   3
ATOM      3  C   UNL A   1      34.396  30.437  27.933  1.00  0.00     0.338 C 
ATOM      4  O   UNL A   1      33.967  31.538  28.279  1.00  0.00    -0.246 OA
BRANCH   3   5
ATOM      5  C   UNL A   1      35.771  30.047  28.379  1.00  0.00     0.060 A 
ATOM      6  C   UNL A   1      36.160  29.576  29.637  1.00  0.00     0.016 A 
ATOM      7  C   UNL A   1      36.756  30.129  27.389  1.00  0.00     0.016 A 
ATOM      8  C   UNL A   1      37.470  29.142  29.874  1.00  0.00     0.010 A 
ATOM      9  C   UNL A   1      38.023  29.595  27.591  1.00  0.00     0.010 A 
ATOM     10  C   UNL A   1      38.412  29.170  28.851  1.00  0.00    -0.014 A 
BRANCH  10  11
ATOM     11  C   UNL A   1      39.850  28.989  29.123  1.00  0.00     0.031 A 
ATOM     12  C   UNL A   1      40.467  27.659  28.773  1.00  0.00     0.074 A 
ATOM     13  C   UNL A   1      40.577  29.991  29.645  1.00  0.00     0.049 A 
ATOM     14  N   UNL A   1      41.730  27.336  28.691  1.00  0.00    -0.248 NA
ATOM     15  C   UNL A   1      39.547  26.546  28.469  1.00  0.00     0.031 C 
ATOM     16  C   UNL A   1      40.046  31.278  30.097  1.00  0.00     0.029 A 
ATOM     17  N   UNL A   1      41.925  30.087  29.865  1.00  0.00    -0.354 N 
ATOM     18  C   UNL A   1      41.746  25.998  28.310  1.00  0.00     0.074 A 
ATOM     19  C   UNL A   1      40.380  25.546  28.249  1.00  0.00     0.031 C 
ATOM     20  C   UNL A   1      41.069  32.057  30.491  1.00  0.00     0.029 A 
ATOM     21  C   UNL A   1      42.319  31.321  30.324  1.00  0.00     0.049 A 
ATOM     22  H   UNL A   1      42.552  29.344  29.710  1.00  0.00     0.167 HD
ATOM     23  C   UNL A   1      42.808  25.221  28.004  1.00  0.00     0.031 A 
ATOM     24  C   UNL A   1      43.559  31.801  30.543  1.00  0.00     0.031 A 
ATOM     25  C   UNL A   1      44.162  25.674  28.124  1.00  0.00     0.049 A 
ATOM     26  C   UNL A   1      44.732  30.911  30.216  1.00  0.00     0.074 A 
ATOM     27  C   UNL A   1      45.330  25.001  27.829  1.00  0.00     0.029 A 
ATOM     28  N   UNL A   1      44.519  26.925  28.608  1.00  0.00    -0.354 N 
ATOM     29  N   UNL A   1      44.736  29.693  29.722  1.00  0.00    -0.248 NA
ATOM     30  C   UNL A   1      46.070  31.473  30.441  1.00  0.00     0.031 C 
ATOM     31  C   UNL A   1      46.399  25.828  28.192  1.00  0.00     0.029 A 
ATOM     32  C   UNL A   1      45.893  27.039  28.643  1.00  0.00     0.049 A 
ATOM     33  H   UNL A   1      43.886  27.627  28.886  1.00  0.00     0.167 HD
ATOM     34  C   UNL A   1      46.074  29.358  29.544  1.00  0.00     0.074 A 
ATOM     35  C   UNL A   1      46.847  30.509  29.968  1.00  0.00     0.031 C 
ATOM     36  C   UNL A   1      46.620  28.210  29.067  1.00  0.00     0.031 A 
BRANCH  23  37
ATOM     37  C   UNL A   1      42.518  23.818  27.545  1.00  0.00    -0.014 A 
ATOM     38  C   UNL A   1      42.323  22.777  28.476  1.00  0.00     0.010 A 
ATOM     39  C   UNL A   1      42.481  23.521  26.172  1.00  0.00     0.010 A 
ATOM     40  C   UNL A   1      42.160  21.459  28.043  1.00  0.00     0.020 A 
ATOM     41  C   UNL A   1      42.287  22.208  25.735  1.00  0.00     0.020 A 
ATOM     42  C   UNL A   1      42.153  21.182  26.673  1.00  0.00     0.054 A 
BRANCH  42  43
ATOM     43  S   UNL A   1      41.968  19.461  26.136  1.00  0.00     0.124 S 
ATOM     44  O   UNL A   1      40.527  19.378  25.898  1.00  0.00    -0.237 OA
ATOM     45  O   UNL A   1      42.807  19.403  24.942  1.00  0.00    -0.237 OA
ATOM     46  O   UNL A   1      42.454  18.688  27.274  1.00  0.00    -0.744 OA
ENDBRANCH  42  43
ENDBRANCH  23  37
BRANCH  24  47
ATOM     47  C   UNL A   1      43.756  33.197  31.030  1.00  0.00    -0.014 A 
ATOM     48  C   UNL A   1      43.833  33.472  32.408  1.00  0.00     0.010 A 
ATOM     49  C   UNL A   1      43.862  34.263  30.119  1.00  0.00     0.010 A 
ATOM     50  C   UNL A   1      43.975  34.787  32.866  1.00  0.00     0.020 A 
ATOM     51  C   UNL A   1      44.032  35.577  30.571  1.00  0.00     0.020 A 
ATOM     52  C   UNL A   1      44.072  35.832  31.944  1.00  0.00     0.054 A 
BRANCH  52  53
ATOM     53  S   UNL A   1      44.277  37.527  32.561  1.00  0.00     0.124 S 
ATOM     54  O   UNL A   1      45.657  37.512  33.039  1.00  0.00    -0.237 OA
ATOM     55  O   UNL A   1      44.032  38.329  31.366  1.00  0.00    -0.237 OA
ATOM     56  O   UNL A   1      43.257  37.641  33.601  1.00  0.00    -0.744 OA
ENDBRANCH  52  53
ENDBRANCH  24  47
BRANCH  36  57
ATOM     57  C   UNL A   1      48.117  28.164  28.933  1.00  0.00    -0.014 A 
ATOM     58  C   UNL A   1      48.932  27.677  29.969  1.00  0.00     0.010 A 
ATOM     59  C   UNL A   1      48.706  28.548  27.714  1.00  0.00     0.010 A 
ATOM     60  C   UNL A   1      50.316  27.611  29.800  1.00  0.00     0.020 A 
ATOM     61  C   UNL A   1      50.084  28.448  27.529  1.00  0.00     0.020 A 
ATOM     62  C   UNL A   1      50.883  27.997  28.580  1.00  0.00     0.054 A 
BRANCH  62  63
ATOM     63  S   UNL A   1      52.676  27.860  28.371  1.00  0.00     0.124 S 
ATOM     64  O   UNL A   1      53.096  29.258  28.424  1.00  0.00    -0.237 OA
ATOM     65  O   UNL A   1      53.072  27.040  29.513  1.00  0.00    -0.237 OA
ATOM     66  O   UNL A   1      52.826  27.214  27.068  1.00  0.00    -0.744 OA
ENDBRANCH  62  63
ENDBRANCH  36  57
ENDBRANCH  10  11
ENDBRANCH   3   5
ENDBRANCH   2   3
ENDBRANCH   1   2
BRANCH   1  67
ATOM     67  C   UNL A   1      31.725  28.198  27.557  1.00  0.00     0.274 C 
BRANCH  67  68
ATOM     68  O   UNL A   1      31.178  27.283  26.593  1.00  0.00    -0.462 OA
BRANCH  68  69
ATOM     69  C   UNL A   1      32.099  26.602  25.844  1.00  0.00     0.310 C 
ATOM     70  O   UNL A   1      33.217  26.323  26.246  1.00  0.00    -0.252 OA
BRANCH  69  71
ATOM     71  C   UNL A   1      31.565  26.276  24.447  1.00  0.00     0.115 C 
ATOM     72  C   UNL A   1      30.559  27.364  24.042  1.00  0.00     0.043 C 
ATOM     73  C   UNL A   1      32.720  26.137  23.417  1.00  0.00     0.097 C 
ATOM     74  C   UNL A   1      31.215  28.618  23.541  1.00  0.00    -0.030 C 
ATOM     75  C   UNL A   1      33.395  27.473  23.097  1.00  0.00     0.041 C 
ATOM     76  C   UNL A   1      32.493  28.666  23.140  1.00  0.00    -0.030 C 
BRANCH  73  77
ATOM     77  C   UNL A   1      32.260  25.386  22.160  1.00  0.00     0.224 C 
ATOM     78  O   UNL A   1      31.733  25.976  21.214  1.00  0.00    -0.275 OA
ATOM     79  N   UNL A   1      32.406  24.035  22.037  1.00  0.00    -0.344 N 
ATOM     80  H   UNL A   1      32.191  23.691  21.140  1.00  0.00     0.164 HD
BRANCH  79  81
ATOM     81  C   UNL A   1      32.822  22.996  22.990  1.00  0.00     0.172 C 
ATOM     82  C   UNL A   1      31.839  22.914  24.149  1.00  0.00     0.037 C 
ATOM     83  C   UNL A   1      34.260  23.269  23.507  1.00  0.00     0.249 C 
ATOM     84  C   UNL A   1      32.304  21.828  25.104  1.00  0.00     0.025 C 
ATOM     85  N   UNL A   1      34.636  22.660  24.708  1.00  0.00    -0.308 N 
ATOM     86  O   UNL A   1      35.058  23.851  22.774  1.00  0.00    -0.272 OA
ATOM     87  C   UNL A   1      33.660  22.189  25.692  1.00  0.00     0.126 C 
BRANCH  85  88
ATOM     88  C   UNL A   1      36.012  22.723  25.127  1.00  0.00     0.080 A 
ATOM     89  C   UNL A   1      36.521  23.916  25.661  1.00  0.00     0.029 A 
ATOM     90  C   UNL A   1      36.859  21.600  25.099  1.00  0.00     0.146 A 
ATOM     91  C   UNL A   1      37.811  23.955  26.209  1.00  0.00     0.002 A 
ATOM     92  C   UNL A   1      38.139  21.637  25.648  1.00  0.00     0.041 A 
ATOM     93  F   UNL A   1      36.481  20.480  24.463  1.00  0.00    -0.205 F 
ATOM     94  C   UNL A   1      38.612  22.814  26.221  1.00  0.00     0.003 A 
ENDBRANCH  85  88
ENDBRANCH  79  81
ENDBRANCH  73  77
ENDBRANCH  69  71
ENDBRANCH  68  69
ENDBRANCH  67  68
ENDBRANCH   1  67
TORSDOF 17
ENDMDL
MODEL 2
REMARK VINA RESULT:     -11.7      1.992      8.295
REMARK SMILES O=C(OCCOC(=O)[C@H]1CC=CC[C@@H]1C(=O)N[C@@H]1CCCN(c2ccccc2F)C1=O)c1ccc(-c2c3nc(c(-c4ccc(S(=O)(=O)[O-])cc4)c4ccc([nH]4)c(-c4ccc(S(=O)(=O)[O-])cc4)c4nc(c(-c5ccc(S(=O)(=O)[O-])cc5)c5ccc2[nH]5)C=C4)C=C3)cc1
REMARK SMILES IDX 4 1 3 2 2 3 1 4 32 5 33 6 91 7 34 8 90 9 35 10 36 11 37 12
REMARK SMILES IDX 84 13 38 14 89 15 83 16 85 17 39 18 88 19 82 20 81 21 40 23
REMARK SMILES IDX 70 24 51 25 69 26 52 27 55 28 68 29 86 30 53 31 54 32 67 34
REMARK SMILES IDX 87 35 56 36 41 37 42 38 50 39 43 40 49 41 44 42 45 43 46 44
REMARK SMILES IDX 47 45 48 46 71 47 72 48 80 49 73 50 79 51 74 52 75 53 76 54
REMARK SMILES IDX 77 55 78 56 57 57 58 58 66 59 59 60 65 61 60 62 61 63 62 64
REMARK SMILES IDX 63 65 64 66 5 67 6 68 7 69 8 70 9 71 10 72 14 73 11 74 13 75
REMARK SMILES IDX 12 76 15 77 16 78 17 79 18 81 19 82 30 83 20 84 22 85 31 86
REMARK SMILES IDX 21 87 23 88 24 89 28 90 25 91 27 92 29 93 26 94
REMARK H PARENT 85 22 55 33 17 80
REMARK Flexibility Score: inf
ROOT
ATOM      1  C   UNL A   1      32.224  30.084  27.016  1.00  0.00     0.275 C 
ENDROOT
BRANCH   1   2
ATOM      2  O   UNL A   1      33.641  30.293  26.938  1.00  0.00    -0.458 OA
BRANCH   2   3
ATOM      3  C   UNL A   1      34.460  30.916  27.814  1.00  0.00     0.338 C 
ATOM      4  O   UNL A   1      34.194  32.070  28.150  1.00  0.00    -0.246 OA
BRANCH   3   5
ATOM      5  C   UNL A   1      35.762  30.335  28.267  1.00  0.00     0.060 A 
ATOM      6  C   UNL A   1      36.035  29.695  29.481  1.00  0.00     0.016 A 
ATOM      7  C   UNL A   1      36.799  30.413  27.333  1.00  0.00     0.016 A 
ATOM      8  C   UNL A   1      37.279  29.098  29.720  1.00  0.00     0.010 A 
ATOM      9  C   UNL A   1      37.992  29.727  27.524  1.00  0.00     0.010 A 
ATOM     10  C   UNL A   1      38.271  29.132  28.744  1.00  0.00    -0.014 A 
BRANCH  10  11
ATOM     11  C   UNL A   1      39.667  28.767  29.050  1.00  0.00     0.031 A 
ATOM     12  C   UNL A   1      40.487  29.745  29.851  1.00  0.00     0.074 A 
ATOM     13  C   UNL A   1      40.169  27.591  28.640  1.00  0.00     0.049 A 
ATOM     14  N   UNL A   1      41.636  29.561  30.444  1.00  0.00    -0.248 NA
ATOM     15  C   UNL A   1      39.944  31.107  30.015  1.00  0.00     0.031 C 
ATOM     16  C   UNL A   1      39.478  26.624  27.784  1.00  0.00     0.029 A 
ATOM     17  N   UNL A   1      41.376  27.001  28.906  1.00  0.00    -0.354 N 
ATOM     18  C   UNL A   1      41.933  30.772  31.059  1.00  0.00     0.074 A 
ATOM     19  C   UNL A   1      40.893  31.705  30.711  1.00  0.00     0.031 C 
ATOM     20  C   UNL A   1      40.254  25.535  27.642  1.00  0.00     0.029 A 
ATOM     21  C   UNL A   1      41.493  25.733  28.389  1.00  0.00     0.049 A 
ATOM     22  H   UNL A   1      42.091  27.442  29.419  1.00  0.00     0.167 HD
ATOM     23  C   UNL A   1      42.969  31.073  31.874  1.00  0.00     0.031 A 
ATOM     24  C   UNL A   1      42.481  24.831  28.542  1.00  0.00     0.031 A 
ATOM     25  C   UNL A   1      44.022  30.147  32.164  1.00  0.00     0.049 A 
ATOM     26  C   UNL A   1      43.640  25.191  29.438  1.00  0.00     0.074 A 
ATOM     27  C   UNL A   1      45.119  30.311  32.987  1.00  0.00     0.029 A 
ATOM     28  N   UNL A   1      44.113  28.879  31.607  1.00  0.00    -0.354 N 
ATOM     29  N   UNL A   1      43.843  26.292  30.128  1.00  0.00    -0.248 NA
ATOM     30  C   UNL A   1      44.687  24.176  29.605  1.00  0.00     0.031 C 
ATOM     31  C   UNL A   1      45.906  29.159  32.879  1.00  0.00     0.029 A 
ATOM     32  C   UNL A   1      45.261  28.253  32.048  1.00  0.00     0.049 A 
ATOM     33  H   UNL A   1      43.456  28.483  30.988  1.00  0.00     0.167 HD
ATOM     34  C   UNL A   1      45.019  26.085  30.839  1.00  0.00     0.074 A 
ATOM     35  C   UNL A   1      45.473  24.749  30.506  1.00  0.00     0.031 C 
ATOM     36  C   UNL A   1      45.668  26.916  31.695  1.00  0.00     0.031 A 
BRANCH  23  37
ATOM     37  C   UNL A   1      42.995  32.458  32.462  1.00  0.00    -0.014 A 
ATOM     38  C   UNL A   1      43.638  33.517  31.791  1.00  0.00     0.010 A 
ATOM     39  C   UNL A   1      42.413  32.699  33.718  1.00  0.00     0.010 A 
ATOM     40  C   UNL A   1      43.751  34.773  32.391  1.00  0.00     0.020 A 
ATOM     41  C   UNL A   1      42.497  33.963  34.308  1.00  0.00     0.020 A 
ATOM     42  C   UNL A   1      43.187  34.985  33.652  1.00  0.00     0.054 A 
BRANCH  42  43
ATOM     43  S   UNL A   1      43.370  36.615  34.423  1.00  0.00     0.124 S 
ATOM     44  O   UNL A   1      42.115  36.735  35.164  1.00  0.00    -0.237 OA
ATOM     45  O   UNL A   1      44.570  36.452  35.241  1.00  0.00    -0.237 OA
ATOM     46  O   UNL A   1      43.511  37.522  33.289  1.00  0.00    -0.744 OA
ENDBRANCH  42  43
ENDBRANCH  23  37
BRANCH  24  47
ATOM     47  C   UNL A   1      42.390  23.489  27.897  1.00  0.00    -0.014 A 
ATOM     48  C   UNL A   1      41.681  22.442  28.516  1.00  0.00     0.010 A 
ATOM     49  C   UNL A   1      43.016  23.245  26.661  1.00  0.00     0.010 A 
ATOM     50  C   UNL A   1      41.632  21.171  27.931  1.00  0.00     0.020 A 
ATOM     51  C   UNL A   1      42.946  21.984  26.059  1.00  0.00     0.020 A 
ATOM     52  C   UNL A   1      42.267  20.950  26.707  1.00  0.00     0.054 A 
BRANCH  52  53
ATOM     53  S   UNL A   1      42.170  19.299  25.958  1.00  0.00     0.124 S 
ATOM     54  O   UNL A   1      43.008  19.451  24.773  1.00  0.00    -0.237 OA
ATOM     55  O   UNL A   1      42.715  18.444  27.011  1.00  0.00    -0.237 OA
ATOM     56  O   UNL A   1      40.744  19.121  25.697  1.00  0.00    -0.744 OA
ENDBRANCH  52  53
ENDBRANCH  24  47
BRANCH  36  57
ATOM     57  C   UNL A   1      46.904  26.384  32.366  1.00  0.00    -0.014 A 
ATOM     58  C   UNL A   1      46.832  25.651  33.562  1.00  0.00     0.010 A 
ATOM     59  C   UNL A   1      48.152  26.564  31.739  1.00  0.00     0.010 A 
ATOM     60  C   UNL A   1      47.994  25.137  34.141  1.00  0.00     0.020 A 
ATOM     61  C   UNL A   1      49.310  26.020  32.295  1.00  0.00     0.020 A 
ATOM     62  C   UNL A   1      49.226  25.325  33.502  1.00  0.00     0.054 A 
BRANCH  62  63
ATOM     63  S   UNL A   1      50.713  24.611  34.250  1.00  0.00     0.124 S 
ATOM     64  O   UNL A   1      51.650  24.620  33.130  1.00  0.00    -0.237 OA
ATOM     65  O   UNL A   1      51.013  25.549  35.329  1.00  0.00    -0.237 OA
ATOM     66  O   UNL A   1      50.279  23.287  34.689  1.00  0.00    -0.744 OA
ENDBRANCH  62  63
ENDBRANCH  36  57
ENDBRANCH  10  11
ENDBRANCH   3   5
ENDBRANCH   2   3
ENDBRANCH   1   2
BRANCH   1  67
ATOM     67  C   UNL A   1      31.774  28.653  27.327  1.00  0.00     0.274 C 
BRANCH  67  68
ATOM     68  O   UNL A   1      31.204  27.928  26.224  1.00  0.00    -0.462 OA
BRANCH  68  69
ATOM     69  C   UNL A   1      32.025  26.995  25.650  1.00  0.00     0.310 C 
ATOM     70  O   UNL A   1      33.031  26.564  26.188  1.00  0.00    -0.252 OA
BRANCH  69  71
ATOM     71  C   UNL A   1      31.545  26.602  24.251  1.00  0.00     0.115 C 
ATOM     72  C   UNL A   1      30.740  27.771  23.663  1.00  0.00     0.043 C 
ATOM     73  C   UNL A   1      32.733  26.194  23.337  1.00  0.00     0.097 C 
ATOM     74  C   UNL A   1      31.607  28.860  23.100  1.00  0.00    -0.030 C 
ATOM     75  C   UNL A   1      33.619  27.380  22.948  1.00  0.00     0.041 C 
ATOM     76  C   UNL A   1      32.902  28.686  22.803  1.00  0.00    -0.030 C 
BRANCH  73  77
ATOM     77  C   UNL A   1      32.253  25.386  22.124  1.00  0.00     0.224 C 
ATOM     78  O   UNL A   1      31.763  25.937  21.136  1.00  0.00    -0.275 OA
ATOM     79  N   UNL A   1      32.339  24.025  22.088  1.00  0.00    -0.344 N 
ATOM     80  H   UNL A   1      32.118  23.634  21.212  1.00  0.00     0.164 HD
BRANCH  79  81
ATOM     81  C   UNL A   1      32.697  23.031  23.110  1.00  0.00     0.172 C 
ATOM     82  C   UNL A   1      31.780  23.156  24.318  1.00  0.00     0.037 C 
ATOM     83  C   UNL A   1      34.183  23.186  23.531  1.00  0.00     0.249 C 
ATOM     84  C   UNL A   1      32.181  22.110  25.344  1.00  0.00     0.025 C 
ATOM     85  N   UNL A   1      34.562  22.643  24.762  1.00  0.00    -0.308 N 
ATOM     86  O   UNL A   1      34.994  23.613  22.710  1.00  0.00    -0.272 OA
ATOM     87  C   UNL A   1      33.600  22.368  25.830  1.00  0.00     0.126 C 
BRANCH  85  88
ATOM     88  C   UNL A   1      35.958  22.589  25.107  1.00  0.00     0.080 A 
ATOM     89  C   UNL A   1      36.608  23.749  25.555  1.00  0.00     0.029 A 
ATOM     90  C   UNL A   1      36.692  21.389  25.090  1.00  0.00     0.146 A 
ATOM     91  C   UNL A   1      37.924  23.686  26.034  1.00  0.00     0.002 A 
ATOM     92  C   UNL A   1      37.998  21.324  25.571  1.00  0.00     0.041 A 
ATOM     93  F   UNL A   1      36.173  20.284  24.529  1.00  0.00    -0.205 F 
ATOM     94  C   UNL A   1      38.612  22.473  26.061  1.00  0.00     0.003 A 
ENDBRANCH  85  88
ENDBRANCH  79  81
ENDBRANCH  73  77
ENDBRANCH  69  71
ENDBRANCH  68  69
ENDBRANCH  67  68
ENDBRANCH   1  67
TORSDOF 17
ENDMDL
MODEL 3
REMARK VINA RESULT:     -11.7      2.787      7.905
REMARK SMILES O=C(OCCOC(=O)[C@H]1CC=CC[C@@H]1C(=O)N[C@@H]1CCCN(c2ccccc2F)C1=O)c1ccc(-c2c3nc(c(-c4ccc(S(=O)(=O)[O-])cc4)c4ccc([nH]4)c(-c4ccc(S(=O)(=O)[O-])cc4)c4nc(c(-c5ccc(S(=O)(=O)[O-])cc5)c5ccc2[nH]5)C=C4)C=C3)cc1
REMARK SMILES IDX 4 1 3 2 2 3 1 4 32 5 33 6 91 7 34 8 90 9 35 10 36 11 37 12
REMARK SMILES IDX 84 13 38 14 89 15 83 16 85 17 39 18 88 19 82 20 81 21 40 23
REMARK SMILES IDX 70 24 51 25 69 26 52 27 55 28 68 29 86 30 53 31 54 32 67 34
REMARK SMILES IDX 87 35 56 36 41 37 42 38 50 39 43 40 49 41 44 42 45 43 46 44
REMARK SMILES IDX 47 45 48 46 71 47 72 48 80 49 73 50 79 51 74 52 75 53 76 54
REMARK SMILES IDX 77 55 78 56 57 57 58 58 66 59 59 60 65 61 60 62 61 63 62 64
REMARK SMILES IDX 63 65 64 66 5 67 6 68 7 69 8 70 9 71 10 72 14 73 11 74 13 75
REMARK SMILES IDX 12 76 15 77 16 78 17 79 18 81 19 82 30 83 20 84 22 85 31 86
REMARK SMILES IDX 21 87 23 88 24 89 28 90 25 91 27 92 29 93 26 94
REMARK H PARENT 85 22 55 33 17 80
REMARK Flexibility Score: inf
ROOT
ATOM      1  C   UNL A   1      37.313  21.740  24.736  1.00  0.00     0.275 C 
ENDROOT
BRANCH   1   2
ATOM      2  O   UNL A   1      37.807  22.436  25.889  1.00  0.00    -0.458 OA
BRANCH   2   3
ATOM      3  C   UNL A   1      39.083  22.725  26.228  1.00  0.00     0.338 C 
ATOM      4  O   UNL A   1      39.904  21.809  26.268  1.00  0.00    -0.246 OA
BRANCH   3   5
ATOM      5  C   UNL A   1      39.511  24.074  26.717  1.00  0.00     0.060 A 
ATOM      6  C   UNL A   1      40.213  25.056  26.011  1.00  0.00     0.016 A 
ATOM      7  C   UNL A   1      39.110  24.381  28.021  1.00  0.00     0.016 A 
ATOM      8  C   UNL A   1      40.445  26.320  26.566  1.00  0.00     0.010 A 
ATOM      9  C   UNL A   1      39.241  25.667  28.529  1.00  0.00     0.010 A 
ATOM     10  C   UNL A   1      39.974  26.621  27.841  1.00  0.00    -0.014 A 
BRANCH  10  11
ATOM     11  C   UNL A   1      40.428  27.823  28.566  1.00  0.00     0.031 A 
ATOM     12  C   UNL A   1      41.875  27.887  28.981  1.00  0.00     0.074 A 
ATOM     13  C   UNL A   1      39.573  28.828  28.821  1.00  0.00     0.049 A 
ATOM     14  N   UNL A   1      42.563  28.912  29.406  1.00  0.00    -0.248 NA
ATOM     15  C   UNL A   1      42.656  26.637  28.904  1.00  0.00     0.031 C 
ATOM     16  C   UNL A   1      38.137  28.813  28.537  1.00  0.00     0.029 A 
ATOM     17  N   UNL A   1      39.796  30.065  29.362  1.00  0.00    -0.354 N 
ATOM     18  C   UNL A   1      43.849  28.430  29.624  1.00  0.00     0.074 A 
ATOM     19  C   UNL A   1      43.835  27.015  29.360  1.00  0.00     0.031 C 
ATOM     20  C   UNL A   1      37.617  30.011  28.857  1.00  0.00     0.029 A 
ATOM     21  C   UNL A   1      38.681  30.869  29.372  1.00  0.00     0.049 A 
ATOM     22  H   UNL A   1      40.671  30.352  29.711  1.00  0.00     0.167 HD
ATOM     23  C   UNL A   1      44.958  29.116  29.981  1.00  0.00     0.031 A 
ATOM     24  C   UNL A   1      38.558  32.163  29.726  1.00  0.00     0.031 A 
ATOM     25  C   UNL A   1      44.939  30.514  30.292  1.00  0.00     0.049 A 
ATOM     26  C   UNL A   1      39.802  32.907  30.142  1.00  0.00     0.074 A 
ATOM     27  C   UNL A   1      45.989  31.338  30.647  1.00  0.00     0.029 A 
ATOM     28  N   UNL A   1      43.787  31.288  30.307  1.00  0.00    -0.354 N 
ATOM     29  N   UNL A   1      41.042  32.475  30.211  1.00  0.00    -0.248 NA
ATOM     30  C   UNL A   1      39.638  34.323  30.495  1.00  0.00     0.031 C 
ATOM     31  C   UNL A   1      45.459  32.600  30.934  1.00  0.00     0.029 A 
ATOM     32  C   UNL A   1      44.093  32.578  30.688  1.00  0.00     0.049 A 
ATOM     33  H   UNL A   1      42.884  30.965  30.079  1.00  0.00     0.167 HD
ATOM     34  C   UNL A   1      41.809  33.575  30.578  1.00  0.00     0.074 A 
ATOM     35  C   UNL A   1      40.894  34.693  30.701  1.00  0.00     0.031 C 
ATOM     36  C   UNL A   1      43.148  33.662  30.789  1.00  0.00     0.031 A 
BRANCH  23  37
ATOM     37  C   UNL A   1      46.243  28.338  30.069  1.00  0.00    -0.014 A 
ATOM     38  C   UNL A   1      47.034  28.116  28.924  1.00  0.00     0.010 A 
ATOM     39  C   UNL A   1      46.647  27.785  31.296  1.00  0.00     0.010 A 
ATOM     40  C   UNL A   1      48.169  27.305  28.993  1.00  0.00     0.020 A 
ATOM     41  C   UNL A   1      47.799  26.999  31.375  1.00  0.00     0.020 A 
ATOM     42  C   UNL A   1      48.539  26.743  30.218  1.00  0.00     0.054 A 
BRANCH  42  43
ATOM     43  S   UNL A   1      49.999  25.671  30.277  1.00  0.00     0.124 S 
ATOM     44  O   UNL A   1      49.749  24.894  31.490  1.00  0.00    -0.237 OA
ATOM     45  O   UNL A   1      49.905  24.927  29.024  1.00  0.00    -0.237 OA
ATOM     46  O   UNL A   1      51.115  26.608  30.360  1.00  0.00    -0.744 OA
ENDBRANCH  42  43
ENDBRANCH  23  37
BRANCH  24  47
ATOM     47  C   UNL A   1      37.237  32.850  29.638  1.00  0.00    -0.014 A 
ATOM     48  C   UNL A   1      36.756  33.324  28.402  1.00  0.00     0.010 A 
ATOM     49  C   UNL A   1      36.453  33.044  30.789  1.00  0.00     0.010 A 
ATOM     50  C   UNL A   1      35.537  34.007  28.327  1.00  0.00     0.020 A 
ATOM     51  C   UNL A   1      35.220  33.702  30.714  1.00  0.00     0.020 A 
ATOM     52  C   UNL A   1      34.777  34.193  29.484  1.00  0.00     0.054 A 
BRANCH  52  53
ATOM     53  S   UNL A   1      33.189  35.064  29.357  1.00  0.00     0.124 S 
ATOM     54  O   UNL A   1      33.605  36.393  28.919  1.00  0.00    -0.237 OA
ATOM     55  O   UNL A   1      32.473  34.268  28.363  1.00  0.00    -0.237 OA
ATOM     56  O   UNL A   1      32.647  34.993  30.712  1.00  0.00    -0.744 OA
ENDBRANCH  52  53
ENDBRANCH  24  47
BRANCH  36  57
ATOM     57  C   UNL A   1      43.705  35.018  31.124  1.00  0.00    -0.014 A 
ATOM     58  C   UNL A   1      43.823  35.455  32.454  1.00  0.00     0.010 A 
ATOM     59  C   UNL A   1      44.187  35.834  30.084  1.00  0.00     0.010 A 
ATOM     60  C   UNL A   1      44.380  36.704  32.735  1.00  0.00     0.020 A 
ATOM     61  C   UNL A   1      44.777  37.066  30.363  1.00  0.00     0.020 A 
ATOM     62  C   UNL A   1      44.854  37.501  31.687  1.00  0.00     0.054 A 
BRANCH  62  63
ATOM     63  S   UNL A   1      45.612  39.097  32.081  1.00  0.00     0.124 S 
ATOM     64  O   UNL A   1      46.042  38.897  33.463  1.00  0.00    -0.237 OA
ATOM     65  O   UNL A   1      46.687  39.196  31.096  1.00  0.00    -0.237 OA
ATOM     66  O   UNL A   1      44.522  40.054  31.901  1.00  0.00    -0.744 OA
ENDBRANCH  62  63
ENDBRANCH  36  57
ENDBRANCH  10  11
ENDBRANCH   3   5
ENDBRANCH   2   3
ENDBRANCH   1   2
BRANCH   1  67
ATOM     67  C   UNL A   1      36.851  22.620  23.569  1.00  0.00     0.274 C 
BRANCH  67  68
ATOM     68  O   UNL A   1      35.431  22.660  23.348  1.00  0.00    -0.462 OA
BRANCH  68  69
ATOM     69  C   UNL A   1      34.723  23.437  24.224  1.00  0.00     0.310 C 
ATOM     70  O   UNL A   1      35.193  24.413  24.786  1.00  0.00    -0.252 OA
BRANCH  69  71
ATOM     71  C   UNL A   1      33.303  22.907  24.434  1.00  0.00     0.115 C 
ATOM     72  C   UNL A   1      33.358  21.373  24.494  1.00  0.00     0.043 C 
ATOM     73  C   UNL A   1      32.651  23.517  25.704  1.00  0.00     0.097 C 
ATOM     74  C   UNL A   1      33.791  20.850  25.834  1.00  0.00    -0.030 C 
ATOM     75  C   UNL A   1      33.280  23.003  27.002  1.00  0.00     0.041 C 
ATOM     76  C   UNL A   1      33.776  21.591  26.949  1.00  0.00    -0.030 C 
BRANCH  73  77
ATOM     77  C   UNL A   1      31.124  23.361  25.679  1.00  0.00     0.224 C 
ATOM     78  O   UNL A   1      30.580  22.303  26.003  1.00  0.00    -0.275 OA
ATOM     79  N   UNL A   1      30.304  24.380  25.291  1.00  0.00    -0.344 N 
ATOM     80  H   UNL A   1      29.348  24.200  25.438  1.00  0.00     0.164 HD
BRANCH  79  81
ATOM     81  C   UNL A   1      30.578  25.694  24.692  1.00  0.00     0.172 C 
ATOM     82  C   UNL A   1      31.313  25.534  23.369  1.00  0.00     0.037 C 
ATOM     83  C   UNL A   1      31.394  26.583  25.669  1.00  0.00     0.249 C 
ATOM     84  C   UNL A   1      31.570  26.912  22.786  1.00  0.00     0.025 C 
ATOM     85  N   UNL A   1      32.101  27.658  25.120  1.00  0.00    -0.308 N 
ATOM     86  O   UNL A   1      31.253  26.424  26.881  1.00  0.00    -0.272 OA
ATOM     87  C   UNL A   1      32.479  27.712  23.708  1.00  0.00     0.126 C 
BRANCH  85  88
ATOM     88  C   UNL A   1      32.711  28.620  26.000  1.00  0.00     0.080 A 
ATOM     89  C   UNL A   1      33.862  28.270  26.721  1.00  0.00     0.029 A 
ATOM     90  C   UNL A   1      32.242  29.942  26.110  1.00  0.00     0.146 A 
ATOM     91  C   UNL A   1      34.553  29.235  27.467  1.00  0.00     0.002 A 
ATOM     92  C   UNL A   1      32.931  30.903  26.847  1.00  0.00     0.041 A 
ATOM     93  F   UNL A   1      31.064  30.292  25.568  1.00  0.00    -0.205 F 
ATOM     94  C   UNL A   1      34.101  30.553  27.515  1.00  0.00     0.003 A 
ENDBRANCH  85  88
ENDBRANCH  79  81
ENDBRANCH  73  77
ENDBRANCH  69  71
ENDBRANCH  68  69
ENDBRANCH  67  68
ENDBRANCH   1  67
TORSDOF 17
ENDMDL
