MODEL 1
REMARK VINA RESULT:     -10.1      0.000      0.000
REMARK SMILES C[N@H+]1Cc2ccccc2C[C@@H]1C(=O)NCCC(=O)NCC(=O)OCCOC(=O)c1ccc(-c2c3nc(c(-c4ccc(S(=O)(=O)[O-])cc4)c4ccc([nH]4)c(-c4ccc(S(=O)(=O)[O-])cc4)c4nc(c(-c5ccc(S(=O)(=O)[O-])cc5)c5ccc2[nH]5)C=C4)C=C3)cc1
REMARK SMILES IDX 24 1 23 2 21 3 22 4 20 5 19 6 17 7 18 8 16 10 15 11 14 12
REMARK SMILES IDX 12 13 13 14 11 16 1 17 2 18 3 19 4 21 10 22 5 23 9 24 6 25
REMARK SMILES IDX 8 26 7 27 25 28 26 29 27 30 28 31 29 32 30 33 88 34 31 35
REMARK SMILES IDX 87 36 32 37 33 38 34 39 81 40 35 41 86 42 80 43 82 44 36 45
REMARK SMILES IDX 85 46 79 47 78 48 37 50 67 51 48 52 66 53 49 54 52 55 65 56
REMARK SMILES IDX 83 57 50 58 51 59 64 61 84 62 53 63 38 64 39 65 47 66 40 67
REMARK SMILES IDX 46 68 41 69 42 70 43 71 44 72 45 73 68 74 69 75 77 76 70 77
REMARK SMILES IDX 76 78 71 79 72 80 73 81 74 82 75 83 54 84 55 85 63 86 56 87
REMARK SMILES IDX 62 88 57 89 58 90 59 91 60 92 61 93
REMARK H PARENT 19 9 14 15 2 20 82 49 52 60
REMARK Flexibility Score: inf
ROOT
ATOM      1  C   UNL A   1      42.514  21.930  26.620  1.00  0.00     0.274 C 
ENDROOT
BRANCH   1   2
ATOM      2  O   UNL A   1      42.126  20.748  25.897  1.00  0.00    -0.461 OA
BRANCH   2   3
ATOM      3  C   UNL A   1      42.280  19.568  26.563  1.00  0.00     0.325 C 
ATOM      4  O   UNL A   1      41.720  19.297  27.620  1.00  0.00    -0.250 OA
BRANCH   3   5
ATOM      5  C   UNL A   1      43.081  18.547  25.753  1.00  0.00     0.238 C 
BRANCH   5   6
ATOM      6  N   UNL A   1      44.488  18.453  26.092  1.00  0.00    -0.345 N 
ATOM      7  C   UNL A   1      45.545  18.878  25.356  1.00  0.00     0.222 C 
ATOM      8  O   UNL A   1      46.690  18.671  25.757  1.00  0.00    -0.275 OA
ATOM      9  H   UNL A   1      44.701  18.031  26.956  1.00  0.00     0.164 HD
BRANCH   7  10
ATOM     10  C   UNL A   1      45.297  19.567  24.040  1.00  0.00     0.121 C 
BRANCH  10  11
ATOM     11  C   UNL A   1      45.090  21.063  24.251  1.00  0.00     0.126 C 
BRANCH  11  12
ATOM     12  N   UNL A   1      46.087  21.823  24.995  1.00  0.00    -0.350 N 
ATOM     13  C   UNL A   1      46.401  23.133  24.680  1.00  0.00     0.278 C 
ATOM     14  O   UNL A   1      46.614  23.514  23.533  1.00  0.00    -0.268 OA
ATOM     15  H   UNL A   1      46.552  21.389  25.747  1.00  0.00     0.163 HD
BRANCH  13  16
ATOM     16  C   UNL A   1      46.197  24.133  25.826  1.00  0.00     0.278 C 
ATOM     17  C   UNL A   1      48.060  25.580  25.186  1.00  0.00     0.333 C 
ATOM     18  N   UNL A   1      47.433  24.830  26.285  1.00  0.00    -0.323 N 
ATOM     19  C   UNL A   1      47.036  25.813  27.339  1.00  0.00     0.299 C 
ATOM     20  H   UNL A   1      48.095  24.136  26.633  1.00  0.00     0.348 HD
ATOM     21  C   UNL A   1      46.113  25.268  28.415  1.00  0.00     0.010 A 
ATOM     22  C   UNL A   1      45.649  23.271  26.982  1.00  0.00     0.111 C 
ATOM     23  C   UNL A   1      45.867  26.006  29.581  1.00  0.00     0.010 A 
ATOM     24  C   UNL A   1      45.422  24.063  28.229  1.00  0.00    -0.033 A 
ATOM     25  C   UNL A   1      44.986  25.525  30.555  1.00  0.00     0.001 A 
ATOM     26  C   UNL A   1      44.566  23.567  29.220  1.00  0.00     0.004 A 
ATOM     27  C   UNL A   1      44.345  24.301  30.380  1.00  0.00     0.000 A 
ENDBRANCH  13  16
ENDBRANCH  11  12
ENDBRANCH  10  11
ENDBRANCH   7  10
ENDBRANCH   5   6
ENDBRANCH   3   5
ENDBRANCH   2   3
ENDBRANCH   1   2
BRANCH   1  28
ATOM     28  C   UNL A   1      41.930  23.189  25.970  1.00  0.00     0.275 C 
BRANCH  28  29
ATOM     29  O   UNL A   1      42.654  24.378  26.343  1.00  0.00    -0.458 OA
BRANCH  29  30
ATOM     30  C   UNL A   1      41.968  25.536  26.216  1.00  0.00     0.338 C 
ATOM     31  O   UNL A   1      41.368  25.934  25.222  1.00  0.00    -0.246 OA
BRANCH  30  32
ATOM     32  C   UNL A   1      41.909  26.238  27.503  1.00  0.00     0.060 A 
ATOM     33  C   UNL A   1      40.860  25.946  28.376  1.00  0.00     0.016 A 
ATOM     34  C   UNL A   1      42.802  27.270  27.792  1.00  0.00     0.016 A 
ATOM     35  C   UNL A   1      40.658  26.712  29.515  1.00  0.00     0.010 A 
ATOM     36  C   UNL A   1      42.620  28.020  28.958  1.00  0.00     0.010 A 
ATOM     37  C   UNL A   1      41.533  27.760  29.812  1.00  0.00    -0.014 A 
BRANCH  37  38
ATOM     38  C   UNL A   1      41.255  28.619  30.983  1.00  0.00     0.031 A 
ATOM     39  C   UNL A   1      40.119  29.599  30.925  1.00  0.00     0.074 A 
ATOM     40  C   UNL A   1      41.976  28.471  32.110  1.00  0.00     0.049 A 
ATOM     41  N   UNL A   1      39.789  30.530  31.779  1.00  0.00    -0.248 NA
ATOM     42  C   UNL A   1      39.234  29.516  29.750  1.00  0.00     0.031 C 
ATOM     43  C   UNL A   1      43.035  27.480  32.316  1.00  0.00     0.029 A 
ATOM     44  N   UNL A   1      41.917  29.147  33.301  1.00  0.00    -0.354 N 
ATOM     45  C   UNL A   1      38.680  31.165  31.235  1.00  0.00     0.074 A 
ATOM     46  C   UNL A   1      38.392  30.516  29.975  1.00  0.00     0.031 C 
ATOM     47  C   UNL A   1      43.515  27.602  33.565  1.00  0.00     0.029 A 
ATOM     48  C   UNL A   1      42.846  28.721  34.220  1.00  0.00     0.049 A 
ATOM     49  H   UNL A   1      41.271  29.868  33.481  1.00  0.00     0.167 HD
ATOM     50  C   UNL A   1      37.970  32.201  31.743  1.00  0.00     0.031 A 
ATOM     51  C   UNL A   1      43.148  29.205  35.440  1.00  0.00     0.031 A 
ATOM     52  C   UNL A   1      38.266  32.833  33.000  1.00  0.00     0.049 A 
ATOM     53  C   UNL A   1      42.401  30.408  35.945  1.00  0.00     0.074 A 
ATOM     54  C   UNL A   1      37.658  33.930  33.580  1.00  0.00     0.029 A 
ATOM     55  N   UNL A   1      39.250  32.407  33.880  1.00  0.00    -0.354 N 
ATOM     56  N   UNL A   1      41.417  31.065  35.375  1.00  0.00    -0.248 NA
ATOM     57  C   UNL A   1      42.815  30.948  37.246  1.00  0.00     0.031 C 
ATOM     58  C   UNL A   1      38.291  34.184  34.803  1.00  0.00     0.029 A 
ATOM     59  C   UNL A   1      39.266  33.219  34.998  1.00  0.00     0.049 A 
ATOM     60  H   UNL A   1      39.848  31.639  33.730  1.00  0.00     0.167 HD
ATOM     61  C   UNL A   1      41.086  32.087  36.255  1.00  0.00     0.074 A 
ATOM     62  C   UNL A   1      41.963  31.952  37.401  1.00  0.00     0.031 C 
ATOM     63  C   UNL A   1      40.146  33.054  36.126  1.00  0.00     0.031 A 
BRANCH  50  64
ATOM     64  C   UNL A   1      36.840  32.738  30.911  1.00  0.00    -0.014 A 
ATOM     65  C   UNL A   1      35.513  32.332  31.137  1.00  0.00     0.010 A 
ATOM     66  C   UNL A   1      37.109  33.680  29.901  1.00  0.00     0.010 A 
ATOM     67  C   UNL A   1      34.476  32.836  30.344  1.00  0.00     0.020 A 
ATOM     68  C   UNL A   1      36.073  34.201  29.120  1.00  0.00     0.020 A 
ATOM     69  C   UNL A   1      34.765  33.762  29.337  1.00  0.00     0.054 A 
BRANCH  69  70
ATOM     70  S   UNL A   1      33.402  34.415  28.331  1.00  0.00     0.124 S 
ATOM     71  O   UNL A   1      32.530  34.994  29.349  1.00  0.00    -0.237 OA
ATOM     72  O   UNL A   1      34.074  35.376  27.459  1.00  0.00    -0.237 OA
ATOM     73  O   UNL A   1      32.872  33.232  27.657  1.00  0.00    -0.744 OA
ENDBRANCH  69  70
ENDBRANCH  50  64
BRANCH  51  74
ATOM     74  C   UNL A   1      44.245  28.594  36.238  1.00  0.00    -0.014 A 
ATOM     75  C   UNL A   1      43.991  27.509  37.093  1.00  0.00     0.010 A 
ATOM     76  C   UNL A   1      45.552  29.107  36.150  1.00  0.00     0.010 A 
ATOM     77  C   UNL A   1      45.021  26.958  37.862  1.00  0.00     0.020 A 
ATOM     78  C   UNL A   1      46.589  28.543  36.897  1.00  0.00     0.020 A 
ATOM     79  C   UNL A   1      46.314  27.482  37.762  1.00  0.00     0.054 A 
BRANCH  79  80
ATOM     80  S   UNL A   1      47.650  26.738  38.737  1.00  0.00     0.124 S 
ATOM     81  O   UNL A   1      46.909  26.048  39.789  1.00  0.00    -0.237 OA
ATOM     82  O   UNL A   1      48.318  25.877  37.764  1.00  0.00    -0.237 OA
ATOM     83  O   UNL A   1      48.433  27.891  39.175  1.00  0.00    -0.744 OA
ENDBRANCH  79  80
ENDBRANCH  51  74
BRANCH  63  84
ATOM     84  C   UNL A   1      39.997  34.017  37.270  1.00  0.00    -0.014 A 
ATOM     85  C   UNL A   1      40.751  35.201  37.320  1.00  0.00     0.010 A 
ATOM     86  C   UNL A   1      39.052  33.753  38.277  1.00  0.00     0.010 A 
ATOM     87  C   UNL A   1      40.578  36.099  38.375  1.00  0.00     0.020 A 
ATOM     88  C   UNL A   1      38.864  34.658  39.324  1.00  0.00     0.020 A 
ATOM     89  C   UNL A   1      39.638  35.820  39.372  1.00  0.00     0.054 A 
BRANCH  89  90
ATOM     90  S   UNL A   1      39.393  37.022  40.708  1.00  0.00     0.124 S 
ATOM     91  O   UNL A   1      40.736  37.567  40.876  1.00  0.00    -0.237 OA
ATOM     92  O   UNL A   1      38.408  37.941  40.140  1.00  0.00    -0.237 OA
ATOM     93  O   UNL A   1      38.905  36.208  41.818  1.00  0.00    -0.744 OA
ENDBRANCH  89  90
ENDBRANCH  63  84
ENDBRANCH  37  38
ENDBRANCH  30  32
ENDBRANCH  29  30
ENDBRANCH  28  29
ENDBRANCH   1  28
TORSDOF 19
ENDMDL
MODEL 2
REMARK VINA RESULT:     -10.0      6.599     12.911
REMARK SMILES C[N@H+]1Cc2ccccc2C[C@@H]1C(=O)NCCC(=O)NCC(=O)OCCOC(=O)c1ccc(-c2c3nc(c(-c4ccc(S(=O)(=O)[O-])cc4)c4ccc([nH]4)c(-c4ccc(S(=O)(=O)[O-])cc4)c4nc(c(-c5ccc(S(=O)(=O)[O-])cc5)c5ccc2[nH]5)C=C4)C=C3)cc1
REMARK SMILES IDX 24 1 23 2 21 3 22 4 20 5 19 6 17 7 18 8 16 10 15 11 14 12
REMARK SMILES IDX 12 13 13 14 11 16 1 17 2 18 3 19 4 21 10 22 5 23 9 24 6 25
REMARK SMILES IDX 8 26 7 27 25 28 26 29 27 30 28 31 29 32 30 33 88 34 31 35
REMARK SMILES IDX 87 36 32 37 33 38 34 39 81 40 35 41 86 42 80 43 82 44 36 45
REMARK SMILES IDX 85 46 79 47 78 48 37 50 67 51 48 52 66 53 49 54 52 55 65 56
REMARK SMILES IDX 83 57 50 58 51 59 64 61 84 62 53 63 38 64 39 65 47 66 40 67
REMARK SMILES IDX 46 68 41 69 42 70 43 71 44 72 45 73 68 74 69 75 77 76 70 77
REMARK SMILES IDX 76 78 71 79 72 80 73 81 74 82 75 83 54 84 55 85 63 86 56 87
REMARK SMILES IDX 62 88 57 89 58 90 59 91 60 92 61 93
REMARK H PARENT 19 9 14 15 2 20 82 49 52 60
REMARK Flexibility Score: inf
ROOT
ATOM      1  C   UNL A   1      32.987  30.529  27.350  1.00  0.00     0.274 C 
ENDROOT
BRANCH   1   2
ATOM      2  O   UNL A   1      33.144  30.353  25.931  1.00  0.00    -0.461 OA
BRANCH   2   3
ATOM      3  C   UNL A   1      32.856  29.109  25.453  1.00  0.00     0.325 C 
ATOM      4  O   UNL A   1      32.890  28.804  24.265  1.00  0.00    -0.250 OA
BRANCH   3   5
ATOM      5  C   UNL A   1      32.667  28.087  26.575  1.00  0.00     0.238 C 
BRANCH   5   6
ATOM      6  N   UNL A   1      31.364  27.451  26.622  1.00  0.00    -0.345 N 
ATOM      7  C   UNL A   1      31.071  26.150  26.374  1.00  0.00     0.222 C 
ATOM      8  O   UNL A   1      29.899  25.774  26.398  1.00  0.00    -0.275 OA
ATOM      9  H   UNL A   1      30.605  28.030  26.862  1.00  0.00     0.164 HD
BRANCH   7  10
ATOM     10  C   UNL A   1      32.185  25.195  26.039  1.00  0.00     0.121 C 
BRANCH  10  11
ATOM     11  C   UNL A   1      31.622  23.895  25.473  1.00  0.00     0.126 C 
BRANCH  11  12
ATOM     12  N   UNL A   1      32.352  22.650  25.684  1.00  0.00    -0.350 N 
ATOM     13  C   UNL A   1      32.832  21.892  24.631  1.00  0.00     0.278 C 
ATOM     14  O   UNL A   1      32.158  21.612  23.644  1.00  0.00    -0.268 OA
ATOM     15  H   UNL A   1      32.509  22.341  26.605  1.00  0.00     0.163 HD
BRANCH  13  16
ATOM     16  C   UNL A   1      34.347  21.651  24.654  1.00  0.00     0.278 C 
ATOM     17  C   UNL A   1      34.185  19.218  24.489  1.00  0.00     0.333 C 
ATOM     18  N   UNL A   1      34.773  20.344  25.231  1.00  0.00    -0.323 N 
ATOM     19  C   UNL A   1      36.258  20.250  25.100  1.00  0.00     0.299 C 
ATOM     20  H   UNL A   1      34.467  20.296  26.203  1.00  0.00     0.348 HD
ATOM     21  C   UNL A   1      37.025  21.482  25.548  1.00  0.00     0.010 A 
ATOM     22  C   UNL A   1      34.893  22.791  25.538  1.00  0.00     0.111 C 
ATOM     23  C   UNL A   1      38.417  21.435  25.707  1.00  0.00     0.010 A 
ATOM     24  C   UNL A   1      36.374  22.710  25.727  1.00  0.00    -0.033 A 
ATOM     25  C   UNL A   1      39.130  22.579  26.080  1.00  0.00     0.001 A 
ATOM     26  C   UNL A   1      37.085  23.846  26.133  1.00  0.00     0.004 A 
ATOM     27  C   UNL A   1      38.463  23.781  26.304  1.00  0.00     0.000 A 
ENDBRANCH  13  16
ENDBRANCH  11  12
ENDBRANCH  10  11
ENDBRANCH   7  10
ENDBRANCH   5   6
ENDBRANCH   3   5
ENDBRANCH   2   3
ENDBRANCH   1   2
BRANCH   1  28
ATOM     28  C   UNL A   1      34.229  31.187  27.963  1.00  0.00     0.275 C 
BRANCH  28  29
ATOM     29  O   UNL A   1      35.317  30.253  28.119  1.00  0.00    -0.458 OA
BRANCH  29  30
ATOM     30  C   UNL A   1      36.200  30.554  29.097  1.00  0.00     0.338 C 
ATOM     31  O   UNL A   1      35.977  31.185  30.125  1.00  0.00    -0.246 OA
BRANCH  30  32
ATOM     32  C   UNL A   1      37.487  29.898  28.840  1.00  0.00     0.060 A 
ATOM     33  C   UNL A   1      38.297  29.566  29.928  1.00  0.00     0.016 A 
ATOM     34  C   UNL A   1      37.953  29.730  27.536  1.00  0.00     0.016 A 
ATOM     35  C   UNL A   1      39.594  29.117  29.729  1.00  0.00     0.010 A 
ATOM     36  C   UNL A   1      39.248  29.244  27.334  1.00  0.00     0.010 A 
ATOM     37  C   UNL A   1      40.083  28.959  28.430  1.00  0.00    -0.014 A 
BRANCH  37  38
ATOM     38  C   UNL A   1      41.494  28.561  28.236  1.00  0.00     0.031 A 
ATOM     39  C   UNL A   1      42.577  29.588  28.394  1.00  0.00     0.074 A 
ATOM     40  C   UNL A   1      41.800  27.274  27.986  1.00  0.00     0.049 A 
ATOM     41  N   UNL A   1      43.855  29.485  28.140  1.00  0.00    -0.248 NA
ATOM     42  C   UNL A   1      42.169  30.907  28.910  1.00  0.00     0.031 C 
ATOM     43  C   UNL A   1      40.838  26.172  27.914  1.00  0.00     0.029 A 
ATOM     44  N   UNL A   1      43.011  26.674  27.759  1.00  0.00    -0.354 N 
ATOM     45  C   UNL A   1      44.400  30.728  28.436  1.00  0.00     0.074 A 
ATOM     46  C   UNL A   1      43.315  31.573  28.885  1.00  0.00     0.031 C 
ATOM     47  C   UNL A   1      41.499  25.026  27.677  1.00  0.00     0.029 A 
ATOM     48  C   UNL A   1      42.917  25.325  27.513  1.00  0.00     0.049 A 
ATOM     49  H   UNL A   1      43.866  27.162  27.771  1.00  0.00     0.167 HD
ATOM     50  C   UNL A   1      45.690  31.127  28.334  1.00  0.00     0.031 A 
ATOM     51  C   UNL A   1      43.866  24.438  27.157  1.00  0.00     0.031 A 
ATOM     52  C   UNL A   1      46.758  30.273  27.889  1.00  0.00     0.049 A 
ATOM     53  C   UNL A   1      45.276  24.924  26.970  1.00  0.00     0.074 A 
ATOM     54  C   UNL A   1      48.088  30.588  27.684  1.00  0.00     0.029 A 
ATOM     55  N   UNL A   1      46.614  28.925  27.597  1.00  0.00    -0.354 N 
ATOM     56  N   UNL A   1      45.762  26.130  27.156  1.00  0.00    -0.248 NA
ATOM     57  C   UNL A   1      46.262  23.939  26.508  1.00  0.00     0.031 C 
ATOM     58  C   UNL A   1      48.746  29.434  27.243  1.00  0.00     0.029 A 
ATOM     59  C   UNL A   1      47.832  28.393  27.213  1.00  0.00     0.049 A 
ATOM     60  H   UNL A   1      45.771  28.420  27.655  1.00  0.00     0.167 HD
ATOM     61  C   UNL A   1      47.113  26.043  26.846  1.00  0.00     0.074 A 
ATOM     62  C   UNL A   1      47.371  24.665  26.477  1.00  0.00     0.031 C 
ATOM     63  C   UNL A   1      48.057  27.016  26.859  1.00  0.00     0.031 A 
BRANCH  50  64
ATOM     64  C   UNL A   1      45.999  32.559  28.665  1.00  0.00    -0.014 A 
ATOM     65  C   UNL A   1      45.835  33.579  27.711  1.00  0.00     0.010 A 
ATOM     66  C   UNL A   1      46.441  32.893  29.958  1.00  0.00     0.010 A 
ATOM     67  C   UNL A   1      46.138  34.905  28.036  1.00  0.00     0.020 A 
ATOM     68  C   UNL A   1      46.727  34.220  30.293  1.00  0.00     0.020 A 
ATOM     69  C   UNL A   1      46.589  35.215  29.323  1.00  0.00     0.054 A 
BRANCH  69  70
ATOM     70  S   UNL A   1      46.961  36.945  29.727  1.00  0.00     0.124 S 
ATOM     71  O   UNL A   1      45.801  37.321  30.530  1.00  0.00    -0.237 OA
ATOM     72  O   UNL A   1      48.223  36.843  30.457  1.00  0.00    -0.237 OA
ATOM     73  O   UNL A   1      47.052  37.594  28.422  1.00  0.00    -0.744 OA
ENDBRANCH  69  70
ENDBRANCH  50  64
BRANCH  51  74
ATOM     74  C   UNL A   1      43.504  23.019  26.894  1.00  0.00    -0.014 A 
ATOM     75  C   UNL A   1      42.819  22.263  27.860  1.00  0.00     0.010 A 
ATOM     76  C   UNL A   1      43.854  22.416  25.672  1.00  0.00     0.010 A 
ATOM     77  C   UNL A   1      42.507  20.921  27.616  1.00  0.00     0.020 A 
ATOM     78  C   UNL A   1      43.522  21.083  25.416  1.00  0.00     0.020 A 
ATOM     79  C   UNL A   1      42.865  20.338  26.397  1.00  0.00     0.054 A 
BRANCH  79  80
ATOM     80  S   UNL A   1      42.425  18.608  26.078  1.00  0.00     0.124 S 
ATOM     81  O   UNL A   1      42.724  17.979  27.361  1.00  0.00    -0.237 OA
ATOM     82  O   UNL A   1      41.009  18.694  25.731  1.00  0.00    -0.237 OA
ATOM     83  O   UNL A   1      43.305  18.232  24.974  1.00  0.00    -0.744 OA
ENDBRANCH  79  80
ENDBRANCH  51  74
BRANCH  63  84
ATOM     84  C   UNL A   1      49.458  26.612  26.499  1.00  0.00    -0.014 A 
ATOM     85  C   UNL A   1      50.324  26.069  27.464  1.00  0.00     0.010 A 
ATOM     86  C   UNL A   1      49.891  26.730  25.167  1.00  0.00     0.010 A 
ATOM     87  C   UNL A   1      51.613  25.672  27.105  1.00  0.00     0.020 A 
ATOM     88  C   UNL A   1      51.174  26.316  24.802  1.00  0.00     0.020 A 
ATOM     89  C   UNL A   1      52.031  25.800  25.777  1.00  0.00     0.054 A 
BRANCH  89  90
ATOM     90  S   UNL A   1      53.692  25.232  25.321  1.00  0.00     0.124 S 
ATOM     91  O   UNL A   1      53.568  23.785  25.468  1.00  0.00    -0.237 OA
ATOM     92  O   UNL A   1      53.834  25.714  23.949  1.00  0.00    -0.237 OA
ATOM     93  O   UNL A   1      54.560  25.888  26.297  1.00  0.00    -0.744 OA
ENDBRANCH  89  90
ENDBRANCH  63  84
ENDBRANCH  37  38
ENDBRANCH  30  32
ENDBRANCH  29  30
ENDBRANCH  28  29
ENDBRANCH   1  28
TORSDOF 19
ENDMDL
MODEL 3
REMARK VINA RESULT:      -9.8      6.559     10.637
REMARK SMILES C[N@H+]1Cc2ccccc2C[C@@H]1C(=O)NCCC(=O)NCC(=O)OCCOC(=O)c1ccc(-c2c3nc(c(-c4ccc(S(=O)(=O)[O-])cc4)c4ccc([nH]4)c(-c4ccc(S(=O)(=O)[O-])cc4)c4nc(c(-c5ccc(S(=O)(=O)[O-])cc5)c5ccc2[nH]5)C=C4)C=C3)cc1
REMARK SMILES IDX 24 1 23 2 21 3 22 4 20 5 19 6 17 7 18 8 16 10 15 11 14 12
REMARK SMILES IDX 12 13 13 14 11 16 1 17 2 18 3 19 4 21 10 22 5 23 9 24 6 25
REMARK SMILES IDX 8 26 7 27 25 28 26 29 27 30 28 31 29 32 30 33 88 34 31 35
REMARK SMILES IDX 87 36 32 37 33 38 34 39 81 40 35 41 86 42 80 43 82 44 36 45
REMARK SMILES IDX 85 46 79 47 78 48 37 50 67 51 48 52 66 53 49 54 52 55 65 56
REMARK SMILES IDX 83 57 50 58 51 59 64 61 84 62 53 63 38 64 39 65 47 66 40 67
REMARK SMILES IDX 46 68 41 69 42 70 43 71 44 72 45 73 68 74 69 75 77 76 70 77
REMARK SMILES IDX 76 78 71 79 72 80 73 81 74 82 75 83 54 84 55 85 63 86 56 87
REMARK SMILES IDX 62 88 57 89 58 90 59 91 60 92 61 93
REMARK H PARENT 19 9 14 15 2 20 82 49 52 60
REMARK Flexibility Score: inf
ROOT
ATOM      1  C   UNL A   1      38.243  20.420  25.114  1.00  0.00     0.274 C 
ENDROOT
BRANCH   1   2
ATOM      2  O   UNL A   1      37.334  21.291  24.418  1.00  0.00    -0.461 OA
BRANCH   2   3
ATOM      3  C   UNL A   1      36.098  21.427  24.977  1.00  0.00     0.325 C 
ATOM      4  O   UNL A   1      35.647  22.486  25.401  1.00  0.00    -0.250 OA
BRANCH   3   5
ATOM      5  C   UNL A   1      35.262  20.153  24.848  1.00  0.00     0.238 C 
BRANCH   5   6
ATOM      6  N   UNL A   1      33.958  20.199  25.484  1.00  0.00    -0.345 N 
ATOM      7  C   UNL A   1      32.760  20.432  24.893  1.00  0.00     0.222 C 
ATOM      8  O   UNL A   1      31.743  20.498  25.583  1.00  0.00    -0.275 OA
ATOM      9  H   UNL A   1      33.942  20.043  26.455  1.00  0.00     0.164 HD
BRANCH   7  10
ATOM     10  C   UNL A   1      32.701  20.642  23.403  1.00  0.00     0.121 C 
BRANCH  10  11
ATOM     11  C   UNL A   1      32.461  22.113  23.079  1.00  0.00     0.126 C 
BRANCH  11  12
ATOM     12  N   UNL A   1      33.151  23.135  23.858  1.00  0.00    -0.350 N 
ATOM     13  C   UNL A   1      33.217  24.454  23.445  1.00  0.00     0.278 C 
ATOM     14  O   UNL A   1      33.508  24.785  22.300  1.00  0.00    -0.268 OA
ATOM     15  H   UNL A   1      33.583  22.878  24.704  1.00  0.00     0.163 HD
BRANCH  13  16
ATOM     16  C   UNL A   1      32.636  25.466  24.442  1.00  0.00     0.278 C 
ATOM     17  C   UNL A   1      30.338  25.276  23.634  1.00  0.00     0.333 C 
ATOM     18  N   UNL A   1      31.430  26.203  23.968  1.00  0.00    -0.323 N 
ATOM     19  C   UNL A   1      30.961  27.076  25.086  1.00  0.00     0.299 C 
ATOM     20  H   UNL A   1      31.675  26.739  23.136  1.00  0.00     0.348 HD
ATOM     21  C   UNL A   1      32.046  27.895  25.764  1.00  0.00     0.010 A 
ATOM     22  C   UNL A   1      33.784  26.473  24.664  1.00  0.00     0.111 C 
ATOM     23  C   UNL A   1      31.707  28.926  26.652  1.00  0.00     0.010 A 
ATOM     24  C   UNL A   1      33.400  27.585  25.587  1.00  0.00    -0.033 A 
ATOM     25  C   UNL A   1      32.704  29.655  27.308  1.00  0.00     0.001 A 
ATOM     26  C   UNL A   1      34.397  28.338  26.218  1.00  0.00     0.004 A 
ATOM     27  C   UNL A   1      34.049  29.369  27.083  1.00  0.00     0.000 A 
ENDBRANCH  13  16
ENDBRANCH  11  12
ENDBRANCH  10  11
ENDBRANCH   7  10
ENDBRANCH   5   6
ENDBRANCH   3   5
ENDBRANCH   2   3
ENDBRANCH   1   2
BRANCH   1  28
ATOM     28  C   UNL A   1      39.181  21.221  26.026  1.00  0.00     0.275 C 
BRANCH  28  29
ATOM     29  O   UNL A   1      40.022  20.364  26.825  1.00  0.00    -0.458 OA
BRANCH  29  30
ATOM     30  C   UNL A   1      41.258  20.140  26.326  1.00  0.00     0.338 C 
ATOM     31  O   UNL A   1      41.629  19.161  25.686  1.00  0.00    -0.246 OA
BRANCH  30  32
ATOM     32  C   UNL A   1      42.112  21.314  26.532  1.00  0.00     0.060 A 
ATOM     33  C   UNL A   1      42.422  21.694  27.839  1.00  0.00     0.016 A 
ATOM     34  C   UNL A   1      42.496  22.113  25.455  1.00  0.00     0.016 A 
ATOM     35  C   UNL A   1      43.068  22.896  28.089  1.00  0.00     0.010 A 
ATOM     36  C   UNL A   1      43.178  23.308  25.704  1.00  0.00     0.010 A 
ATOM     37  C   UNL A   1      43.445  23.716  27.023  1.00  0.00    -0.014 A 
BRANCH  37  38
ATOM     38  C   UNL A   1      44.055  25.032  27.310  1.00  0.00     0.031 A 
ATOM     39  C   UNL A   1      43.203  26.134  27.869  1.00  0.00     0.074 A 
ATOM     40  C   UNL A   1      45.378  25.212  27.130  1.00  0.00     0.049 A 
ATOM     41  N   UNL A   1      43.503  27.390  28.065  1.00  0.00    -0.248 NA
ATOM     42  C   UNL A   1      41.830  25.772  28.265  1.00  0.00     0.031 C 
ATOM     43  C   UNL A   1      46.322  24.182  26.690  1.00  0.00     0.029 A 
ATOM     44  N   UNL A   1      46.158  26.324  27.310  1.00  0.00    -0.354 N 
ATOM     45  C   UNL A   1      42.352  27.977  28.577  1.00  0.00     0.074 A 
ATOM     46  C   UNL A   1      41.346  26.942  28.660  1.00  0.00     0.031 C 
ATOM     47  C   UNL A   1      47.558  24.708  26.650  1.00  0.00     0.029 A 
ATOM     48  C   UNL A   1      47.480  26.124  26.994  1.00  0.00     0.049 A 
ATOM     49  H   UNL A   1      45.805  27.185  27.633  1.00  0.00     0.167 HD
ATOM     50  C   UNL A   1      42.156  29.267  28.939  1.00  0.00     0.031 A 
ATOM     51  C   UNL A   1      48.506  26.994  26.951  1.00  0.00     0.031 A 
ATOM     52  C   UNL A   1      43.168  30.284  28.855  1.00  0.00     0.049 A 
ATOM     53  C   UNL A   1      48.243  28.438  27.278  1.00  0.00     0.074 A 
ATOM     54  C   UNL A   1      43.062  31.635  29.131  1.00  0.00     0.029 A 
ATOM     55  N   UNL A   1      44.483  30.053  28.480  1.00  0.00    -0.354 N 
ATOM     56  N   UNL A   1      47.122  29.003  27.666  1.00  0.00    -0.248 NA
ATOM     57  C   UNL A   1      49.374  29.366  27.145  1.00  0.00     0.031 C 
ATOM     58  C   UNL A   1      44.309  32.227  28.899  1.00  0.00     0.029 A 
ATOM     59  C   UNL A   1      45.199  31.235  28.517  1.00  0.00     0.049 A 
ATOM     60  H   UNL A   1      44.853  29.177  28.225  1.00  0.00     0.167 HD
ATOM     61  C   UNL A   1      47.418  30.349  27.835  1.00  0.00     0.074 A 
ATOM     62  C   UNL A   1      48.824  30.512  27.524  1.00  0.00     0.031 C 
ATOM     63  C   UNL A   1      46.600  31.363  28.208  1.00  0.00     0.031 A 
BRANCH  50  64
ATOM     64  C   UNL A   1      40.782  29.651  29.412  1.00  0.00    -0.014 A 
ATOM     65  C   UNL A   1      39.718  29.808  28.505  1.00  0.00     0.010 A 
ATOM     66  C   UNL A   1      40.547  29.837  30.786  1.00  0.00     0.010 A 
ATOM     67  C   UNL A   1      38.449  30.176  28.964  1.00  0.00     0.020 A 
ATOM     68  C   UNL A   1      39.276  30.186  31.250  1.00  0.00     0.020 A 
ATOM     69  C   UNL A   1      38.238  30.370  30.333  1.00  0.00     0.054 A 
BRANCH  69  70
ATOM     70  S   UNL A   1      36.580  30.832  30.908  1.00  0.00     0.124 S 
ATOM     71  O   UNL A   1      35.874  31.042  29.646  1.00  0.00    -0.237 OA
ATOM     72  O   UNL A   1      36.163  29.659  31.673  1.00  0.00    -0.237 OA
ATOM     73  O   UNL A   1      36.812  32.037  31.699  1.00  0.00    -0.744 OA
ENDBRANCH  69  70
ENDBRANCH  50  64
BRANCH  51  74
ATOM     74  C   UNL A   1      49.858  26.540  26.525  1.00  0.00    -0.014 A 
ATOM     75  C   UNL A   1      50.285  26.708  25.197  1.00  0.00     0.010 A 
ATOM     76  C   UNL A   1      50.722  25.928  27.452  1.00  0.00     0.010 A 
ATOM     77  C   UNL A   1      51.545  26.252  24.798  1.00  0.00     0.020 A 
ATOM     78  C   UNL A   1      51.991  25.495  27.062  1.00  0.00     0.020 A 
ATOM     79  C   UNL A   1      52.390  25.644  25.732  1.00  0.00     0.054 A 
BRANCH  79  80
ATOM     80  S   UNL A   1      54.036  25.090  25.211  1.00  0.00     0.124 S 
ATOM     81  O   UNL A   1      54.824  25.302  26.421  1.00  0.00    -0.237 OA
ATOM     82  O   UNL A   1      53.804  23.695  24.842  1.00  0.00    -0.237 OA
ATOM     83  O   UNL A   1      54.353  25.975  24.092  1.00  0.00    -0.744 OA
ENDBRANCH  79  80
ENDBRANCH  51  74
BRANCH  63  84
ATOM     84  C   UNL A   1      47.217  32.726  28.335  1.00  0.00    -0.014 A 
ATOM     85  C   UNL A   1      47.795  33.148  29.545  1.00  0.00     0.010 A 
ATOM     86  C   UNL A   1      47.265  33.571  27.213  1.00  0.00     0.010 A 
ATOM     87  C   UNL A   1      48.390  34.407  29.637  1.00  0.00     0.020 A 
ATOM     88  C   UNL A   1      47.876  34.824  27.297  1.00  0.00     0.020 A 
ATOM     89  C   UNL A   1      48.425  35.239  28.513  1.00  0.00     0.054 A 
BRANCH  89  90
ATOM     90  S   UNL A   1      49.247  36.850  28.639  1.00  0.00     0.124 S 
ATOM     91  O   UNL A   1      50.099  36.848  27.454  1.00  0.00    -0.237 OA
ATOM     92  O   UNL A   1      48.128  37.789  28.608  1.00  0.00    -0.237 OA
ATOM     93  O   UNL A   1      49.953  36.777  29.916  1.00  0.00    -0.744 OA
ENDBRANCH  89  90
ENDBRANCH  63  84
ENDBRANCH  37  38
ENDBRANCH  30  32
ENDBRANCH  29  30
ENDBRANCH  28  29
ENDBRANCH   1  28
TORSDOF 19
ENDMDL
