MODEL 1
REMARK VINA RESULT:     -12.2      0.000      0.000
REMARK SMILES NS(=O)(=O)c1ccc(-n2nc(NC(=O)NCCCC(=O)OCCOC(=O)c3ccc(-c4c5nc(c(-c6ccc(S(=O)(=O)[O-])cc6)c6ccc([nH]6)c(-c6ccc(S(=O)(=O)[O-])cc6)c6nc(c(-c7ccc(S(=O)(=O)[O-])cc7)c7ccc4[nH]7)C=C6)C=C5)cc3)cc2-c2ccccc2)cc1
REMARK SMILES IDX 19 1 20 2 18 3 17 4 16 5 15 6 12 7 13 8 14 10 11 12 9 13
REMARK SMILES IDX 10 14 88 15 87 16 8 17 5 18 6 19 96 20 7 21 95 22 2 23 3 24
REMARK SMILES IDX 4 25 1 26 89 29 90 30 94 31 91 32 93 33 92 34 21 35 22 36
REMARK SMILES IDX 23 37 24 38 25 39 26 40 27 41 28 42 86 43 29 44 85 45 30 46
REMARK SMILES IDX 31 47 32 48 79 49 33 50 84 51 78 52 80 53 34 54 83 55 77 56
REMARK SMILES IDX 76 57 35 59 65 60 46 61 64 62 47 63 50 64 63 65 81 66 48 67
REMARK SMILES IDX 49 68 62 70 82 71 51 72 36 73 37 74 45 75 38 76 44 77 39 78
REMARK SMILES IDX 40 79 41 80 42 81 43 82 66 83 67 84 75 85 68 86 74 87 69 88
REMARK SMILES IDX 70 89 71 90 72 91 73 92 52 93 53 94 61 95 54 96 60 97 55 98
REMARK SMILES IDX 56 99 57 100 58 101 59 102
REMARK H PARENT 12 9 15 11 1 27 1 28 80 58 50 69
REMARK Flexibility Score: inf
ROOT
ATOM      1  C   UNL A   1      36.088  21.938  25.442  1.00  0.00     0.305 C 
ATOM      2  O   UNL A   1      35.153  21.678  26.190  1.00  0.00    -0.252 OA
ENDROOT
BRANCH   1   3
ATOM      3  C   UNL A   1      35.908  22.221  23.968  1.00  0.00     0.124 C 
BRANCH   3   4
ATOM      4  C   UNL A   1      35.260  23.544  23.574  1.00  0.00     0.033 C 
BRANCH   4   5
ATOM      5  C   UNL A   1      33.899  23.484  22.879  1.00  0.00     0.118 C 
BRANCH   5   6
ATOM      6  N   UNL A   1      33.242  22.187  22.973  1.00  0.00    -0.338 N 
ATOM      7  N   UNL A   1      32.201  22.243  25.117  1.00  0.00    -0.291 N 
ATOM      8  C   UNL A   1      32.529  21.610  23.967  1.00  0.00     0.320 C 
ATOM      9  H   UNL A   1      32.118  21.663  25.908  1.00  0.00     0.173 HD
ATOM     10  O   UNL A   1      32.262  20.408  23.853  1.00  0.00    -0.248 OA
ATOM     11  H   UNL A   1      33.333  21.630  22.166  1.00  0.00     0.165 HD
BRANCH   7  12
ATOM     12  C   UNL A   1      31.965  23.578  25.339  1.00  0.00     0.157 A 
ATOM     13  N   UNL A   1      31.224  25.516  24.979  1.00  0.00    -0.231 N 
ATOM     14  N   UNL A   1      30.885  24.215  24.905  1.00  0.00    -0.149 NA
ATOM     15  C   UNL A   1      32.260  25.726  25.888  1.00  0.00     0.076 A 
ATOM     16  C   UNL A   1      32.769  24.452  26.108  1.00  0.00     0.078 A 
BRANCH  13  17
ATOM     17  C   UNL A   1      30.527  26.443  24.172  1.00  0.00     0.065 A 
ATOM     18  C   UNL A   1      29.099  28.457  22.931  1.00  0.00     0.082 A 
ATOM     19  C   UNL A   1      30.496  28.419  22.813  1.00  0.00     0.024 A 
ATOM     20  C   UNL A   1      28.412  27.431  23.573  1.00  0.00     0.024 A 
ATOM     21  C   UNL A   1      31.216  27.402  23.428  1.00  0.00     0.030 A 
ATOM     22  C   UNL A   1      29.127  26.407  24.180  1.00  0.00     0.030 A 
BRANCH  18  23
ATOM     23  S   UNL A   1      28.226  29.904  22.431  1.00  0.00     0.238 S 
ATOM     24  O   UNL A   1      26.987  29.978  23.118  1.00  0.00    -0.207 OA
ATOM     25  O   UNL A   1      28.392  30.024  20.990  1.00  0.00    -0.207 OA
BRANCH  23  26
ATOM     26  N   UNL A   1      29.094  31.210  23.034  1.00  0.00    -0.225 NA
ATOM     27  H   UNL A   1      28.449  31.959  23.288  1.00  0.00     0.137 HD
ATOM     28  H   UNL A   1      29.742  31.546  22.323  1.00  0.00     0.137 HD
ENDBRANCH  23  26
ENDBRANCH  18  23
ENDBRANCH  13  17
BRANCH  15  29
ATOM     29  C   UNL A   1      32.668  27.039  26.416  1.00  0.00     0.000 A 
ATOM     30  C   UNL A   1      31.739  27.883  27.052  1.00  0.00     0.010 A 
ATOM     31  C   UNL A   1      33.976  27.508  26.245  1.00  0.00     0.010 A 
ATOM     32  C   UNL A   1      32.077  29.189  27.414  1.00  0.00     0.001 A 
ATOM     33  C   UNL A   1      34.322  28.808  26.633  1.00  0.00     0.001 A 
ATOM     34  C   UNL A   1      33.369  29.654  27.197  1.00  0.00     0.000 A 
ENDBRANCH  15  29
ENDBRANCH   7  12
ENDBRANCH   5   6
ENDBRANCH   4   5
ENDBRANCH   3   4
ENDBRANCH   1   3
BRANCH   1  35
ATOM     35  O   UNL A   1      37.399  21.911  25.800  1.00  0.00    -0.462 OA
BRANCH  35  36
ATOM     36  C   UNL A   1      38.165  20.801  25.296  1.00  0.00     0.274 C 
BRANCH  36  37
ATOM     37  C   UNL A   1      39.613  20.809  25.779  1.00  0.00     0.275 C 
BRANCH  37  38
ATOM     38  O   UNL A   1      40.195  19.504  25.851  1.00  0.00    -0.458 OA
BRANCH  38  39
ATOM     39  C   UNL A   1      41.548  19.491  25.847  1.00  0.00     0.338 C 
ATOM     40  O   UNL A   1      42.258  18.567  25.490  1.00  0.00    -0.246 OA
BRANCH  39  41
ATOM     41  C   UNL A   1      42.108  20.663  26.525  1.00  0.00     0.060 A 
ATOM     42  C   UNL A   1      41.845  20.814  27.899  1.00  0.00     0.016 A 
ATOM     43  C   UNL A   1      42.619  21.709  25.765  1.00  0.00     0.016 A 
ATOM     44  C   UNL A   1      41.955  22.066  28.486  1.00  0.00     0.010 A 
ATOM     45  C   UNL A   1      42.685  22.957  26.342  1.00  0.00     0.010 A 
ATOM     46  C   UNL A   1      42.308  23.143  27.680  1.00  0.00    -0.014 A 
BRANCH  46  47
ATOM     47  C   UNL A   1      42.374  24.502  28.195  1.00  0.00     0.031 A 
ATOM     48  C   UNL A   1      41.163  25.296  27.970  1.00  0.00     0.074 A 
ATOM     49  C   UNL A   1      43.347  24.920  29.025  1.00  0.00     0.049 A 
ATOM     50  N   UNL A   1      41.090  26.321  27.187  1.00  0.00    -0.248 NA
ATOM     51  C   UNL A   1      39.872  24.853  28.512  1.00  0.00     0.031 C 
ATOM     52  C   UNL A   1      44.563  24.204  29.352  1.00  0.00     0.029 A 
ATOM     53  N   UNL A   1      43.394  25.987  29.875  1.00  0.00    -0.354 N 
ATOM     54  C   UNL A   1      39.821  26.822  27.391  1.00  0.00     0.074 A 
ATOM     55  C   UNL A   1      39.051  25.739  27.948  1.00  0.00     0.031 C 
ATOM     56  C   UNL A   1      45.075  24.654  30.513  1.00  0.00     0.029 A 
ATOM     57  C   UNL A   1      44.307  25.807  30.915  1.00  0.00     0.049 A 
ATOM     58  H   UNL A   1      42.843  26.796  29.767  1.00  0.00     0.167 HD
ATOM     59  C   UNL A   1      39.616  28.165  27.465  1.00  0.00     0.031 A 
ATOM     60  C   UNL A   1      44.486  26.554  32.027  1.00  0.00     0.031 A 
ATOM     61  C   UNL A   1      40.774  28.909  27.016  1.00  0.00     0.049 A 
ATOM     62  C   UNL A   1      44.113  27.931  31.646  1.00  0.00     0.074 A 
ATOM     63  C   UNL A   1      41.530  28.934  25.861  1.00  0.00     0.029 A 
ATOM     64  N   UNL A   1      41.536  29.510  27.994  1.00  0.00    -0.354 N 
ATOM     65  N   UNL A   1      44.777  28.605  30.744  1.00  0.00    -0.248 NA
ATOM     66  C   UNL A   1      42.756  28.397  31.889  1.00  0.00     0.031 C 
ATOM     67  C   UNL A   1      42.861  29.219  26.277  1.00  0.00     0.029 A 
ATOM     68  C   UNL A   1      42.863  29.413  27.660  1.00  0.00     0.049 A 
ATOM     69  H   UNL A   1      41.184  29.941  28.806  1.00  0.00     0.167 HD
ATOM     70  C   UNL A   1      43.789  29.201  29.973  1.00  0.00     0.074 A 
ATOM     71  C   UNL A   1      42.601  29.189  30.823  1.00  0.00     0.031 C 
ATOM     72  C   UNL A   1      43.951  29.360  28.625  1.00  0.00     0.031 A 
BRANCH  59  73
ATOM     73  C   UNL A   1      38.572  28.783  28.363  1.00  0.00    -0.014 A 
ATOM     74  C   UNL A   1      37.734  29.777  27.830  1.00  0.00     0.010 A 
ATOM     75  C   UNL A   1      38.557  28.618  29.765  1.00  0.00     0.010 A 
ATOM     76  C   UNL A   1      36.977  30.609  28.665  1.00  0.00     0.020 A 
ATOM     77  C   UNL A   1      37.767  29.401  30.601  1.00  0.00     0.020 A 
ATOM     78  C   UNL A   1      37.014  30.422  30.047  1.00  0.00     0.054 A 
BRANCH  78  79
ATOM     79  S   UNL A   1      36.142  31.576  31.128  1.00  0.00     0.124 S 
ATOM     80  O   UNL A   1      34.990  31.934  30.308  1.00  0.00    -0.237 OA
ATOM     81  O   UNL A   1      35.860  30.750  32.299  1.00  0.00    -0.237 OA
ATOM     82  O   UNL A   1      37.115  32.644  31.345  1.00  0.00    -0.744 OA
ENDBRANCH  78  79
ENDBRANCH  59  73
BRANCH  60  83
ATOM     83  C   UNL A   1      44.783  26.061  33.395  1.00  0.00    -0.014 A 
ATOM     84  C   UNL A   1      44.178  24.906  33.918  1.00  0.00     0.010 A 
ATOM     85  C   UNL A   1      45.868  26.612  34.119  1.00  0.00     0.010 A 
ATOM     86  C   UNL A   1      44.675  24.293  35.086  1.00  0.00     0.020 A 
ATOM     87  C   UNL A   1      46.365  26.010  35.283  1.00  0.00     0.020 A 
ATOM     88  C   UNL A   1      45.779  24.838  35.749  1.00  0.00     0.054 A 
BRANCH  88  89
ATOM     89  S   UNL A   1      46.520  23.943  37.149  1.00  0.00     0.124 S 
ATOM     90  O   UNL A   1      46.886  25.026  38.055  1.00  0.00    -0.237 OA
ATOM     91  O   UNL A   1      45.424  23.087  37.597  1.00  0.00    -0.237 OA
ATOM     92  O   UNL A   1      47.648  23.232  36.547  1.00  0.00    -0.744 OA
ENDBRANCH  88  89
ENDBRANCH  60  83
BRANCH  72  93
ATOM     93  C   UNL A   1      45.344  29.218  28.043  1.00  0.00    -0.014 A 
ATOM     94  C   UNL A   1      46.270  30.279  27.986  1.00  0.00     0.010 A 
ATOM     95  C   UNL A   1      45.795  27.925  27.723  1.00  0.00     0.010 A 
ATOM     96  C   UNL A   1      47.608  30.052  27.623  1.00  0.00     0.020 A 
ATOM     97  C   UNL A   1      47.129  27.689  27.375  1.00  0.00     0.020 A 
ATOM     98  C   UNL A   1      48.031  28.753  27.327  1.00  0.00     0.054 A 
BRANCH  98  99
ATOM     99  S   UNL A   1      49.786  28.446  26.963  1.00  0.00     0.124 S 
ATOM    100  O   UNL A   1      49.969  27.066  27.401  1.00  0.00    -0.237 OA
ATOM    101  O   UNL A   1      49.866  28.661  25.519  1.00  0.00    -0.237 OA
ATOM    102  O   UNL A   1      50.488  29.448  27.764  1.00  0.00    -0.744 OA
ENDBRANCH  98  99
ENDBRANCH  72  93
ENDBRANCH  46  47
ENDBRANCH  39  41
ENDBRANCH  38  39
ENDBRANCH  37  38
ENDBRANCH  36  37
ENDBRANCH  35  36
ENDBRANCH   1  35
TORSDOF 22
ENDMDL
MODEL 2
REMARK VINA RESULT:     -10.2      3.210      8.142
REMARK SMILES NS(=O)(=O)c1ccc(-n2nc(NC(=O)NCCCC(=O)OCCOC(=O)c3ccc(-c4c5nc(c(-c6ccc(S(=O)(=O)[O-])cc6)c6ccc([nH]6)c(-c6ccc(S(=O)(=O)[O-])cc6)c6nc(c(-c7ccc(S(=O)(=O)[O-])cc7)c7ccc4[nH]7)C=C6)C=C5)cc3)cc2-c2ccccc2)cc1
REMARK SMILES IDX 19 1 20 2 18 3 17 4 16 5 15 6 12 7 13 8 14 10 11 12 9 13
REMARK SMILES IDX 10 14 88 15 87 16 8 17 5 18 6 19 96 20 7 21 95 22 2 23 3 24
REMARK SMILES IDX 4 25 1 26 89 29 90 30 94 31 91 32 93 33 92 34 21 35 22 36
REMARK SMILES IDX 23 37 24 38 25 39 26 40 27 41 28 42 86 43 29 44 85 45 30 46
REMARK SMILES IDX 31 47 32 48 79 49 33 50 84 51 78 52 80 53 34 54 83 55 77 56
REMARK SMILES IDX 76 57 35 59 65 60 46 61 64 62 47 63 50 64 63 65 81 66 48 67
REMARK SMILES IDX 49 68 62 70 82 71 51 72 36 73 37 74 45 75 38 76 44 77 39 78
REMARK SMILES IDX 40 79 41 80 42 81 43 82 66 83 67 84 75 85 68 86 74 87 69 88
REMARK SMILES IDX 70 89 71 90 72 91 73 92 52 93 53 94 61 95 54 96 60 97 55 98
REMARK SMILES IDX 56 99 57 100 58 101 59 102
REMARK H PARENT 12 9 15 11 1 27 1 28 80 58 50 69
REMARK Flexibility Score: inf
ROOT
ATOM      1  C   UNL A   1      36.158  21.568  24.779  1.00  0.00     0.305 C 
ATOM      2  O   UNL A   1      35.518  20.523  24.777  1.00  0.00    -0.252 OA
ENDROOT
BRANCH   1   3
ATOM      3  C   UNL A   1      36.167  22.529  23.612  1.00  0.00     0.124 C 
BRANCH   3   4
ATOM      4  C   UNL A   1      35.215  23.720  23.669  1.00  0.00     0.033 C 
BRANCH   4   5
ATOM      5  C   UNL A   1      34.050  23.738  22.678  1.00  0.00     0.118 C 
BRANCH   5   6
ATOM      6  N   UNL A   1      33.359  22.462  22.551  1.00  0.00    -0.338 N 
ATOM      7  N   UNL A   1      32.015  22.357  24.517  1.00  0.00    -0.291 N 
ATOM      8  C   UNL A   1      32.496  21.821  23.372  1.00  0.00     0.320 C 
ATOM      9  H   UNL A   1      31.805  21.710  25.229  1.00  0.00     0.173 HD
ATOM     10  O   UNL A   1      32.223  20.645  23.105  1.00  0.00    -0.248 OA
ATOM     11  H   UNL A   1      33.557  21.978  21.716  1.00  0.00     0.165 HD
BRANCH   7  12
ATOM     12  C   UNL A   1      31.778  23.673  24.830  1.00  0.00     0.157 A 
ATOM     13  N   UNL A   1      31.041  25.633  24.599  1.00  0.00    -0.231 N 
ATOM     14  N   UNL A   1      30.702  24.340  24.431  1.00  0.00    -0.149 NA
ATOM     15  C   UNL A   1      32.068  25.778  25.531  1.00  0.00     0.076 A 
ATOM     16  C   UNL A   1      32.574  24.490  25.666  1.00  0.00     0.078 A 
BRANCH  13  17
ATOM     17  C   UNL A   1      30.353  26.614  23.852  1.00  0.00     0.065 A 
ATOM     18  C   UNL A   1      29.007  28.749  22.726  1.00  0.00     0.082 A 
ATOM     19  C   UNL A   1      30.365  28.550  22.436  1.00  0.00     0.024 A 
ATOM     20  C   UNL A   1      28.300  27.823  23.486  1.00  0.00     0.024 A 
ATOM     21  C   UNL A   1      31.042  27.472  22.993  1.00  0.00     0.030 A 
ATOM     22  C   UNL A   1      28.970  26.738  24.036  1.00  0.00     0.030 A 
BRANCH  18  23
ATOM     23  S   UNL A   1      28.242  30.274  22.286  1.00  0.00     0.238 S 
ATOM     24  O   UNL A   1      29.222  31.296  22.198  1.00  0.00    -0.207 OA
ATOM     25  O   UNL A   1      27.006  30.365  23.048  1.00  0.00    -0.207 OA
BRANCH  23  26
ATOM     26  N   UNL A   1      27.712  30.096  20.702  1.00  0.00    -0.225 NA
ATOM     27  H   UNL A   1      28.173  29.291  20.277  1.00  0.00     0.137 HD
ATOM     28  H   UNL A   1      27.937  30.936  20.170  1.00  0.00     0.137 HD
ENDBRANCH  23  26
ENDBRANCH  18  23
ENDBRANCH  13  17
BRANCH  15  29
ATOM     29  C   UNL A   1      32.471  27.050  26.154  1.00  0.00     0.000 A 
ATOM     30  C   UNL A   1      33.795  27.514  26.058  1.00  0.00     0.010 A 
ATOM     31  C   UNL A   1      31.561  27.801  26.909  1.00  0.00     0.010 A 
ATOM     32  C   UNL A   1      34.223  28.634  26.775  1.00  0.00     0.001 A 
ATOM     33  C   UNL A   1      31.984  28.940  27.605  1.00  0.00     0.001 A 
ATOM     34  C   UNL A   1      33.318  29.343  27.555  1.00  0.00     0.000 A 
ENDBRANCH  15  29
ENDBRANCH   7  12
ENDBRANCH   5   6
ENDBRANCH   4   5
ENDBRANCH   3   4
ENDBRANCH   1   3
BRANCH   1  35
ATOM     35  O   UNL A   1      37.012  21.953  25.764  1.00  0.00    -0.462 OA
BRANCH  35  36
ATOM     36  C   UNL A   1      38.391  21.580  25.583  1.00  0.00     0.274 C 
BRANCH  36  37
ATOM     37  C   UNL A   1      39.333  22.296  26.546  1.00  0.00     0.275 C 
BRANCH  37  38
ATOM     38  O   UNL A   1      40.414  21.476  26.999  1.00  0.00    -0.458 OA
BRANCH  38  39
ATOM     39  C   UNL A   1      41.593  21.708  26.379  1.00  0.00     0.338 C 
ATOM     40  O   UNL A   1      42.160  20.956  25.605  1.00  0.00    -0.246 OA
BRANCH  39  41
ATOM     41  C   UNL A   1      42.255  22.910  26.893  1.00  0.00     0.060 A 
ATOM     42  C   UNL A   1      42.355  24.021  26.035  1.00  0.00     0.016 A 
ATOM     43  C   UNL A   1      42.997  22.829  28.065  1.00  0.00     0.016 A 
ATOM     44  C   UNL A   1      43.316  24.991  26.278  1.00  0.00     0.010 A 
ATOM     45  C   UNL A   1      43.979  23.772  28.277  1.00  0.00     0.010 A 
ATOM     46  C   UNL A   1      44.169  24.818  27.363  1.00  0.00    -0.014 A 
BRANCH  46  47
ATOM     47  C   UNL A   1      45.252  25.746  27.648  1.00  0.00     0.031 A 
ATOM     48  C   UNL A   1      46.484  25.491  26.896  1.00  0.00     0.074 A 
ATOM     49  C   UNL A   1      45.072  26.886  28.339  1.00  0.00     0.049 A 
ATOM     50  N   UNL A   1      47.596  25.093  27.419  1.00  0.00    -0.248 NA
ATOM     51  C   UNL A   1      46.476  25.510  25.428  1.00  0.00     0.031 C 
ATOM     52  C   UNL A   1      43.887  27.262  29.083  1.00  0.00     0.029 A 
ATOM     53  N   UNL A   1      45.831  28.019  28.400  1.00  0.00    -0.354 N 
ATOM     54  C   UNL A   1      48.497  25.117  26.375  1.00  0.00     0.074 A 
ATOM     55  C   UNL A   1      47.709  25.075  25.169  1.00  0.00     0.031 C 
ATOM     56  C   UNL A   1      43.845  28.596  29.258  1.00  0.00     0.029 A 
ATOM     57  C   UNL A   1      45.094  29.140  28.783  1.00  0.00     0.049 A 
ATOM     58  H   UNL A   1      46.793  28.043  28.195  1.00  0.00     0.167 HD
ATOM     59  C   UNL A   1      49.765  25.570  26.572  1.00  0.00     0.031 A 
ATOM     60  C   UNL A   1      45.459  30.442  28.772  1.00  0.00     0.031 A 
ATOM     61  C   UNL A   1      50.075  25.698  27.980  1.00  0.00     0.049 A 
ATOM     62  C   UNL A   1      46.919  30.448  28.992  1.00  0.00     0.074 A 
ATOM     63  C   UNL A   1      50.046  24.848  29.068  1.00  0.00     0.029 A 
ATOM     64  N   UNL A   1      50.109  26.979  28.488  1.00  0.00    -0.354 N 
ATOM     65  N   UNL A   1      47.454  30.015  30.103  1.00  0.00    -0.248 NA
ATOM     66  C   UNL A   1      47.814  30.475  27.846  1.00  0.00     0.031 C 
ATOM     67  C   UNL A   1      49.694  25.660  30.183  1.00  0.00     0.029 A 
ATOM     68  C   UNL A   1      49.575  26.983  29.751  1.00  0.00     0.049 A 
ATOM     69  H   UNL A   1      50.462  27.769  28.017  1.00  0.00     0.167 HD
ATOM     70  C   UNL A   1      48.536  29.256  29.684  1.00  0.00     0.074 A 
ATOM     71  C   UNL A   1      48.809  29.721  28.326  1.00  0.00     0.031 C 
ATOM     72  C   UNL A   1      48.900  28.121  30.354  1.00  0.00     0.031 A 
BRANCH  59  73
ATOM     73  C   UNL A   1      50.537  26.322  25.516  1.00  0.00    -0.014 A 
ATOM     74  C   UNL A   1      49.824  27.138  24.619  1.00  0.00     0.010 A 
ATOM     75  C   UNL A   1      51.888  26.057  25.204  1.00  0.00     0.010 A 
ATOM     76  C   UNL A   1      50.415  27.600  23.437  1.00  0.00     0.020 A 
ATOM     77  C   UNL A   1      52.503  26.557  24.060  1.00  0.00     0.020 A 
ATOM     78  C   UNL A   1      51.748  27.291  23.161  1.00  0.00     0.054 A 
BRANCH  78  79
ATOM     79  S   UNL A   1      52.469  27.778  21.578  1.00  0.00     0.124 S 
ATOM     80  O   UNL A   1      51.277  28.084  20.794  1.00  0.00    -0.237 OA
ATOM     81  O   UNL A   1      53.296  28.920  21.953  1.00  0.00    -0.237 OA
ATOM     82  O   UNL A   1      53.208  26.589  21.160  1.00  0.00    -0.744 OA
ENDBRANCH  78  79
ENDBRANCH  59  73
BRANCH  60  83
ATOM     83  C   UNL A   1      44.613  31.603  28.398  1.00  0.00    -0.014 A 
ATOM     84  C   UNL A   1      43.886  32.333  29.353  1.00  0.00     0.010 A 
ATOM     85  C   UNL A   1      44.709  32.151  27.097  1.00  0.00     0.010 A 
ATOM     86  C   UNL A   1      43.328  33.588  29.037  1.00  0.00     0.020 A 
ATOM     87  C   UNL A   1      44.154  33.397  26.773  1.00  0.00     0.020 A 
ATOM     88  C   UNL A   1      43.483  34.121  27.753  1.00  0.00     0.054 A 
BRANCH  88  89
ATOM     89  S   UNL A   1      42.914  35.813  27.406  1.00  0.00     0.124 S 
ATOM     90  O   UNL A   1      43.801  36.619  28.238  1.00  0.00    -0.237 OA
ATOM     91  O   UNL A   1      43.120  35.931  25.964  1.00  0.00    -0.237 OA
ATOM     92  O   UNL A   1      41.513  35.800  27.827  1.00  0.00    -0.744 OA
ENDBRANCH  88  89
ENDBRANCH  60  83
BRANCH  72  93
ATOM     93  C   UNL A   1      48.352  27.901  31.751  1.00  0.00    -0.014 A 
ATOM     94  C   UNL A   1      48.977  28.393  32.914  1.00  0.00     0.010 A 
ATOM     95  C   UNL A   1      47.065  27.347  31.873  1.00  0.00     0.010 A 
ATOM     96  C   UNL A   1      48.333  28.336  34.161  1.00  0.00     0.020 A 
ATOM     97  C   UNL A   1      46.411  27.300  33.109  1.00  0.00     0.020 A 
ATOM     98  C   UNL A   1      47.047  27.795  34.248  1.00  0.00     0.054 A 
BRANCH  98  99
ATOM     99  S   UNL A   1      46.174  27.821  35.842  1.00  0.00     0.124 S 
ATOM    100  O   UNL A   1      47.196  27.359  36.776  1.00  0.00    -0.237 OA
ATOM    101  O   UNL A   1      45.785  29.224  35.984  1.00  0.00    -0.237 OA
ATOM    102  O   UNL A   1      45.056  26.899  35.643  1.00  0.00    -0.744 OA
ENDBRANCH  98  99
ENDBRANCH  72  93
ENDBRANCH  46  47
ENDBRANCH  39  41
ENDBRANCH  38  39
ENDBRANCH  37  38
ENDBRANCH  36  37
ENDBRANCH  35  36
ENDBRANCH   1  35
TORSDOF 22
ENDMDL
MODEL 3
REMARK VINA RESULT:     -10.0      3.087      6.798
REMARK SMILES NS(=O)(=O)c1ccc(-n2nc(NC(=O)NCCCC(=O)OCCOC(=O)c3ccc(-c4c5nc(c(-c6ccc(S(=O)(=O)[O-])cc6)c6ccc([nH]6)c(-c6ccc(S(=O)(=O)[O-])cc6)c6nc(c(-c7ccc(S(=O)(=O)[O-])cc7)c7ccc4[nH]7)C=C6)C=C5)cc3)cc2-c2ccccc2)cc1
REMARK SMILES IDX 19 1 20 2 18 3 17 4 16 5 15 6 12 7 13 8 14 10 11 12 9 13
REMARK SMILES IDX 10 14 88 15 87 16 8 17 5 18 6 19 96 20 7 21 95 22 2 23 3 24
REMARK SMILES IDX 4 25 1 26 89 29 90 30 94 31 91 32 93 33 92 34 21 35 22 36
REMARK SMILES IDX 23 37 24 38 25 39 26 40 27 41 28 42 86 43 29 44 85 45 30 46
REMARK SMILES IDX 31 47 32 48 79 49 33 50 84 51 78 52 80 53 34 54 83 55 77 56
REMARK SMILES IDX 76 57 35 59 65 60 46 61 64 62 47 63 50 64 63 65 81 66 48 67
REMARK SMILES IDX 49 68 62 70 82 71 51 72 36 73 37 74 45 75 38 76 44 77 39 78
REMARK SMILES IDX 40 79 41 80 42 81 43 82 66 83 67 84 75 85 68 86 74 87 69 88
REMARK SMILES IDX 70 89 71 90 72 91 73 92 52 93 53 94 61 95 54 96 60 97 55 98
REMARK SMILES IDX 56 99 57 100 58 101 59 102
REMARK H PARENT 12 9 15 11 1 27 1 28 80 58 50 69
REMARK Flexibility Score: inf
ROOT
ATOM      1  C   UNL A   1      36.119  21.407  24.839  1.00  0.00     0.305 C 
ATOM      2  O   UNL A   1      35.430  20.395  24.800  1.00  0.00    -0.252 OA
ENDROOT
BRANCH   1   3
ATOM      3  C   UNL A   1      36.148  22.426  23.723  1.00  0.00     0.124 C 
BRANCH   3   4
ATOM      4  C   UNL A   1      35.149  23.577  23.788  1.00  0.00     0.033 C 
BRANCH   4   5
ATOM      5  C   UNL A   1      33.909  23.485  22.896  1.00  0.00     0.118 C 
BRANCH   5   6
ATOM      6  N   UNL A   1      33.248  22.188  22.931  1.00  0.00    -0.338 N 
ATOM      7  N   UNL A   1      32.105  22.200  25.023  1.00  0.00    -0.291 N 
ATOM      8  C   UNL A   1      32.488  21.591  23.878  1.00  0.00     0.320 C 
ATOM      9  H   UNL A   1      31.983  21.605  25.798  1.00  0.00     0.173 HD
ATOM     10  O   UNL A   1      32.226  20.392  23.726  1.00  0.00    -0.248 OA
ATOM     11  H   UNL A   1      33.378  21.647  22.119  1.00  0.00     0.165 HD
BRANCH   7  12
ATOM     12  C   UNL A   1      31.859  23.531  25.261  1.00  0.00     0.157 A 
ATOM     13  N   UNL A   1      31.115  25.471  24.919  1.00  0.00    -0.231 N 
ATOM     14  N   UNL A   1      30.783  24.169  24.820  1.00  0.00    -0.149 NA
ATOM     15  C   UNL A   1      32.135  25.673  25.847  1.00  0.00     0.076 A 
ATOM     16  C   UNL A   1      32.647  24.397  26.056  1.00  0.00     0.078 A 
BRANCH  13  17
ATOM     17  C   UNL A   1      30.427  26.407  24.115  1.00  0.00     0.065 A 
ATOM     18  C   UNL A   1      29.056  28.459  22.871  1.00  0.00     0.082 A 
ATOM     19  C   UNL A   1      30.433  28.308  22.653  1.00  0.00     0.024 A 
ATOM     20  C   UNL A   1      28.349  27.523  23.619  1.00  0.00     0.024 A 
ATOM     21  C   UNL A   1      31.124  27.271  23.269  1.00  0.00     0.030 A 
ATOM     22  C   UNL A   1      29.033  26.479  24.228  1.00  0.00     0.030 A 
BRANCH  18  23
ATOM     23  S   UNL A   1      28.254  29.942  22.357  1.00  0.00     0.238 S 
ATOM     24  O   UNL A   1      27.021  30.083  23.043  1.00  0.00    -0.207 OA
ATOM     25  O   UNL A   1      28.426  30.040  20.915  1.00  0.00    -0.207 OA
BRANCH  23  26
ATOM     26  N   UNL A   1      29.184  31.210  22.948  1.00  0.00    -0.225 NA
ATOM     27  H   UNL A   1      29.625  31.702  22.169  1.00  0.00     0.137 HD
ATOM     28  H   UNL A   1      29.905  30.844  23.570  1.00  0.00     0.137 HD
ENDBRANCH  23  26
ENDBRANCH  18  23
ENDBRANCH  13  17
BRANCH  15  29
ATOM     29  C   UNL A   1      32.529  26.979  26.401  1.00  0.00     0.000 A 
ATOM     30  C   UNL A   1      31.603  27.779  27.094  1.00  0.00     0.010 A 
ATOM     31  C   UNL A   1      33.818  27.487  26.199  1.00  0.00     0.010 A 
ATOM     32  C   UNL A   1      31.921  29.082  27.485  1.00  0.00     0.001 A 
ATOM     33  C   UNL A   1      34.145  28.783  26.615  1.00  0.00     0.001 A 
ATOM     34  C   UNL A   1      33.191  29.587  27.237  1.00  0.00     0.000 A 
ENDBRANCH  15  29
ENDBRANCH   7  12
ENDBRANCH   5   6
ENDBRANCH   4   5
ENDBRANCH   3   4
ENDBRANCH   1   3
BRANCH   1  35
ATOM     35  O   UNL A   1      37.011  21.701  25.821  1.00  0.00    -0.462 OA
BRANCH  35  36
ATOM     36  C   UNL A   1      38.400  21.541  25.478  1.00  0.00     0.274 C 
BRANCH  36  37
ATOM     37  C   UNL A   1      39.342  22.192  26.487  1.00  0.00     0.275 C 
BRANCH  37  38
ATOM     38  O   UNL A   1      40.514  21.417  26.753  1.00  0.00    -0.458 OA
BRANCH  38  39
ATOM     39  C   UNL A   1      41.665  21.962  26.297  1.00  0.00     0.338 C 
ATOM     40  O   UNL A   1      42.426  21.464  25.486  1.00  0.00    -0.246 OA
BRANCH  39  41
ATOM     41  C   UNL A   1      42.032  23.168  27.044  1.00  0.00     0.060 A 
ATOM     42  C   UNL A   1      42.322  24.332  26.308  1.00  0.00     0.016 A 
ATOM     43  C   UNL A   1      42.359  23.061  28.390  1.00  0.00     0.016 A 
ATOM     44  C   UNL A   1      43.077  25.341  26.888  1.00  0.00     0.010 A 
ATOM     45  C   UNL A   1      43.145  24.045  28.947  1.00  0.00     0.010 A 
ATOM     46  C   UNL A   1      43.543  25.153  28.184  1.00  0.00    -0.014 A 
BRANCH  46  47
ATOM     47  C   UNL A   1      44.403  26.124  28.842  1.00  0.00     0.031 A 
ATOM     48  C   UNL A   1      44.358  26.082  30.306  1.00  0.00     0.074 A 
ATOM     49  C   UNL A   1      45.346  26.825  28.186  1.00  0.00     0.049 A 
ATOM     50  N   UNL A   1      43.875  27.017  31.055  1.00  0.00    -0.248 NA
ATOM     51  C   UNL A   1      44.720  24.854  31.026  1.00  0.00     0.031 C 
ATOM     52  C   UNL A   1      45.511  26.908  26.749  1.00  0.00     0.029 A 
ATOM     53  N   UNL A   1      46.450  27.481  28.648  1.00  0.00    -0.354 N 
ATOM     54  C   UNL A   1      44.163  26.612  32.343  1.00  0.00     0.074 A 
ATOM     55  C   UNL A   1      44.385  25.190  32.271  1.00  0.00     0.031 C 
ATOM     56  C   UNL A   1      46.765  27.285  26.440  1.00  0.00     0.029 A 
ATOM     57  C   UNL A   1      47.434  27.634  27.670  1.00  0.00     0.049 A 
ATOM     58  H   UNL A   1      46.543  27.810  29.571  1.00  0.00     0.167 HD
ATOM     59  C   UNL A   1      44.585  27.515  33.268  1.00  0.00     0.031 A 
ATOM     60  C   UNL A   1      48.711  28.057  27.808  1.00  0.00     0.031 A 
ATOM     61  C   UNL A   1      44.389  28.877  32.817  1.00  0.00     0.049 A 
ATOM     62  C   UNL A   1      48.698  28.995  28.949  1.00  0.00     0.074 A 
ATOM     63  C   UNL A   1      43.307  29.610  32.371  1.00  0.00     0.029 A 
ATOM     64  N   UNL A   1      45.516  29.561  32.416  1.00  0.00    -0.354 N 
ATOM     65  N   UNL A   1      48.030  30.117  28.916  1.00  0.00    -0.248 NA
ATOM     66  C   UNL A   1      49.012  28.502  30.282  1.00  0.00     0.031 C 
ATOM     67  C   UNL A   1      43.828  30.516  31.403  1.00  0.00     0.029 A 
ATOM     68  C   UNL A   1      45.212  30.343  31.331  1.00  0.00     0.049 A 
ATOM     69  H   UNL A   1      46.402  29.498  32.842  1.00  0.00     0.167 HD
ATOM     70  C   UNL A   1      47.414  30.181  30.158  1.00  0.00     0.074 A 
ATOM     71  C   UNL A   1      48.190  29.274  31.001  1.00  0.00     0.031 C 
ATOM     72  C   UNL A   1      46.163  30.714  30.295  1.00  0.00     0.031 A 
BRANCH  59  73
ATOM     73  C   UNL A   1      45.581  27.171  34.349  1.00  0.00    -0.014 A 
ATOM     74  C   UNL A   1      46.828  26.647  33.968  1.00  0.00     0.010 A 
ATOM     75  C   UNL A   1      45.245  27.095  35.718  1.00  0.00     0.010 A 
ATOM     76  C   UNL A   1      47.661  26.014  34.900  1.00  0.00     0.020 A 
ATOM     77  C   UNL A   1      46.089  26.518  36.663  1.00  0.00     0.020 A 
ATOM     78  C   UNL A   1      47.275  25.942  36.238  1.00  0.00     0.054 A 
BRANCH  78  79
ATOM     79  S   UNL A   1      48.286  25.013  37.412  1.00  0.00     0.124 S 
ATOM     80  O   UNL A   1      47.537  25.192  38.650  1.00  0.00    -0.237 OA
ATOM     81  O   UNL A   1      48.266  23.669  36.842  1.00  0.00    -0.237 OA
ATOM     82  O   UNL A   1      49.580  25.689  37.357  1.00  0.00    -0.744 OA
ENDBRANCH  78  79
ENDBRANCH  59  73
BRANCH  60  83
ATOM     83  C   UNL A   1      49.907  27.529  27.106  1.00  0.00    -0.014 A 
ATOM     84  C   UNL A   1      49.917  26.260  26.504  1.00  0.00     0.010 A 
ATOM     85  C   UNL A   1      50.991  28.394  26.821  1.00  0.00     0.010 A 
ATOM     86  C   UNL A   1      50.939  25.892  25.605  1.00  0.00     0.020 A 
ATOM     87  C   UNL A   1      52.013  28.034  25.931  1.00  0.00     0.020 A 
ATOM     88  C   UNL A   1      51.970  26.790  25.309  1.00  0.00     0.054 A 
BRANCH  88  89
ATOM     89  S   UNL A   1      53.182  26.374  24.019  1.00  0.00     0.124 S 
ATOM     90  O   UNL A   1      52.410  26.552  22.793  1.00  0.00    -0.237 OA
ATOM     91  O   UNL A   1      54.240  27.356  24.246  1.00  0.00    -0.237 OA
ATOM     92  O   UNL A   1      53.551  24.992  24.323  1.00  0.00    -0.744 OA
ENDBRANCH  88  89
ENDBRANCH  60  83
BRANCH  72  93
ATOM     93  C   UNL A   1      45.611  31.559  29.163  1.00  0.00    -0.014 A 
ATOM     94  C   UNL A   1      45.704  32.964  29.129  1.00  0.00     0.010 A 
ATOM     95  C   UNL A   1      45.157  30.895  28.009  1.00  0.00     0.010 A 
ATOM     96  C   UNL A   1      45.357  33.684  27.974  1.00  0.00     0.020 A 
ATOM     97  C   UNL A   1      44.823  31.605  26.849  1.00  0.00     0.020 A 
ATOM     98  C   UNL A   1      44.926  32.997  26.836  1.00  0.00     0.054 A 
BRANCH  98  99
ATOM     99  S   UNL A   1      44.581  33.922  25.310  1.00  0.00     0.124 S 
ATOM    100  O   UNL A   1      45.880  34.506  24.988  1.00  0.00    -0.237 OA
ATOM    101  O   UNL A   1      44.116  32.884  24.391  1.00  0.00    -0.237 OA
ATOM    102  O   UNL A   1      43.553  34.883  25.709  1.00  0.00    -0.744 OA
ENDBRANCH  98  99
ENDBRANCH  72  93
ENDBRANCH  46  47
ENDBRANCH  39  41
ENDBRANCH  38  39
ENDBRANCH  37  38
ENDBRANCH  36  37
ENDBRANCH  35  36
ENDBRANCH   1  35
TORSDOF 22
ENDMDL
