MODEL 1
REMARK VINA RESULT:      -8.8      0.000      0.000
REMARK SMILES COCC[NH2+]CC(=O)N1C[C@H](OC)C[C@@H]1C(=O)OCCOC(=O)c1ccc(-c2c3nc(c(-c4ccc(S(=O)(=O)[O-])cc4)c4ccc([nH]4)c(-c4ccc(S(=O)(=O)[O-])cc4)c4nc(c(-c5ccc(S(=O)(=O)[O-])cc5)c5ccc2[nH]5)C=C4)C=C3)cc1
REMARK SMILES IDX 18 1 16 2 17 3 15 4 9 5 10 6 11 7 14 8 7 9 8 10 6 11 5 12
REMARK SMILES IDX 4 15 3 16 2 17 1 18 12 19 13 20 19 21 20 22 21 23 22 24
REMARK SMILES IDX 23 25 24 26 25 27 83 28 26 29 82 30 27 31 28 32 29 33 76 34
REMARK SMILES IDX 30 35 81 36 75 37 77 38 31 39 80 40 74 41 73 42 32 44 62 45
REMARK SMILES IDX 43 46 61 47 44 48 47 49 60 50 78 51 45 52 46 53 59 55 79 56
REMARK SMILES IDX 48 57 33 58 34 59 42 60 35 61 41 62 36 63 37 64 38 65 39 66
REMARK SMILES IDX 40 67 63 68 64 69 72 70 65 71 71 72 66 73 67 74 68 75 69 76
REMARK SMILES IDX 70 77 49 78 50 79 58 80 51 81 57 82 52 83 53 84 54 85 55 86
REMARK SMILES IDX 56 87
REMARK H PARENT 5 13 5 14 77 43 47 54
REMARK Flexibility Score: inf
ROOT
ATOM      1  O   UNL A   1      33.279  29.139  25.081  1.00  0.00    -0.461 OA
ENDROOT
BRANCH   1   2
ATOM      2  C   UNL A   1      33.231  27.798  24.900  1.00  0.00     0.329 C 
ATOM      3  O   UNL A   1      33.704  26.978  25.678  1.00  0.00    -0.250 OA
BRANCH   2   4
ATOM      4  C   UNL A   1      32.567  27.407  23.574  1.00  0.00     0.198 C 
ATOM      5  N   UNL A   1      31.692  26.253  23.732  1.00  0.00    -0.321 N 
ATOM      6  C   UNL A   1      31.649  25.548  22.464  1.00  0.00     0.152 C 
ATOM      7  C   UNL A   1      33.040  25.717  21.876  1.00  0.00     0.140 C 
ATOM      8  C   UNL A   1      33.500  27.076  22.393  1.00  0.00     0.071 C 
BRANCH   5   9
ATOM      9  C   UNL A   1      30.507  26.418  24.441  1.00  0.00     0.278 C 
ATOM     10  O   UNL A   1      29.690  27.297  24.183  1.00  0.00    -0.268 OA
BRANCH   9  11
ATOM     11  C   UNL A   1      30.277  25.325  25.494  1.00  0.00     0.362 C 
BRANCH  11  12
ATOM     12  N   UNL A   1      31.409  25.219  26.443  1.00  0.00    -0.337 N 
ATOM     13  H   UNL A   1      32.256  25.563  25.991  1.00  0.00     0.346 HD
ATOM     14  H   UNL A   1      31.191  25.777  27.269  1.00  0.00     0.346 HD
BRANCH  12  15
ATOM     15  C   UNL A   1      31.623  23.827  26.865  1.00  0.00     0.289 C 
BRANCH  15  16
ATOM     16  C   UNL A   1      32.351  22.949  25.839  1.00  0.00     0.221 C 
BRANCH  16  17
ATOM     17  O   UNL A   1      31.980  21.569  25.914  1.00  0.00    -0.379 OA
ATOM     18  C   UNL A   1      32.306  20.827  24.748  1.00  0.00     0.195 C 
ENDBRANCH  16  17
ENDBRANCH  15  16
ENDBRANCH  12  15
ENDBRANCH  11  12
ENDBRANCH   9  11
ENDBRANCH   5   9
BRANCH   7  19
ATOM     19  O   UNL A   1      33.912  24.624  22.190  1.00  0.00    -0.380 OA
ATOM     20  C   UNL A   1      33.355  23.319  22.199  1.00  0.00     0.195 C 
ENDBRANCH   7  19
ENDBRANCH   2   4
ENDBRANCH   1   2
BRANCH   1  21
ATOM     21  C   UNL A   1      32.057  29.801  25.450  1.00  0.00     0.274 C 
BRANCH  21  22
ATOM     22  C   UNL A   1      32.199  30.325  26.879  1.00  0.00     0.275 C 
BRANCH  22  23
ATOM     23  O   UNL A   1      33.542  30.120  27.367  1.00  0.00    -0.458 OA
BRANCH  23  24
ATOM     24  C   UNL A   1      34.223  31.245  27.680  1.00  0.00     0.338 C 
ATOM     25  O   UNL A   1      33.814  32.396  27.639  1.00  0.00    -0.246 OA
BRANCH  24  26
ATOM     26  C   UNL A   1      35.538  30.897  28.228  1.00  0.00     0.060 A 
ATOM     27  C   UNL A   1      35.699  29.648  28.832  1.00  0.00     0.016 A 
ATOM     28  C   UNL A   1      36.574  31.830  28.240  1.00  0.00     0.016 A 
ATOM     29  C   UNL A   1      36.895  29.321  29.461  1.00  0.00     0.010 A 
ATOM     30  C   UNL A   1      37.779  31.500  28.868  1.00  0.00     0.010 A 
ATOM     31  C   UNL A   1      37.941  30.250  29.492  1.00  0.00    -0.014 A 
BRANCH  31  32
ATOM     32  C   UNL A   1      39.186  29.934  30.230  1.00  0.00     0.031 A 
ATOM     33  C   UNL A   1      40.084  28.838  29.731  1.00  0.00     0.074 A 
ATOM     34  C   UNL A   1      39.513  30.641  31.327  1.00  0.00     0.049 A 
ATOM     35  N   UNL A   1      41.140  28.317  30.297  1.00  0.00    -0.248 NA
ATOM     36  C   UNL A   1      39.747  28.251  28.423  1.00  0.00     0.031 C 
ATOM     37  C   UNL A   1      38.757  31.775  31.862  1.00  0.00     0.029 A 
ATOM     38  N   UNL A   1      40.569  30.506  32.191  1.00  0.00    -0.354 N 
ATOM     39  C   UNL A   1      41.583  27.326  29.429  1.00  0.00     0.074 A 
ATOM     40  C   UNL A   1      40.675  27.311  28.302  1.00  0.00     0.031 C 
ATOM     41  C   UNL A   1      39.374  32.231  32.965  1.00  0.00     0.029 A 
ATOM     42  C   UNL A   1      40.534  31.390  33.243  1.00  0.00     0.049 A 
ATOM     43  H   UNL A   1      41.284  29.840  32.071  1.00  0.00     0.167 HD
ATOM     44  C   UNL A   1      42.649  26.501  29.564  1.00  0.00     0.031 A 
ATOM     45  C   UNL A   1      41.328  31.486  34.327  1.00  0.00     0.031 A 
ATOM     46  C   UNL A   1      43.547  26.526  30.688  1.00  0.00     0.049 A 
ATOM     47  C   UNL A   1      42.461  30.510  34.490  1.00  0.00     0.074 A 
ATOM     48  C   UNL A   1      44.640  25.715  30.936  1.00  0.00     0.029 A 
ATOM     49  N   UNL A   1      43.459  27.415  31.749  1.00  0.00    -0.354 N 
ATOM     50  N   UNL A   1      42.837  29.545  33.685  1.00  0.00    -0.248 NA
ATOM     51  C   UNL A   1      43.272  30.634  35.708  1.00  0.00     0.031 C 
ATOM     52  C   UNL A   1      45.194  26.093  32.164  1.00  0.00     0.029 A 
ATOM     53  C   UNL A   1      44.474  27.168  32.656  1.00  0.00     0.049 A 
ATOM     54  H   UNL A   1      42.776  28.118  31.841  1.00  0.00     0.167 HD
ATOM     55  C   UNL A   1      43.944  28.960  34.290  1.00  0.00     0.074 A 
ATOM     56  C   UNL A   1      44.183  29.688  35.521  1.00  0.00     0.031 C 
ATOM     57  C   UNL A   1      44.696  27.914  33.869  1.00  0.00     0.031 A 
BRANCH  44  58
ATOM     58  C   UNL A   1      42.880  25.480  28.485  1.00  0.00    -0.014 A 
ATOM     59  C   UNL A   1      43.758  25.736  27.416  1.00  0.00     0.010 A 
ATOM     60  C   UNL A   1      42.240  24.229  28.562  1.00  0.00     0.010 A 
ATOM     61  C   UNL A   1      43.970  24.769  26.429  1.00  0.00     0.020 A 
ATOM     62  C   UNL A   1      42.466  23.252  27.589  1.00  0.00     0.020 A 
ATOM     63  C   UNL A   1      43.319  23.535  26.520  1.00  0.00     0.054 A 
BRANCH  63  64
ATOM     64  S   UNL A   1      43.632  22.287  25.240  1.00  0.00     0.124 S 
ATOM     65  O   UNL A   1      42.620  21.279  25.551  1.00  0.00    -0.237 OA
ATOM     66  O   UNL A   1      43.415  23.032  24.003  1.00  0.00    -0.237 OA
ATOM     67  O   UNL A   1      45.012  21.878  25.484  1.00  0.00    -0.744 OA
ENDBRANCH  63  64
ENDBRANCH  44  58
BRANCH  45  68
ATOM     68  C   UNL A   1      41.051  32.512  35.370  1.00  0.00    -0.014 A 
ATOM     69  C   UNL A   1      40.202  32.225  36.452  1.00  0.00     0.010 A 
ATOM     70  C   UNL A   1      41.629  33.792  35.275  1.00  0.00     0.010 A 
ATOM     71  C   UNL A   1      39.912  33.206  37.405  1.00  0.00     0.020 A 
ATOM     72  C   UNL A   1      41.364  34.767  36.239  1.00  0.00     0.020 A 
ATOM     73  C   UNL A   1      40.493  34.473  37.290  1.00  0.00     0.054 A 
BRANCH  73  74
ATOM     74  S   UNL A   1      40.128  35.727  38.549  1.00  0.00     0.124 S 
ATOM     75  O   UNL A   1      39.755  36.877  37.732  1.00  0.00    -0.237 OA
ATOM     76  O   UNL A   1      39.044  35.111  39.310  1.00  0.00    -0.237 OA
ATOM     77  O   UNL A   1      41.392  35.856  39.275  1.00  0.00    -0.744 OA
ENDBRANCH  73  74
ENDBRANCH  45  68
BRANCH  57  78
ATOM     78  C   UNL A   1      45.870  27.524  34.721  1.00  0.00    -0.014 A 
ATOM     79  C   UNL A   1      45.747  26.554  35.731  1.00  0.00     0.010 A 
ATOM     80  C   UNL A   1      47.127  28.105  34.473  1.00  0.00     0.010 A 
ATOM     81  C   UNL A   1      46.858  26.193  36.498  1.00  0.00     0.020 A 
ATOM     82  C   UNL A   1      48.244  27.730  35.223  1.00  0.00     0.020 A 
ATOM     83  C   UNL A   1      48.098  26.785  36.242  1.00  0.00     0.054 A 
BRANCH  83  84
ATOM     84  S   UNL A   1      49.536  26.269  37.221  1.00  0.00     0.124 S 
ATOM     85  O   UNL A   1      49.059  25.029  37.826  1.00  0.00    -0.237 OA
ATOM     86  O   UNL A   1      50.578  26.114  36.208  1.00  0.00    -0.237 OA
ATOM     87  O   UNL A   1      49.738  27.379  38.148  1.00  0.00    -0.744 OA
ENDBRANCH  83  84
ENDBRANCH  57  78
ENDBRANCH  31  32
ENDBRANCH  24  26
ENDBRANCH  23  24
ENDBRANCH  22  23
ENDBRANCH  21  22
ENDBRANCH   1  21
TORSDOF 21
ENDMDL
MODEL 2
REMARK VINA RESULT:      -8.7      6.153     11.446
REMARK SMILES COCC[NH2+]CC(=O)N1C[C@H](OC)C[C@@H]1C(=O)OCCOC(=O)c1ccc(-c2c3nc(c(-c4ccc(S(=O)(=O)[O-])cc4)c4ccc([nH]4)c(-c4ccc(S(=O)(=O)[O-])cc4)c4nc(c(-c5ccc(S(=O)(=O)[O-])cc5)c5ccc2[nH]5)C=C4)C=C3)cc1
REMARK SMILES IDX 18 1 16 2 17 3 15 4 9 5 10 6 11 7 14 8 7 9 8 10 6 11 5 12
REMARK SMILES IDX 4 15 3 16 2 17 1 18 12 19 13 20 19 21 20 22 21 23 22 24
REMARK SMILES IDX 23 25 24 26 25 27 83 28 26 29 82 30 27 31 28 32 29 33 76 34
REMARK SMILES IDX 30 35 81 36 75 37 77 38 31 39 80 40 74 41 73 42 32 44 62 45
REMARK SMILES IDX 43 46 61 47 44 48 47 49 60 50 78 51 45 52 46 53 59 55 79 56
REMARK SMILES IDX 48 57 33 58 34 59 42 60 35 61 41 62 36 63 37 64 38 65 39 66
REMARK SMILES IDX 40 67 63 68 64 69 72 70 65 71 71 72 66 73 67 74 68 75 69 76
REMARK SMILES IDX 70 77 49 78 50 79 58 80 51 81 57 82 52 83 53 84 54 85 55 86
REMARK SMILES IDX 56 87
REMARK H PARENT 5 13 5 14 77 43 47 54
REMARK Flexibility Score: inf
ROOT
ATOM      1  O   UNL A   1      34.077  33.705  28.991  1.00  0.00    -0.461 OA
ENDROOT
BRANCH   1   2
ATOM      2  C   UNL A   1      34.255  33.639  30.332  1.00  0.00     0.329 C 
ATOM      3  O   UNL A   1      34.386  32.595  30.961  1.00  0.00    -0.250 OA
BRANCH   2   4
ATOM      4  C   UNL A   1      34.216  35.019  31.000  1.00  0.00     0.198 C 
ATOM      5  N   UNL A   1      34.337  34.917  32.448  1.00  0.00    -0.321 N 
ATOM      6  C   UNL A   1      33.649  36.053  33.034  1.00  0.00     0.152 C 
ATOM      7  C   UNL A   1      32.470  36.314  32.112  1.00  0.00     0.140 C 
ATOM      8  C   UNL A   1      32.973  35.891  30.735  1.00  0.00     0.071 C 
BRANCH   5   9
ATOM      9  C   UNL A   1      35.564  34.538  32.980  1.00  0.00     0.278 C 
ATOM     10  O   UNL A   1      36.596  35.179  32.808  1.00  0.00    -0.268 OA
BRANCH   9  11
ATOM     11  C   UNL A   1      35.470  33.307  33.893  1.00  0.00     0.362 C 
BRANCH  11  12
ATOM     12  N   UNL A   1      36.440  32.254  33.511  1.00  0.00    -0.337 N 
ATOM     13  H   UNL A   1      35.941  31.374  33.379  1.00  0.00     0.346 HD
ATOM     14  H   UNL A   1      36.901  32.539  32.647  1.00  0.00     0.346 HD
BRANCH  12  15
ATOM     15  C   UNL A   1      37.466  32.073  34.548  1.00  0.00     0.289 C 
BRANCH  15  16
ATOM     16  C   UNL A   1      38.903  32.341  34.085  1.00  0.00     0.221 C 
BRANCH  16  17
ATOM     17  O   UNL A   1      39.152  31.910  32.744  1.00  0.00    -0.379 OA
ATOM     18  C   UNL A   1      40.451  32.236  32.272  1.00  0.00     0.195 C 
ENDBRANCH  16  17
ENDBRANCH  15  16
ENDBRANCH  12  15
ENDBRANCH  11  12
ENDBRANCH   9  11
ENDBRANCH   5   9
BRANCH   7  19
ATOM     19  O   UNL A   1      31.270  35.659  32.544  1.00  0.00    -0.380 OA
ATOM     20  C   UNL A   1      30.347  36.417  33.311  1.00  0.00     0.195 C 
ENDBRANCH   7  19
ENDBRANCH   2   4
ENDBRANCH   1   2
BRANCH   1  21
ATOM     21  C   UNL A   1      34.216  32.484  28.244  1.00  0.00     0.274 C 
BRANCH  21  22
ATOM     22  C   UNL A   1      35.704  32.189  28.066  1.00  0.00     0.275 C 
BRANCH  22  23
ATOM     23  O   UNL A   1      35.931  30.771  27.925  1.00  0.00    -0.458 OA
BRANCH  23  24
ATOM     24  C   UNL A   1      36.428  30.151  29.019  1.00  0.00     0.338 C 
ATOM     25  O   UNL A   1      35.803  29.733  29.983  1.00  0.00    -0.246 OA
BRANCH  24  26
ATOM     26  C   UNL A   1      37.864  29.909  28.848  1.00  0.00     0.060 A 
ATOM     27  C   UNL A   1      38.349  29.658  27.563  1.00  0.00     0.016 A 
ATOM     28  C   UNL A   1      38.708  29.828  29.954  1.00  0.00     0.016 A 
ATOM     29  C   UNL A   1      39.683  29.316  27.370  1.00  0.00     0.010 A 
ATOM     30  C   UNL A   1      40.051  29.488  29.760  1.00  0.00     0.010 A 
ATOM     31  C   UNL A   1      40.541  29.218  28.469  1.00  0.00    -0.014 A 
BRANCH  31  32
ATOM     32  C   UNL A   1      41.941  28.777  28.275  1.00  0.00     0.031 A 
ATOM     33  C   UNL A   1      43.053  29.783  28.357  1.00  0.00     0.074 A 
ATOM     34  C   UNL A   1      42.210  27.478  28.045  1.00  0.00     0.049 A 
ATOM     35  N   UNL A   1      44.323  29.632  28.087  1.00  0.00    -0.248 NA
ATOM     36  C   UNL A   1      42.686  31.139  28.800  1.00  0.00     0.031 C 
ATOM     37  C   UNL A   1      41.220  26.399  28.018  1.00  0.00     0.029 A 
ATOM     38  N   UNL A   1      43.400  26.846  27.790  1.00  0.00    -0.354 N 
ATOM     39  C   UNL A   1      44.906  30.876  28.303  1.00  0.00     0.074 A 
ATOM     40  C   UNL A   1      43.848  31.773  28.718  1.00  0.00     0.031 C 
ATOM     41  C   UNL A   1      41.845  25.238  27.758  1.00  0.00     0.029 A 
ATOM     42  C   UNL A   1      43.265  25.500  27.547  1.00  0.00     0.049 A 
ATOM     43  H   UNL A   1      44.268  27.311  27.780  1.00  0.00     0.167 HD
ATOM     44  C   UNL A   1      46.204  31.235  28.165  1.00  0.00     0.031 A 
ATOM     45  C   UNL A   1      44.179  24.588  27.163  1.00  0.00     0.031 A 
ATOM     46  C   UNL A   1      47.247  30.334  27.754  1.00  0.00     0.049 A 
ATOM     47  C   UNL A   1      45.601  25.028  26.945  1.00  0.00     0.074 A 
ATOM     48  C   UNL A   1      48.589  30.603  27.554  1.00  0.00     0.029 A 
ATOM     49  N   UNL A   1      47.065  28.984  27.487  1.00  0.00    -0.354 N 
ATOM     50  N   UNL A   1      46.127  26.219  27.105  1.00  0.00    -0.248 NA
ATOM     51  C   UNL A   1      46.549  24.004  26.489  1.00  0.00     0.031 C 
ATOM     52  C   UNL A   1      49.213  29.421  27.135  1.00  0.00     0.029 A 
ATOM     53  C   UNL A   1      48.268  28.410  27.118  1.00  0.00     0.049 A 
ATOM     54  H   UNL A   1      46.206  28.507  27.551  1.00  0.00     0.167 HD
ATOM     55  C   UNL A   1      47.474  26.081  26.791  1.00  0.00     0.074 A 
ATOM     56  C   UNL A   1      47.683  24.689  26.445  1.00  0.00     0.031 C 
ATOM     57  C   UNL A   1      48.452  27.020  26.787  1.00  0.00     0.031 A 
BRANCH  44  58
ATOM     58  C   UNL A   1      46.560  32.672  28.426  1.00  0.00    -0.014 A 
ATOM     59  C   UNL A   1      46.982  33.097  29.699  1.00  0.00     0.010 A 
ATOM     60  C   UNL A   1      46.512  33.604  27.373  1.00  0.00     0.010 A 
ATOM     61  C   UNL A   1      47.322  34.435  29.920  1.00  0.00     0.020 A 
ATOM     62  C   UNL A   1      46.872  34.937  27.585  1.00  0.00     0.020 A 
ATOM     63  C   UNL A   1      47.261  35.348  28.862  1.00  0.00     0.054 A 
BRANCH  63  64
ATOM     64  S   UNL A   1      47.733  37.072  29.169  1.00  0.00     0.124 S 
ATOM     65  O   UNL A   1      48.473  36.962  30.424  1.00  0.00    -0.237 OA
ATOM     66  O   UNL A   1      48.536  37.401  27.994  1.00  0.00    -0.237 OA
ATOM     67  O   UNL A   1      46.454  37.771  29.260  1.00  0.00    -0.744 OA
ENDBRANCH  63  64
ENDBRANCH  44  58
BRANCH  45  68
ATOM     68  C   UNL A   1      43.771  23.178  26.912  1.00  0.00    -0.014 A 
ATOM     69  C   UNL A   1      44.054  22.558  25.683  1.00  0.00     0.010 A 
ATOM     70  C   UNL A   1      43.083  22.453  27.902  1.00  0.00     0.010 A 
ATOM     71  C   UNL A   1      43.632  21.248  25.437  1.00  0.00     0.020 A 
ATOM     72  C   UNL A   1      42.682  21.135  27.671  1.00  0.00     0.020 A 
ATOM     73  C   UNL A   1      42.945  20.546  26.432  1.00  0.00     0.054 A 
BRANCH  73  74
ATOM     74  S   UNL A   1      42.427  18.838  26.107  1.00  0.00     0.124 S 
ATOM     75  O   UNL A   1      41.031  19.014  25.721  1.00  0.00    -0.237 OA
ATOM     76  O   UNL A   1      43.333  18.426  25.038  1.00  0.00    -0.237 OA
ATOM     77  O   UNL A   1      42.644  18.168  27.389  1.00  0.00    -0.744 OA
ENDBRANCH  73  74
ENDBRANCH  45  68
BRANCH  57  78
ATOM     78  C   UNL A   1      49.841  26.564  26.440  1.00  0.00    -0.014 A 
ATOM     79  C   UNL A   1      50.698  26.031  27.419  1.00  0.00     0.010 A 
ATOM     80  C   UNL A   1      50.275  26.624  25.103  1.00  0.00     0.010 A 
ATOM     81  C   UNL A   1      51.978  25.594  27.070  1.00  0.00     0.020 A 
ATOM     82  C   UNL A   1      51.545  26.167  24.747  1.00  0.00     0.020 A 
ATOM     83  C   UNL A   1      52.395  25.667  25.737  1.00  0.00     0.054 A 
BRANCH  83  84
ATOM     84  S   UNL A   1      54.045  25.053  25.299  1.00  0.00     0.124 S 
ATOM     85  O   UNL A   1      54.417  25.942  24.203  1.00  0.00    -0.237 OA
ATOM     86  O   UNL A   1      54.797  25.234  26.539  1.00  0.00    -0.237 OA
ATOM     87  O   UNL A   1      53.806  23.662  24.921  1.00  0.00    -0.744 OA
ENDBRANCH  83  84
ENDBRANCH  57  78
ENDBRANCH  31  32
ENDBRANCH  24  26
ENDBRANCH  23  24
ENDBRANCH  22  23
ENDBRANCH  21  22
ENDBRANCH   1  21
TORSDOF 21
ENDMDL
MODEL 3
REMARK VINA RESULT:      -8.7      4.746      6.941
REMARK SMILES COCC[NH2+]CC(=O)N1C[C@H](OC)C[C@@H]1C(=O)OCCOC(=O)c1ccc(-c2c3nc(c(-c4ccc(S(=O)(=O)[O-])cc4)c4ccc([nH]4)c(-c4ccc(S(=O)(=O)[O-])cc4)c4nc(c(-c5ccc(S(=O)(=O)[O-])cc5)c5ccc2[nH]5)C=C4)C=C3)cc1
REMARK SMILES IDX 18 1 16 2 17 3 15 4 9 5 10 6 11 7 14 8 7 9 8 10 6 11 5 12
REMARK SMILES IDX 4 15 3 16 2 17 1 18 12 19 13 20 19 21 20 22 21 23 22 24
REMARK SMILES IDX 23 25 24 26 25 27 83 28 26 29 82 30 27 31 28 32 29 33 76 34
REMARK SMILES IDX 30 35 81 36 75 37 77 38 31 39 80 40 74 41 73 42 32 44 62 45
REMARK SMILES IDX 43 46 61 47 44 48 47 49 60 50 78 51 45 52 46 53 59 55 79 56
REMARK SMILES IDX 48 57 33 58 34 59 42 60 35 61 41 62 36 63 37 64 38 65 39 66
REMARK SMILES IDX 40 67 63 68 64 69 72 70 65 71 71 72 66 73 67 74 68 75 69 76
REMARK SMILES IDX 70 77 49 78 50 79 58 80 51 81 57 82 52 83 53 84 54 85 55 86
REMARK SMILES IDX 56 87
REMARK H PARENT 5 13 5 14 77 43 47 54
REMARK Flexibility Score: inf
ROOT
ATOM      1  O   UNL A   1      34.198  22.859  26.454  1.00  0.00    -0.461 OA
ENDROOT
BRANCH   1   2
ATOM      2  C   UNL A   1      32.872  22.692  26.672  1.00  0.00     0.329 C 
ATOM      3  O   UNL A   1      32.325  22.852  27.757  1.00  0.00    -0.250 OA
BRANCH   2   4
ATOM      4  C   UNL A   1      32.124  22.220  25.419  1.00  0.00     0.198 C 
ATOM      5  N   UNL A   1      33.022  21.573  24.471  1.00  0.00    -0.321 N 
ATOM      6  C   UNL A   1      32.478  21.764  23.139  1.00  0.00     0.152 C 
ATOM      7  C   UNL A   1      31.829  23.138  23.176  1.00  0.00     0.140 C 
ATOM      8  C   UNL A   1      31.354  23.287  24.618  1.00  0.00     0.071 C 
BRANCH   5   9
ATOM      9  C   UNL A   1      33.543  20.328  24.803  1.00  0.00     0.278 C 
ATOM     10  O   UNL A   1      34.745  20.118  24.932  1.00  0.00    -0.268 OA
BRANCH   9  11
ATOM     11  C   UNL A   1      32.459  19.282  25.103  1.00  0.00     0.362 C 
BRANCH  11  12
ATOM     12  N   UNL A   1      32.866  18.354  26.184  1.00  0.00    -0.337 N 
ATOM     13  H   UNL A   1      33.836  18.543  26.437  1.00  0.00     0.346 HD
ATOM     14  H   UNL A   1      32.250  18.500  26.984  1.00  0.00     0.346 HD
BRANCH  12  15
ATOM     15  C   UNL A   1      32.748  16.952  25.755  1.00  0.00     0.289 C 
BRANCH  15  16
ATOM     16  C   UNL A   1      33.215  16.677  24.320  1.00  0.00     0.221 C 
BRANCH  16  17
ATOM     17  O   UNL A   1      34.270  15.714  24.246  1.00  0.00    -0.379 OA
ATOM     18  C   UNL A   1      35.236  15.845  25.278  1.00  0.00     0.195 C 
ENDBRANCH  16  17
ENDBRANCH  15  16
ENDBRANCH  12  15
ENDBRANCH  11  12
ENDBRANCH   9  11
ENDBRANCH   5   9
BRANCH   7  19
ATOM     19  O   UNL A   1      32.702  24.177  22.717  1.00  0.00    -0.380 OA
ATOM     20  C   UNL A   1      32.105  25.338  22.160  1.00  0.00     0.195 C 
ENDBRANCH   7  19
ENDBRANCH   2   4
ENDBRANCH   1   2
BRANCH   1  21
ATOM     21  C   UNL A   1      34.623  24.108  25.883  1.00  0.00     0.274 C 
BRANCH  21  22
ATOM     22  C   UNL A   1      36.094  23.987  25.486  1.00  0.00     0.275 C 
BRANCH  22  23
ATOM     23  O   UNL A   1      36.833  23.250  26.482  1.00  0.00    -0.458 OA
BRANCH  23  24
ATOM     24  C   UNL A   1      38.130  23.012  26.184  1.00  0.00     0.338 C 
ATOM     25  O   UNL A   1      38.582  22.090  25.521  1.00  0.00    -0.246 OA
BRANCH  24  26
ATOM     26  C   UNL A   1      38.964  24.117  26.665  1.00  0.00     0.060 A 
ATOM     27  C   UNL A   1      38.891  24.469  28.015  1.00  0.00     0.016 A 
ATOM     28  C   UNL A   1      39.734  24.867  25.777  1.00  0.00     0.016 A 
ATOM     29  C   UNL A   1      39.581  25.579  28.490  1.00  0.00     0.010 A 
ATOM     30  C   UNL A   1      40.432  25.980  26.255  1.00  0.00     0.010 A 
ATOM     31  C   UNL A   1      40.348  26.349  27.611  1.00  0.00    -0.014 A 
BRANCH  31  32
ATOM     32  C   UNL A   1      41.019  27.576  28.097  1.00  0.00     0.031 A 
ATOM     33  C   UNL A   1      42.518  27.667  28.055  1.00  0.00     0.074 A 
ATOM     34  C   UNL A   1      40.284  28.606  28.557  1.00  0.00     0.049 A 
ATOM     35  N   UNL A   1      43.302  28.588  28.551  1.00  0.00    -0.248 NA
ATOM     36  C   UNL A   1      43.227  26.577  27.363  1.00  0.00     0.031 C 
ATOM     37  C   UNL A   1      38.821  28.661  28.577  1.00  0.00     0.029 A 
ATOM     38  N   UNL A   1      40.671  29.806  29.096  1.00  0.00    -0.354 N 
ATOM     39  C   UNL A   1      44.598  28.180  28.255  1.00  0.00     0.074 A 
ATOM     40  C   UNL A   1      44.495  26.924  27.543  1.00  0.00     0.031 C 
ATOM     41  C   UNL A   1      38.434  29.834  29.105  1.00  0.00     0.029 A 
ATOM     42  C   UNL A   1      39.617  30.587  29.508  1.00  0.00     0.049 A 
ATOM     43  H   UNL A   1      41.613  30.081  29.182  1.00  0.00     0.167 HD
ATOM     44  C   UNL A   1      45.765  28.797  28.553  1.00  0.00     0.031 A 
ATOM     45  C   UNL A   1      39.610  31.761  30.168  1.00  0.00     0.031 A 
ATOM     46  C   UNL A   1      45.856  30.047  29.259  1.00  0.00     0.049 A 
ATOM     47  C   UNL A   1      40.921  32.390  30.553  1.00  0.00     0.074 A 
ATOM     48  C   UNL A   1      46.990  30.744  29.637  1.00  0.00     0.029 A 
ATOM     49  N   UNL A   1      44.766  30.792  29.687  1.00  0.00    -0.354 N 
ATOM     50  N   UNL A   1      42.139  31.968  30.309  1.00  0.00    -0.248 NA
ATOM     51  C   UNL A   1      40.857  33.650  31.305  1.00  0.00     0.031 C 
ATOM     52  C   UNL A   1      46.586  31.895  30.323  1.00  0.00     0.029 A 
ATOM     53  C   UNL A   1      45.202  31.937  30.331  1.00  0.00     0.049 A 
ATOM     54  H   UNL A   1      43.824  30.543  29.551  1.00  0.00     0.167 HD
ATOM     55  C   UNL A   1      42.986  32.923  30.860  1.00  0.00     0.074 A 
ATOM     56  C   UNL A   1      42.142  33.950  31.436  1.00  0.00     0.031 C 
ATOM     57  C   UNL A   1      44.341  32.949  30.888  1.00  0.00     0.031 A 
BRANCH  44  58
ATOM     58  C   UNL A   1      47.040  28.111  28.146  1.00  0.00    -0.014 A 
ATOM     59  C   UNL A   1      47.620  28.340  26.885  1.00  0.00     0.010 A 
ATOM     60  C   UNL A   1      47.688  27.254  29.053  1.00  0.00     0.010 A 
ATOM     61  C   UNL A   1      48.812  27.703  26.530  1.00  0.00     0.020 A 
ATOM     62  C   UNL A   1      48.891  26.631  28.710  1.00  0.00     0.020 A 
ATOM     63  C   UNL A   1      49.438  26.848  27.443  1.00  0.00     0.054 A 
BRANCH  63  64
ATOM     64  S   UNL A   1      50.998  26.054  26.968  1.00  0.00     0.124 S 
ATOM     65  O   UNL A   1      50.720  24.649  27.261  1.00  0.00    -0.237 OA
ATOM     66  O   UNL A   1      51.113  26.388  25.551  1.00  0.00    -0.237 OA
ATOM     67  O   UNL A   1      51.988  26.686  27.836  1.00  0.00    -0.744 OA
ENDBRANCH  63  64
ENDBRANCH  44  58
BRANCH  45  68
ATOM     68  C   UNL A   1      38.319  32.396  30.552  1.00  0.00    -0.014 A 
ATOM     69  C   UNL A   1      37.805  32.246  31.851  1.00  0.00     0.010 A 
ATOM     70  C   UNL A   1      37.590  33.145  29.610  1.00  0.00     0.010 A 
ATOM     71  C   UNL A   1      36.572  32.810  32.195  1.00  0.00     0.020 A 
ATOM     72  C   UNL A   1      36.371  33.732  29.956  1.00  0.00     0.020 A 
ATOM     73  C   UNL A   1      35.861  33.546  31.243  1.00  0.00     0.054 A 
BRANCH  73  74
ATOM     74  S   UNL A   1      34.275  34.293  31.711  1.00  0.00     0.124 S 
ATOM     75  O   UNL A   1      34.704  35.502  32.407  1.00  0.00    -0.237 OA
ATOM     76  O   UNL A   1      33.626  34.503  30.419  1.00  0.00    -0.237 OA
ATOM     77  O   UNL A   1      33.654  33.272  32.553  1.00  0.00    -0.744 OA
ENDBRANCH  73  74
ENDBRANCH  45  68
BRANCH  57  78
ATOM     78  C   UNL A   1      44.992  34.145  31.524  1.00  0.00    -0.014 A 
ATOM     79  C   UNL A   1      45.323  34.152  32.890  1.00  0.00     0.010 A 
ATOM     80  C   UNL A   1      45.320  35.258  30.729  1.00  0.00     0.010 A 
ATOM     81  C   UNL A   1      45.946  35.267  33.457  1.00  0.00     0.020 A 
ATOM     82  C   UNL A   1      45.962  36.365  31.287  1.00  0.00     0.020 A 
ATOM     83  C   UNL A   1      46.259  36.368  32.653  1.00  0.00     0.054 A 
BRANCH  83  84
ATOM     84  S   UNL A   1      47.108  37.787  33.399  1.00  0.00     0.124 S 
ATOM     85  O   UNL A   1      47.418  37.285  34.735  1.00  0.00    -0.237 OA
ATOM     86  O   UNL A   1      48.257  37.977  32.517  1.00  0.00    -0.237 OA
ATOM     87  O   UNL A   1      46.109  38.852  33.349  1.00  0.00    -0.744 OA
ENDBRANCH  83  84
ENDBRANCH  57  78
ENDBRANCH  31  32
ENDBRANCH  24  26
ENDBRANCH  23  24
ENDBRANCH  22  23
ENDBRANCH  21  22
ENDBRANCH   1  21
TORSDOF 21
ENDMDL
