MODEL 1
REMARK VINA RESULT:     -12.3      0.000      0.000
REMARK SMILES Cc1c(N[C@@H]2CC[C@@H]([NH3+])C2)cccc1C(=O)OCCOC(=O)c1ccc(-c2c3nc(c(-c4ccc(S(=O)(=O)[O-])cc4)c4ccc([nH]4)c(-c4ccc(S(=O)(=O)[O-])cc4)c4nc(c(-c5ccc(S(=O)(=O)[O-])cc5)c5ccc2[nH]5)C=C4)C=C3)cc1
REMARK SMILES IDX 18 1 17 2 15 3 16 4 14 5 1 6 2 7 3 8 11 9 13 10 12 11 4 12
REMARK SMILES IDX 5 14 6 15 10 16 7 17 8 18 9 19 19 23 20 24 21 25 22 26 23 27
REMARK SMILES IDX 24 28 82 29 25 30 81 31 26 32 27 33 28 34 75 35 29 36 80 37
REMARK SMILES IDX 74 38 76 39 30 40 79 41 73 42 72 43 31 45 61 46 42 47 60 48
REMARK SMILES IDX 43 49 46 50 59 51 77 52 44 53 45 54 58 56 78 57 47 58 32 59
REMARK SMILES IDX 33 60 41 61 34 62 40 63 35 64 36 65 37 66 38 67 39 68 62 69
REMARK SMILES IDX 63 70 71 71 64 72 70 73 65 74 66 75 67 76 68 77 69 78 48 79
REMARK SMILES IDX 49 80 57 81 50 82 56 83 51 84 52 85 53 86 54 87 55 88
REMARK H PARENT 4 13 9 20 9 21 9 22 76 44 46 55
REMARK Flexibility Score: inf
ROOT
ATOM      1  C   UNL A   1      33.436  29.698  26.807  1.00  0.00     0.275 C 
ENDROOT
BRANCH   1   2
ATOM      2  O   UNL A   1      32.620  28.611  26.333  1.00  0.00    -0.458 OA
BRANCH   2   3
ATOM      3  C   UNL A   1      32.605  28.526  24.976  1.00  0.00     0.338 C 
ATOM      4  O   UNL A   1      33.051  29.355  24.222  1.00  0.00    -0.246 OA
BRANCH   3   5
ATOM      5  C   UNL A   1      31.868  27.342  24.466  1.00  0.00     0.065 A 
ATOM      6  C   UNL A   1      34.013  26.003  24.695  1.00  0.00     0.047 C 
ATOM      7  C   UNL A   1      32.519  26.090  24.493  1.00  0.00    -0.013 A 
ATOM      8  C   UNL A   1      31.773  24.908  24.272  1.00  0.00     0.038 A 
ATOM      9  C   UNL A   1      30.391  25.023  24.061  1.00  0.00     0.026 A 
ATOM     10  C   UNL A   1      30.513  27.426  24.146  1.00  0.00     0.016 A 
ATOM     11  C   UNL A   1      29.764  26.265  23.984  1.00  0.00     0.003 A 
BRANCH   8  12
ATOM     12  N   UNL A   1      32.442  23.702  24.188  1.00  0.00    -0.382 N 
ATOM     13  H   UNL A   1      32.846  23.503  23.313  1.00  0.00     0.160 HD
BRANCH  12  14
ATOM     14  C   UNL A   1      32.633  22.691  25.205  1.00  0.00     0.085 C 
ATOM     15  C   UNL A   1      32.598  23.180  26.659  1.00  0.00     0.031 C 
ATOM     16  C   UNL A   1      33.924  21.899  25.032  1.00  0.00     0.089 C 
ATOM     17  C   UNL A   1      33.817  22.540  27.326  1.00  0.00     0.067 C 
ATOM     18  C   UNL A   1      34.199  21.357  26.434  1.00  0.00     0.182 C 
BRANCH  18  19
ATOM     19  N   UNL A   1      33.378  20.182  26.742  1.00  0.00    -0.355 N 
ATOM     20  H   UNL A   1      32.645  20.444  27.401  1.00  0.00     0.344 HD
ATOM     21  H   UNL A   1      33.963  19.456  27.154  1.00  0.00     0.344 HD
ATOM     22  H   UNL A   1      32.954  19.830  25.883  1.00  0.00     0.344 HD
ENDBRANCH  18  19
ENDBRANCH  12  14
ENDBRANCH   8  12
ENDBRANCH   3   5
ENDBRANCH   2   3
ENDBRANCH   1   2
BRANCH   1  23
ATOM     23  C   UNL A   1      34.829  29.234  27.270  1.00  0.00     0.275 C 
BRANCH  23  24
ATOM     24  O   UNL A   1      35.373  29.810  28.477  1.00  0.00    -0.458 OA
BRANCH  24  25
ATOM     25  C   UNL A   1      36.519  30.534  28.350  1.00  0.00     0.338 C 
ATOM     26  O   UNL A   1      36.589  31.735  28.556  1.00  0.00    -0.246 OA
BRANCH  25  27
ATOM     27  C   UNL A   1      37.663  29.576  28.316  1.00  0.00     0.060 A 
ATOM     28  C   UNL A   1      38.579  29.603  27.256  1.00  0.00     0.016 A 
ATOM     29  C   UNL A   1      37.992  28.928  29.510  1.00  0.00     0.016 A 
ATOM     30  C   UNL A   1      39.869  29.107  27.430  1.00  0.00     0.010 A 
ATOM     31  C   UNL A   1      39.296  28.581  29.741  1.00  0.00     0.010 A 
ATOM     32  C   UNL A   1      40.220  28.632  28.691  1.00  0.00    -0.014 A 
BRANCH  32  33
ATOM     33  C   UNL A   1      41.383  27.810  28.953  1.00  0.00     0.031 A 
ATOM     34  C   UNL A   1      41.469  26.397  28.525  1.00  0.00     0.074 A 
ATOM     35  C   UNL A   1      42.380  28.558  29.491  1.00  0.00     0.049 A 
ATOM     36  N   UNL A   1      42.383  25.594  28.936  1.00  0.00    -0.248 NA
ATOM     37  C   UNL A   1      40.540  25.737  27.607  1.00  0.00     0.031 C 
ATOM     38  C   UNL A   1      43.782  28.273  29.720  1.00  0.00     0.029 A 
ATOM     39  N   UNL A   1      42.258  29.829  30.073  1.00  0.00    -0.354 N 
ATOM     40  C   UNL A   1      42.354  24.458  28.148  1.00  0.00     0.074 A 
ATOM     41  C   UNL A   1      41.130  24.549  27.400  1.00  0.00     0.031 C 
ATOM     42  C   UNL A   1      44.221  29.102  30.695  1.00  0.00     0.029 A 
ATOM     43  C   UNL A   1      43.056  29.831  31.199  1.00  0.00     0.049 A 
ATOM     44  H   UNL A   1      41.711  30.577  29.740  1.00  0.00     0.167 HD
ATOM     45  C   UNL A   1      43.464  23.664  28.134  1.00  0.00     0.031 A 
ATOM     46  C   UNL A   1      42.502  29.677  32.444  1.00  0.00     0.031 A 
ATOM     47  C   UNL A   1      44.399  24.137  29.153  1.00  0.00     0.049 A 
ATOM     48  C   UNL A   1      42.979  28.362  33.032  1.00  0.00     0.074 A 
ATOM     49  C   UNL A   1      45.472  25.007  29.079  1.00  0.00     0.029 A 
ATOM     50  N   UNL A   1      44.016  24.078  30.489  1.00  0.00    -0.354 N 
ATOM     51  N   UNL A   1      43.145  27.260  32.342  1.00  0.00    -0.248 NA
ATOM     52  C   UNL A   1      43.455  28.252  34.405  1.00  0.00     0.031 C 
ATOM     53  C   UNL A   1      45.630  25.592  30.367  1.00  0.00     0.029 A 
ATOM     54  C   UNL A   1      44.668  25.058  31.214  1.00  0.00     0.049 A 
ATOM     55  H   UNL A   1      43.374  23.433  30.863  1.00  0.00     0.167 HD
ATOM     56  C   UNL A   1      43.871  26.374  33.097  1.00  0.00     0.074 A 
ATOM     57  C   UNL A   1      43.997  27.023  34.395  1.00  0.00     0.031 C 
ATOM     58  C   UNL A   1      44.412  25.206  32.637  1.00  0.00     0.031 A 
BRANCH  45  59
ATOM     59  C   UNL A   1      43.855  22.673  27.057  1.00  0.00    -0.014 A 
ATOM     60  C   UNL A   1      42.919  21.673  26.702  1.00  0.00     0.010 A 
ATOM     61  C   UNL A   1      45.108  22.597  26.418  1.00  0.00     0.010 A 
ATOM     62  C   UNL A   1      43.225  20.629  25.818  1.00  0.00     0.020 A 
ATOM     63  C   UNL A   1      45.430  21.553  25.526  1.00  0.00     0.020 A 
ATOM     64  C   UNL A   1      44.489  20.565  25.243  1.00  0.00     0.054 A 
BRANCH  64  65
ATOM     65  S   UNL A   1      44.868  19.183  24.131  1.00  0.00     0.124 S 
ATOM     66  O   UNL A   1      44.084  18.093  24.706  1.00  0.00    -0.237 OA
ATOM     67  O   UNL A   1      44.402  19.679  22.839  1.00  0.00    -0.237 OA
ATOM     68  O   UNL A   1      46.317  19.030  24.247  1.00  0.00    -0.744 OA
ENDBRANCH  64  65
ENDBRANCH  45  59
BRANCH  46  69
ATOM     69  C   UNL A   1      41.155  30.313  32.673  1.00  0.00    -0.014 A 
ATOM     70  C   UNL A   1      40.202  29.584  33.428  1.00  0.00     0.010 A 
ATOM     71  C   UNL A   1      40.857  31.659  32.391  1.00  0.00     0.010 A 
ATOM     72  C   UNL A   1      39.075  30.196  33.993  1.00  0.00     0.020 A 
ATOM     73  C   UNL A   1      39.707  32.277  32.938  1.00  0.00     0.020 A 
ATOM     74  C   UNL A   1      38.844  31.550  33.765  1.00  0.00     0.054 A 
BRANCH  74  75
ATOM     75  S   UNL A   1      37.535  32.374  34.736  1.00  0.00     0.124 S 
ATOM     76  O   UNL A   1      37.567  31.633  35.993  1.00  0.00    -0.237 OA
ATOM     77  O   UNL A   1      38.026  33.749  34.804  1.00  0.00    -0.237 OA
ATOM     78  O   UNL A   1      36.340  32.178  33.920  1.00  0.00    -0.744 OA
ENDBRANCH  74  75
ENDBRANCH  46  69
BRANCH  58  79
ATOM     79  C   UNL A   1      44.867  24.091  33.540  1.00  0.00    -0.014 A 
ATOM     80  C   UNL A   1      44.053  22.998  33.865  1.00  0.00     0.010 A 
ATOM     81  C   UNL A   1      46.220  24.042  33.953  1.00  0.00     0.010 A 
ATOM     82  C   UNL A   1      44.532  21.953  34.655  1.00  0.00     0.020 A 
ATOM     83  C   UNL A   1      46.727  22.969  34.683  1.00  0.00     0.020 A 
ATOM     84  C   UNL A   1      45.864  21.950  35.065  1.00  0.00     0.054 A 
BRANCH  84  85
ATOM     85  S   UNL A   1      46.473  20.578  36.065  1.00  0.00     0.124 S 
ATOM     86  O   UNL A   1      47.821  20.399  35.530  1.00  0.00    -0.237 OA
ATOM     87  O   UNL A   1      46.404  21.109  37.424  1.00  0.00    -0.237 OA
ATOM     88  O   UNL A   1      45.534  19.498  35.777  1.00  0.00    -0.744 OA
ENDBRANCH  84  85
ENDBRANCH  58  79
ENDBRANCH  32  33
ENDBRANCH  25  27
ENDBRANCH  24  25
ENDBRANCH  23  24
ENDBRANCH   1  23
TORSDOF 17
ENDMDL
MODEL 2
REMARK VINA RESULT:     -12.0      4.812     11.531
REMARK SMILES Cc1c(N[C@@H]2CC[C@@H]([NH3+])C2)cccc1C(=O)OCCOC(=O)c1ccc(-c2c3nc(c(-c4ccc(S(=O)(=O)[O-])cc4)c4ccc([nH]4)c(-c4ccc(S(=O)(=O)[O-])cc4)c4nc(c(-c5ccc(S(=O)(=O)[O-])cc5)c5ccc2[nH]5)C=C4)C=C3)cc1
REMARK SMILES IDX 18 1 17 2 15 3 16 4 14 5 1 6 2 7 3 8 11 9 13 10 12 11 4 12
REMARK SMILES IDX 5 14 6 15 10 16 7 17 8 18 9 19 19 23 20 24 21 25 22 26 23 27
REMARK SMILES IDX 24 28 82 29 25 30 81 31 26 32 27 33 28 34 75 35 29 36 80 37
REMARK SMILES IDX 74 38 76 39 30 40 79 41 73 42 72 43 31 45 61 46 42 47 60 48
REMARK SMILES IDX 43 49 46 50 59 51 77 52 44 53 45 54 58 56 78 57 47 58 32 59
REMARK SMILES IDX 33 60 41 61 34 62 40 63 35 64 36 65 37 66 38 67 39 68 62 69
REMARK SMILES IDX 63 70 71 71 64 72 70 73 65 74 66 75 67 76 68 77 69 78 48 79
REMARK SMILES IDX 49 80 57 81 50 82 56 83 51 84 52 85 53 86 54 87 55 88
REMARK H PARENT 4 13 9 20 9 21 9 22 76 44 46 55
REMARK Flexibility Score: inf
ROOT
ATOM      1  C   UNL A   1      36.965  22.954  25.731  1.00  0.00     0.275 C 
ENDROOT
BRANCH   1   2
ATOM      2  O   UNL A   1      35.827  23.835  25.761  1.00  0.00    -0.458 OA
BRANCH   2   3
ATOM      3  C   UNL A   1      34.684  23.195  26.128  1.00  0.00     0.338 C 
ATOM      4  O   UNL A   1      34.526  22.590  27.160  1.00  0.00    -0.246 OA
BRANCH   3   5
ATOM      5  C   UNL A   1      33.640  23.198  25.073  1.00  0.00     0.065 A 
ATOM      6  C   UNL A   1      32.874  25.457  25.943  1.00  0.00     0.047 C 
ATOM      7  C   UNL A   1      32.880  24.373  24.891  1.00  0.00    -0.013 A 
ATOM      8  C   UNL A   1      32.071  24.513  23.738  1.00  0.00     0.038 A 
ATOM      9  C   UNL A   1      32.077  23.478  22.792  1.00  0.00     0.026 A 
ATOM     10  C   UNL A   1      33.537  22.144  24.164  1.00  0.00     0.016 A 
ATOM     11  C   UNL A   1      32.789  22.299  23.002  1.00  0.00     0.003 A 
BRANCH   8  12
ATOM     12  N   UNL A   1      31.247  25.617  23.631  1.00  0.00    -0.382 N 
ATOM     13  H   UNL A   1      30.386  25.548  24.101  1.00  0.00     0.160 HD
BRANCH  12  14
ATOM     14  C   UNL A   1      31.472  26.859  22.925  1.00  0.00     0.085 C 
ATOM     15  C   UNL A   1      32.925  27.162  22.537  1.00  0.00     0.031 C 
ATOM     16  C   UNL A   1      30.946  28.080  23.670  1.00  0.00     0.089 C 
ATOM     17  C   UNL A   1      33.158  28.614  22.959  1.00  0.00     0.067 C 
ATOM     18  C   UNL A   1      31.764  29.232  23.089  1.00  0.00     0.182 C 
BRANCH  18  19
ATOM     19  N   UNL A   1      31.258  29.662  21.781  1.00  0.00    -0.355 N 
ATOM     20  H   UNL A   1      31.049  30.660  21.811  1.00  0.00     0.344 HD
ATOM     21  H   UNL A   1      30.409  29.143  21.557  1.00  0.00     0.344 HD
ATOM     22  H   UNL A   1      31.964  29.483  21.067  1.00  0.00     0.344 HD
ENDBRANCH  18  19
ENDBRANCH  12  14
ENDBRANCH   8  12
ENDBRANCH   3   5
ENDBRANCH   2   3
ENDBRANCH   1   2
BRANCH   1  23
ATOM     23  C   UNL A   1      38.299  23.708  25.876  1.00  0.00     0.275 C 
BRANCH  23  24
ATOM     24  O   UNL A   1      38.879  23.821  27.194  1.00  0.00    -0.458 OA
BRANCH  24  25
ATOM     25  C   UNL A   1      40.064  24.484  27.288  1.00  0.00     0.338 C 
ATOM     26  O   UNL A   1      41.082  24.140  26.706  1.00  0.00    -0.246 OA
BRANCH  25  27
ATOM     27  C   UNL A   1      39.788  25.834  27.861  1.00  0.00     0.060 A 
ATOM     28  C   UNL A   1      39.218  25.959  29.135  1.00  0.00     0.016 A 
ATOM     29  C   UNL A   1      40.431  26.925  27.270  1.00  0.00     0.016 A 
ATOM     30  C   UNL A   1      39.406  27.123  29.876  1.00  0.00     0.010 A 
ATOM     31  C   UNL A   1      40.752  28.006  28.045  1.00  0.00     0.010 A 
ATOM     32  C   UNL A   1      40.206  28.123  29.328  1.00  0.00    -0.014 A 
BRANCH  32  33
ATOM     33  C   UNL A   1      40.243  29.489  29.810  1.00  0.00     0.031 A 
ATOM     34  C   UNL A   1      39.112  30.424  29.630  1.00  0.00     0.074 A 
ATOM     35  C   UNL A   1      41.364  29.701  30.545  1.00  0.00     0.049 A 
ATOM     36  N   UNL A   1      39.205  31.687  29.846  1.00  0.00    -0.248 NA
ATOM     37  C   UNL A   1      37.770  30.048  29.180  1.00  0.00     0.031 C 
ATOM     38  C   UNL A   1      41.755  30.795  31.411  1.00  0.00     0.029 A 
ATOM     39  N   UNL A   1      42.519  28.905  30.568  1.00  0.00    -0.354 N 
ATOM     40  C   UNL A   1      37.930  32.223  29.863  1.00  0.00     0.074 A 
ATOM     41  C   UNL A   1      37.079  31.186  29.348  1.00  0.00     0.031 C 
ATOM     42  C   UNL A   1      43.105  30.787  31.508  1.00  0.00     0.029 A 
ATOM     43  C   UNL A   1      43.598  29.766  30.582  1.00  0.00     0.049 A 
ATOM     44  H   UNL A   1      42.554  27.921  30.575  1.00  0.00     0.167 HD
ATOM     45  C   UNL A   1      37.758  33.437  30.461  1.00  0.00     0.031 A 
ATOM     46  C   UNL A   1      44.306  30.012  29.434  1.00  0.00     0.031 A 
ATOM     47  C   UNL A   1      39.068  33.991  30.798  1.00  0.00     0.049 A 
ATOM     48  C   UNL A   1      44.114  31.466  29.044  1.00  0.00     0.074 A 
ATOM     49  C   UNL A   1      39.814  33.936  31.962  1.00  0.00     0.029 A 
ATOM     50  N   UNL A   1      39.948  34.297  29.766  1.00  0.00    -0.354 N 
ATOM     51  N   UNL A   1      42.988  32.124  29.171  1.00  0.00    -0.248 NA
ATOM     52  C   UNL A   1      45.228  32.315  28.639  1.00  0.00     0.031 C 
ATOM     53  C   UNL A   1      41.183  34.060  31.590  1.00  0.00     0.029 A 
ATOM     54  C   UNL A   1      41.254  34.209  30.212  1.00  0.00     0.049 A 
ATOM     55  H   UNL A   1      39.680  34.541  28.850  1.00  0.00     0.167 HD
ATOM     56  C   UNL A   1      43.243  33.464  29.029  1.00  0.00     0.074 A 
ATOM     57  C   UNL A   1      44.648  33.527  28.650  1.00  0.00     0.031 C 
ATOM     58  C   UNL A   1      42.356  34.468  29.300  1.00  0.00     0.031 A 
BRANCH  45  59
ATOM     59  C   UNL A   1      36.462  34.002  31.007  1.00  0.00    -0.014 A 
ATOM     60  C   UNL A   1      35.366  34.124  30.122  1.00  0.00     0.010 A 
ATOM     61  C   UNL A   1      36.261  34.500  32.309  1.00  0.00     0.010 A 
ATOM     62  C   UNL A   1      34.167  34.754  30.485  1.00  0.00     0.020 A 
ATOM     63  C   UNL A   1      35.060  35.136  32.688  1.00  0.00     0.020 A 
ATOM     64  C   UNL A   1      34.025  35.273  31.767  1.00  0.00     0.054 A 
BRANCH  64  65
ATOM     65  S   UNL A   1      32.476  36.114  32.197  1.00  0.00     0.124 S 
ATOM     66  O   UNL A   1      31.605  35.000  32.563  1.00  0.00    -0.237 OA
ATOM     67  O   UNL A   1      32.882  36.982  33.298  1.00  0.00    -0.237 OA
ATOM     68  O   UNL A   1      32.104  36.810  30.966  1.00  0.00    -0.744 OA
ENDBRANCH  64  65
ENDBRANCH  45  59
BRANCH  46  69
ATOM     69  C   UNL A   1      44.484  28.856  28.483  1.00  0.00    -0.014 A 
ATOM     70  C   UNL A   1      44.232  29.090  27.108  1.00  0.00     0.010 A 
ATOM     71  C   UNL A   1      45.098  27.637  28.825  1.00  0.00     0.010 A 
ATOM     72  C   UNL A   1      44.692  28.220  26.110  1.00  0.00     0.020 A 
ATOM     73  C   UNL A   1      45.542  26.742  27.824  1.00  0.00     0.020 A 
ATOM     74  C   UNL A   1      45.367  27.057  26.471  1.00  0.00     0.054 A 
BRANCH  74  75
ATOM     75  S   UNL A   1      46.191  26.096  25.155  1.00  0.00     0.124 S 
ATOM     76  O   UNL A   1      47.313  25.492  25.865  1.00  0.00    -0.237 OA
ATOM     77  O   UNL A   1      45.135  25.172  24.747  1.00  0.00    -0.237 OA
ATOM     78  O   UNL A   1      46.544  27.114  24.169  1.00  0.00    -0.744 OA
ENDBRANCH  74  75
ENDBRANCH  46  69
BRANCH  58  79
ATOM     79  C   UNL A   1      42.516  35.875  28.792  1.00  0.00    -0.014 A 
ATOM     80  C   UNL A   1      43.245  36.854  29.483  1.00  0.00     0.010 A 
ATOM     81  C   UNL A   1      42.064  36.199  27.491  1.00  0.00     0.010 A 
ATOM     82  C   UNL A   1      43.424  38.129  28.950  1.00  0.00     0.020 A 
ATOM     83  C   UNL A   1      42.298  37.448  26.920  1.00  0.00     0.020 A 
ATOM     84  C   UNL A   1      42.942  38.420  27.674  1.00  0.00     0.054 A 
BRANCH  84  85
ATOM     85  S   UNL A   1      43.205  40.069  26.989  1.00  0.00     0.124 S 
ATOM     86  O   UNL A   1      41.920  40.326  26.342  1.00  0.00    -0.237 OA
ATOM     87  O   UNL A   1      43.481  40.874  28.176  1.00  0.00    -0.237 OA
ATOM     88  O   UNL A   1      44.339  39.889  26.088  1.00  0.00    -0.744 OA
ENDBRANCH  84  85
ENDBRANCH  58  79
ENDBRANCH  32  33
ENDBRANCH  25  27
ENDBRANCH  24  25
ENDBRANCH  23  24
ENDBRANCH   1  23
TORSDOF 17
ENDMDL
MODEL 3
REMARK VINA RESULT:     -11.9      1.150      1.602
REMARK SMILES Cc1c(N[C@@H]2CC[C@@H]([NH3+])C2)cccc1C(=O)OCCOC(=O)c1ccc(-c2c3nc(c(-c4ccc(S(=O)(=O)[O-])cc4)c4ccc([nH]4)c(-c4ccc(S(=O)(=O)[O-])cc4)c4nc(c(-c5ccc(S(=O)(=O)[O-])cc5)c5ccc2[nH]5)C=C4)C=C3)cc1
REMARK SMILES IDX 18 1 17 2 15 3 16 4 14 5 1 6 2 7 3 8 11 9 13 10 12 11 4 12
REMARK SMILES IDX 5 14 6 15 10 16 7 17 8 18 9 19 19 23 20 24 21 25 22 26 23 27
REMARK SMILES IDX 24 28 82 29 25 30 81 31 26 32 27 33 28 34 75 35 29 36 80 37
REMARK SMILES IDX 74 38 76 39 30 40 79 41 73 42 72 43 31 45 61 46 42 47 60 48
REMARK SMILES IDX 43 49 46 50 59 51 77 52 44 53 45 54 58 56 78 57 47 58 32 59
REMARK SMILES IDX 33 60 41 61 34 62 40 63 35 64 36 65 37 66 38 67 39 68 62 69
REMARK SMILES IDX 63 70 71 71 64 72 70 73 65 74 66 75 67 76 68 77 69 78 48 79
REMARK SMILES IDX 49 80 57 81 50 82 56 83 51 84 52 85 53 86 54 87 55 88
REMARK H PARENT 4 13 9 20 9 21 9 22 76 44 46 55
REMARK Flexibility Score: inf
ROOT
ATOM      1  C   UNL A   1      32.933  29.618  25.711  1.00  0.00     0.275 C 
ENDROOT
BRANCH   1   2
ATOM      2  O   UNL A   1      31.707  28.866  25.647  1.00  0.00    -0.458 OA
BRANCH   2   3
ATOM      3  C   UNL A   1      31.712  27.948  24.644  1.00  0.00     0.338 C 
ATOM      4  O   UNL A   1      31.754  28.205  23.466  1.00  0.00    -0.246 OA
BRANCH   3   5
ATOM      5  C   UNL A   1      31.540  26.552  25.120  1.00  0.00     0.065 A 
ATOM      6  C   UNL A   1      34.050  26.245  24.890  1.00  0.00     0.047 C 
ATOM      7  C   UNL A   1      32.698  25.793  25.391  1.00  0.00    -0.013 A 
ATOM      8  C   UNL A   1      32.585  24.568  26.092  1.00  0.00     0.038 A 
ATOM      9  C   UNL A   1      31.314  24.163  26.522  1.00  0.00     0.026 A 
ATOM     10  C   UNL A   1      30.280  26.064  25.467  1.00  0.00     0.016 A 
ATOM     11  C   UNL A   1      30.168  24.891  26.204  1.00  0.00     0.003 A 
BRANCH   8  12
ATOM     12  N   UNL A   1      33.711  23.784  26.250  1.00  0.00    -0.382 N 
ATOM     13  H   UNL A   1      34.388  24.138  26.871  1.00  0.00     0.160 HD
BRANCH  12  14
ATOM     14  C   UNL A   1      34.037  22.517  25.633  1.00  0.00     0.085 C 
ATOM     15  C   UNL A   1      33.587  22.340  24.177  1.00  0.00     0.031 C 
ATOM     16  C   UNL A   1      33.513  21.316  26.410  1.00  0.00     0.089 C 
ATOM     17  C   UNL A   1      32.922  20.963  24.127  1.00  0.00     0.067 C 
ATOM     18  C   UNL A   1      33.442  20.213  25.355  1.00  0.00     0.182 C 
BRANCH  18  19
ATOM     19  N   UNL A   1      34.757  19.619  25.089  1.00  0.00    -0.355 N 
ATOM     20  H   UNL A   1      34.801  18.691  25.509  1.00  0.00     0.344 HD
ATOM     21  H   UNL A   1      35.484  20.210  25.492  1.00  0.00     0.344 HD
ATOM     22  H   UNL A   1      34.898  19.545  24.081  1.00  0.00     0.344 HD
ENDBRANCH  18  19
ENDBRANCH  12  14
ENDBRANCH   8  12
ENDBRANCH   3   5
ENDBRANCH   2   3
ENDBRANCH   1   2
BRANCH   1  23
ATOM     23  C   UNL A   1      33.486  29.729  27.143  1.00  0.00     0.275 C 
BRANCH  23  24
ATOM     24  O   UNL A   1      34.892  29.475  27.352  1.00  0.00    -0.458 OA
BRANCH  24  25
ATOM     25  C   UNL A   1      35.669  30.548  27.664  1.00  0.00     0.338 C 
ATOM     26  O   UNL A   1      35.234  31.678  27.822  1.00  0.00    -0.246 OA
BRANCH  25  27
ATOM     27  C   UNL A   1      36.986  30.035  28.143  1.00  0.00     0.060 A 
ATOM     28  C   UNL A   1      37.068  29.297  29.332  1.00  0.00     0.016 A 
ATOM     29  C   UNL A   1      38.033  29.992  27.218  1.00  0.00     0.016 A 
ATOM     30  C   UNL A   1      38.125  28.414  29.537  1.00  0.00     0.010 A 
ATOM     31  C   UNL A   1      38.988  29.020  27.339  1.00  0.00     0.010 A 
ATOM     32  C   UNL A   1      39.058  28.262  28.514  1.00  0.00    -0.014 A 
BRANCH  32  33
ATOM     33  C   UNL A   1      40.357  27.645  28.684  1.00  0.00     0.031 A 
ATOM     34  C   UNL A   1      40.600  26.215  28.400  1.00  0.00     0.074 A 
ATOM     35  C   UNL A   1      41.290  28.584  28.983  1.00  0.00     0.049 A 
ATOM     36  N   UNL A   1      41.672  25.602  28.753  1.00  0.00    -0.248 NA
ATOM     37  C   UNL A   1      39.667  25.323  27.709  1.00  0.00     0.031 C 
ATOM     38  C   UNL A   1      42.738  28.524  29.027  1.00  0.00     0.029 A 
ATOM     39  N   UNL A   1      41.055  29.891  29.438  1.00  0.00    -0.354 N 
ATOM     40  C   UNL A   1      41.711  24.381  28.103  1.00  0.00     0.074 A 
ATOM     41  C   UNL A   1      40.399  24.210  27.543  1.00  0.00     0.031 C 
ATOM     42  C   UNL A   1      43.172  29.522  29.831  1.00  0.00     0.029 A 
ATOM     43  C   UNL A   1      41.987  30.144  30.425  1.00  0.00     0.049 A 
ATOM     44  H   UNL A   1      40.360  30.509  29.114  1.00  0.00     0.167 HD
ATOM     45  C   UNL A   1      42.917  23.751  28.007  1.00  0.00     0.031 A 
ATOM     46  C   UNL A   1      41.634  30.077  31.748  1.00  0.00     0.031 A 
ATOM     47  C   UNL A   1      43.898  24.472  28.817  1.00  0.00     0.049 A 
ATOM     48  C   UNL A   1      42.380  28.924  32.394  1.00  0.00     0.074 A 
ATOM     49  C   UNL A   1      44.805  25.463  28.490  1.00  0.00     0.029 A 
ATOM     50  N   UNL A   1      43.710  24.532  30.194  1.00  0.00    -0.354 N 
ATOM     51  N   UNL A   1      42.619  27.776  31.807  1.00  0.00    -0.248 NA
ATOM     52  C   UNL A   1      43.047  29.055  33.683  1.00  0.00     0.031 C 
ATOM     53  C   UNL A   1      45.043  26.223  29.670  1.00  0.00     0.029 A 
ATOM     54  C   UNL A   1      44.296  25.676  30.703  1.00  0.00     0.049 A 
ATOM     55  H   UNL A   1      43.230  23.858  30.727  1.00  0.00     0.167 HD
ATOM     56  C   UNL A   1      43.566  27.100  32.535  1.00  0.00     0.074 A 
ATOM     57  C   UNL A   1      43.764  27.920  33.722  1.00  0.00     0.031 C 
ATOM     58  C   UNL A   1      44.212  25.967  32.126  1.00  0.00     0.031 A 
BRANCH  45  59
ATOM     59  C   UNL A   1      43.308  22.693  26.994  1.00  0.00    -0.014 A 
ATOM     60  C   UNL A   1      42.665  21.434  27.067  1.00  0.00     0.010 A 
ATOM     61  C   UNL A   1      44.319  22.812  26.022  1.00  0.00     0.010 A 
ATOM     62  C   UNL A   1      43.043  20.344  26.270  1.00  0.00     0.020 A 
ATOM     63  C   UNL A   1      44.709  21.725  25.212  1.00  0.00     0.020 A 
ATOM     64  C   UNL A   1      44.077  20.491  25.353  1.00  0.00     0.054 A 
BRANCH  64  65
ATOM     65  S   UNL A   1      44.567  19.054  24.360  1.00  0.00     0.124 S 
ATOM     66  O   UNL A   1      43.613  18.035  24.790  1.00  0.00    -0.237 OA
ATOM     67  O   UNL A   1      44.394  19.539  22.993  1.00  0.00    -0.237 OA
ATOM     68  O   UNL A   1      45.952  18.811  24.758  1.00  0.00    -0.744 OA
ENDBRANCH  64  65
ENDBRANCH  45  59
BRANCH  46  69
ATOM     69  C   UNL A   1      40.248  30.547  32.108  1.00  0.00    -0.014 A 
ATOM     70  C   UNL A   1      39.771  30.256  33.411  1.00  0.00     0.010 A 
ATOM     71  C   UNL A   1      39.491  31.444  31.333  1.00  0.00     0.010 A 
ATOM     72  C   UNL A   1      38.675  30.928  33.968  1.00  0.00     0.020 A 
ATOM     73  C   UNL A   1      38.367  32.107  31.880  1.00  0.00     0.020 A 
ATOM     74  C   UNL A   1      37.989  31.870  33.207  1.00  0.00     0.054 A 
BRANCH  74  75
ATOM     75  S   UNL A   1      36.753  32.919  34.047  1.00  0.00     0.124 S 
ATOM     76  O   UNL A   1      36.895  32.511  35.442  1.00  0.00    -0.237 OA
ATOM     77  O   UNL A   1      37.232  34.264  33.734  1.00  0.00    -0.237 OA
ATOM     78  O   UNL A   1      35.498  32.538  33.404  1.00  0.00    -0.744 OA
ENDBRANCH  74  75
ENDBRANCH  46  69
BRANCH  58  79
ATOM     79  C   UNL A   1      44.949  25.049  33.063  1.00  0.00    -0.014 A 
ATOM     80  C   UNL A   1      46.341  25.083  33.221  1.00  0.00     0.010 A 
ATOM     81  C   UNL A   1      44.213  24.227  33.950  1.00  0.00     0.010 A 
ATOM     82  C   UNL A   1      46.981  24.259  34.146  1.00  0.00     0.020 A 
ATOM     83  C   UNL A   1      44.837  23.453  34.924  1.00  0.00     0.020 A 
ATOM     84  C   UNL A   1      46.225  23.443  34.986  1.00  0.00     0.054 A 
BRANCH  84  85
ATOM     85  S   UNL A   1      47.068  22.402  36.194  1.00  0.00     0.124 S 
ATOM     86  O   UNL A   1      47.895  23.379  36.899  1.00  0.00    -0.237 OA
ATOM     87  O   UNL A   1      45.963  21.841  36.969  1.00  0.00    -0.237 OA
ATOM     88  O   UNL A   1      47.794  21.439  35.371  1.00  0.00    -0.744 OA
ENDBRANCH  84  85
ENDBRANCH  58  79
ENDBRANCH  32  33
ENDBRANCH  25  27
ENDBRANCH  24  25
ENDBRANCH  23  24
ENDBRANCH   1  23
TORSDOF 17
ENDMDL
