MODEL 1
REMARK VINA RESULT:      -9.3      0.000      0.000
REMARK SMILES O=C(Cc1ccc(-c2ccn(C(F)F)c(=O)c2)cc1)OCCOC(=O)c1ccc(-c2c3nc(c(-c4ccc(S(=O)(=O)[O-])cc4)c4ccc([nH]4)c(-c4ccc(S(=O)(=O)[O-])cc4)c4nc(c(-c5ccc(S(=O)(=O)[O-])cc5)c5ccc2[nH]5)C=C4)C=C3)cc1
REMARK SMILES IDX 21 1 20 2 2 3 1 4 3 5 4 6 5 7 19 8 6 9 18 10 7 11 8 12 9 13
REMARK SMILES IDX 17 14 10 15 15 16 11 17 16 18 12 19 13 20 14 21 22 22 23 23
REMARK SMILES IDX 24 24 25 25 26 26 27 27 85 28 28 29 84 30 29 31 30 32 31 33
REMARK SMILES IDX 78 34 32 35 83 36 77 37 79 38 33 39 82 40 76 41 75 42 34 44
REMARK SMILES IDX 64 45 45 46 63 47 46 48 49 49 62 50 80 51 47 52 48 53 61 55
REMARK SMILES IDX 81 56 50 57 35 58 36 59 44 60 37 61 43 62 38 63 39 64 40 65
REMARK SMILES IDX 41 66 42 67 65 68 66 69 74 70 67 71 73 72 68 73 69 74 70 75
REMARK SMILES IDX 71 76 72 77 51 78 52 79 60 80 53 81 59 82 54 83 55 84 56 85
REMARK SMILES IDX 57 86 58 87
REMARK H PARENT 79 43 49 54
REMARK Flexibility Score: inf
ROOT
ATOM      1  C   UNL A   1      33.413  33.668  28.109  1.00  0.00     0.274 C 
ENDROOT
BRANCH   1   2
ATOM      2  O   UNL A   1      32.728  34.319  29.203  1.00  0.00    -0.462 OA
BRANCH   2   3
ATOM      3  C   UNL A   1      33.170  35.401  29.886  1.00  0.00     0.310 C 
ATOM      4  O   UNL A   1      33.371  36.459  29.291  1.00  0.00    -0.252 OA
BRANCH   3   5
ATOM      5  C   UNL A   1      33.398  35.296  31.374  1.00  0.00     0.158 C 
BRANCH   5   6
ATOM      6  C   UNL A   1      34.564  34.453  31.817  1.00  0.00    -0.037 A 
ATOM      7  C   UNL A   1      35.652  34.193  30.979  1.00  0.00     0.005 A 
ATOM      8  C   UNL A   1      34.525  33.864  33.091  1.00  0.00     0.005 A 
ATOM      9  C   UNL A   1      36.704  33.393  31.423  1.00  0.00     0.009 A 
ATOM     10  C   UNL A   1      35.574  33.060  33.534  1.00  0.00     0.009 A 
ATOM     11  C   UNL A   1      36.674  32.829  32.705  1.00  0.00    -0.018 A 
BRANCH  11  12
ATOM     12  C   UNL A   1      37.775  31.964  33.155  1.00  0.00    -0.011 A 
ATOM     13  C   UNL A   1      38.884  32.463  33.941  1.00  0.00     0.027 A 
ATOM     14  C   UNL A   1      37.725  30.661  32.836  1.00  0.00     0.080 A 
ATOM     15  C   UNL A   1      39.832  31.627  34.378  1.00  0.00     0.095 A 
ATOM     16  C   UNL A   1      38.778  29.720  33.306  1.00  0.00     0.255 A 
ATOM     17  N   UNL A   1      39.784  30.278  34.080  1.00  0.00    -0.258 N 
ATOM     18  O   UNL A   1      38.686  28.537  32.996  1.00  0.00    -0.269 OA
BRANCH  17  19
ATOM     19  C   UNL A   1      40.792  29.384  34.583  1.00  0.00     0.451 C 
ATOM     20  F   UNL A   1      42.026  29.756  34.162  1.00  0.00    -0.185 F 
ATOM     21  F   UNL A   1      40.802  29.372  35.940  1.00  0.00    -0.185 F 
ENDBRANCH  17  19
ENDBRANCH  11  12
ENDBRANCH   5   6
ENDBRANCH   3   5
ENDBRANCH   2   3
ENDBRANCH   1   2
BRANCH   1  22
ATOM     22  C   UNL A   1      34.008  32.330  28.545  1.00  0.00     0.275 C 
BRANCH  22  23
ATOM     23  O   UNL A   1      34.106  31.446  27.414  1.00  0.00    -0.458 OA
BRANCH  23  24
ATOM     24  C   UNL A   1      34.246  30.129  27.707  1.00  0.00     0.338 C 
ATOM     25  O   UNL A   1      33.438  29.244  27.486  1.00  0.00    -0.246 OA
BRANCH  24  26
ATOM     26  C   UNL A   1      35.641  29.882  28.142  1.00  0.00     0.060 A 
ATOM     27  C   UNL A   1      36.660  30.074  27.201  1.00  0.00     0.016 A 
ATOM     28  C   UNL A   1      35.959  29.529  29.460  1.00  0.00     0.016 A 
ATOM     29  C   UNL A   1      37.992  29.886  27.567  1.00  0.00     0.010 A 
ATOM     30  C   UNL A   1      37.297  29.337  29.823  1.00  0.00     0.010 A 
ATOM     31  C   UNL A   1      38.318  29.490  28.872  1.00  0.00    -0.014 A 
BRANCH  31  32
ATOM     32  C   UNL A   1      39.716  29.101  29.182  1.00  0.00     0.031 A 
ATOM     33  C   UNL A   1      40.594  30.078  29.916  1.00  0.00     0.074 A 
ATOM     34  C   UNL A   1      40.185  27.881  28.865  1.00  0.00     0.049 A 
ATOM     35  N   UNL A   1      41.803  29.910  30.385  1.00  0.00    -0.248 NA
ATOM     36  C   UNL A   1      40.033  31.417  30.156  1.00  0.00     0.031 C 
ATOM     37  C   UNL A   1      39.441  26.843  28.153  1.00  0.00     0.029 A 
ATOM     38  N   UNL A   1      41.408  27.309  29.112  1.00  0.00    -0.354 N 
ATOM     39  C   UNL A   1      42.136  31.109  31.002  1.00  0.00     0.074 A 
ATOM     40  C   UNL A   1      41.026  32.014  30.798  1.00  0.00     0.031 C 
ATOM     41  C   UNL A   1      40.227  25.759  28.018  1.00  0.00     0.029 A 
ATOM     42  C   UNL A   1      41.527  26.027  28.632  1.00  0.00     0.049 A 
ATOM     43  H   UNL A   1      42.133  27.774  29.589  1.00  0.00     0.167 HD
ATOM     44  C   UNL A   1      43.254  31.425  31.699  1.00  0.00     0.031 A 
ATOM     45  C   UNL A   1      42.563  25.166  28.686  1.00  0.00     0.031 A 
ATOM     46  C   UNL A   1      44.377  30.545  31.875  1.00  0.00     0.049 A 
ATOM     47  C   UNL A   1      43.820  25.561  29.418  1.00  0.00     0.074 A 
ATOM     48  C   UNL A   1      45.555  30.780  32.563  1.00  0.00     0.029 A 
ATOM     49  N   UNL A   1      44.469  29.266  31.351  1.00  0.00    -0.354 N 
ATOM     50  N   UNL A   1      44.095  26.679  30.046  1.00  0.00    -0.248 NA
ATOM     51  C   UNL A   1      44.899  24.562  29.468  1.00  0.00     0.031 C 
ATOM     52  C   UNL A   1      46.378  29.657  32.417  1.00  0.00     0.029 A 
ATOM     53  C   UNL A   1      45.691  28.704  31.683  1.00  0.00     0.049 A 
ATOM     54  H   UNL A   1      43.768  28.821  30.821  1.00  0.00     0.167 HD
ATOM     55  C   UNL A   1      45.368  26.509  30.583  1.00  0.00     0.074 A 
ATOM     56  C   UNL A   1      45.798  25.174  30.225  1.00  0.00     0.031 C 
ATOM     57  C   UNL A   1      46.113  27.379  31.310  1.00  0.00     0.031 A 
BRANCH  44  58
ATOM     58  C   UNL A   1      43.309  32.794  32.320  1.00  0.00    -0.014 A 
ATOM     59  C   UNL A   1      43.759  33.900  31.576  1.00  0.00     0.010 A 
ATOM     60  C   UNL A   1      42.882  32.985  33.646  1.00  0.00     0.010 A 
ATOM     61  C   UNL A   1      43.811  35.169  32.158  1.00  0.00     0.020 A 
ATOM     62  C   UNL A   1      42.911  34.256  34.223  1.00  0.00     0.020 A 
ATOM     63  C   UNL A   1      43.390  35.339  33.480  1.00  0.00     0.054 A 
BRANCH  63  64
ATOM     64  S   UNL A   1      43.447  37.000  34.203  1.00  0.00     0.124 S 
ATOM     65  O   UNL A   1      44.670  36.940  34.999  1.00  0.00    -0.237 OA
ATOM     66  O   UNL A   1      43.505  37.861  33.024  1.00  0.00    -0.237 OA
ATOM     67  O   UNL A   1      42.207  37.085  34.972  1.00  0.00    -0.744 OA
ENDBRANCH  63  64
ENDBRANCH  44  58
BRANCH  45  68
ATOM     68  C   UNL A   1      42.463  23.837  28.022  1.00  0.00    -0.014 A 
ATOM     69  C   UNL A   1      41.941  22.725  28.705  1.00  0.00     0.010 A 
ATOM     70  C   UNL A   1      42.922  23.677  26.703  1.00  0.00     0.010 A 
ATOM     71  C   UNL A   1      41.902  21.470  28.088  1.00  0.00     0.020 A 
ATOM     72  C   UNL A   1      42.863  22.431  26.074  1.00  0.00     0.020 A 
ATOM     73  C   UNL A   1      42.366  21.331  26.776  1.00  0.00     0.054 A 
BRANCH  73  74
ATOM     74  S   UNL A   1      42.273  19.706  25.973  1.00  0.00     0.124 S 
ATOM     75  O   UNL A   1      42.626  18.807  27.066  1.00  0.00    -0.237 OA
ATOM     76  O   UNL A   1      40.882  19.650  25.530  1.00  0.00    -0.237 OA
ATOM     77  O   UNL A   1      43.256  19.804  24.896  1.00  0.00    -0.744 OA
ENDBRANCH  73  74
ENDBRANCH  45  68
BRANCH  57  78
ATOM     78  C   UNL A   1      47.464  26.907  31.780  1.00  0.00    -0.014 A 
ATOM     79  C   UNL A   1      48.629  27.173  31.038  1.00  0.00     0.010 A 
ATOM     80  C   UNL A   1      47.573  26.206  32.995  1.00  0.00     0.010 A 
ATOM     81  C   UNL A   1      49.871  26.703  31.477  1.00  0.00     0.020 A 
ATOM     82  C   UNL A   1      48.816  25.758  33.450  1.00  0.00     0.020 A 
ATOM     83  C   UNL A   1      49.954  25.991  32.676  1.00  0.00     0.054 A 
BRANCH  83  84
ATOM     84  S   UNL A   1      51.577  25.399  33.232  1.00  0.00     0.124 S 
ATOM     85  O   UNL A   1      51.487  23.967  32.956  1.00  0.00    -0.237 OA
ATOM     86  O   UNL A   1      52.502  26.145  32.383  1.00  0.00    -0.237 OA
ATOM     87  O   UNL A   1      51.611  25.761  34.647  1.00  0.00    -0.744 OA
ENDBRANCH  83  84
ENDBRANCH  57  78
ENDBRANCH  31  32
ENDBRANCH  24  26
ENDBRANCH  23  24
ENDBRANCH  22  23
ENDBRANCH   1  22
TORSDOF 17
ENDMDL
MODEL 2
REMARK VINA RESULT:      -9.2      4.671      6.312
REMARK SMILES O=C(Cc1ccc(-c2ccn(C(F)F)c(=O)c2)cc1)OCCOC(=O)c1ccc(-c2c3nc(c(-c4ccc(S(=O)(=O)[O-])cc4)c4ccc([nH]4)c(-c4ccc(S(=O)(=O)[O-])cc4)c4nc(c(-c5ccc(S(=O)(=O)[O-])cc5)c5ccc2[nH]5)C=C4)C=C3)cc1
REMARK SMILES IDX 21 1 20 2 2 3 1 4 3 5 4 6 5 7 19 8 6 9 18 10 7 11 8 12 9 13
REMARK SMILES IDX 17 14 10 15 15 16 11 17 16 18 12 19 13 20 14 21 22 22 23 23
REMARK SMILES IDX 24 24 25 25 26 26 27 27 85 28 28 29 84 30 29 31 30 32 31 33
REMARK SMILES IDX 78 34 32 35 83 36 77 37 79 38 33 39 82 40 76 41 75 42 34 44
REMARK SMILES IDX 64 45 45 46 63 47 46 48 49 49 62 50 80 51 47 52 48 53 61 55
REMARK SMILES IDX 81 56 50 57 35 58 36 59 44 60 37 61 43 62 38 63 39 64 40 65
REMARK SMILES IDX 41 66 42 67 65 68 66 69 74 70 67 71 73 72 68 73 69 74 70 75
REMARK SMILES IDX 71 76 72 77 51 78 52 79 60 80 53 81 59 82 54 83 55 84 56 85
REMARK SMILES IDX 57 86 58 87
REMARK H PARENT 79 43 49 54
REMARK Flexibility Score: inf
ROOT
ATOM      1  C   UNL A   1      35.010  33.711  31.191  1.00  0.00     0.274 C 
ENDROOT
BRANCH   1   2
ATOM      2  O   UNL A   1      34.043  33.245  30.223  1.00  0.00    -0.462 OA
BRANCH   2   3
ATOM      3  C   UNL A   1      34.131  33.384  28.880  1.00  0.00     0.310 C 
ATOM      4  O   UNL A   1      33.478  34.258  28.311  1.00  0.00    -0.252 OA
BRANCH   3   5
ATOM      5  C   UNL A   1      35.043  32.470  28.099  1.00  0.00     0.158 C 
BRANCH   5   6
ATOM      6  C   UNL A   1      34.446  31.172  27.623  1.00  0.00    -0.037 A 
ATOM      7  C   UNL A   1      33.084  31.045  27.333  1.00  0.00     0.005 A 
ATOM      8  C   UNL A   1      35.275  30.043  27.525  1.00  0.00     0.005 A 
ATOM      9  C   UNL A   1      32.569  29.820  26.911  1.00  0.00     0.009 A 
ATOM     10  C   UNL A   1      34.759  28.817  27.108  1.00  0.00     0.009 A 
ATOM     11  C   UNL A   1      33.404  28.703  26.789  1.00  0.00    -0.018 A 
BRANCH  11  12
ATOM     12  C   UNL A   1      32.847  27.408  26.369  1.00  0.00    -0.011 A 
ATOM     13  C   UNL A   1      33.655  26.376  25.755  1.00  0.00     0.027 A 
ATOM     14  C   UNL A   1      31.542  27.180  26.591  1.00  0.00     0.080 A 
ATOM     15  C   UNL A   1      33.117  25.192  25.444  1.00  0.00     0.095 A 
ATOM     16  C   UNL A   1      30.927  25.871  26.241  1.00  0.00     0.255 A 
ATOM     17  N   UNL A   1      31.782  24.931  25.688  1.00  0.00    -0.258 N 
ATOM     18  O   UNL A   1      29.732  25.708  26.469  1.00  0.00    -0.269 OA
BRANCH  17  19
ATOM     19  C   UNL A   1      31.222  23.642  25.379  1.00  0.00     0.451 C 
ATOM     20  F   UNL A   1      32.197  22.710  25.240  1.00  0.00    -0.185 F 
ATOM     21  F   UNL A   1      30.385  23.225  26.361  1.00  0.00    -0.185 F 
ENDBRANCH  17  19
ENDBRANCH  11  12
ENDBRANCH   5   6
ENDBRANCH   3   5
ENDBRANCH   2   3
ENDBRANCH   1   2
BRANCH   1  22
ATOM     22  C   UNL A   1      35.545  32.558  32.039  1.00  0.00     0.275 C 
BRANCH  22  23
ATOM     23  O   UNL A   1      36.794  32.091  31.497  1.00  0.00    -0.458 OA
BRANCH  23  24
ATOM     24  C   UNL A   1      36.842  30.772  31.184  1.00  0.00     0.338 C 
ATOM     25  O   UNL A   1      35.902  29.996  31.160  1.00  0.00    -0.246 OA
BRANCH  24  26
ATOM     26  C   UNL A   1      38.188  30.454  30.653  1.00  0.00     0.060 A 
ATOM     27  C   UNL A   1      38.336  30.376  29.263  1.00  0.00     0.016 A 
ATOM     28  C   UNL A   1      39.301  30.298  31.489  1.00  0.00     0.016 A 
ATOM     29  C   UNL A   1      39.590  30.111  28.709  1.00  0.00     0.010 A 
ATOM     30  C   UNL A   1      40.556  30.029  30.931  1.00  0.00     0.010 A 
ATOM     31  C   UNL A   1      40.701  29.909  29.539  1.00  0.00    -0.014 A 
BRANCH  31  32
ATOM     32  C   UNL A   1      41.973  29.432  28.943  1.00  0.00     0.031 A 
ATOM     33  C   UNL A   1      43.111  30.404  28.789  1.00  0.00     0.074 A 
ATOM     34  C   UNL A   1      42.135  28.145  28.590  1.00  0.00     0.049 A 
ATOM     35  N   UNL A   1      44.339  30.182  28.398  1.00  0.00    -0.248 NA
ATOM     36  C   UNL A   1      42.828  31.809  29.124  1.00  0.00     0.031 C 
ATOM     37  C   UNL A   1      41.113  27.102  28.684  1.00  0.00     0.029 A 
ATOM     38  N   UNL A   1      43.234  27.495  28.084  1.00  0.00    -0.354 N 
ATOM     39  C   UNL A   1      44.983  31.410  28.470  1.00  0.00     0.074 A 
ATOM     40  C   UNL A   1      43.997  32.383  28.885  1.00  0.00     0.031 C 
ATOM     41  C   UNL A   1      41.635  25.941  28.247  1.00  0.00     0.029 A 
ATOM     42  C   UNL A   1      43.023  26.159  27.841  1.00  0.00     0.049 A 
ATOM     43  H   UNL A   1      44.092  27.944  27.912  1.00  0.00     0.167 HD
ATOM     44  C   UNL A   1      46.285  31.702  28.235  1.00  0.00     0.031 A 
ATOM     45  C   UNL A   1      43.856  25.217  27.352  1.00  0.00     0.031 A 
ATOM     46  C   UNL A   1      47.264  30.749  27.787  1.00  0.00     0.049 A 
ATOM     47  C   UNL A   1      45.287  25.578  27.044  1.00  0.00     0.074 A 
ATOM     48  C   UNL A   1      48.607  30.954  27.521  1.00  0.00     0.029 A 
ATOM     49  N   UNL A   1      47.005  29.413  27.528  1.00  0.00    -0.354 N 
ATOM     50  N   UNL A   1      45.894  26.734  27.173  1.00  0.00    -0.248 NA
ATOM     51  C   UNL A   1      46.150  24.496  26.547  1.00  0.00     0.031 C 
ATOM     52  C   UNL A   1      49.149  29.750  27.057  1.00  0.00     0.029 A 
ATOM     53  C   UNL A   1      48.156  28.784  27.085  1.00  0.00     0.049 A 
ATOM     54  H   UNL A   1      46.130  28.975  27.641  1.00  0.00     0.167 HD
ATOM     55  C   UNL A   1      47.215  26.512  26.794  1.00  0.00     0.074 A 
ATOM     56  C   UNL A   1      47.322  25.109  26.453  1.00  0.00     0.031 C 
ATOM     57  C   UNL A   1      48.248  27.390  26.736  1.00  0.00     0.031 A 
BRANCH  44  58
ATOM     58  C   UNL A   1      46.719  33.124  28.461  1.00  0.00    -0.014 A 
ATOM     59  C   UNL A   1      46.711  34.052  27.403  1.00  0.00     0.010 A 
ATOM     60  C   UNL A   1      47.109  33.548  29.744  1.00  0.00     0.010 A 
ATOM     61  C   UNL A   1      47.117  35.371  27.617  1.00  0.00     0.020 A 
ATOM     62  C   UNL A   1      47.493  34.873  29.966  1.00  0.00     0.020 A 
ATOM     63  C   UNL A   1      47.510  35.773  28.897  1.00  0.00     0.054 A 
BRANCH  63  64
ATOM     64  S   UNL A   1      48.011  37.497  29.151  1.00  0.00     0.124 S 
ATOM     65  O   UNL A   1      49.399  37.346  29.578  1.00  0.00    -0.237 OA
ATOM     66  O   UNL A   1      47.819  38.085  27.828  1.00  0.00    -0.237 OA
ATOM     67  O   UNL A   1      47.091  37.976  30.181  1.00  0.00    -0.744 OA
ENDBRANCH  63  64
ENDBRANCH  44  58
BRANCH  45  68
ATOM     68  C   UNL A   1      43.361  23.834  27.117  1.00  0.00    -0.014 A 
ATOM     69  C   UNL A   1      42.942  23.421  25.840  1.00  0.00     0.010 A 
ATOM     70  C   UNL A   1      43.279  22.928  28.190  1.00  0.00     0.010 A 
ATOM     71  C   UNL A   1      42.428  22.135  25.645  1.00  0.00     0.020 A 
ATOM     72  C   UNL A   1      42.789  21.634  27.994  1.00  0.00     0.020 A 
ATOM     73  C   UNL A   1      42.353  21.250  26.725  1.00  0.00     0.054 A 
BRANCH  73  74
ATOM     74  S   UNL A   1      41.722  19.571  26.449  1.00  0.00     0.124 S 
ATOM     75  O   UNL A   1      42.334  19.224  25.171  1.00  0.00    -0.237 OA
ATOM     76  O   UNL A   1      42.227  18.846  27.612  1.00  0.00    -0.237 OA
ATOM     77  O   UNL A   1      40.272  19.754  26.423  1.00  0.00    -0.744 OA
ENDBRANCH  73  74
ENDBRANCH  45  68
BRANCH  57  78
ATOM     78  C   UNL A   1      49.587  26.854  26.302  1.00  0.00    -0.014 A 
ATOM     79  C   UNL A   1      50.046  27.016  24.982  1.00  0.00     0.010 A 
ATOM     80  C   UNL A   1      50.410  26.197  27.235  1.00  0.00     0.010 A 
ATOM     81  C   UNL A   1      51.280  26.489  24.591  1.00  0.00     0.020 A 
ATOM     82  C   UNL A   1      51.656  25.691  26.855  1.00  0.00     0.020 A 
ATOM     83  C   UNL A   1      52.073  25.822  25.529  1.00  0.00     0.054 A 
BRANCH  83  84
ATOM     84  S   UNL A   1      53.675  25.153  25.002  1.00  0.00     0.124 S 
ATOM     85  O   UNL A   1      53.729  25.564  23.602  1.00  0.00    -0.237 OA
ATOM     86  O   UNL A   1      54.616  25.828  25.892  1.00  0.00    -0.237 OA
ATOM     87  O   UNL A   1      53.540  23.715  25.226  1.00  0.00    -0.744 OA
ENDBRANCH  83  84
ENDBRANCH  57  78
ENDBRANCH  31  32
ENDBRANCH  24  26
ENDBRANCH  23  24
ENDBRANCH  22  23
ENDBRANCH   1  22
TORSDOF 17
ENDMDL
MODEL 3
REMARK VINA RESULT:      -9.0      3.223     10.756
REMARK SMILES O=C(Cc1ccc(-c2ccn(C(F)F)c(=O)c2)cc1)OCCOC(=O)c1ccc(-c2c3nc(c(-c4ccc(S(=O)(=O)[O-])cc4)c4ccc([nH]4)c(-c4ccc(S(=O)(=O)[O-])cc4)c4nc(c(-c5ccc(S(=O)(=O)[O-])cc5)c5ccc2[nH]5)C=C4)C=C3)cc1
REMARK SMILES IDX 21 1 20 2 2 3 1 4 3 5 4 6 5 7 19 8 6 9 18 10 7 11 8 12 9 13
REMARK SMILES IDX 17 14 10 15 15 16 11 17 16 18 12 19 13 20 14 21 22 22 23 23
REMARK SMILES IDX 24 24 25 25 26 26 27 27 85 28 28 29 84 30 29 31 30 32 31 33
REMARK SMILES IDX 78 34 32 35 83 36 77 37 79 38 33 39 82 40 76 41 75 42 34 44
REMARK SMILES IDX 64 45 45 46 63 47 46 48 49 49 62 50 80 51 47 52 48 53 61 55
REMARK SMILES IDX 81 56 50 57 35 58 36 59 44 60 37 61 43 62 38 63 39 64 40 65
REMARK SMILES IDX 41 66 42 67 65 68 66 69 74 70 67 71 73 72 68 73 69 74 70 75
REMARK SMILES IDX 71 76 72 77 51 78 52 79 60 80 53 81 59 82 54 83 55 84 56 85
REMARK SMILES IDX 57 86 58 87
REMARK H PARENT 79 43 49 54
REMARK Flexibility Score: inf
ROOT
ATOM      1  C   UNL A   1      41.277  21.213  26.620  1.00  0.00     0.274 C 
ENDROOT
BRANCH   1   2
ATOM      2  O   UNL A   1      42.434  21.900  26.091  1.00  0.00    -0.462 OA
BRANCH   2   3
ATOM      3  C   UNL A   1      42.769  23.190  26.327  1.00  0.00     0.310 C 
ATOM      4  O   UNL A   1      42.438  23.725  27.384  1.00  0.00    -0.252 OA
BRANCH   3   5
ATOM      5  C   UNL A   1      43.557  23.953  25.289  1.00  0.00     0.158 C 
BRANCH   5   6
ATOM      6  C   UNL A   1      43.929  25.370  25.636  1.00  0.00    -0.037 A 
ATOM      7  C   UNL A   1      43.134  26.458  25.263  1.00  0.00     0.005 A 
ATOM      8  C   UNL A   1      45.142  25.605  26.303  1.00  0.00     0.005 A 
ATOM      9  C   UNL A   1      43.525  27.756  25.590  1.00  0.00     0.009 A 
ATOM     10  C   UNL A   1      45.535  26.903  26.626  1.00  0.00     0.009 A 
ATOM     11  C   UNL A   1      44.722  27.984  26.279  1.00  0.00    -0.018 A 
BRANCH  11  12
ATOM     12  C   UNL A   1      45.139  29.358  26.596  1.00  0.00    -0.011 A 
ATOM     13  C   UNL A   1      44.217  30.354  27.102  1.00  0.00     0.027 A 
ATOM     14  C   UNL A   1      46.432  29.682  26.426  1.00  0.00     0.080 A 
ATOM     15  C   UNL A   1      44.654  31.574  27.431  1.00  0.00     0.095 A 
ATOM     16  C   UNL A   1      46.931  31.039  26.778  1.00  0.00     0.255 A 
ATOM     17  N   UNL A   1      45.986  31.916  27.286  1.00  0.00    -0.258 N 
ATOM     18  O   UNL A   1      48.121  31.284  26.612  1.00  0.00    -0.269 OA
BRANCH  17  19
ATOM     19  C   UNL A   1      46.450  33.221  27.675  1.00  0.00     0.451 C 
ATOM     20  F   UNL A   1      46.491  34.060  26.610  1.00  0.00    -0.185 F 
ATOM     21  F   UNL A   1      45.634  33.772  28.607  1.00  0.00    -0.185 F 
ENDBRANCH  17  19
ENDBRANCH  11  12
ENDBRANCH   5   6
ENDBRANCH   3   5
ENDBRANCH   2   3
ENDBRANCH   1   2
BRANCH   1  22
ATOM     22  C   UNL A   1      40.039  21.470  25.761  1.00  0.00     0.275 C 
BRANCH  22  23
ATOM     23  O   UNL A   1      38.989  22.028  26.571  1.00  0.00    -0.458 OA
BRANCH  23  24
ATOM     24  C   UNL A   1      38.385  23.135  26.070  1.00  0.00     0.338 C 
ATOM     25  O   UNL A   1      37.403  23.163  25.349  1.00  0.00    -0.246 OA
BRANCH  24  26
ATOM     26  C   UNL A   1      38.970  24.333  26.716  1.00  0.00     0.060 A 
ATOM     27  C   UNL A   1      38.831  24.457  28.103  1.00  0.00     0.016 A 
ATOM     28  C   UNL A   1      39.695  25.289  25.993  1.00  0.00     0.016 A 
ATOM     29  C   UNL A   1      39.390  25.550  28.765  1.00  0.00     0.010 A 
ATOM     30  C   UNL A   1      40.251  26.387  26.660  1.00  0.00     0.010 A 
ATOM     31  C   UNL A   1      40.080  26.536  28.046  1.00  0.00    -0.014 A 
BRANCH  31  32
ATOM     32  C   UNL A   1      40.488  27.783  28.736  1.00  0.00     0.031 A 
ATOM     33  C   UNL A   1      41.886  27.885  29.283  1.00  0.00     0.074 A 
ATOM     34  C   UNL A   1      39.650  28.831  28.832  1.00  0.00     0.049 A 
ATOM     35  N   UNL A   1      42.490  28.913  29.821  1.00  0.00    -0.248 NA
ATOM     36  C   UNL A   1      42.713  26.670  29.208  1.00  0.00     0.031 C 
ATOM     37  C   UNL A   1      38.271  28.864  28.348  1.00  0.00     0.029 A 
ATOM     38  N   UNL A   1      39.848  30.079  29.369  1.00  0.00    -0.354 N 
ATOM     39  C   UNL A   1      43.774  28.479  30.121  1.00  0.00     0.074 A 
ATOM     40  C   UNL A   1      43.846  27.081  29.759  1.00  0.00     0.031 C 
ATOM     41  C   UNL A   1      37.745  30.073  28.613  1.00  0.00     0.029 A 
ATOM     42  C   UNL A   1      38.747  30.898  29.286  1.00  0.00     0.049 A 
ATOM     43  H   UNL A   1      40.699  30.361  29.776  1.00  0.00     0.167 HD
ATOM     44  C   UNL A   1      44.813  29.185  30.630  1.00  0.00     0.031 A 
ATOM     45  C   UNL A   1      38.571  32.169  29.700  1.00  0.00     0.031 A 
ATOM     46  C   UNL A   1      44.740  30.565  31.028  1.00  0.00     0.049 A 
ATOM     47  C   UNL A   1      39.725  32.917  30.316  1.00  0.00     0.074 A 
ATOM     48  C   UNL A   1      45.741  31.362  31.556  1.00  0.00     0.029 A 
ATOM     49  N   UNL A   1      43.602  31.350  30.952  1.00  0.00    -0.354 N 
ATOM     50  N   UNL A   1      40.951  32.509  30.539  1.00  0.00    -0.248 NA
ATOM     51  C   UNL A   1      39.474  34.311  30.714  1.00  0.00     0.031 C 
ATOM     52  C   UNL A   1      45.193  32.619  31.841  1.00  0.00     0.029 A 
ATOM     53  C   UNL A   1      43.867  32.618  31.441  1.00  0.00     0.049 A 
ATOM     54  H   UNL A   1      42.731  31.051  30.601  1.00  0.00     0.167 HD
ATOM     55  C   UNL A   1      41.622  33.600  31.082  1.00  0.00     0.074 A 
ATOM     56  C   UNL A   1      40.672  34.692  31.133  1.00  0.00     0.031 C 
ATOM     57  C   UNL A   1      42.910  33.692  31.499  1.00  0.00     0.031 A 
BRANCH  44  58
ATOM     58  C   UNL A   1      46.122  28.460  30.786  1.00  0.00    -0.014 A 
ATOM     59  C   UNL A   1      46.436  27.802  31.990  1.00  0.00     0.010 A 
ATOM     60  C   UNL A   1      47.032  28.409  29.717  1.00  0.00     0.010 A 
ATOM     61  C   UNL A   1      47.654  27.132  32.131  1.00  0.00     0.020 A 
ATOM     62  C   UNL A   1      48.241  27.721  29.847  1.00  0.00     0.020 A 
ATOM     63  C   UNL A   1      48.550  27.099  31.060  1.00  0.00     0.054 A 
BRANCH  63  64
ATOM     64  S   UNL A   1      50.114  26.203  31.263  1.00  0.00     0.124 S 
ATOM     65  O   UNL A   1      50.912  27.161  32.024  1.00  0.00    -0.237 OA
ATOM     66  O   UNL A   1      49.705  25.005  31.992  1.00  0.00    -0.237 OA
ATOM     67  O   UNL A   1      50.561  25.972  29.891  1.00  0.00    -0.744 OA
ENDBRANCH  63  64
ENDBRANCH  44  58
BRANCH  45  68
ATOM     68  C   UNL A   1      37.243  32.823  29.550  1.00  0.00    -0.014 A 
ATOM     69  C   UNL A   1      36.757  33.196  28.284  1.00  0.00     0.010 A 
ATOM     70  C   UNL A   1      36.467  33.103  30.689  1.00  0.00     0.010 A 
ATOM     71  C   UNL A   1      35.531  33.859  28.163  1.00  0.00     0.020 A 
ATOM     72  C   UNL A   1      35.231  33.743  30.571  1.00  0.00     0.020 A 
ATOM     73  C   UNL A   1      34.777  34.130  29.309  1.00  0.00     0.054 A 
BRANCH  73  74
ATOM     74  S   UNL A   1      33.169  34.954  29.133  1.00  0.00     0.124 S 
ATOM     75  O   UNL A   1      33.561  36.298  28.724  1.00  0.00    -0.237 OA
ATOM     76  O   UNL A   1      32.508  34.147  28.110  1.00  0.00    -0.237 OA
ATOM     77  O   UNL A   1      32.587  34.847  30.469  1.00  0.00    -0.744 OA
ENDBRANCH  73  74
ENDBRANCH  45  68
BRANCH  57  78
ATOM     78  C   UNL A   1      43.370  35.025  32.032  1.00  0.00    -0.014 A 
ATOM     79  C   UNL A   1      43.979  35.975  31.192  1.00  0.00     0.010 A 
ATOM     80  C   UNL A   1      43.170  35.340  33.388  1.00  0.00     0.010 A 
ATOM     81  C   UNL A   1      44.424  37.195  31.709  1.00  0.00     0.020 A 
ATOM     82  C   UNL A   1      43.589  36.570  33.903  1.00  0.00     0.020 A 
ATOM     83  C   UNL A   1      44.234  37.481  33.063  1.00  0.00     0.054 A 
BRANCH  83  84
ATOM     84  S   UNL A   1      44.811  39.074  33.712  1.00  0.00     0.124 S 
ATOM     85  O   UNL A   1      45.952  39.358  32.845  1.00  0.00    -0.237 OA
ATOM     86  O   UNL A   1      43.649  39.940  33.525  1.00  0.00    -0.237 OA
ATOM     87  O   UNL A   1      45.142  38.781  35.105  1.00  0.00    -0.744 OA
ENDBRANCH  83  84
ENDBRANCH  57  78
ENDBRANCH  31  32
ENDBRANCH  24  26
ENDBRANCH  23  24
ENDBRANCH  22  23
ENDBRANCH   1  22
TORSDOF 17
ENDMDL
