MODEL 1
REMARK VINA RESULT:     -11.2      0.000      0.000
REMARK SMILES CC(C)n1c([C@H](O)CC(=O)OCCOC(=O)c2ccc(-c3c4nc(c(-c5ccc(S(=O)(=O)[O-])cc5)c5ccc([nH]5)c(-c5ccc(S(=O)(=O)[O-])cc5)c5nc(c(-c6ccc(S(=O)(=O)[O-])cc6)c6ccc3[nH]6)C=C5)C=C4)cc2)nc2cc(Cl)ccc21
REMARK SMILES IDX 12 1 11 2 9 3 10 4 8 5 6 6 5 7 4 8 84 9 77 10 78 11 83 12
REMARK SMILES IDX 79 13 82 14 80 15 81 16 2 17 1 18 3 19 7 20 13 22 14 23
REMARK SMILES IDX 15 24 16 25 17 26 18 27 76 28 19 29 75 30 20 31 21 32 22 33
REMARK SMILES IDX 69 34 23 35 74 36 68 37 70 38 24 39 73 40 67 41 66 42 25 44
REMARK SMILES IDX 55 45 36 46 54 47 37 48 40 49 53 50 71 51 38 52 39 53 52 55
REMARK SMILES IDX 72 56 41 57 26 58 27 59 35 60 28 61 34 62 29 63 30 64 31 65
REMARK SMILES IDX 32 66 33 67 56 68 57 69 65 70 58 71 64 72 59 73 60 74 61 75
REMARK SMILES IDX 62 76 63 77 42 78 43 79 51 80 44 81 50 82 45 83 46 84 47 85
REMARK SMILES IDX 48 86 49 87
REMARK H PARENT 7 21 70 43 40 54
REMARK Flexibility Score: inf
ROOT
ATOM      1  C   UNL A   1      43.339  20.113  25.955  1.00  0.00     0.274 C 
ENDROOT
BRANCH   1   2
ATOM      2  O   UNL A   1      43.727  20.615  24.658  1.00  0.00    -0.462 OA
BRANCH   2   3
ATOM      3  C   UNL A   1      44.847  20.058  24.125  1.00  0.00     0.309 C 
ATOM      4  O   UNL A   1      44.868  19.034  23.459  1.00  0.00    -0.252 OA
BRANCH   3   5
ATOM      5  C   UNL A   1      46.102  20.748  24.569  1.00  0.00     0.162 C 
BRANCH   5   6
ATOM      6  C   UNL A   1      46.147  22.254  24.381  1.00  0.00     0.191 C 
BRANCH   6   7
ATOM      7  C   UNL A   1      45.954  23.015  25.675  1.00  0.00     0.139 A 
ATOM      8  N   UNL A   1      46.239  24.351  25.920  1.00  0.00    -0.323 N 
ATOM      9  C   UNL A   1      45.829  24.635  27.218  1.00  0.00     0.069 A 
ATOM     10  N   UNL A   1      45.425  22.455  26.755  1.00  0.00    -0.230 NA
ATOM     11  C   UNL A   1      45.352  23.431  27.714  1.00  0.00     0.090 A 
ATOM     12  C   UNL A   1      45.828  25.816  27.979  1.00  0.00     0.030 A 
ATOM     13  C   UNL A   1      44.875  23.365  29.034  1.00  0.00     0.051 A 
ATOM     14  C   UNL A   1      45.348  25.739  29.289  1.00  0.00     0.023 A 
ATOM     15  C   UNL A   1      44.889  24.530  29.808  1.00  0.00     0.043 A 
ATOM     16  Cl  UNL A   1      44.330  24.476  31.438  1.00  0.00    -0.084 Cl
BRANCH   8  17
ATOM     17  C   UNL A   1      46.804  25.385  25.055  1.00  0.00     0.083 C 
ATOM     18  C   UNL A   1      46.039  26.706  24.964  1.00  0.00     0.031 C 
ATOM     19  C   UNL A   1      48.308  25.553  25.285  1.00  0.00     0.031 C 
ENDBRANCH   8  17
ENDBRANCH   6   7
BRANCH   6  20
ATOM     20  O   UNL A   1      45.164  22.708  23.455  1.00  0.00    -0.385 OA
ATOM     21  H   UNL A   1      45.399  22.411  22.563  1.00  0.00     0.211 HD
ENDBRANCH   6  20
ENDBRANCH   5   6
ENDBRANCH   3   5
ENDBRANCH   2   3
ENDBRANCH   1   2
BRANCH   1  22
ATOM     22  C   UNL A   1      41.853  20.384  26.195  1.00  0.00     0.275 C 
BRANCH  22  23
ATOM     23  O   UNL A   1      41.664  21.778  26.487  1.00  0.00    -0.458 OA
BRANCH  23  24
ATOM     24  C   UNL A   1      40.392  22.242  26.429  1.00  0.00     0.338 C 
ATOM     25  O   UNL A   1      39.417  21.629  26.010  1.00  0.00    -0.246 OA
BRANCH  24  26
ATOM     26  C   UNL A   1      40.313  23.436  27.304  1.00  0.00     0.060 A 
ATOM     27  C   UNL A   1      39.214  24.300  27.246  1.00  0.00     0.016 A 
ATOM     28  C   UNL A   1      41.494  23.840  27.940  1.00  0.00     0.016 A 
ATOM     29  C   UNL A   1      39.373  25.623  27.639  1.00  0.00     0.010 A 
ATOM     30  C   UNL A   1      41.660  25.173  28.301  1.00  0.00     0.010 A 
ATOM     31  C   UNL A   1      40.624  26.081  28.080  1.00  0.00    -0.014 A 
BRANCH  31  32
ATOM     32  C   UNL A   1      40.715  27.453  28.578  1.00  0.00     0.031 A 
ATOM     33  C   UNL A   1      41.960  28.094  28.113  1.00  0.00     0.074 A 
ATOM     34  C   UNL A   1      39.845  28.156  29.334  1.00  0.00     0.049 A 
ATOM     35  N   UNL A   1      43.030  28.263  28.812  1.00  0.00    -0.248 NA
ATOM     36  C   UNL A   1      42.105  28.395  26.683  1.00  0.00     0.031 C 
ATOM     37  C   UNL A   1      38.480  27.812  29.728  1.00  0.00     0.029 A 
ATOM     38  N   UNL A   1      40.007  29.406  29.874  1.00  0.00    -0.354 N 
ATOM     39  C   UNL A   1      43.934  28.871  27.959  1.00  0.00     0.074 A 
ATOM     40  C   UNL A   1      43.389  28.749  26.630  1.00  0.00     0.031 C 
ATOM     41  C   UNL A   1      37.862  28.908  30.236  1.00  0.00     0.029 A 
ATOM     42  C   UNL A   1      38.841  29.973  30.376  1.00  0.00     0.049 A 
ATOM     43  H   UNL A   1      40.877  29.864  29.903  1.00  0.00     0.167 HD
ATOM     44  C   UNL A   1      44.940  29.646  28.441  1.00  0.00     0.031 A 
ATOM     45  C   UNL A   1      38.697  31.213  30.908  1.00  0.00     0.031 A 
ATOM     46  C   UNL A   1      45.082  29.508  29.866  1.00  0.00     0.049 A 
ATOM     47  C   UNL A   1      40.011  31.618  31.454  1.00  0.00     0.074 A 
ATOM     48  C   UNL A   1      45.592  28.559  30.723  1.00  0.00     0.029 A 
ATOM     49  N   UNL A   1      44.263  30.331  30.598  1.00  0.00    -0.354 N 
ATOM     50  N   UNL A   1      40.575  31.021  32.466  1.00  0.00    -0.248 NA
ATOM     51  C   UNL A   1      40.874  32.510  30.691  1.00  0.00     0.031 C 
ATOM     52  C   UNL A   1      44.879  28.713  31.947  1.00  0.00     0.029 A 
ATOM     53  C   UNL A   1      43.978  29.770  31.817  1.00  0.00     0.049 A 
ATOM     54  H   UNL A   1      43.926  31.203  30.290  1.00  0.00     0.167 HD
ATOM     55  C   UNL A   1      41.927  31.114  32.204  1.00  0.00     0.074 A 
ATOM     56  C   UNL A   1      42.056  32.178  31.217  1.00  0.00     0.031 C 
ATOM     57  C   UNL A   1      42.784  30.121  32.568  1.00  0.00     0.031 A 
BRANCH  44  58
ATOM     58  C   UNL A   1      45.500  30.828  27.700  1.00  0.00    -0.014 A 
ATOM     59  C   UNL A   1      44.686  31.821  27.116  1.00  0.00     0.010 A 
ATOM     60  C   UNL A   1      46.878  31.102  27.790  1.00  0.00     0.010 A 
ATOM     61  C   UNL A   1      45.213  33.001  26.598  1.00  0.00     0.020 A 
ATOM     62  C   UNL A   1      47.414  32.304  27.312  1.00  0.00     0.020 A 
ATOM     63  C   UNL A   1      46.578  33.239  26.705  1.00  0.00     0.054 A 
BRANCH  63  64
ATOM     64  S   UNL A   1      47.208  34.817  26.088  1.00  0.00     0.124 S 
ATOM     65  O   UNL A   1      47.760  35.412  27.302  1.00  0.00    -0.237 OA
ATOM     66  O   UNL A   1      48.187  34.395  25.091  1.00  0.00    -0.237 OA
ATOM     67  O   UNL A   1      46.019  35.477  25.554  1.00  0.00    -0.744 OA
ENDBRANCH  63  64
ENDBRANCH  44  58
BRANCH  45  68
ATOM     68  C   UNL A   1      37.611  32.203  30.690  1.00  0.00    -0.014 A 
ATOM     69  C   UNL A   1      36.304  31.895  31.113  1.00  0.00     0.010 A 
ATOM     70  C   UNL A   1      37.773  33.272  29.783  1.00  0.00     0.010 A 
ATOM     71  C   UNL A   1      35.193  32.563  30.582  1.00  0.00     0.020 A 
ATOM     72  C   UNL A   1      36.662  33.948  29.248  1.00  0.00     0.020 A 
ATOM     73  C   UNL A   1      35.376  33.561  29.624  1.00  0.00     0.054 A 
BRANCH  73  74
ATOM     74  S   UNL A   1      33.904  34.273  28.830  1.00  0.00     0.124 S 
ATOM     75  O   UNL A   1      33.086  34.643  29.981  1.00  0.00    -0.237 OA
ATOM     76  O   UNL A   1      34.465  35.392  28.075  1.00  0.00    -0.237 OA
ATOM     77  O   UNL A   1      33.382  33.178  28.017  1.00  0.00    -0.744 OA
ENDBRANCH  73  74
ENDBRANCH  45  68
BRANCH  57  78
ATOM     78  C   UNL A   1      42.381  29.192  33.686  1.00  0.00    -0.014 A 
ATOM     79  C   UNL A   1      42.955  29.430  34.948  1.00  0.00     0.010 A 
ATOM     80  C   UNL A   1      41.607  28.030  33.506  1.00  0.00     0.010 A 
ATOM     81  C   UNL A   1      42.821  28.507  35.984  1.00  0.00     0.020 A 
ATOM     82  C   UNL A   1      41.446  27.110  34.555  1.00  0.00     0.020 A 
ATOM     83  C   UNL A   1      42.084  27.341  35.776  1.00  0.00     0.054 A 
BRANCH  83  84
ATOM     84  S   UNL A   1      42.019  26.125  37.119  1.00  0.00     0.124 S 
ATOM     85  O   UNL A   1      42.465  24.904  36.451  1.00  0.00    -0.237 OA
ATOM     86  O   UNL A   1      42.955  26.674  38.099  1.00  0.00    -0.237 OA
ATOM     87  O   UNL A   1      40.619  26.127  37.536  1.00  0.00    -0.744 OA
ENDBRANCH  83  84
ENDBRANCH  57  78
ENDBRANCH  31  32
ENDBRANCH  24  26
ENDBRANCH  23  24
ENDBRANCH  22  23
ENDBRANCH   1  22
TORSDOF 18
ENDMDL
MODEL 2
REMARK VINA RESULT:     -10.9      3.751      5.917
REMARK SMILES CC(C)n1c([C@H](O)CC(=O)OCCOC(=O)c2ccc(-c3c4nc(c(-c5ccc(S(=O)(=O)[O-])cc5)c5ccc([nH]5)c(-c5ccc(S(=O)(=O)[O-])cc5)c5nc(c(-c6ccc(S(=O)(=O)[O-])cc6)c6ccc3[nH]6)C=C5)C=C4)cc2)nc2cc(Cl)ccc21
REMARK SMILES IDX 12 1 11 2 9 3 10 4 8 5 6 6 5 7 4 8 84 9 77 10 78 11 83 12
REMARK SMILES IDX 79 13 82 14 80 15 81 16 2 17 1 18 3 19 7 20 13 22 14 23
REMARK SMILES IDX 15 24 16 25 17 26 18 27 76 28 19 29 75 30 20 31 21 32 22 33
REMARK SMILES IDX 69 34 23 35 74 36 68 37 70 38 24 39 73 40 67 41 66 42 25 44
REMARK SMILES IDX 55 45 36 46 54 47 37 48 40 49 53 50 71 51 38 52 39 53 52 55
REMARK SMILES IDX 72 56 41 57 26 58 27 59 35 60 28 61 34 62 29 63 30 64 31 65
REMARK SMILES IDX 32 66 33 67 56 68 57 69 65 70 58 71 64 72 59 73 60 74 61 75
REMARK SMILES IDX 62 76 63 77 42 78 43 79 51 80 44 81 50 82 45 83 46 84 47 85
REMARK SMILES IDX 48 86 49 87
REMARK H PARENT 7 21 70 43 40 54
REMARK Flexibility Score: inf
ROOT
ATOM      1  C   UNL A   1      40.352  21.375  26.258  1.00  0.00     0.274 C 
ENDROOT
BRANCH   1   2
ATOM      2  O   UNL A   1      39.719  22.416  27.034  1.00  0.00    -0.462 OA
BRANCH   2   3
ATOM      3  C   UNL A   1      38.680  23.049  26.429  1.00  0.00     0.309 C 
ATOM      4  O   UNL A   1      38.196  24.108  26.800  1.00  0.00    -0.252 OA
BRANCH   3   5
ATOM      5  C   UNL A   1      38.068  22.232  25.330  1.00  0.00     0.162 C 
BRANCH   5   6
ATOM      6  C   UNL A   1      36.697  22.669  24.848  1.00  0.00     0.191 C 
BRANCH   6   7
ATOM      7  C   UNL A   1      35.696  21.534  24.813  1.00  0.00     0.139 A 
ATOM      8  N   UNL A   1      34.313  21.629  24.750  1.00  0.00    -0.323 N 
ATOM      9  C   UNL A   1      33.808  20.336  24.658  1.00  0.00     0.069 A 
ATOM     10  N   UNL A   1      36.068  20.261  24.801  1.00  0.00    -0.230 NA
ATOM     11  C   UNL A   1      34.923  19.513  24.717  1.00  0.00     0.090 A 
ATOM     12  C   UNL A   1      32.505  19.830  24.524  1.00  0.00     0.030 A 
ATOM     13  C   UNL A   1      34.758  18.118  24.673  1.00  0.00     0.051 A 
ATOM     14  C   UNL A   1      32.353  18.442  24.478  1.00  0.00     0.023 A 
ATOM     15  C   UNL A   1      33.462  17.603  24.562  1.00  0.00     0.043 A 
ATOM     16  Cl  UNL A   1      33.226  15.895  24.528  1.00  0.00    -0.084 Cl
BRANCH   8  17
ATOM     17  C   UNL A   1      33.432  22.795  24.716  1.00  0.00     0.083 C 
ATOM     18  C   UNL A   1      33.608  23.828  25.830  1.00  0.00     0.031 C 
ATOM     19  C   UNL A   1      33.353  23.402  23.313  1.00  0.00     0.031 C 
ENDBRANCH   8  17
ENDBRANCH   6   7
BRANCH   6  20
ATOM     20  O   UNL A   1      36.745  23.249  23.548  1.00  0.00    -0.385 OA
ATOM     21  H   UNL A   1      35.884  23.643  23.337  1.00  0.00     0.211 HD
ENDBRANCH   6  20
ENDBRANCH   5   6
ENDBRANCH   3   5
ENDBRANCH   2   3
ENDBRANCH   1   2
BRANCH   1  22
ATOM     22  C   UNL A   1      41.873  21.506  26.353  1.00  0.00     0.275 C 
BRANCH  22  23
ATOM     23  O   UNL A   1      42.335  22.428  25.352  1.00  0.00    -0.458 OA
BRANCH  23  24
ATOM     24  C   UNL A   1      43.194  23.391  25.767  1.00  0.00     0.338 C 
ATOM     25  O   UNL A   1      44.341  23.557  25.371  1.00  0.00    -0.246 OA
BRANCH  24  26
ATOM     26  C   UNL A   1      42.396  24.425  26.469  1.00  0.00     0.060 A 
ATOM     27  C   UNL A   1      41.580  25.310  25.758  1.00  0.00     0.016 A 
ATOM     28  C   UNL A   1      42.731  24.690  27.804  1.00  0.00     0.016 A 
ATOM     29  C   UNL A   1      41.276  26.546  26.317  1.00  0.00     0.010 A 
ATOM     30  C   UNL A   1      42.453  25.941  28.346  1.00  0.00     0.010 A 
ATOM     31  C   UNL A   1      41.791  26.896  27.575  1.00  0.00    -0.014 A 
BRANCH  31  32
ATOM     32  C   UNL A   1      41.361  28.164  28.163  1.00  0.00     0.031 A 
ATOM     33  C   UNL A   1      42.386  29.206  27.962  1.00  0.00     0.074 A 
ATOM     34  C   UNL A   1      40.210  28.474  28.797  1.00  0.00     0.049 A 
ATOM     35  N   UNL A   1      43.230  29.617  28.845  1.00  0.00    -0.248 NA
ATOM     36  C   UNL A   1      42.633  29.696  26.599  1.00  0.00     0.031 C 
ATOM     37  C   UNL A   1      38.987  27.683  28.926  1.00  0.00     0.029 A 
ATOM     38  N   UNL A   1      39.879  29.643  29.431  1.00  0.00    -0.354 N 
ATOM     39  C   UNL A   1      44.004  30.566  28.200  1.00  0.00     0.074 A 
ATOM     40  C   UNL A   1      43.726  30.433  26.792  1.00  0.00     0.031 C 
ATOM     41  C   UNL A   1      37.981  28.471  29.384  1.00  0.00     0.029 A 
ATOM     42  C   UNL A   1      38.533  29.763  29.756  1.00  0.00     0.049 A 
ATOM     43  H   UNL A   1      40.541  30.341  29.640  1.00  0.00     0.167 HD
ATOM     44  C   UNL A   1      44.623  31.554  28.897  1.00  0.00     0.031 A 
ATOM     45  C   UNL A   1      37.920  30.830  30.329  1.00  0.00     0.031 A 
ATOM     46  C   UNL A   1      44.593  31.307  30.313  1.00  0.00     0.049 A 
ATOM     47  C   UNL A   1      38.938  31.556  31.119  1.00  0.00     0.074 A 
ATOM     48  C   UNL A   1      45.252  30.471  31.187  1.00  0.00     0.029 A 
ATOM     49  N   UNL A   1      43.456  31.749  30.940  1.00  0.00    -0.354 N 
ATOM     50  N   UNL A   1      39.511  31.052  32.176  1.00  0.00    -0.248 NA
ATOM     51  C   UNL A   1      39.569  32.751  30.574  1.00  0.00     0.031 C 
ATOM     52  C   UNL A   1      44.357  30.258  32.275  1.00  0.00     0.029 A 
ATOM     53  C   UNL A   1      43.193  30.994  32.055  1.00  0.00     0.049 A 
ATOM     54  H   UNL A   1      42.904  32.503  30.631  1.00  0.00     0.167 HD
ATOM     55  C   UNL A   1      40.784  31.587  32.159  1.00  0.00     0.074 A 
ATOM     56  C   UNL A   1      40.705  32.742  31.276  1.00  0.00     0.031 C 
ATOM     57  C   UNL A   1      41.853  30.872  32.606  1.00  0.00     0.031 A 
BRANCH  44  58
ATOM     58  C   UNL A   1      44.874  32.927  28.337  1.00  0.00    -0.014 A 
ATOM     59  C   UNL A   1      43.840  33.855  28.097  1.00  0.00     0.010 A 
ATOM     60  C   UNL A   1      46.195  33.409  28.273  1.00  0.00     0.010 A 
ATOM     61  C   UNL A   1      44.098  35.181  27.758  1.00  0.00     0.020 A 
ATOM     62  C   UNL A   1      46.466  34.751  27.976  1.00  0.00     0.020 A 
ATOM     63  C   UNL A   1      45.414  35.623  27.705  1.00  0.00     0.054 A 
BRANCH  63  64
ATOM     64  S   UNL A   1      45.701  37.370  27.337  1.00  0.00     0.124 S 
ATOM     65  O   UNL A   1      46.610  37.756  28.413  1.00  0.00    -0.237 OA
ATOM     66  O   UNL A   1      46.291  37.316  26.002  1.00  0.00    -0.237 OA
ATOM     67  O   UNL A   1      44.366  37.959  27.405  1.00  0.00    -0.744 OA
ENDBRANCH  63  64
ENDBRANCH  44  58
BRANCH  45  68
ATOM     68  C   UNL A   1      36.617  31.455  29.986  1.00  0.00    -0.014 A 
ATOM     69  C   UNL A   1      36.368  31.842  28.656  1.00  0.00     0.010 A 
ATOM     70  C   UNL A   1      35.775  31.977  30.991  1.00  0.00     0.010 A 
ATOM     71  C   UNL A   1      35.379  32.785  28.347  1.00  0.00     0.020 A 
ATOM     72  C   UNL A   1      34.779  32.923  30.688  1.00  0.00     0.020 A 
ATOM     73  C   UNL A   1      34.615  33.348  29.369  1.00  0.00     0.054 A 
BRANCH  73  74
ATOM     74  S   UNL A   1      33.472  34.697  28.947  1.00  0.00     0.124 S 
ATOM     75  O   UNL A   1      32.908  35.039  30.249  1.00  0.00    -0.237 OA
ATOM     76  O   UNL A   1      34.368  35.699  28.371  1.00  0.00    -0.237 OA
ATOM     77  O   UNL A   1      32.542  34.084  28.002  1.00  0.00    -0.744 OA
ENDBRANCH  73  74
ENDBRANCH  45  68
BRANCH  57  78
ATOM     78  C   UNL A   1      41.614  29.744  33.579  1.00  0.00    -0.014 A 
ATOM     79  C   UNL A   1      41.709  30.054  34.947  1.00  0.00     0.010 A 
ATOM     80  C   UNL A   1      41.463  28.396  33.202  1.00  0.00     0.010 A 
ATOM     81  C   UNL A   1      41.722  29.049  35.913  1.00  0.00     0.020 A 
ATOM     82  C   UNL A   1      41.447  27.381  34.172  1.00  0.00     0.020 A 
ATOM     83  C   UNL A   1      41.612  27.715  35.519  1.00  0.00     0.054 A 
BRANCH  83  84
ATOM     84  S   UNL A   1      41.733  26.437  36.800  1.00  0.00     0.124 S 
ATOM     85  O   UNL A   1      41.731  25.208  36.010  1.00  0.00    -0.237 OA
ATOM     86  O   UNL A   1      43.001  26.753  37.454  1.00  0.00    -0.237 OA
ATOM     87  O   UNL A   1      40.545  26.646  37.624  1.00  0.00    -0.744 OA
ENDBRANCH  83  84
ENDBRANCH  57  78
ENDBRANCH  31  32
ENDBRANCH  24  26
ENDBRANCH  23  24
ENDBRANCH  22  23
ENDBRANCH   1  22
TORSDOF 18
ENDMDL
MODEL 3
REMARK VINA RESULT:     -10.3      3.827      6.224
REMARK SMILES CC(C)n1c([C@H](O)CC(=O)OCCOC(=O)c2ccc(-c3c4nc(c(-c5ccc(S(=O)(=O)[O-])cc5)c5ccc([nH]5)c(-c5ccc(S(=O)(=O)[O-])cc5)c5nc(c(-c6ccc(S(=O)(=O)[O-])cc6)c6ccc3[nH]6)C=C5)C=C4)cc2)nc2cc(Cl)ccc21
REMARK SMILES IDX 12 1 11 2 9 3 10 4 8 5 6 6 5 7 4 8 84 9 77 10 78 11 83 12
REMARK SMILES IDX 79 13 82 14 80 15 81 16 2 17 1 18 3 19 7 20 13 22 14 23
REMARK SMILES IDX 15 24 16 25 17 26 18 27 76 28 19 29 75 30 20 31 21 32 22 33
REMARK SMILES IDX 69 34 23 35 74 36 68 37 70 38 24 39 73 40 67 41 66 42 25 44
REMARK SMILES IDX 55 45 36 46 54 47 37 48 40 49 53 50 71 51 38 52 39 53 52 55
REMARK SMILES IDX 72 56 41 57 26 58 27 59 35 60 28 61 34 62 29 63 30 64 31 65
REMARK SMILES IDX 32 66 33 67 56 68 57 69 65 70 58 71 64 72 59 73 60 74 61 75
REMARK SMILES IDX 62 76 63 77 42 78 43 79 51 80 44 81 50 82 45 83 46 84 47 85
REMARK SMILES IDX 48 86 49 87
REMARK H PARENT 7 21 70 43 40 54
REMARK Flexibility Score: inf
ROOT
ATOM      1  C   UNL A   1      39.438  21.560  26.527  1.00  0.00     0.274 C 
ENDROOT
BRANCH   1   2
ATOM      2  O   UNL A   1      38.718  21.845  25.308  1.00  0.00    -0.462 OA
BRANCH   2   3
ATOM      3  C   UNL A   1      37.693  20.999  25.021  1.00  0.00     0.309 C 
ATOM      4  O   UNL A   1      37.786  19.781  24.976  1.00  0.00    -0.252 OA
BRANCH   3   5
ATOM      5  C   UNL A   1      36.447  21.722  24.607  1.00  0.00     0.162 C 
BRANCH   5   6
ATOM      6  C   UNL A   1      36.072  22.945  25.425  1.00  0.00     0.191 C 
BRANCH   6   7
ATOM      7  C   UNL A   1      34.738  23.535  25.024  1.00  0.00     0.139 A 
ATOM      8  N   UNL A   1      33.474  23.098  25.397  1.00  0.00    -0.323 N 
ATOM      9  C   UNL A   1      32.549  23.985  24.859  1.00  0.00     0.069 A 
ATOM     10  N   UNL A   1      34.641  24.617  24.262  1.00  0.00    -0.230 NA
ATOM     11  C   UNL A   1      33.305  24.900  24.142  1.00  0.00     0.090 A 
ATOM     12  C   UNL A   1      31.149  24.068  24.943  1.00  0.00     0.030 A 
ATOM     13  C   UNL A   1      32.662  25.936  23.443  1.00  0.00     0.051 A 
ATOM     14  C   UNL A   1      30.521  25.104  24.247  1.00  0.00     0.023 A 
ATOM     15  C   UNL A   1      31.267  26.015  23.503  1.00  0.00     0.043 A 
ATOM     16  Cl  UNL A   1      30.448  27.261  22.638  1.00  0.00    -0.084 Cl
BRANCH   8  17
ATOM     17  C   UNL A   1      33.057  21.976  26.236  1.00  0.00     0.083 C 
ATOM     18  C   UNL A   1      33.242  20.573  25.658  1.00  0.00     0.031 C 
ATOM     19  C   UNL A   1      33.562  22.128  27.673  1.00  0.00     0.031 C 
ENDBRANCH   8  17
ENDBRANCH   6   7
BRANCH   6  20
ATOM     20  O   UNL A   1      37.052  23.974  25.329  1.00  0.00    -0.385 OA
ATOM     21  H   UNL A   1      36.647  24.828  25.549  1.00  0.00     0.211 HD
ENDBRANCH   6  20
ENDBRANCH   5   6
ENDBRANCH   3   5
ENDBRANCH   2   3
ENDBRANCH   1   2
BRANCH   1  22
ATOM     22  C   UNL A   1      40.929  21.398  26.226  1.00  0.00     0.275 C 
BRANCH  22  23
ATOM     23  O   UNL A   1      41.653  22.498  26.801  1.00  0.00    -0.458 OA
BRANCH  23  24
ATOM     24  C   UNL A   1      42.488  23.171  25.973  1.00  0.00     0.338 C 
ATOM     25  O   UNL A   1      42.939  22.761  24.910  1.00  0.00    -0.246 OA
BRANCH  24  26
ATOM     26  C   UNL A   1      42.447  24.601  26.365  1.00  0.00     0.060 A 
ATOM     27  C   UNL A   1      43.091  25.048  27.522  1.00  0.00     0.016 A 
ATOM     28  C   UNL A   1      41.492  25.407  25.732  1.00  0.00     0.016 A 
ATOM     29  C   UNL A   1      42.633  26.201  28.148  1.00  0.00     0.010 A 
ATOM     30  C   UNL A   1      41.013  26.542  26.379  1.00  0.00     0.010 A 
ATOM     31  C   UNL A   1      41.532  26.897  27.625  1.00  0.00    -0.014 A 
BRANCH  31  32
ATOM     32  C   UNL A   1      41.152  28.157  28.261  1.00  0.00     0.031 A 
ATOM     33  C   UNL A   1      42.190  29.184  28.043  1.00  0.00     0.074 A 
ATOM     34  C   UNL A   1      40.035  28.474  28.950  1.00  0.00     0.049 A 
ATOM     35  N   UNL A   1      43.077  29.555  28.900  1.00  0.00    -0.248 NA
ATOM     36  C   UNL A   1      42.391  29.703  26.684  1.00  0.00     0.031 C 
ATOM     37  C   UNL A   1      38.803  27.705  29.109  1.00  0.00     0.029 A 
ATOM     38  N   UNL A   1      39.755  29.633  29.625  1.00  0.00    -0.354 N 
ATOM     39  C   UNL A   1      43.844  30.505  28.247  1.00  0.00     0.074 A 
ATOM     40  C   UNL A   1      43.506  30.413  26.849  1.00  0.00     0.031 C 
ATOM     41  C   UNL A   1      37.833  28.500  29.628  1.00  0.00     0.029 A 
ATOM     42  C   UNL A   1      38.426  29.771  30.008  1.00  0.00     0.049 A 
ATOM     43  H   UNL A   1      40.439  30.313  29.823  1.00  0.00     0.167 HD
ATOM     44  C   UNL A   1      44.512  31.463  28.941  1.00  0.00     0.031 A 
ATOM     45  C   UNL A   1      37.860  30.835  30.633  1.00  0.00     0.031 A 
ATOM     46  C   UNL A   1      44.535  31.180  30.351  1.00  0.00     0.049 A 
ATOM     47  C   UNL A   1      38.924  31.521  31.397  1.00  0.00     0.074 A 
ATOM     48  C   UNL A   1      45.211  30.310  31.177  1.00  0.00     0.029 A 
ATOM     49  N   UNL A   1      43.433  31.629  31.035  1.00  0.00    -0.354 N 
ATOM     50  N   UNL A   1      39.529  30.979  32.417  1.00  0.00    -0.248 NA
ATOM     51  C   UNL A   1      39.557  32.717  30.855  1.00  0.00     0.031 C 
ATOM     52  C   UNL A   1      44.357  30.088  32.296  1.00  0.00     0.029 A 
ATOM     53  C   UNL A   1      43.200  30.851  32.141  1.00  0.00     0.049 A 
ATOM     54  H   UNL A   1      42.885  32.402  30.768  1.00  0.00     0.167 HD
ATOM     55  C   UNL A   1      40.811  31.489  32.360  1.00  0.00     0.074 A 
ATOM     56  C   UNL A   1      40.720  32.668  31.510  1.00  0.00     0.031 C 
ATOM     57  C   UNL A   1      41.883  30.742  32.744  1.00  0.00     0.031 A 
BRANCH  44  58
ATOM     58  C   UNL A   1      44.768  32.844  28.405  1.00  0.00    -0.014 A 
ATOM     59  C   UNL A   1      43.829  33.546  27.620  1.00  0.00     0.010 A 
ATOM     60  C   UNL A   1      45.868  33.574  28.893  1.00  0.00     0.010 A 
ATOM     61  C   UNL A   1      43.997  34.887  27.288  1.00  0.00     0.020 A 
ATOM     62  C   UNL A   1      46.024  34.936  28.602  1.00  0.00     0.020 A 
ATOM     63  C   UNL A   1      45.094  35.578  27.788  1.00  0.00     0.054 A 
BRANCH  63  64
ATOM     64  S   UNL A   1      45.232  37.337  27.395  1.00  0.00     0.124 S 
ATOM     65  O   UNL A   1      45.758  37.881  28.644  1.00  0.00    -0.237 OA
ATOM     66  O   UNL A   1      46.159  37.335  26.268  1.00  0.00    -0.237 OA
ATOM     67  O   UNL A   1      43.860  37.726  27.073  1.00  0.00    -0.744 OA
ENDBRANCH  63  64
ENDBRANCH  44  58
BRANCH  45  68
ATOM     68  C   UNL A   1      36.556  31.494  30.359  1.00  0.00    -0.014 A 
ATOM     69  C   UNL A   1      36.024  31.453  29.056  1.00  0.00     0.010 A 
ATOM     70  C   UNL A   1      36.014  32.434  31.261  1.00  0.00     0.010 A 
ATOM     71  C   UNL A   1      35.055  32.374  28.638  1.00  0.00     0.020 A 
ATOM     72  C   UNL A   1      35.040  33.361  30.848  1.00  0.00     0.020 A 
ATOM     73  C   UNL A   1      34.595  33.347  29.526  1.00  0.00     0.054 A 
BRANCH  73  74
ATOM     74  S   UNL A   1      33.477  34.632  28.891  1.00  0.00     0.124 S 
ATOM     75  O   UNL A   1      34.414  35.613  28.352  1.00  0.00    -0.237 OA
ATOM     76  O   UNL A   1      32.693  33.903  27.897  1.00  0.00    -0.237 OA
ATOM     77  O   UNL A   1      32.733  35.062  30.072  1.00  0.00    -0.744 OA
ENDBRANCH  73  74
ENDBRANCH  45  68
BRANCH  57  78
ATOM     78  C   UNL A   1      41.659  29.595  33.698  1.00  0.00    -0.014 A 
ATOM     79  C   UNL A   1      41.736  29.886  35.072  1.00  0.00     0.010 A 
ATOM     80  C   UNL A   1      41.541  28.250  33.301  1.00  0.00     0.010 A 
ATOM     81  C   UNL A   1      41.763  28.868  36.023  1.00  0.00     0.020 A 
ATOM     82  C   UNL A   1      41.540  27.220  34.256  1.00  0.00     0.020 A 
ATOM     83  C   UNL A   1      41.686  27.538  35.609  1.00  0.00     0.054 A 
BRANCH  83  84
ATOM     84  S   UNL A   1      41.824  26.245  36.872  1.00  0.00     0.124 S 
ATOM     85  O   UNL A   1      40.527  26.327  37.540  1.00  0.00    -0.237 OA
ATOM     86  O   UNL A   1      42.037  25.036  36.077  1.00  0.00    -0.237 OA
ATOM     87  O   UNL A   1      42.967  26.658  37.683  1.00  0.00    -0.744 OA
ENDBRANCH  83  84
ENDBRANCH  57  78
ENDBRANCH  31  32
ENDBRANCH  24  26
ENDBRANCH  23  24
ENDBRANCH  22  23
ENDBRANCH   1  22
TORSDOF 18
ENDMDL
