MODEL 1
REMARK VINA RESULT:     -11.2      0.000      0.000
REMARK SMILES CC(C)CCc1cc2c(cc1Cl)C=C(C(=O)OCCOC(=O)c1ccc(-c3c4nc(c(-c5ccc(S(=O)(=O)[O-])cc5)c5ccc([nH]5)c(-c5ccc(S(=O)(=O)[O-])cc5)c5nc(c(-c6ccc(S(=O)(=O)[O-])cc6)c6ccc3[nH]6)C=C5)C=C4)cc1)[C@@H](C(F)(F)F)O2
REMARK SMILES IDX 18 1 17 2 15 3 16 4 14 5 6 6 7 7 11 8 8 9 10 10 12 11 9 12
REMARK SMILES IDX 88 13 13 14 83 15 5 16 4 17 2 18 1 19 3 20 84 21 85 22 86 23
REMARK SMILES IDX 87 24 19 25 20 26 21 27 22 28 23 29 24 30 82 31 25 32 81 33
REMARK SMILES IDX 26 34 27 35 28 36 75 37 29 38 80 39 74 40 76 41 30 42 79 43
REMARK SMILES IDX 73 44 72 45 31 47 61 48 42 49 60 50 43 51 46 52 59 53 77 54
REMARK SMILES IDX 44 55 45 56 58 58 78 59 47 60 32 61 33 62 41 63 34 64 40 65
REMARK SMILES IDX 35 66 36 67 37 68 38 69 39 70 62 71 63 72 71 73 64 74 70 75
REMARK SMILES IDX 65 76 66 77 67 78 68 79 69 80 48 81 49 82 57 83 50 84 56 85
REMARK SMILES IDX 51 86 52 87 53 88 54 89 55 90
REMARK H PARENT 76 46 46 57
REMARK Flexibility Score: inf
ROOT
ATOM      1  C   UNL A   1      35.410  22.029  25.548  1.00  0.00     0.275 C 
ENDROOT
BRANCH   1   2
ATOM      2  O   UNL A   1      35.599  23.330  24.948  1.00  0.00    -0.459 OA
BRANCH   2   3
ATOM      3  C   UNL A   1      35.285  23.420  23.636  1.00  0.00     0.338 C 
ATOM      4  O   UNL A   1      35.748  22.749  22.728  1.00  0.00    -0.246 OA
BRANCH   3   5
ATOM      5  C   UNL A   1      34.247  24.447  23.426  1.00  0.00     0.087 C 
ATOM      6  C   UNL A   1      31.165  28.384  23.957  1.00  0.00    -0.026 A 
ATOM      7  C   UNL A   1      31.153  27.223  23.153  1.00  0.00     0.052 A 
ATOM      8  C   UNL A   1      32.327  28.675  24.689  1.00  0.00     0.045 A 
ATOM      9  C   UNL A   1      32.209  26.313  23.182  1.00  0.00     0.128 A 
ATOM     10  C   UNL A   1      33.396  27.778  24.696  1.00  0.00     0.032 A 
ATOM     11  Cl  UNL A   1      32.503  30.112  25.631  1.00  0.00    -0.084 Cl
ATOM     12  C   UNL A   1      33.316  26.584  23.974  1.00  0.00     0.019 A 
ATOM     13  O   UNL A   1      32.081  25.186  22.420  1.00  0.00    -0.475 OA
ATOM     14  C   UNL A   1      34.374  25.606  24.076  1.00  0.00     0.027 C 
ATOM     15  C   UNL A   1      33.037  24.102  22.607  1.00  0.00     0.316 C 
BRANCH   6  16
ATOM     16  C   UNL A   1      29.932  29.260  24.026  1.00  0.00     0.037 C 
BRANCH  16  17
ATOM     17  C   UNL A   1      29.570  29.964  22.706  1.00  0.00     0.008 C 
BRANCH  17  18
ATOM     18  C   UNL A   1      28.068  30.264  22.510  1.00  0.00    -0.017 C 
ATOM     19  C   UNL A   1      27.179  29.107  22.963  1.00  0.00     0.007 C 
ATOM     20  C   UNL A   1      27.695  31.543  23.261  1.00  0.00     0.007 C 
ENDBRANCH  17  18
ENDBRANCH  16  17
ENDBRANCH   6  16
BRANCH  15  21
ATOM     21  C   UNL A   1      32.304  22.886  23.200  1.00  0.00     0.430 C 
ATOM     22  F   UNL A   1      32.500  22.796  24.538  1.00  0.00    -0.167 F 
ATOM     23  F   UNL A   1      30.964  22.974  23.015  1.00  0.00    -0.167 F 
ATOM     24  F   UNL A   1      32.714  21.720  22.652  1.00  0.00    -0.167 F 
ENDBRANCH  15  21
ENDBRANCH   3   5
ENDBRANCH   2   3
ENDBRANCH   1   2
BRANCH   1  25
ATOM     25  C   UNL A   1      36.698  21.205  25.506  1.00  0.00     0.275 C 
BRANCH  25  26
ATOM     26  O   UNL A   1      37.837  22.055  25.284  1.00  0.00    -0.458 OA
BRANCH  26  27
ATOM     27  C   UNL A   1      38.952  21.710  25.967  1.00  0.00     0.338 C 
ATOM     28  O   UNL A   1      39.525  20.635  25.955  1.00  0.00    -0.246 OA
BRANCH  27  29
ATOM     29  C   UNL A   1      39.482  22.888  26.666  1.00  0.00     0.060 A 
ATOM     30  C   UNL A   1      40.535  22.794  27.564  1.00  0.00     0.016 A 
ATOM     31  C   UNL A   1      39.013  24.135  26.274  1.00  0.00     0.016 A 
ATOM     32  C   UNL A   1      41.105  23.972  28.068  1.00  0.00     0.010 A 
ATOM     33  C   UNL A   1      39.694  25.292  26.631  1.00  0.00     0.010 A 
ATOM     34  C   UNL A   1      40.726  25.238  27.571  1.00  0.00    -0.014 A 
BRANCH  34  35
ATOM     35  C   UNL A   1      41.388  26.497  28.024  1.00  0.00     0.031 A 
ATOM     36  C   UNL A   1      42.879  26.700  27.847  1.00  0.00     0.074 A 
ATOM     37  C   UNL A   1      40.655  27.452  28.635  1.00  0.00     0.049 A 
ATOM     38  N   UNL A   1      43.609  27.738  28.172  1.00  0.00    -0.248 NA
ATOM     39  C   UNL A   1      43.663  25.590  27.275  1.00  0.00     0.031 C 
ATOM     40  C   UNL A   1      39.230  27.345  28.956  1.00  0.00     0.029 A 
ATOM     41  N   UNL A   1      40.993  28.711  29.073  1.00  0.00    -0.354 N 
ATOM     42  C   UNL A   1      44.922  27.395  27.862  1.00  0.00     0.074 A 
ATOM     43  C   UNL A   1      44.906  26.026  27.409  1.00  0.00     0.031 C 
ATOM     44  C   UNL A   1      38.797  28.515  29.447  1.00  0.00     0.029 A 
ATOM     45  C   UNL A   1      39.921  29.441  29.536  1.00  0.00     0.049 A 
ATOM     46  H   UNL A   1      41.914  29.058  29.057  1.00  0.00     0.167 HD
ATOM     47  C   UNL A   1      46.035  28.163  27.898  1.00  0.00     0.031 A 
ATOM     48  C   UNL A   1      39.839  30.717  29.969  1.00  0.00     0.031 A 
ATOM     49  C   UNL A   1      46.034  29.547  28.289  1.00  0.00     0.049 A 
ATOM     50  C   UNL A   1      41.076  31.569  29.962  1.00  0.00     0.074 A 
ATOM     51  C   UNL A   1      47.092  30.438  28.276  1.00  0.00     0.029 A 
ATOM     52  N   UNL A   1      44.924  30.244  28.740  1.00  0.00    -0.354 N 
ATOM     53  N   UNL A   1      42.289  31.248  29.580  1.00  0.00    -0.248 NA
ATOM     54  C   UNL A   1      40.940  32.956  30.431  1.00  0.00     0.031 C 
ATOM     55  C   UNL A   1      46.638  31.656  28.782  1.00  0.00     0.029 A 
ATOM     56  C   UNL A   1      45.279  31.549  29.033  1.00  0.00     0.049 A 
ATOM     57  H   UNL A   1      44.020  29.868  28.837  1.00  0.00     0.167 HD
ATOM     58  C   UNL A   1      43.058  32.393  29.748  1.00  0.00     0.074 A 
ATOM     59  C   UNL A   1      42.169  33.425  30.245  1.00  0.00     0.031 C 
ATOM     60  C   UNL A   1      44.381  32.570  29.516  1.00  0.00     0.031 A 
BRANCH  47  61
ATOM     61  C   UNL A   1      47.346  27.561  27.449  1.00  0.00    -0.014 A 
ATOM     62  C   UNL A   1      48.220  26.987  28.392  1.00  0.00     0.010 A 
ATOM     63  C   UNL A   1      47.774  27.683  26.113  1.00  0.00     0.010 A 
ATOM     64  C   UNL A   1      49.505  26.581  28.017  1.00  0.00     0.020 A 
ATOM     65  C   UNL A   1      49.044  27.246  25.727  1.00  0.00     0.020 A 
ATOM     66  C   UNL A   1      49.912  26.723  26.688  1.00  0.00     0.054 A 
BRANCH  66  67
ATOM     67  S   UNL A   1      51.598  26.235  26.227  1.00  0.00     0.124 S 
ATOM     68  O   UNL A   1      51.652  24.849  26.680  1.00  0.00    -0.237 OA
ATOM     69  O   UNL A   1      51.601  26.429  24.779  1.00  0.00    -0.237 OA
ATOM     70  O   UNL A   1      52.440  27.171  26.972  1.00  0.00    -0.744 OA
ENDBRANCH  66  67
ENDBRANCH  47  61
BRANCH  48  71
ATOM     71  C   UNL A   1      38.506  31.266  30.358  1.00  0.00    -0.014 A 
ATOM     72  C   UNL A   1      37.677  31.883  29.404  1.00  0.00     0.010 A 
ATOM     73  C   UNL A   1      38.112  31.275  31.709  1.00  0.00     0.010 A 
ATOM     74  C   UNL A   1      36.519  32.561  29.800  1.00  0.00     0.020 A 
ATOM     75  C   UNL A   1      36.936  31.921  32.105  1.00  0.00     0.020 A 
ATOM     76  C   UNL A   1      36.166  32.590  31.151  1.00  0.00     0.054 A 
BRANCH  76  77
ATOM     77  S   UNL A   1      34.705  33.544  31.649  1.00  0.00     0.124 S 
ATOM     78  O   UNL A   1      35.311  34.708  32.290  1.00  0.00    -0.237 OA
ATOM     79  O   UNL A   1      34.042  33.801  30.374  1.00  0.00    -0.237 OA
ATOM     80  O   UNL A   1      33.993  32.636  32.547  1.00  0.00    -0.744 OA
ENDBRANCH  76  77
ENDBRANCH  48  71
BRANCH  60  81
ATOM     81  C   UNL A   1      44.987  33.921  29.789  1.00  0.00    -0.014 A 
ATOM     82  C   UNL A   1      45.406  34.244  31.093  1.00  0.00     0.010 A 
ATOM     83  C   UNL A   1      44.968  34.925  28.805  1.00  0.00     0.010 A 
ATOM     84  C   UNL A   1      45.736  35.560  31.426  1.00  0.00     0.020 A 
ATOM     85  C   UNL A   1      45.329  36.237  29.126  1.00  0.00     0.020 A 
ATOM     86  C   UNL A   1      45.678  36.551  30.443  1.00  0.00     0.054 A 
BRANCH  86  87
ATOM     87  S   UNL A   1      46.031  38.266  30.913  1.00  0.00     0.124 S 
ATOM     88  O   UNL A   1      45.775  38.985  29.669  1.00  0.00    -0.237 OA
ATOM     89  O   UNL A   1      45.071  38.507  31.989  1.00  0.00    -0.237 OA
ATOM     90  O   UNL A   1      47.430  38.225  31.335  1.00  0.00    -0.744 OA
ENDBRANCH  86  87
ENDBRANCH  60  81
ENDBRANCH  34  35
ENDBRANCH  27  29
ENDBRANCH  26  27
ENDBRANCH  25  26
ENDBRANCH   1  25
TORSDOF 18
ENDMDL
MODEL 2
REMARK VINA RESULT:     -11.1      5.989     12.527
REMARK SMILES CC(C)CCc1cc2c(cc1Cl)C=C(C(=O)OCCOC(=O)c1ccc(-c3c4nc(c(-c5ccc(S(=O)(=O)[O-])cc5)c5ccc([nH]5)c(-c5ccc(S(=O)(=O)[O-])cc5)c5nc(c(-c6ccc(S(=O)(=O)[O-])cc6)c6ccc3[nH]6)C=C5)C=C4)cc1)[C@@H](C(F)(F)F)O2
REMARK SMILES IDX 18 1 17 2 15 3 16 4 14 5 6 6 7 7 11 8 8 9 10 10 12 11 9 12
REMARK SMILES IDX 88 13 13 14 83 15 5 16 4 17 2 18 1 19 3 20 84 21 85 22 86 23
REMARK SMILES IDX 87 24 19 25 20 26 21 27 22 28 23 29 24 30 82 31 25 32 81 33
REMARK SMILES IDX 26 34 27 35 28 36 75 37 29 38 80 39 74 40 76 41 30 42 79 43
REMARK SMILES IDX 73 44 72 45 31 47 61 48 42 49 60 50 43 51 46 52 59 53 77 54
REMARK SMILES IDX 44 55 45 56 58 58 78 59 47 60 32 61 33 62 41 63 34 64 40 65
REMARK SMILES IDX 35 66 36 67 37 68 38 69 39 70 62 71 63 72 71 73 64 74 70 75
REMARK SMILES IDX 65 76 66 77 67 78 68 79 69 80 48 81 49 82 57 83 50 84 56 85
REMARK SMILES IDX 51 86 52 87 53 88 54 89 55 90
REMARK H PARENT 76 46 46 57
REMARK Flexibility Score: inf
ROOT
ATOM      1  C   UNL A   1      33.639  34.466  29.161  1.00  0.00     0.275 C 
ENDROOT
BRANCH   1   2
ATOM      2  O   UNL A   1      34.600  33.813  30.020  1.00  0.00    -0.459 OA
BRANCH   2   3
ATOM      3  C   UNL A   1      34.643  34.259  31.297  1.00  0.00     0.338 C 
ATOM      4  O   UNL A   1      33.687  34.481  32.023  1.00  0.00    -0.246 OA
BRANCH   3   5
ATOM      5  C   UNL A   1      36.041  34.421  31.738  1.00  0.00     0.087 C 
ATOM      6  C   UNL A   1      41.055  34.257  32.068  1.00  0.00    -0.026 A 
ATOM      7  C   UNL A   1      40.012  34.499  32.990  1.00  0.00     0.052 A 
ATOM      8  C   UNL A   1      40.734  34.193  30.703  1.00  0.00     0.045 A 
ATOM      9  C   UNL A   1      38.682  34.541  32.580  1.00  0.00     0.128 A 
ATOM     10  C   UNL A   1      39.404  34.263  30.290  1.00  0.00     0.032 A 
ATOM     11  Cl  UNL A   1      41.929  34.000  29.471  1.00  0.00    -0.084 Cl
ATOM     12  C   UNL A   1      38.381  34.397  31.233  1.00  0.00     0.019 A 
ATOM     13  O   UNL A   1      37.736  34.716  33.552  1.00  0.00    -0.475 OA
ATOM     14  C   UNL A   1      37.000  34.352  30.812  1.00  0.00     0.027 C 
ATOM     15  C   UNL A   1      36.333  34.520  33.207  1.00  0.00     0.316 C 
BRANCH   6  16
ATOM     16  C   UNL A   1      42.468  34.052  32.573  1.00  0.00     0.037 C 
BRANCH  16  17
ATOM     17  C   UNL A   1      42.603  34.018  34.106  1.00  0.00     0.008 C 
BRANCH  17  18
ATOM     18  C   UNL A   1      43.403  35.186  34.722  1.00  0.00    -0.017 C 
ATOM     19  C   UNL A   1      42.688  36.528  34.564  1.00  0.00     0.007 C 
ATOM     20  C   UNL A   1      43.676  34.903  36.200  1.00  0.00     0.007 C 
ENDBRANCH  17  18
ENDBRANCH  16  17
ENDBRANCH   6  16
BRANCH  15  21
ATOM     21  C   UNL A   1      35.802  33.285  33.955  1.00  0.00     0.430 C 
ATOM     22  F   UNL A   1      36.669  32.877  34.913  1.00  0.00    -0.167 F 
ATOM     23  F   UNL A   1      34.633  33.551  34.587  1.00  0.00    -0.167 F 
ATOM     24  F   UNL A   1      35.588  32.236  33.130  1.00  0.00    -0.167 F 
ENDBRANCH  15  21
ENDBRANCH   3   5
ENDBRANCH   2   3
ENDBRANCH   1   2
BRANCH   1  25
ATOM     25  C   UNL A   1      33.274  33.585  27.965  1.00  0.00     0.275 C 
BRANCH  25  26
ATOM     26  O   UNL A   1      34.433  32.889  27.476  1.00  0.00    -0.458 OA
BRANCH  26  27
ATOM     27  C   UNL A   1      34.375  31.541  27.571  1.00  0.00     0.338 C 
ATOM     28  O   UNL A   1      33.456  30.814  27.241  1.00  0.00    -0.246 OA
BRANCH  27  29
ATOM     29  C   UNL A   1      35.671  31.027  28.034  1.00  0.00     0.060 A 
ATOM     30  C   UNL A   1      36.793  31.839  28.118  1.00  0.00     0.016 A 
ATOM     31  C   UNL A   1      35.706  29.739  28.553  1.00  0.00     0.016 A 
ATOM     32  C   UNL A   1      37.951  31.335  28.726  1.00  0.00     0.010 A 
ATOM     33  C   UNL A   1      36.787  29.311  29.311  1.00  0.00     0.010 A 
ATOM     34  C   UNL A   1      37.950  30.082  29.376  1.00  0.00    -0.014 A 
BRANCH  34  35
ATOM     35  C   UNL A   1      39.145  29.570  30.111  1.00  0.00     0.031 A 
ATOM     36  C   UNL A   1      39.397  29.960  31.553  1.00  0.00     0.074 A 
ATOM     37  C   UNL A   1      40.032  28.779  29.471  1.00  0.00     0.049 A 
ATOM     38  N   UNL A   1      40.377  29.594  32.341  1.00  0.00    -0.248 NA
ATOM     39  C   UNL A   1      38.465  30.912  32.183  1.00  0.00     0.031 C 
ATOM     40  C   UNL A   1      39.961  28.405  28.056  1.00  0.00     0.029 A 
ATOM     41  N   UNL A   1      41.152  28.123  29.925  1.00  0.00    -0.354 N 
ATOM     42  C   UNL A   1      40.184  30.281  33.536  1.00  0.00     0.074 A 
ATOM     43  C   UNL A   1      39.052  31.152  33.346  1.00  0.00     0.031 C 
ATOM     44  C   UNL A   1      40.929  27.517  27.784  1.00  0.00     0.029 A 
ATOM     45  C   UNL A   1      41.731  27.301  28.984  1.00  0.00     0.049 A 
ATOM     46  H   UNL A   1      41.507  28.232  30.837  1.00  0.00     0.167 HD
ATOM     47  C   UNL A   1      40.854  30.161  34.707  1.00  0.00     0.031 A 
ATOM     48  C   UNL A   1      42.776  26.452  29.072  1.00  0.00     0.031 A 
ATOM     49  C   UNL A   1      41.941  29.242  34.910  1.00  0.00     0.049 A 
ATOM     50  C   UNL A   1      43.481  26.299  30.390  1.00  0.00     0.074 A 
ATOM     51  C   UNL A   1      42.629  28.981  36.082  1.00  0.00     0.029 A 
ATOM     52  N   UNL A   1      42.484  28.424  33.932  1.00  0.00    -0.354 N 
ATOM     53  N   UNL A   1      43.223  26.895  31.530  1.00  0.00    -0.248 NA
ATOM     54  C   UNL A   1      44.607  25.356  30.444  1.00  0.00     0.031 C 
ATOM     55  C   UNL A   1      43.630  28.053  35.797  1.00  0.00     0.029 A 
ATOM     56  C   UNL A   1      43.516  27.675  34.468  1.00  0.00     0.049 A 
ATOM     57  H   UNL A   1      42.181  28.383  32.996  1.00  0.00     0.167 HD
ATOM     58  C   UNL A   1      44.144  26.390  32.440  1.00  0.00     0.074 A 
ATOM     59  C   UNL A   1      44.952  25.422  31.726  1.00  0.00     0.031 C 
ATOM     60  C   UNL A   1      44.306  26.706  33.748  1.00  0.00     0.031 A 
BRANCH  47  61
ATOM     61  C   UNL A   1      40.403  30.989  35.887  1.00  0.00    -0.014 A 
ATOM     62  C   UNL A   1      39.085  30.876  36.368  1.00  0.00     0.010 A 
ATOM     63  C   UNL A   1      41.244  31.976  36.437  1.00  0.00     0.010 A 
ATOM     64  C   UNL A   1      38.606  31.755  37.345  1.00  0.00     0.020 A 
ATOM     65  C   UNL A   1      40.780  32.832  37.439  1.00  0.00     0.020 A 
ATOM     66  C   UNL A   1      39.454  32.734  37.866  1.00  0.00     0.054 A 
BRANCH  66  67
ATOM     67  S   UNL A   1      38.804  33.896  39.100  1.00  0.00     0.124 S 
ATOM     68  O   UNL A   1      39.692  33.670  40.235  1.00  0.00    -0.237 OA
ATOM     69  O   UNL A   1      38.950  35.186  38.430  1.00  0.00    -0.237 OA
ATOM     70  O   UNL A   1      37.422  33.457  39.288  1.00  0.00    -0.744 OA
ENDBRANCH  66  67
ENDBRANCH  47  61
BRANCH  48  71
ATOM     71  C   UNL A   1      43.145  25.630  27.882  1.00  0.00    -0.014 A 
ATOM     72  C   UNL A   1      42.604  24.343  27.702  1.00  0.00     0.010 A 
ATOM     73  C   UNL A   1      44.127  26.086  26.983  1.00  0.00     0.010 A 
ATOM     74  C   UNL A   1      43.088  23.503  26.694  1.00  0.00     0.020 A 
ATOM     75  C   UNL A   1      44.589  25.261  25.951  1.00  0.00     0.020 A 
ATOM     76  C   UNL A   1      44.090  23.962  25.836  1.00  0.00     0.054 A 
BRANCH  76  77
ATOM     77  S   UNL A   1      44.758  22.824  24.590  1.00  0.00     0.124 S 
ATOM     78  O   UNL A   1      45.252  21.728  25.419  1.00  0.00    -0.237 OA
ATOM     79  O   UNL A   1      43.586  22.520  23.775  1.00  0.00    -0.237 OA
ATOM     80  O   UNL A   1      45.790  23.616  23.923  1.00  0.00    -0.744 OA
ENDBRANCH  76  77
ENDBRANCH  48  71
BRANCH  60  81
ATOM     81  C   UNL A   1      45.395  26.017  34.527  1.00  0.00    -0.014 A 
ATOM     82  C   UNL A   1      45.074  24.922  35.351  1.00  0.00     0.010 A 
ATOM     83  C   UNL A   1      46.687  26.568  34.589  1.00  0.00     0.010 A 
ATOM     84  C   UNL A   1      46.005  24.428  36.267  1.00  0.00     0.020 A 
ATOM     85  C   UNL A   1      47.632  26.055  35.482  1.00  0.00     0.020 A 
ATOM     86  C   UNL A   1      47.273  25.011  36.338  1.00  0.00     0.054 A 
BRANCH  86  87
ATOM     87  S   UNL A   1      48.439  24.409  37.589  1.00  0.00     0.124 S 
ATOM     88  O   UNL A   1      49.493  25.417  37.537  1.00  0.00    -0.237 OA
ATOM     89  O   UNL A   1      47.630  24.406  38.806  1.00  0.00    -0.237 OA
ATOM     90  O   UNL A   1      48.816  23.085  37.098  1.00  0.00    -0.744 OA
ENDBRANCH  86  87
ENDBRANCH  60  81
ENDBRANCH  34  35
ENDBRANCH  27  29
ENDBRANCH  26  27
ENDBRANCH  25  26
ENDBRANCH   1  25
TORSDOF 18
ENDMDL
MODEL 3
REMARK VINA RESULT:     -11.1      1.959      2.667
REMARK SMILES CC(C)CCc1cc2c(cc1Cl)C=C(C(=O)OCCOC(=O)c1ccc(-c3c4nc(c(-c5ccc(S(=O)(=O)[O-])cc5)c5ccc([nH]5)c(-c5ccc(S(=O)(=O)[O-])cc5)c5nc(c(-c6ccc(S(=O)(=O)[O-])cc6)c6ccc3[nH]6)C=C5)C=C4)cc1)[C@@H](C(F)(F)F)O2
REMARK SMILES IDX 18 1 17 2 15 3 16 4 14 5 6 6 7 7 11 8 8 9 10 10 12 11 9 12
REMARK SMILES IDX 88 13 13 14 83 15 5 16 4 17 2 18 1 19 3 20 84 21 85 22 86 23
REMARK SMILES IDX 87 24 19 25 20 26 21 27 22 28 23 29 24 30 82 31 25 32 81 33
REMARK SMILES IDX 26 34 27 35 28 36 75 37 29 38 80 39 74 40 76 41 30 42 79 43
REMARK SMILES IDX 73 44 72 45 31 47 61 48 42 49 60 50 43 51 46 52 59 53 77 54
REMARK SMILES IDX 44 55 45 56 58 58 78 59 47 60 32 61 33 62 41 63 34 64 40 65
REMARK SMILES IDX 35 66 36 67 37 68 38 69 39 70 62 71 63 72 71 73 64 74 70 75
REMARK SMILES IDX 65 76 66 77 67 78 68 79 69 80 48 81 49 82 57 83 50 84 56 85
REMARK SMILES IDX 51 86 52 87 53 88 54 89 55 90
REMARK H PARENT 76 46 46 57
REMARK Flexibility Score: inf
ROOT
ATOM      1  C   UNL A   1      35.829  22.194  25.390  1.00  0.00     0.275 C 
ENDROOT
BRANCH   1   2
ATOM      2  O   UNL A   1      34.786  23.076  24.919  1.00  0.00    -0.459 OA
BRANCH   2   3
ATOM      3  C   UNL A   1      34.919  23.510  23.644  1.00  0.00     0.338 C 
ATOM      4  O   UNL A   1      35.754  23.142  22.833  1.00  0.00    -0.246 OA
BRANCH   3   5
ATOM      5  C   UNL A   1      33.871  24.497  23.325  1.00  0.00     0.087 C 
ATOM      6  C   UNL A   1      30.613  28.322  23.520  1.00  0.00    -0.026 A 
ATOM      7  C   UNL A   1      30.722  27.158  22.727  1.00  0.00     0.052 A 
ATOM      8  C   UNL A   1      31.686  28.658  24.360  1.00  0.00     0.045 A 
ATOM      9  C   UNL A   1      31.801  26.288  22.868  1.00  0.00     0.128 A 
ATOM     10  C   UNL A   1      32.780  27.801  24.479  1.00  0.00     0.032 A 
ATOM     11  Cl  UNL A   1      31.718  30.104  25.303  1.00  0.00    -0.084 Cl
ATOM     12  C   UNL A   1      32.815  26.602  23.762  1.00  0.00     0.019 A 
ATOM     13  O   UNL A   1      31.789  25.153  22.105  1.00  0.00    -0.475 OA
ATOM     14  C   UNL A   1      33.892  25.663  23.976  1.00  0.00     0.027 C 
ATOM     15  C   UNL A   1      32.760  24.105  22.394  1.00  0.00     0.316 C 
BRANCH   6  16
ATOM     16  C   UNL A   1      29.348  29.153  23.461  1.00  0.00     0.037 C 
BRANCH  16  17
ATOM     17  C   UNL A   1      29.214  30.027  22.201  1.00  0.00     0.008 C 
BRANCH  17  18
ATOM     18  C   UNL A   1      27.996  30.977  22.186  1.00  0.00    -0.017 C 
ATOM     19  C   UNL A   1      27.598  31.435  23.589  1.00  0.00     0.007 C 
ATOM     20  C   UNL A   1      28.295  32.187  21.299  1.00  0.00     0.007 C 
ENDBRANCH  17  18
ENDBRANCH  16  17
ENDBRANCH   6  16
BRANCH  15  21
ATOM     21  C   UNL A   1      32.017  22.866  22.922  1.00  0.00     0.430 C 
ATOM     22  F   UNL A   1      30.679  22.978  22.738  1.00  0.00    -0.167 F 
ATOM     23  F   UNL A   1      32.399  21.741  22.269  1.00  0.00    -0.167 F 
ATOM     24  F   UNL A   1      32.228  22.661  24.241  1.00  0.00    -0.167 F 
ENDBRANCH  15  21
ENDBRANCH   3   5
ENDBRANCH   2   3
ENDBRANCH   1   2
BRANCH   1  25
ATOM     25  C   UNL A   1      36.917  22.969  26.135  1.00  0.00     0.275 C 
BRANCH  25  26
ATOM     26  O   UNL A   1      38.181  22.845  25.460  1.00  0.00    -0.458 OA
BRANCH  26  27
ATOM     27  C   UNL A   1      39.265  22.833  26.269  1.00  0.00     0.338 C 
ATOM     28  O   UNL A   1      40.074  21.933  26.409  1.00  0.00    -0.246 OA
BRANCH  27  29
ATOM     29  C   UNL A   1      39.421  24.150  26.899  1.00  0.00     0.060 A 
ATOM     30  C   UNL A   1      39.144  24.357  28.243  1.00  0.00     0.016 A 
ATOM     31  C   UNL A   1      40.021  25.155  26.151  1.00  0.00     0.016 A 
ATOM     32  C   UNL A   1      39.474  25.590  28.821  1.00  0.00     0.010 A 
ATOM     33  C   UNL A   1      40.510  26.300  26.768  1.00  0.00     0.010 A 
ATOM     34  C   UNL A   1      40.207  26.561  28.106  1.00  0.00    -0.014 A 
BRANCH  34  35
ATOM     35  C   UNL A   1      40.651  27.841  28.735  1.00  0.00     0.031 A 
ATOM     36  C   UNL A   1      42.092  28.042  29.155  1.00  0.00     0.074 A 
ATOM     37  C   UNL A   1      39.748  28.817  28.967  1.00  0.00     0.049 A 
ATOM     38  N   UNL A   1      42.647  29.096  29.701  1.00  0.00    -0.248 NA
ATOM     39  C   UNL A   1      43.024  26.913  28.985  1.00  0.00     0.031 C 
ATOM     40  C   UNL A   1      38.311  28.717  28.700  1.00  0.00     0.029 A 
ATOM     41  N   UNL A   1      39.901  30.094  29.453  1.00  0.00    -0.354 N 
ATOM     42  C   UNL A   1      43.971  28.745  29.951  1.00  0.00     0.074 A 
ATOM     43  C   UNL A   1      44.118  27.359  29.583  1.00  0.00     0.031 C 
ATOM     44  C   UNL A   1      37.734  29.906  28.933  1.00  0.00     0.029 A 
ATOM     45  C   UNL A   1      38.743  30.839  29.424  1.00  0.00     0.049 A 
ATOM     46  H   UNL A   1      40.758  30.444  29.790  1.00  0.00     0.167 HD
ATOM     47  C   UNL A   1      44.988  29.519  30.396  1.00  0.00     0.031 A 
ATOM     48  C   UNL A   1      38.512  32.131  29.737  1.00  0.00     0.031 A 
ATOM     49  C   UNL A   1      44.850  30.918  30.699  1.00  0.00     0.049 A 
ATOM     50  C   UNL A   1      39.661  32.988  30.188  1.00  0.00     0.074 A 
ATOM     51  C   UNL A   1      45.838  31.812  31.072  1.00  0.00     0.029 A 
ATOM     52  N   UNL A   1      43.661  31.629  30.645  1.00  0.00    -0.354 N 
ATOM     53  N   UNL A   1      40.922  32.655  30.332  1.00  0.00    -0.248 NA
ATOM     54  C   UNL A   1      39.368  34.391  30.510  1.00  0.00     0.031 C 
ATOM     55  C   UNL A   1      45.236  33.047  31.307  1.00  0.00     0.029 A 
ATOM     56  C   UNL A   1      43.887  32.946  31.003  1.00  0.00     0.049 A 
ATOM     57  H   UNL A   1      42.788  31.253  30.391  1.00  0.00     0.167 HD
ATOM     58  C   UNL A   1      41.576  33.810  30.745  1.00  0.00     0.074 A 
ATOM     59  C   UNL A   1      40.576  34.857  30.808  1.00  0.00     0.031 C 
ATOM     60  C   UNL A   1      42.885  33.982  31.050  1.00  0.00     0.031 A 
BRANCH  47  61
ATOM     61  C   UNL A   1      46.362  28.904  30.527  1.00  0.00    -0.014 A 
ATOM     62  C   UNL A   1      47.178  28.748  29.390  1.00  0.00     0.010 A 
ATOM     63  C   UNL A   1      46.793  28.359  31.752  1.00  0.00     0.010 A 
ATOM     64  C   UNL A   1      48.376  28.030  29.467  1.00  0.00     0.020 A 
ATOM     65  C   UNL A   1      48.007  27.672  31.840  1.00  0.00     0.020 A 
ATOM     66  C   UNL A   1      48.777  27.488  30.690  1.00  0.00     0.054 A 
BRANCH  66  67
ATOM     67  S   UNL A   1      50.310  26.519  30.763  1.00  0.00     0.124 S 
ATOM     68  O   UNL A   1      50.664  26.608  32.176  1.00  0.00    -0.237 OA
ATOM     69  O   UNL A   1      49.877  25.202  30.301  1.00  0.00    -0.237 OA
ATOM     70  O   UNL A   1      51.205  27.225  29.848  1.00  0.00    -0.744 OA
ENDBRANCH  66  67
ENDBRANCH  47  61
BRANCH  48  71
ATOM     71  C   UNL A   1      37.141  32.690  29.545  1.00  0.00    -0.014 A 
ATOM     72  C   UNL A   1      36.749  33.220  28.301  1.00  0.00     0.010 A 
ATOM     73  C   UNL A   1      36.262  32.800  30.637  1.00  0.00     0.010 A 
ATOM     74  C   UNL A   1      35.540  33.910  28.171  1.00  0.00     0.020 A 
ATOM     75  C   UNL A   1      35.034  33.459  30.503  1.00  0.00     0.020 A 
ATOM     76  C   UNL A   1      34.698  34.040  29.278  1.00  0.00     0.054 A 
BRANCH  76  77
ATOM     77  S   UNL A   1      33.174  35.010  29.106  1.00  0.00     0.124 S 
ATOM     78  O   UNL A   1      32.450  34.251  28.089  1.00  0.00    -0.237 OA
ATOM     79  O   UNL A   1      32.610  34.958  30.451  1.00  0.00    -0.237 OA
ATOM     80  O   UNL A   1      33.651  36.325  28.682  1.00  0.00    -0.744 OA
ENDBRANCH  76  77
ENDBRANCH  48  71
BRANCH  60  81
ATOM     81  C   UNL A   1      43.351  35.346  31.487  1.00  0.00    -0.014 A 
ATOM     82  C   UNL A   1      43.195  35.735  32.831  1.00  0.00     0.010 A 
ATOM     83  C   UNL A   1      43.763  36.298  30.539  1.00  0.00     0.010 A 
ATOM     84  C   UNL A   1      43.384  37.066  33.209  1.00  0.00     0.020 A 
ATOM     85  C   UNL A   1      43.985  37.624  30.920  1.00  0.00     0.020 A 
ATOM     86  C   UNL A   1      43.761  38.006  32.246  1.00  0.00     0.054 A 
BRANCH  86  87
ATOM     87  S   UNL A   1      43.921  39.743  32.740  1.00  0.00     0.124 S 
ATOM     88  O   UNL A   1      43.250  39.757  34.036  1.00  0.00    -0.237 OA
ATOM     89  O   UNL A   1      45.370  39.932  32.778  1.00  0.00    -0.237 OA
ATOM     90  O   UNL A   1      43.234  40.468  31.673  1.00  0.00    -0.744 OA
ENDBRANCH  86  87
ENDBRANCH  60  81
ENDBRANCH  34  35
ENDBRANCH  27  29
ENDBRANCH  26  27
ENDBRANCH  25  26
ENDBRANCH   1  25
TORSDOF 18
ENDMDL
