MODEL 1
REMARK VINA RESULT:     -13.0      0.000      0.000
REMARK SMILES Cc1ccc(S(=O)(=O)Nc2cc(C(=O)OCCOC(=O)c3ccc(-c4c5nc(c(-c6ccc(S(=O)(=O)[O-])cc6)c6ccc([nH]6)c(-c6ccc(S(=O)(=O)[O-])cc6)c6nc(c(-c7ccc(S(=O)(=O)[O-])cc7)c7ccc4[nH]7)C=C6)C=C5)cc3)ccc2C)c(Br)c1
REMARK SMILES IDX 16 1 15 2 13 3 14 4 12 5 10 6 11 7 83 8 82 9 84 10 81 11
REMARK SMILES IDX 9 12 6 14 7 15 8 16 5 17 1 18 2 19 3 20 87 21 4 22 85 23
REMARK SMILES IDX 86 24 17 25 18 26 19 27 20 28 21 29 22 30 80 31 23 32 79 33
REMARK SMILES IDX 24 34 25 35 26 36 73 37 27 38 78 39 72 40 74 41 28 42 77 43
REMARK SMILES IDX 71 44 70 45 29 47 59 48 40 49 58 50 41 51 44 52 57 53 75 54
REMARK SMILES IDX 42 55 43 56 56 58 76 59 45 60 30 61 31 62 39 63 32 64 38 65
REMARK SMILES IDX 33 66 34 67 35 68 36 69 37 70 60 71 61 72 69 73 62 74 68 75
REMARK SMILES IDX 63 76 64 77 65 78 66 79 67 80 46 81 47 82 55 83 48 84 54 85
REMARK SMILES IDX 49 86 50 87 51 88 52 89 53 90
REMARK H PARENT 9 13 74 46 44 57
REMARK Flexibility Score: inf
ROOT
ATOM      1  C   UNL A   1      30.615  27.220  24.192  1.00  0.00     0.275 C 
ENDROOT
BRANCH   1   2
ATOM      2  O   UNL A   1      31.564  26.192  24.472  1.00  0.00    -0.458 OA
BRANCH   2   3
ATOM      3  C   UNL A   1      31.416  25.592  25.660  1.00  0.00     0.338 C 
ATOM      4  O   UNL A   1      30.600  25.978  26.476  1.00  0.00    -0.246 OA
BRANCH   3   5
ATOM      5  C   UNL A   1      32.225  24.283  25.885  1.00  0.00     0.062 A 
ATOM      6  C   UNL A   1      34.673  22.056  26.167  1.00  0.00     0.053 A 
ATOM      7  C   UNL A   1      34.031  23.657  26.598  1.00  0.00     0.042 A 
ATOM      8  C   UNL A   1      33.698  21.068  25.084  1.00  0.00    -0.027 A 
ATOM      9  C   UNL A   1      32.108  21.560  24.441  1.00  0.00     0.006 A 
ATOM     10  C   UNL A   1      34.174  19.723  24.611  1.00  0.00     0.046 C 
ATOM     11  C   UNL A   1      31.356  23.111  24.808  1.00  0.00     0.016 A 
BRANCH   6  12
ATOM     12  N   UNL A   1      36.097  21.820  26.353  1.00  0.00    -0.279 N 
ATOM     13  H   UNL A   1      36.341  21.297  27.151  1.00  0.00     0.180 HD
BRANCH  12  14
ATOM     14  S   UNL A   1      37.424  22.336  25.365  1.00  0.00     0.263 S 
ATOM     15  O   UNL A   1      36.978  23.619  24.856  1.00  0.00    -0.201 OA
ATOM     16  O   UNL A   1      37.652  21.234  24.451  1.00  0.00    -0.201 OA
BRANCH  14  17
ATOM     17  C   UNL A   1      38.938  22.581  26.252  1.00  0.00     0.101 A 
ATOM     18  C   UNL A   1      42.455  24.050  28.356  1.00  0.00     0.044 C 
ATOM     19  C   UNL A   1      41.296  23.387  27.674  1.00  0.00    -0.050 A 
ATOM     20  C   UNL A   1      40.195  24.180  27.522  1.00  0.00     0.005 A 
ATOM     21  C   UNL A   1      41.168  22.094  27.200  1.00  0.00     0.020 A 
ATOM     22  C   UNL A   1      39.029  23.783  26.885  1.00  0.00     0.024 A 
ATOM     23  C   UNL A   1      39.989  21.684  26.489  1.00  0.00     0.038 A 
ATOM     24  Br  UNL A   1      39.905  19.845  26.047  1.00  0.00    -0.049 Br
ENDBRANCH  14  17
ENDBRANCH  12  14
ENDBRANCH   6  12
ENDBRANCH   3   5
ENDBRANCH   2   3
ENDBRANCH   1   2
BRANCH   1  25
ATOM     25  C   UNL A   1      30.959  28.748  24.268  1.00  0.00     0.275 C 
BRANCH  25  26
ATOM     26  O   UNL A   1      31.432  29.584  25.411  1.00  0.00    -0.458 OA
BRANCH  26  27
ATOM     27  C   UNL A   1      32.091  29.589  26.600  1.00  0.00     0.338 C 
ATOM     28  O   UNL A   1      31.563  29.246  27.650  1.00  0.00    -0.246 OA
BRANCH  27  29
ATOM     29  C   UNL A   1      33.484  30.065  26.630  1.00  0.00     0.060 A 
ATOM     30  C   UNL A   1      34.840  28.954  26.155  1.00  0.00     0.016 A 
ATOM     31  C   UNL A   1      33.769  31.242  27.876  1.00  0.00     0.016 A 
ATOM     32  C   UNL A   1      36.562  29.051  27.233  1.00  0.00     0.010 A 
ATOM     33  C   UNL A   1      35.250  31.277  28.829  1.00  0.00     0.010 A 
ATOM     34  C   UNL A   1      36.635  30.192  28.595  1.00  0.00    -0.014 A 
BRANCH  34  35
ATOM     35  C   UNL A   1      37.686  30.267  29.631  1.00  0.00     0.031 A 
ATOM     36  C   UNL A   1      38.656  29.137  29.798  1.00  0.00     0.074 A 
ATOM     37  C   UNL A   1      38.091  31.561  29.716  1.00  0.00     0.049 A 
ATOM     38  N   UNL A   1      39.921  29.352  29.858  1.00  0.00    -0.248 NA
ATOM     39  C   UNL A   1      38.377  27.705  29.667  1.00  0.00     0.031 C 
ATOM     40  C   UNL A   1      39.430  32.143  29.645  1.00  0.00     0.029 A 
ATOM     41  N   UNL A   1      37.281  32.667  29.979  1.00  0.00    -0.354 N 
ATOM     42  C   UNL A   1      40.602  28.237  29.400  1.00  0.00     0.074 A 
ATOM     43  C   UNL A   1      39.587  27.218  29.307  1.00  0.00     0.031 C 
ATOM     44  C   UNL A   1      39.398  33.392  30.142  1.00  0.00     0.029 A 
ATOM     45  C   UNL A   1      38.069  33.588  30.694  1.00  0.00     0.049 A 
ATOM     46  H   UNL A   1      36.340  32.781  29.715  1.00  0.00     0.167 HD
ATOM     47  C   UNL A   1      41.914  28.442  29.066  1.00  0.00     0.031 A 
ATOM     48  C   UNL A   1      37.801  33.713  32.028  1.00  0.00     0.031 A 
ATOM     49  C   UNL A   1      42.397  29.613  29.809  1.00  0.00     0.049 A 
ATOM     50  C   UNL A   1      38.865  33.024  32.884  1.00  0.00     0.074 A 
ATOM     51  C   UNL A   1      42.917  30.865  29.543  1.00  0.00     0.029 A 
ATOM     52  N   UNL A   1      42.105  29.600  31.162  1.00  0.00    -0.354 N 
ATOM     53  N   UNL A   1      39.780  32.222  32.395  1.00  0.00    -0.248 NA
ATOM     54  C   UNL A   1      39.070  33.234  34.314  1.00  0.00     0.031 C 
ATOM     55  C   UNL A   1      42.721  31.658  30.727  1.00  0.00     0.029 A 
ATOM     56  C   UNL A   1      42.150  30.858  31.706  1.00  0.00     0.049 A 
ATOM     57  H   UNL A   1      41.892  28.786  31.673  1.00  0.00     0.167 HD
ATOM     58  C   UNL A   1      40.665  31.827  33.356  1.00  0.00     0.074 A 
ATOM     59  C   UNL A   1      40.171  32.491  34.549  1.00  0.00     0.031 C 
ATOM     60  C   UNL A   1      41.723  30.994  33.098  1.00  0.00     0.031 A 
BRANCH  47  61
ATOM     61  C   UNL A   1      42.809  27.699  28.096  1.00  0.00    -0.014 A 
ATOM     62  C   UNL A   1      44.124  27.385  28.522  1.00  0.00     0.010 A 
ATOM     63  C   UNL A   1      42.519  27.425  26.744  1.00  0.00     0.010 A 
ATOM     64  C   UNL A   1      45.096  26.843  27.671  1.00  0.00     0.020 A 
ATOM     65  C   UNL A   1      43.490  26.858  25.876  1.00  0.00     0.020 A 
ATOM     66  C   UNL A   1      44.776  26.575  26.347  1.00  0.00     0.054 A 
BRANCH  66  67
ATOM     67  S   UNL A   1      46.074  25.861  25.291  1.00  0.00     0.124 S 
ATOM     68  O   UNL A   1      47.135  25.567  26.252  1.00  0.00    -0.237 OA
ATOM     69  O   UNL A   1      45.408  24.692  24.720  1.00  0.00    -0.237 OA
ATOM     70  O   UNL A   1      46.379  26.926  24.340  1.00  0.00    -0.744 OA
ENDBRANCH  66  67
ENDBRANCH  47  61
BRANCH  48  71
ATOM     71  C   UNL A   1      36.320  33.927  32.224  1.00  0.00    -0.014 A 
ATOM     72  C   UNL A   1      35.971  34.853  33.243  1.00  0.00     0.010 A 
ATOM     73  C   UNL A   1      35.370  33.716  31.202  1.00  0.00     0.010 A 
ATOM     74  C   UNL A   1      34.793  35.615  33.186  1.00  0.00     0.020 A 
ATOM     75  C   UNL A   1      34.166  34.463  31.159  1.00  0.00     0.020 A 
ATOM     76  C   UNL A   1      33.893  35.425  32.141  1.00  0.00     0.054 A 
BRANCH  76  77
ATOM     77  S   UNL A   1      32.418  36.513  32.052  1.00  0.00     0.124 S 
ATOM     78  O   UNL A   1      32.882  37.693  32.777  1.00  0.00    -0.237 OA
ATOM     79  O   UNL A   1      32.232  36.715  30.617  1.00  0.00    -0.237 OA
ATOM     80  O   UNL A   1      31.377  35.754  32.740  1.00  0.00    -0.744 OA
ENDBRANCH  76  77
ENDBRANCH  48  71
BRANCH  60  81
ATOM     81  C   UNL A   1      42.436  30.131  34.130  1.00  0.00    -0.014 A 
ATOM     82  C   UNL A   1      43.797  30.236  34.432  1.00  0.00     0.010 A 
ATOM     83  C   UNL A   1      41.673  29.271  34.973  1.00  0.00     0.010 A 
ATOM     84  C   UNL A   1      44.381  29.473  35.451  1.00  0.00     0.020 A 
ATOM     85  C   UNL A   1      42.226  28.577  36.050  1.00  0.00     0.020 A 
ATOM     86  C   UNL A   1      43.593  28.647  36.251  1.00  0.00     0.054 A 
BRANCH  86  87
ATOM     87  S   UNL A   1      44.377  27.661  37.542  1.00  0.00     0.124 S 
ATOM     88  O   UNL A   1      45.500  27.071  36.818  1.00  0.00    -0.237 OA
ATOM     89  O   UNL A   1      44.731  28.666  38.540  1.00  0.00    -0.237 OA
ATOM     90  O   UNL A   1      43.333  26.725  37.949  1.00  0.00    -0.744 OA
ENDBRANCH  86  87
ENDBRANCH  60  81
ENDBRANCH  34  35
ENDBRANCH  27  29
ENDBRANCH  26  27
ENDBRANCH  25  26
ENDBRANCH   1  25
TORSDOF 17
ENDMDL
MODEL 2
REMARK VINA RESULT:     -12.4      3.437      9.526
REMARK SMILES Cc1ccc(S(=O)(=O)Nc2cc(C(=O)OCCOC(=O)c3ccc(-c4c5nc(c(-c6ccc(S(=O)(=O)[O-])cc6)c6ccc([nH]6)c(-c6ccc(S(=O)(=O)[O-])cc6)c6nc(c(-c7ccc(S(=O)(=O)[O-])cc7)c7ccc4[nH]7)C=C6)C=C5)cc3)ccc2C)c(Br)c1
REMARK SMILES IDX 16 1 15 2 13 3 14 4 12 5 10 6 11 7 83 8 82 9 84 10 81 11
REMARK SMILES IDX 9 12 6 14 7 15 8 16 5 17 1 18 2 19 3 20 87 21 4 22 85 23
REMARK SMILES IDX 86 24 17 25 18 26 19 27 20 28 21 29 22 30 80 31 23 32 79 33
REMARK SMILES IDX 24 34 25 35 26 36 73 37 27 38 78 39 72 40 74 41 28 42 77 43
REMARK SMILES IDX 71 44 70 45 29 47 59 48 40 49 58 50 41 51 44 52 57 53 75 54
REMARK SMILES IDX 42 55 43 56 56 58 76 59 45 60 30 61 31 62 39 63 32 64 38 65
REMARK SMILES IDX 33 66 34 67 35 68 36 69 37 70 60 71 61 72 69 73 62 74 68 75
REMARK SMILES IDX 63 76 64 77 65 78 66 79 67 80 46 81 47 82 55 83 48 84 54 85
REMARK SMILES IDX 49 86 50 87 51 88 52 89 53 90
REMARK H PARENT 9 13 74 46 44 57
REMARK Flexibility Score: inf
ROOT
ATOM      1  C   UNL A   1      39.884  23.204  27.051  1.00  0.00     0.275 C 
ENDROOT
BRANCH   1   2
ATOM      2  O   UNL A   1      39.003  23.066  25.938  1.00  0.00    -0.458 OA
BRANCH   2   3
ATOM      3  C   UNL A   1      37.794  23.621  26.099  1.00  0.00     0.338 C 
ATOM      4  O   UNL A   1      37.611  24.546  26.867  1.00  0.00    -0.246 OA
BRANCH   3   5
ATOM      5  C   UNL A   1      36.671  23.133  25.140  1.00  0.00     0.062 A 
ATOM      6  C   UNL A   1      34.059  23.004  23.092  1.00  0.00     0.053 A 
ATOM      7  C   UNL A   1      35.609  23.763  23.516  1.00  0.00     0.042 A 
ATOM      8  C   UNL A   1      33.481  21.722  24.151  1.00  0.00    -0.027 A 
ATOM      9  C   UNL A   1      34.372  21.123  25.575  1.00  0.00     0.006 A 
ATOM     10  C   UNL A   1      32.155  21.053  23.917  1.00  0.00     0.046 C 
ATOM     11  C   UNL A   1      35.926  21.779  26.089  1.00  0.00     0.016 A 
BRANCH   6  12
ATOM     12  N   UNL A   1      33.165  23.731  22.202  1.00  0.00    -0.279 N 
ATOM     13  H   UNL A   1      32.733  23.191  21.500  1.00  0.00     0.180 HD
BRANCH  12  14
ATOM     14  S   UNL A   1      32.758  25.415  22.206  1.00  0.00     0.263 S 
ATOM     15  O   UNL A   1      31.338  25.413  21.914  1.00  0.00    -0.201 OA
ATOM     16  O   UNL A   1      33.689  26.021  21.273  1.00  0.00    -0.201 OA
BRANCH  14  17
ATOM     17  C   UNL A   1      33.009  26.219  23.766  1.00  0.00     0.101 A 
ATOM     18  C   UNL A   1      34.286  28.618  27.167  1.00  0.00     0.044 C 
ATOM     19  C   UNL A   1      33.717  27.738  26.094  1.00  0.00    -0.050 A 
ATOM     20  C   UNL A   1      34.057  28.099  24.822  1.00  0.00     0.005 A 
ATOM     21  C   UNL A   1      32.886  26.638  26.198  1.00  0.00     0.020 A 
ATOM     22  C   UNL A   1      33.675  27.404  23.684  1.00  0.00     0.024 A 
ATOM     23  C   UNL A   1      32.526  25.874  25.036  1.00  0.00     0.038 A 
ATOM     24  Br  UNL A   1      31.258  24.499  25.327  1.00  0.00    -0.049 Br
ENDBRANCH  14  17
ENDBRANCH  12  14
ENDBRANCH   6  12
ENDBRANCH   3   5
ENDBRANCH   2   3
ENDBRANCH   1   2
BRANCH   1  25
ATOM     25  C   UNL A   1      40.935  24.361  27.174  1.00  0.00     0.275 C 
BRANCH  25  26
ATOM     26  O   UNL A   1      40.806  25.825  26.911  1.00  0.00    -0.458 OA
BRANCH  26  27
ATOM     27  C   UNL A   1      41.212  26.866  26.136  1.00  0.00     0.338 C 
ATOM     28  O   UNL A   1      41.604  26.719  24.985  1.00  0.00    -0.246 OA
BRANCH  27  29
ATOM     29  C   UNL A   1      41.215  28.218  26.718  1.00  0.00     0.060 A 
ATOM     30  C   UNL A   1      42.787  29.056  27.074  1.00  0.00     0.016 A 
ATOM     31  C   UNL A   1      39.860  28.506  27.767  1.00  0.00     0.016 A 
ATOM     32  C   UNL A   1      42.905  30.152  28.784  1.00  0.00     0.010 A 
ATOM     33  C   UNL A   1      39.998  29.419  29.267  1.00  0.00     0.010 A 
ATOM     34  C   UNL A   1      41.479  30.206  29.846  1.00  0.00    -0.014 A 
BRANCH  34  35
ATOM     35  C   UNL A   1      41.420  30.747  31.219  1.00  0.00     0.031 A 
ATOM     36  C   UNL A   1      40.851  32.112  31.463  1.00  0.00     0.074 A 
ATOM     37  C   UNL A   1      41.157  29.713  32.059  1.00  0.00     0.049 A 
ATOM     38  N   UNL A   1      39.965  32.308  32.374  1.00  0.00    -0.248 NA
ATOM     39  C   UNL A   1      40.993  33.296  30.614  1.00  0.00     0.031 C 
ATOM     40  C   UNL A   1      40.121  29.559  33.079  1.00  0.00     0.029 A 
ATOM     41  N   UNL A   1      41.905  28.542  32.192  1.00  0.00    -0.354 N 
ATOM     42  C   UNL A   1      39.178  33.392  32.027  1.00  0.00     0.074 A 
ATOM     43  C   UNL A   1      39.875  33.994  30.919  1.00  0.00     0.031 C 
ATOM     44  C   UNL A   1      40.459  28.554  33.907  1.00  0.00     0.029 A 
ATOM     45  C   UNL A   1      41.801  28.142  33.537  1.00  0.00     0.049 A 
ATOM     46  H   UNL A   1      42.408  28.083  31.481  1.00  0.00     0.167 HD
ATOM     47  C   UNL A   1      37.989  33.498  32.699  1.00  0.00     0.031 A 
ATOM     48  C   UNL A   1      42.907  28.333  34.317  1.00  0.00     0.031 A 
ATOM     49  C   UNL A   1      38.122  32.788  33.977  1.00  0.00     0.049 A 
ATOM     50  C   UNL A   1      42.731  29.522  35.263  1.00  0.00     0.074 A 
ATOM     51  C   UNL A   1      37.535  31.725  34.637  1.00  0.00     0.029 A 
ATOM     52  N   UNL A   1      39.260  33.103  34.699  1.00  0.00    -0.354 N 
ATOM     53  N   UNL A   1      41.745  30.382  35.170  1.00  0.00    -0.248 NA
ATOM     54  C   UNL A   1      43.556  29.803  36.434  1.00  0.00     0.031 C 
ATOM     55  C   UNL A   1      38.472  31.286  35.636  1.00  0.00     0.029 A 
ATOM     56  C   UNL A   1      39.575  32.127  35.609  1.00  0.00     0.049 A 
ATOM     57  H   UNL A   1      39.782  33.929  34.574  1.00  0.00     0.167 HD
ATOM     58  C   UNL A   1      41.766  31.280  36.198  1.00  0.00     0.074 A 
ATOM     59  C   UNL A   1      42.929  30.873  36.965  1.00  0.00     0.031 C 
ATOM     60  C   UNL A   1      40.835  32.277  36.334  1.00  0.00     0.031 A 
BRANCH  47  61
ATOM     61  C   UNL A   1      36.688  34.160  32.295  1.00  0.00    -0.014 A 
ATOM     62  C   UNL A   1      36.100  35.068  33.211  1.00  0.00     0.010 A 
ATOM     63  C   UNL A   1      35.914  33.844  31.160  1.00  0.00     0.010 A 
ATOM     64  C   UNL A   1      34.827  35.624  33.028  1.00  0.00     0.020 A 
ATOM     65  C   UNL A   1      34.630  34.415  30.954  1.00  0.00     0.020 A 
ATOM     66  C   UNL A   1      34.094  35.300  31.894  1.00  0.00     0.054 A 
BRANCH  66  67
ATOM     67  S   UNL A   1      32.452  36.061  31.702  1.00  0.00     0.124 S 
ATOM     68  O   UNL A   1      32.260  36.031  30.253  1.00  0.00    -0.237 OA
ATOM     69  O   UNL A   1      31.594  35.157  32.464  1.00  0.00    -0.237 OA
ATOM     70  O   UNL A   1      32.613  37.394  32.276  1.00  0.00    -0.744 OA
ENDBRANCH  66  67
ENDBRANCH  47  61
BRANCH  48  71
ATOM     71  C   UNL A   1      44.116  27.757  33.622  1.00  0.00    -0.014 A 
ATOM     72  C   UNL A   1      43.925  26.478  33.033  1.00  0.00     0.010 A 
ATOM     73  C   UNL A   1      45.151  28.555  33.090  1.00  0.00     0.010 A 
ATOM     74  C   UNL A   1      44.646  26.064  31.901  1.00  0.00     0.020 A 
ATOM     75  C   UNL A   1      45.899  28.126  31.965  1.00  0.00     0.020 A 
ATOM     76  C   UNL A   1      45.628  26.890  31.363  1.00  0.00     0.054 A 
BRANCH  76  77
ATOM     77  S   UNL A   1      46.473  26.352  29.826  1.00  0.00     0.124 S 
ATOM     78  O   UNL A   1      46.105  24.940  29.769  1.00  0.00    -0.237 OA
ATOM     79  O   UNL A   1      45.857  27.183  28.792  1.00  0.00    -0.237 OA
ATOM     80  O   UNL A   1      47.888  26.595  30.095  1.00  0.00    -0.744 OA
ENDBRANCH  76  77
ENDBRANCH  48  71
BRANCH  60  81
ATOM     81  C   UNL A   1      41.040  33.572  37.110  1.00  0.00    -0.014 A 
ATOM     82  C   UNL A   1      40.535  33.803  38.394  1.00  0.00     0.010 A 
ATOM     83  C   UNL A   1      41.929  34.563  36.600  1.00  0.00     0.010 A 
ATOM     84  C   UNL A   1      40.826  34.982  39.092  1.00  0.00     0.020 A 
ATOM     85  C   UNL A   1      42.300  35.696  37.325  1.00  0.00     0.020 A 
ATOM     86  C   UNL A   1      41.704  35.921  38.552  1.00  0.00     0.054 A 
BRANCH  86  87
ATOM     87  S   UNL A   1      42.043  37.438  39.468  1.00  0.00     0.124 S 
ATOM     88  O   UNL A   1      42.488  36.909  40.755  1.00  0.00    -0.237 OA
ATOM     89  O   UNL A   1      43.077  38.075  38.659  1.00  0.00    -0.237 OA
ATOM     90  O   UNL A   1      40.757  38.129  39.486  1.00  0.00    -0.744 OA
ENDBRANCH  86  87
ENDBRANCH  60  81
ENDBRANCH  34  35
ENDBRANCH  27  29
ENDBRANCH  26  27
ENDBRANCH  25  26
ENDBRANCH   1  25
TORSDOF 17
ENDMDL
MODEL 3
REMARK VINA RESULT:     -12.4      5.808      8.762
REMARK SMILES Cc1ccc(S(=O)(=O)Nc2cc(C(=O)OCCOC(=O)c3ccc(-c4c5nc(c(-c6ccc(S(=O)(=O)[O-])cc6)c6ccc([nH]6)c(-c6ccc(S(=O)(=O)[O-])cc6)c6nc(c(-c7ccc(S(=O)(=O)[O-])cc7)c7ccc4[nH]7)C=C6)C=C5)cc3)ccc2C)c(Br)c1
REMARK SMILES IDX 16 1 15 2 13 3 14 4 12 5 10 6 11 7 83 8 82 9 84 10 81 11
REMARK SMILES IDX 9 12 6 14 7 15 8 16 5 17 1 18 2 19 3 20 87 21 4 22 85 23
REMARK SMILES IDX 86 24 17 25 18 26 19 27 20 28 21 29 22 30 80 31 23 32 79 33
REMARK SMILES IDX 24 34 25 35 26 36 73 37 27 38 78 39 72 40 74 41 28 42 77 43
REMARK SMILES IDX 71 44 70 45 29 47 59 48 40 49 58 50 41 51 44 52 57 53 75 54
REMARK SMILES IDX 42 55 43 56 56 58 76 59 45 60 30 61 31 62 39 63 32 64 38 65
REMARK SMILES IDX 33 66 34 67 35 68 36 69 37 70 60 71 61 72 69 73 62 74 68 75
REMARK SMILES IDX 63 76 64 77 65 78 66 79 67 80 46 81 47 82 55 83 48 84 54 85
REMARK SMILES IDX 49 86 50 87 51 88 52 89 53 90
REMARK H PARENT 9 13 74 46 44 57
REMARK Flexibility Score: inf
ROOT
ATOM      1  C   UNL A   1      37.976  30.483  30.599  1.00  0.00     0.275 C 
ENDROOT
BRANCH   1   2
ATOM      2  O   UNL A   1      37.515  29.396  29.799  1.00  0.00    -0.458 OA
BRANCH   2   3
ATOM      3  C   UNL A   1      37.211  29.711  28.533  1.00  0.00     0.338 C 
ATOM      4  O   UNL A   1      38.069  29.833  27.679  1.00  0.00    -0.246 OA
BRANCH   3   5
ATOM      5  C   UNL A   1      35.699  29.759  28.172  1.00  0.00     0.062 A 
ATOM      6  C   UNL A   1      32.782  29.453  26.613  1.00  0.00     0.053 A 
ATOM      7  C   UNL A   1      34.297  28.690  27.145  1.00  0.00     0.042 A 
ATOM      8  C   UNL A   1      32.574  31.161  26.984  1.00  0.00    -0.027 A 
ATOM      9  C   UNL A   1      33.760  32.140  27.888  1.00  0.00     0.006 A 
ATOM     10  C   UNL A   1      31.357  31.918  26.529  1.00  0.00     0.046 C 
ATOM     11  C   UNL A   1      35.289  31.497  28.484  1.00  0.00     0.016 A 
BRANCH   6  12
ATOM     12  N   UNL A   1      32.019  28.793  25.564  1.00  0.00    -0.279 N 
ATOM     13  H   UNL A   1      31.796  29.352  24.784  1.00  0.00     0.180 HD
BRANCH  12  14
ATOM     14  S   UNL A   1      31.447  27.158  25.498  1.00  0.00     0.263 S 
ATOM     15  O   UNL A   1      30.565  27.162  24.348  1.00  0.00    -0.201 OA
ATOM     16  O   UNL A   1      30.910  26.903  26.821  1.00  0.00    -0.201 OA
BRANCH  14  17
ATOM     17  C   UNL A   1      32.719  25.955  25.227  1.00  0.00     0.101 A 
ATOM     18  C   UNL A   1      35.785  22.872  25.445  1.00  0.00     0.044 C 
ATOM     19  C   UNL A   1      34.747  23.926  25.200  1.00  0.00    -0.050 A 
ATOM     20  C   UNL A   1      33.836  24.072  26.206  1.00  0.00     0.005 A 
ATOM     21  C   UNL A   1      34.562  24.750  24.105  1.00  0.00     0.020 A 
ATOM     22  C   UNL A   1      32.816  25.013  26.206  1.00  0.00     0.024 A 
ATOM     23  C   UNL A   1      33.547  25.766  24.112  1.00  0.00     0.038 A 
ATOM     24  Br  UNL A   1      33.320  26.700  22.481  1.00  0.00    -0.049 Br
ENDBRANCH  14  17
ENDBRANCH  12  14
ENDBRANCH   6  12
ENDBRANCH   3   5
ENDBRANCH   2   3
ENDBRANCH   1   2
BRANCH   1  25
ATOM     25  C   UNL A   1      38.099  30.407  32.160  1.00  0.00     0.275 C 
BRANCH  25  26
ATOM     26  O   UNL A   1      37.759  31.410  33.213  1.00  0.00    -0.458 OA
BRANCH  26  27
ATOM     27  C   UNL A   1      37.416  32.701  33.464  1.00  0.00     0.338 C 
ATOM     28  O   UNL A   1      36.536  33.009  34.258  1.00  0.00    -0.246 OA
BRANCH  27  29
ATOM     29  C   UNL A   1      38.105  33.770  32.721  1.00  0.00     0.060 A 
ATOM     30  C   UNL A   1      37.791  33.999  30.947  1.00  0.00     0.016 A 
ATOM     31  C   UNL A   1      39.695  34.103  33.336  1.00  0.00     0.016 A 
ATOM     32  C   UNL A   1      39.374  34.474  29.762  1.00  0.00     0.010 A 
ATOM     33  C   UNL A   1      41.062  34.466  32.286  1.00  0.00     0.010 A 
ATOM     34  C   UNL A   1      40.978  34.609  30.519  1.00  0.00    -0.014 A 
BRANCH  34  35
ATOM     35  C   UNL A   1      42.276  34.722  29.825  1.00  0.00     0.031 A 
ATOM     36  C   UNL A   1      43.163  33.521  29.691  1.00  0.00     0.074 A 
ATOM     37  C   UNL A   1      42.121  35.601  28.800  1.00  0.00     0.049 A 
ATOM     38  N   UNL A   1      43.669  33.194  28.557  1.00  0.00    -0.248 NA
ATOM     39  C   UNL A   1      43.373  32.461  30.679  1.00  0.00     0.031 C 
ATOM     40  C   UNL A   1      42.434  35.466  27.379  1.00  0.00     0.029 A 
ATOM     41  N   UNL A   1      41.678  36.921  28.901  1.00  0.00    -0.354 N 
ATOM     42  C   UNL A   1      43.895  31.828  28.528  1.00  0.00     0.074 A 
ATOM     43  C   UNL A   1      43.709  31.412  29.895  1.00  0.00     0.031 C 
ATOM     44  C   UNL A   1      42.467  36.686  26.813  1.00  0.00     0.029 A 
ATOM     45  C   UNL A   1      42.335  37.650  27.892  1.00  0.00     0.049 A 
ATOM     46  H   UNL A   1      41.030  37.274  29.552  1.00  0.00     0.167 HD
ATOM     47  C   UNL A   1      44.085  31.287  27.285  1.00  0.00     0.031 A 
ATOM     48  C   UNL A   1      43.333  38.489  28.299  1.00  0.00     0.031 A 
ATOM     49  C   UNL A   1      44.565  32.349  26.392  1.00  0.00     0.049 A 
ATOM     50  C   UNL A   1      44.716  37.919  27.979  1.00  0.00     0.074 A 
ATOM     51  C   UNL A   1      44.168  32.982  25.229  1.00  0.00     0.029 A 
ATOM     52  N   UNL A   1      45.611  33.100  26.897  1.00  0.00    -0.354 N 
ATOM     53  N   UNL A   1      44.916  36.685  27.582  1.00  0.00    -0.248 NA
ATOM     54  C   UNL A   1      45.964  38.675  27.974  1.00  0.00     0.031 C 
ATOM     55  C   UNL A   1      44.863  34.239  25.181  1.00  0.00     0.029 A 
ATOM     56  C   UNL A   1      45.714  34.318  26.274  1.00  0.00     0.049 A 
ATOM     57  H   UNL A   1      46.211  32.798  27.617  1.00  0.00     0.167 HD
ATOM     58  C   UNL A   1      46.226  36.467  27.266  1.00  0.00     0.074 A 
ATOM     59  C   UNL A   1      46.846  37.753  27.533  1.00  0.00     0.031 C 
ATOM     60  C   UNL A   1      46.692  35.259  26.815  1.00  0.00     0.031 A 
BRANCH  47  61
ATOM     61  C   UNL A   1      43.845  29.879  26.778  1.00  0.00    -0.014 A 
ATOM     62  C   UNL A   1      42.507  29.495  26.510  1.00  0.00     0.010 A 
ATOM     63  C   UNL A   1      44.808  28.853  26.695  1.00  0.00     0.010 A 
ATOM     64  C   UNL A   1      42.136  28.183  26.189  1.00  0.00     0.020 A 
ATOM     65  C   UNL A   1      44.447  27.522  26.353  1.00  0.00     0.020 A 
ATOM     66  C   UNL A   1      43.110  27.197  26.106  1.00  0.00     0.054 A 
BRANCH  66  67
ATOM     67  S   UNL A   1      42.573  25.512  25.674  1.00  0.00     0.124 S 
ATOM     68  O   UNL A   1      41.286  25.750  25.022  1.00  0.00    -0.237 OA
ATOM     69  O   UNL A   1      43.644  25.056  24.791  1.00  0.00    -0.237 OA
ATOM     70  O   UNL A   1      42.496  24.827  26.961  1.00  0.00    -0.744 OA
ENDBRANCH  66  67
ENDBRANCH  47  61
BRANCH  48  71
ATOM     71  C   UNL A   1      42.828  39.361  29.422  1.00  0.00    -0.014 A 
ATOM     72  C   UNL A   1      43.647  39.388  30.583  1.00  0.00     0.010 A 
ATOM     73  C   UNL A   1      41.980  40.469  29.214  1.00  0.00     0.010 A 
ATOM     74  C   UNL A   1      43.705  40.509  31.428  1.00  0.00     0.020 A 
ATOM     75  C   UNL A   1      42.016  41.589  30.083  1.00  0.00     0.020 A 
ATOM     76  C   UNL A   1      42.895  41.612  31.174  1.00  0.00     0.054 A 
BRANCH  76  77
ATOM     77  S   UNL A   1      43.077  43.092  32.244  1.00  0.00     0.124 S 
ATOM     78  O   UNL A   1      42.544  44.143  31.382  1.00  0.00    -0.237 OA
ATOM     79  O   UNL A   1      42.245  42.775  33.404  1.00  0.00    -0.237 OA
ATOM     80  O   UNL A   1      44.515  43.181  32.483  1.00  0.00    -0.744 OA
ENDBRANCH  76  77
ENDBRANCH  48  71
BRANCH  60  81
ATOM     81  C   UNL A   1      48.136  34.782  26.911  1.00  0.00    -0.014 A 
ATOM     82  C   UNL A   1      48.776  34.465  28.114  1.00  0.00     0.010 A 
ATOM     83  C   UNL A   1      48.853  34.471  25.720  1.00  0.00     0.010 A 
ATOM     84  C   UNL A   1      50.079  33.951  28.134  1.00  0.00     0.020 A 
ATOM     85  C   UNL A   1      50.113  33.873  25.726  1.00  0.00     0.020 A 
ATOM     86  C   UNL A   1      50.740  33.661  26.941  1.00  0.00     0.054 A 
BRANCH  86  87
ATOM     87  S   UNL A   1      52.424  33.018  27.001  1.00  0.00     0.124 S 
ATOM     88  O   UNL A   1      52.185  31.583  27.124  1.00  0.00    -0.237 OA
ATOM     89  O   UNL A   1      52.979  33.456  25.723  1.00  0.00    -0.237 OA
ATOM     90  O   UNL A   1      53.001  33.660  28.179  1.00  0.00    -0.744 OA
ENDBRANCH  86  87
ENDBRANCH  60  81
ENDBRANCH  34  35
ENDBRANCH  27  29
ENDBRANCH  26  27
ENDBRANCH  25  26
ENDBRANCH   1  25
TORSDOF 17
ENDMDL
