MODEL 1
REMARK VINA RESULT:     -10.8      0.000      0.000
REMARK SMILES Nc1ncc(C(=O)OCCOC(=O)c2ccc(-c3c4nc(c(-c5ccc(S(=O)(=O)[O-])cc5)c5ccc([nH]5)c(-c5ccc(S(=O)(=O)[O-])cc5)c5nc(c(-c6ccc(S(=O)(=O)[O-])cc6)c6ccc3[nH]6)C=C5)C=C4)cc2)c(-c2ccccc2)n1
REMARK SMILES IDX 10 1 9 2 8 3 6 4 7 5 5 6 2 7 3 8 81 9 4 10 74 11 1 12 75 15
REMARK SMILES IDX 76 16 80 17 77 18 79 19 78 20 11 21 12 22 13 23 14 24 15 25
REMARK SMILES IDX 73 26 16 27 72 28 17 29 18 30 19 31 66 32 20 33 71 34 65 35
REMARK SMILES IDX 67 36 21 37 70 38 64 39 63 40 22 42 52 43 33 44 51 45 34 46
REMARK SMILES IDX 37 47 50 48 68 49 35 50 36 51 49 53 69 54 38 55 23 56 24 57
REMARK SMILES IDX 32 58 25 59 31 60 26 61 27 62 28 63 29 64 30 65 53 66 54 67
REMARK SMILES IDX 62 68 55 69 61 70 56 71 57 72 58 73 59 74 60 75 39 76 40 77
REMARK SMILES IDX 48 78 41 79 47 80 42 81 43 82 44 83 45 84 46 85
REMARK H PARENT 1 13 1 14 67 41 37 52
REMARK Flexibility Score: inf
ROOT
ATOM      1  C   UNL A   1      32.426  30.273  27.084  1.00  0.00     0.275 C 
ENDROOT
BRANCH   1   2
ATOM      2  C   UNL A   1      31.702  29.604  25.916  1.00  0.00     0.275 C 
BRANCH   2   3
ATOM      3  O   UNL A   1      32.337  28.359  25.558  1.00  0.00    -0.458 OA
BRANCH   3   4
ATOM      4  C   UNL A   1      31.529  27.306  25.287  1.00  0.00     0.342 C 
ATOM      5  O   UNL A   1      30.734  26.790  26.048  1.00  0.00    -0.246 OA
BRANCH   4   6
ATOM      6  C   UNL A   1      31.678  26.860  23.892  1.00  0.00     0.104 A 
ATOM      7  C   UNL A   1      32.116  25.983  21.362  1.00  0.00     0.220 A 
ATOM      8  N   UNL A   1      32.947  25.564  22.314  1.00  0.00    -0.221 NA
ATOM      9  N   UNL A   1      31.094  26.823  21.562  1.00  0.00    -0.212 NA
ATOM     10  C   UNL A   1      32.720  26.026  23.557  1.00  0.00     0.133 A 
ATOM     11  C   UNL A   1      30.883  27.263  22.834  1.00  0.00     0.090 A 
BRANCH   7  12
ATOM     12  N   UNL A   1      32.367  25.547  20.097  1.00  0.00    -0.368 N 
ATOM     13  H   UNL A   1      32.762  26.158  19.434  1.00  0.00     0.159 HD
ATOM     14  H   UNL A   1      32.154  24.619  19.844  1.00  0.00     0.159 HD
ENDBRANCH   7  12
BRANCH  11  15
ATOM     15  C   UNL A   1      29.762  28.203  22.986  1.00  0.00     0.001 A 
ATOM     16  C   UNL A   1      28.458  27.753  23.267  1.00  0.00     0.010 A 
ATOM     17  C   UNL A   1      29.956  29.573  22.750  1.00  0.00     0.010 A 
ATOM     18  C   UNL A   1      27.374  28.631  23.223  1.00  0.00     0.001 A 
ATOM     19  C   UNL A   1      28.872  30.452  22.719  1.00  0.00     0.001 A 
ATOM     20  C   UNL A   1      27.581  29.976  22.936  1.00  0.00     0.000 A 
ENDBRANCH  11  15
ENDBRANCH   4   6
ENDBRANCH   3   4
ENDBRANCH   2   3
ENDBRANCH   1   2
BRANCH   1  21
ATOM     21  O   UNL A   1      33.827  29.949  27.057  1.00  0.00    -0.458 OA
BRANCH  21  22
ATOM     22  C   UNL A   1      34.577  30.669  27.920  1.00  0.00     0.338 C 
ATOM     23  O   UNL A   1      34.234  31.638  28.578  1.00  0.00    -0.246 OA
BRANCH  22  24
ATOM     24  C   UNL A   1      35.880  30.024  28.100  1.00  0.00     0.060 A 
ATOM     25  C   UNL A   1      36.165  29.513  29.360  1.00  0.00     0.016 A 
ATOM     26  C   UNL A   1      36.865  30.084  27.123  1.00  0.00     0.016 A 
ATOM     27  C   UNL A   1      37.465  29.173  29.702  1.00  0.00     0.010 A 
ATOM     28  C   UNL A   1      38.153  29.632  27.432  1.00  0.00     0.010 A 
ATOM     29  C   UNL A   1      38.477  29.212  28.738  1.00  0.00    -0.014 A 
BRANCH  29  30
ATOM     30  C   UNL A   1      39.872  28.841  29.104  1.00  0.00     0.031 A 
ATOM     31  C   UNL A   1      40.760  29.839  29.801  1.00  0.00     0.074 A 
ATOM     32  C   UNL A   1      40.340  27.609  28.816  1.00  0.00     0.049 A 
ATOM     33  N   UNL A   1      42.046  29.778  30.036  1.00  0.00    -0.248 NA
ATOM     34  C   UNL A   1      40.123  31.076  30.284  1.00  0.00     0.031 C 
ATOM     35  C   UNL A   1      39.569  26.527  28.196  1.00  0.00     0.029 A 
ATOM     36  N   UNL A   1      41.582  27.055  29.010  1.00  0.00    -0.354 N 
ATOM     37  C   UNL A   1      42.381  30.986  30.637  1.00  0.00     0.074 A 
ATOM     38  C   UNL A   1      41.167  31.768  30.719  1.00  0.00     0.031 C 
ATOM     39  C   UNL A   1      40.340  25.434  28.095  1.00  0.00     0.029 A 
ATOM     40  C   UNL A   1      41.686  25.765  28.542  1.00  0.00     0.049 A 
ATOM     41  H   UNL A   1      42.325  27.533  29.443  1.00  0.00     0.167 HD
ATOM     42  C   UNL A   1      43.594  31.406  31.073  1.00  0.00     0.031 A 
ATOM     43  C   UNL A   1      42.754  24.952  28.428  1.00  0.00     0.031 A 
ATOM     44  C   UNL A   1      44.788  30.602  31.013  1.00  0.00     0.049 A 
ATOM     45  C   UNL A   1      44.098  25.461  28.864  1.00  0.00     0.074 A 
ATOM     46  C   UNL A   1      46.064  30.923  31.441  1.00  0.00     0.029 A 
ATOM     47  N   UNL A   1      44.852  29.314  30.499  1.00  0.00    -0.354 N 
ATOM     48  N   UNL A   1      44.406  26.621  29.392  1.00  0.00    -0.248 NA
ATOM     49  C   UNL A   1      45.238  24.554  28.683  1.00  0.00     0.031 C 
ATOM     50  C   UNL A   1      46.911  29.855  31.134  1.00  0.00     0.029 A 
ATOM     51  C   UNL A   1      46.150  28.837  30.580  1.00  0.00     0.049 A 
ATOM     52  H   UNL A   1      44.088  28.813  30.133  1.00  0.00     0.167 HD
ATOM     53  C   UNL A   1      45.775  26.575  29.631  1.00  0.00     0.074 A 
ATOM     54  C   UNL A   1      46.228  25.265  29.204  1.00  0.00     0.031 C 
ATOM     55  C   UNL A   1      46.582  27.528  30.155  1.00  0.00     0.031 A 
BRANCH  42  56
ATOM     56  C   UNL A   1      43.703  32.810  31.612  1.00  0.00    -0.014 A 
ATOM     57  C   UNL A   1      43.880  33.918  30.765  1.00  0.00     0.010 A 
ATOM     58  C   UNL A   1      43.578  33.027  32.998  1.00  0.00     0.010 A 
ATOM     59  C   UNL A   1      43.969  35.210  31.296  1.00  0.00     0.020 A 
ATOM     60  C   UNL A   1      43.635  34.319  33.531  1.00  0.00     0.020 A 
ATOM     61  C   UNL A   1      43.848  35.400  32.677  1.00  0.00     0.054 A 
BRANCH  61  62
ATOM     62  S   UNL A   1      43.943  37.089  33.335  1.00  0.00     0.124 S 
ATOM     63  O   UNL A   1      44.086  37.880  32.115  1.00  0.00    -0.237 OA
ATOM     64  O   UNL A   1      42.667  37.233  34.031  1.00  0.00    -0.237 OA
ATOM     65  O   UNL A   1      45.121  37.061  34.199  1.00  0.00    -0.744 OA
ENDBRANCH  61  62
ENDBRANCH  42  56
BRANCH  43  66
ATOM     66  C   UNL A   1      42.597  23.598  27.827  1.00  0.00    -0.014 A 
ATOM     67  C   UNL A   1      42.915  23.370  26.477  1.00  0.00     0.010 A 
ATOM     68  C   UNL A   1      42.144  22.520  28.612  1.00  0.00     0.010 A 
ATOM     69  C   UNL A   1      42.769  22.096  25.920  1.00  0.00     0.020 A 
ATOM     70  C   UNL A   1      42.033  21.237  28.069  1.00  0.00     0.020 A 
ATOM     71  C   UNL A   1      42.333  21.036  26.722  1.00  0.00     0.054 A 
BRANCH  71  72
ATOM     72  S   UNL A   1      42.198  19.382  25.990  1.00  0.00     0.124 S 
ATOM     73  O   UNL A   1      43.056  19.499  24.815  1.00  0.00    -0.237 OA
ATOM     74  O   UNL A   1      42.701  18.523  27.059  1.00  0.00    -0.237 OA
ATOM     75  O   UNL A   1      40.770  19.246  25.712  1.00  0.00    -0.744 OA
ENDBRANCH  71  72
ENDBRANCH  43  66
BRANCH  55  76
ATOM     76  C   UNL A   1      48.032  27.175  30.350  1.00  0.00    -0.014 A 
ATOM     77  C   UNL A   1      48.994  27.454  29.364  1.00  0.00     0.010 A 
ATOM     78  C   UNL A   1      48.441  26.596  31.566  1.00  0.00     0.010 A 
ATOM     79  C   UNL A   1      50.337  27.133  29.581  1.00  0.00     0.020 A 
ATOM     80  C   UNL A   1      49.787  26.305  31.799  1.00  0.00     0.020 A 
ATOM     81  C   UNL A   1      50.724  26.563  30.797  1.00  0.00     0.054 A 
BRANCH  81  82
ATOM     82  S   UNL A   1      52.480  26.201  31.072  1.00  0.00     0.124 S 
ATOM     83  O   UNL A   1      52.893  27.323  31.912  1.00  0.00    -0.237 OA
ATOM     84  O   UNL A   1      52.439  24.901  31.734  1.00  0.00    -0.237 OA
ATOM     85  O   UNL A   1      53.048  26.191  29.725  1.00  0.00    -0.744 OA
ENDBRANCH  81  82
ENDBRANCH  55  76
ENDBRANCH  29  30
ENDBRANCH  22  24
ENDBRANCH  21  22
ENDBRANCH   1  21
TORSDOF 16
ENDMDL
MODEL 2
REMARK VINA RESULT:     -10.7      3.198      8.769
REMARK SMILES Nc1ncc(C(=O)OCCOC(=O)c2ccc(-c3c4nc(c(-c5ccc(S(=O)(=O)[O-])cc5)c5ccc([nH]5)c(-c5ccc(S(=O)(=O)[O-])cc5)c5nc(c(-c6ccc(S(=O)(=O)[O-])cc6)c6ccc3[nH]6)C=C5)C=C4)cc2)c(-c2ccccc2)n1
REMARK SMILES IDX 10 1 9 2 8 3 6 4 7 5 5 6 2 7 3 8 81 9 4 10 74 11 1 12 75 15
REMARK SMILES IDX 76 16 80 17 77 18 79 19 78 20 11 21 12 22 13 23 14 24 15 25
REMARK SMILES IDX 73 26 16 27 72 28 17 29 18 30 19 31 66 32 20 33 71 34 65 35
REMARK SMILES IDX 67 36 21 37 70 38 64 39 63 40 22 42 52 43 33 44 51 45 34 46
REMARK SMILES IDX 37 47 50 48 68 49 35 50 36 51 49 53 69 54 38 55 23 56 24 57
REMARK SMILES IDX 32 58 25 59 31 60 26 61 27 62 28 63 29 64 30 65 53 66 54 67
REMARK SMILES IDX 62 68 55 69 61 70 56 71 57 72 58 73 59 74 60 75 39 76 40 77
REMARK SMILES IDX 48 78 41 79 47 80 42 81 43 82 44 83 45 84 46 85
REMARK H PARENT 1 13 1 14 67 41 37 52
REMARK Flexibility Score: inf
ROOT
ATOM      1  C   UNL A   1      32.281  30.368  26.953  1.00  0.00     0.275 C 
ENDROOT
BRANCH   1   2
ATOM      2  C   UNL A   1      31.798  28.920  27.013  1.00  0.00     0.275 C 
BRANCH   2   3
ATOM      3  O   UNL A   1      32.098  28.222  25.786  1.00  0.00    -0.458 OA
BRANCH   3   4
ATOM      4  C   UNL A   1      31.337  27.144  25.483  1.00  0.00     0.342 C 
ATOM      5  O   UNL A   1      30.591  26.550  26.238  1.00  0.00    -0.246 OA
BRANCH   4   6
ATOM      6  C   UNL A   1      31.469  26.775  24.064  1.00  0.00     0.104 A 
ATOM      7  C   UNL A   1      31.872  26.026  21.488  1.00  0.00     0.220 A 
ATOM      8  N   UNL A   1      32.664  25.494  22.416  1.00  0.00    -0.221 NA
ATOM      9  N   UNL A   1      30.907  26.920  21.733  1.00  0.00    -0.212 NA
ATOM     10  C   UNL A   1      32.456  25.894  23.685  1.00  0.00     0.133 A 
ATOM     11  C   UNL A   1      30.714  27.295  23.029  1.00  0.00     0.090 A 
BRANCH   7  12
ATOM     12  N   UNL A   1      32.105  25.652  20.199  1.00  0.00    -0.368 N 
ATOM     13  H   UNL A   1      32.965  25.870  19.771  1.00  0.00     0.159 HD
ATOM     14  H   UNL A   1      31.415  25.162  19.696  1.00  0.00     0.159 HD
ENDBRANCH   7  12
BRANCH  11  15
ATOM     15  C   UNL A   1      29.657  28.297  23.233  1.00  0.00     0.001 A 
ATOM     16  C   UNL A   1      28.294  27.947  23.200  1.00  0.00     0.010 A 
ATOM     17  C   UNL A   1      29.991  29.654  23.363  1.00  0.00     0.010 A 
ATOM     18  C   UNL A   1      27.303  28.929  23.205  1.00  0.00     0.001 A 
ATOM     19  C   UNL A   1      28.998  30.635  23.383  1.00  0.00     0.001 A 
ATOM     20  C   UNL A   1      27.657  30.272  23.283  1.00  0.00     0.000 A 
ENDBRANCH  11  15
ENDBRANCH   4   6
ENDBRANCH   3   4
ENDBRANCH   2   3
ENDBRANCH   1   2
BRANCH   1  21
ATOM     21  O   UNL A   1      33.718  30.417  26.923  1.00  0.00    -0.458 OA
BRANCH  21  22
ATOM     22  C   UNL A   1      34.251  31.423  27.650  1.00  0.00     0.338 C 
ATOM     23  O   UNL A   1      33.699  32.442  28.033  1.00  0.00    -0.246 OA
BRANCH  22  24
ATOM     24  C   UNL A   1      35.603  31.058  28.081  1.00  0.00     0.060 A 
ATOM     25  C   UNL A   1      35.778  29.783  28.605  1.00  0.00     0.016 A 
ATOM     26  C   UNL A   1      36.626  31.995  28.147  1.00  0.00     0.016 A 
ATOM     27  C   UNL A   1      36.927  29.466  29.312  1.00  0.00     0.010 A 
ATOM     28  C   UNL A   1      37.832  31.638  28.760  1.00  0.00     0.010 A 
ATOM     29  C   UNL A   1      37.980  30.383  29.387  1.00  0.00    -0.014 A 
BRANCH  29  30
ATOM     30  C   UNL A   1      39.218  30.041  30.141  1.00  0.00     0.031 A 
ATOM     31  C   UNL A   1      40.131  28.953  29.638  1.00  0.00     0.074 A 
ATOM     32  C   UNL A   1      39.527  30.708  31.271  1.00  0.00     0.049 A 
ATOM     33  N   UNL A   1      41.146  28.384  30.236  1.00  0.00    -0.248 NA
ATOM     34  C   UNL A   1      39.857  28.422  28.292  1.00  0.00     0.031 C 
ATOM     35  C   UNL A   1      38.762  31.824  31.839  1.00  0.00     0.029 A 
ATOM     36  N   UNL A   1      40.570  30.550  32.150  1.00  0.00    -0.354 N 
ATOM     37  C   UNL A   1      41.592  27.392  29.369  1.00  0.00     0.074 A 
ATOM     38  C   UNL A   1      40.731  27.427  28.208  1.00  0.00     0.031 C 
ATOM     39  C   UNL A   1      39.379  32.269  32.943  1.00  0.00     0.029 A 
ATOM     40  C   UNL A   1      40.521  31.408  33.223  1.00  0.00     0.049 A 
ATOM     41  H   UNL A   1      41.286  29.886  32.023  1.00  0.00     0.167 HD
ATOM     42  C   UNL A   1      42.624  26.528  29.533  1.00  0.00     0.031 A 
ATOM     43  C   UNL A   1      41.270  31.468  34.340  1.00  0.00     0.031 A 
ATOM     44  C   UNL A   1      43.493  26.527  30.681  1.00  0.00     0.049 A 
ATOM     45  C   UNL A   1      42.370  30.462  34.526  1.00  0.00     0.074 A 
ATOM     46  C   UNL A   1      44.577  25.707  30.940  1.00  0.00     0.029 A 
ATOM     47  N   UNL A   1      43.383  27.394  31.760  1.00  0.00    -0.354 N 
ATOM     48  N   UNL A   1      42.754  29.505  33.716  1.00  0.00    -0.248 NA
ATOM     49  C   UNL A   1      43.133  30.540  35.778  1.00  0.00     0.031 C 
ATOM     50  C   UNL A   1      45.086  26.038  32.199  1.00  0.00     0.029 A 
ATOM     51  C   UNL A   1      44.365  27.113  32.695  1.00  0.00     0.049 A 
ATOM     52  H   UNL A   1      42.708  28.104  31.847  1.00  0.00     0.167 HD
ATOM     53  C   UNL A   1      43.823  28.881  34.349  1.00  0.00     0.074 A 
ATOM     54  C   UNL A   1      44.032  29.582  35.601  1.00  0.00     0.031 C 
ATOM     55  C   UNL A   1      44.562  27.825  33.933  1.00  0.00     0.031 A 
BRANCH  42  56
ATOM     56  C   UNL A   1      42.844  25.483  28.468  1.00  0.00    -0.014 A 
ATOM     57  C   UNL A   1      43.671  25.718  27.356  1.00  0.00     0.010 A 
ATOM     58  C   UNL A   1      42.243  24.217  28.612  1.00  0.00     0.010 A 
ATOM     59  C   UNL A   1      43.861  24.724  26.390  1.00  0.00     0.020 A 
ATOM     60  C   UNL A   1      42.455  23.209  27.666  1.00  0.00     0.020 A 
ATOM     61  C   UNL A   1      43.250  23.476  26.551  1.00  0.00     0.054 A 
BRANCH  61  62
ATOM     62  S   UNL A   1      43.534  22.198  25.295  1.00  0.00     0.124 S 
ATOM     63  O   UNL A   1      44.854  21.697  25.667  1.00  0.00    -0.237 OA
ATOM     64  O   UNL A   1      42.425  21.274  25.522  1.00  0.00    -0.237 OA
ATOM     65  O   UNL A   1      43.481  22.932  24.032  1.00  0.00    -0.744 OA
ENDBRANCH  61  62
ENDBRANCH  42  56
BRANCH  43  66
ATOM     66  C   UNL A   1      40.964  32.482  35.388  1.00  0.00    -0.014 A 
ATOM     67  C   UNL A   1      41.599  33.736  35.382  1.00  0.00     0.010 A 
ATOM     68  C   UNL A   1      40.017  32.203  36.392  1.00  0.00     0.010 A 
ATOM     69  C   UNL A   1      41.304  34.684  36.366  1.00  0.00     0.020 A 
ATOM     70  C   UNL A   1      39.692  33.161  37.356  1.00  0.00     0.020 A 
ATOM     71  C   UNL A   1      40.349  34.391  37.345  1.00  0.00     0.054 A 
BRANCH  71  72
ATOM     72  S   UNL A   1      39.948  35.655  38.583  1.00  0.00     0.124 S 
ATOM     73  O   UNL A   1      38.834  35.038  39.297  1.00  0.00    -0.237 OA
ATOM     74  O   UNL A   1      41.196  35.768  39.333  1.00  0.00    -0.237 OA
ATOM     75  O   UNL A   1      39.605  36.826  37.778  1.00  0.00    -0.744 OA
ENDBRANCH  71  72
ENDBRANCH  43  66
BRANCH  55  76
ATOM     76  C   UNL A   1      45.705  27.394  34.812  1.00  0.00    -0.014 A 
ATOM     77  C   UNL A   1      46.983  27.966  34.688  1.00  0.00     0.010 A 
ATOM     78  C   UNL A   1      45.478  26.432  35.814  1.00  0.00     0.010 A 
ATOM     79  C   UNL A   1      48.021  27.561  35.531  1.00  0.00     0.020 A 
ATOM     80  C   UNL A   1      46.504  26.049  36.680  1.00  0.00     0.020 A 
ATOM     81  C   UNL A   1      47.774  26.607  36.523  1.00  0.00     0.054 A 
BRANCH  81  82
ATOM     82  S   UNL A   1      49.126  26.136  37.636  1.00  0.00     0.124 S 
ATOM     83  O   UNL A   1      49.301  27.348  38.431  1.00  0.00    -0.237 OA
ATOM     84  O   UNL A   1      48.567  24.991  38.350  1.00  0.00    -0.237 OA
ATOM     85  O   UNL A   1      50.229  25.821  36.730  1.00  0.00    -0.744 OA
ENDBRANCH  81  82
ENDBRANCH  55  76
ENDBRANCH  29  30
ENDBRANCH  22  24
ENDBRANCH  21  22
ENDBRANCH   1  21
TORSDOF 16
ENDMDL
MODEL 3
REMARK VINA RESULT:     -10.6      6.336     12.282
REMARK SMILES Nc1ncc(C(=O)OCCOC(=O)c2ccc(-c3c4nc(c(-c5ccc(S(=O)(=O)[O-])cc5)c5ccc([nH]5)c(-c5ccc(S(=O)(=O)[O-])cc5)c5nc(c(-c6ccc(S(=O)(=O)[O-])cc6)c6ccc3[nH]6)C=C5)C=C4)cc2)c(-c2ccccc2)n1
REMARK SMILES IDX 10 1 9 2 8 3 6 4 7 5 5 6 2 7 3 8 81 9 4 10 74 11 1 12 75 15
REMARK SMILES IDX 76 16 80 17 77 18 79 19 78 20 11 21 12 22 13 23 14 24 15 25
REMARK SMILES IDX 73 26 16 27 72 28 17 29 18 30 19 31 66 32 20 33 71 34 65 35
REMARK SMILES IDX 67 36 21 37 70 38 64 39 63 40 22 42 52 43 33 44 51 45 34 46
REMARK SMILES IDX 37 47 50 48 68 49 35 50 36 51 49 53 69 54 38 55 23 56 24 57
REMARK SMILES IDX 32 58 25 59 31 60 26 61 27 62 28 63 29 64 30 65 53 66 54 67
REMARK SMILES IDX 62 68 55 69 61 70 56 71 57 72 58 73 59 74 60 75 39 76 40 77
REMARK SMILES IDX 48 78 41 79 47 80 42 81 43 82 44 83 45 84 46 85
REMARK H PARENT 1 13 1 14 67 41 37 52
REMARK Flexibility Score: inf
ROOT
ATOM      1  C   UNL A   1      39.095  22.845  26.307  1.00  0.00     0.275 C 
ENDROOT
BRANCH   1   2
ATOM      2  C   UNL A   1      40.112  22.041  27.117  1.00  0.00     0.275 C 
BRANCH   2   3
ATOM      3  O   UNL A   1      40.972  21.272  26.250  1.00  0.00    -0.458 OA
BRANCH   3   4
ATOM      4  C   UNL A   1      42.071  20.709  26.807  1.00  0.00     0.342 C 
ATOM      5  O   UNL A   1      42.265  20.521  27.993  1.00  0.00    -0.246 OA
BRANCH   4   6
ATOM      6  C   UNL A   1      43.034  20.279  25.780  1.00  0.00     0.104 A 
ATOM      7  C   UNL A   1      44.770  19.319  23.930  1.00  0.00     0.220 A 
ATOM      8  N   UNL A   1      43.887  18.468  24.449  1.00  0.00    -0.221 NA
ATOM      9  N   UNL A   1      44.875  20.608  24.272  1.00  0.00    -0.212 NA
ATOM     10  C   UNL A   1      43.048  18.963  25.377  1.00  0.00     0.133 A 
ATOM     11  C   UNL A   1      44.003  21.082  25.205  1.00  0.00     0.090 A 
BRANCH   7  12
ATOM     12  N   UNL A   1      45.645  18.810  23.018  1.00  0.00    -0.368 N 
ATOM     13  H   UNL A   1      45.820  17.841  22.992  1.00  0.00     0.159 HD
ATOM     14  H   UNL A   1      46.102  19.410  22.386  1.00  0.00     0.159 HD
ENDBRANCH   7  12
BRANCH  11  15
ATOM     15  C   UNL A   1      44.184  22.498  25.559  1.00  0.00     0.001 A 
ATOM     16  C   UNL A   1      44.706  22.883  26.809  1.00  0.00     0.010 A 
ATOM     17  C   UNL A   1      43.739  23.503  24.687  1.00  0.00     0.010 A 
ATOM     18  C   UNL A   1      44.697  24.221  27.206  1.00  0.00     0.001 A 
ATOM     19  C   UNL A   1      43.743  24.843  25.079  1.00  0.00     0.001 A 
ATOM     20  C   UNL A   1      44.203  25.197  26.346  1.00  0.00     0.000 A 
ENDBRANCH  11  15
ENDBRANCH   4   6
ENDBRANCH   3   4
ENDBRANCH   2   3
ENDBRANCH   1   2
BRANCH   1  21
ATOM     21  O   UNL A   1      38.936  24.160  26.867  1.00  0.00    -0.458 OA
BRANCH  21  22
ATOM     22  C   UNL A   1      39.924  25.022  26.542  1.00  0.00     0.338 C 
ATOM     23  O   UNL A   1      40.443  25.184  25.450  1.00  0.00    -0.246 OA
BRANCH  22  24
ATOM     24  C   UNL A   1      40.213  25.896  27.682  1.00  0.00     0.060 A 
ATOM     25  C   UNL A   1      39.353  25.820  28.772  1.00  0.00     0.016 A 
ATOM     26  C   UNL A   1      41.178  26.892  27.612  1.00  0.00     0.016 A 
ATOM     27  C   UNL A   1      39.363  26.808  29.743  1.00  0.00     0.010 A 
ATOM     28  C   UNL A   1      41.265  27.824  28.652  1.00  0.00     0.010 A 
ATOM     29  C   UNL A   1      40.330  27.818  29.708  1.00  0.00    -0.014 A 
BRANCH  29  30
ATOM     30  C   UNL A   1      40.344  28.876  30.754  1.00  0.00     0.031 A 
ATOM     31  C   UNL A   1      41.326  28.796  31.895  1.00  0.00     0.074 A 
ATOM     32  C   UNL A   1      39.484  29.912  30.680  1.00  0.00     0.049 A 
ATOM     33  N   UNL A   1      41.377  29.506  32.993  1.00  0.00    -0.248 NA
ATOM     34  C   UNL A   1      42.379  27.771  31.798  1.00  0.00     0.031 C 
ATOM     35  C   UNL A   1      38.520  30.144  29.599  1.00  0.00     0.029 A 
ATOM     36  N   UNL A   1      39.278  30.970  31.532  1.00  0.00    -0.354 N 
ATOM     37  C   UNL A   1      42.424  28.977  33.740  1.00  0.00     0.074 A 
ATOM     38  C   UNL A   1      42.974  27.878  32.978  1.00  0.00     0.031 C 
ATOM     39  C   UNL A   1      37.857  31.286  29.833  1.00  0.00     0.029 A 
ATOM     40  C   UNL A   1      38.268  31.811  31.128  1.00  0.00     0.049 A 
ATOM     41  H   UNL A   1      39.804  31.113  32.351  1.00  0.00     0.167 HD
ATOM     42  C   UNL A   1      42.879  29.372  34.955  1.00  0.00     0.031 A 
ATOM     43  C   UNL A   1      37.691  32.858  31.749  1.00  0.00     0.031 A 
ATOM     44  C   UNL A   1      42.340  30.489  35.687  1.00  0.00     0.049 A 
ATOM     45  C   UNL A   1      38.172  33.239  33.120  1.00  0.00     0.074 A 
ATOM     46  C   UNL A   1      42.737  30.984  36.917  1.00  0.00     0.029 A 
ATOM     47  N   UNL A   1      41.294  31.292  35.254  1.00  0.00    -0.354 N 
ATOM     48  N   UNL A   1      39.135  32.704  33.831  1.00  0.00    -0.248 NA
ATOM     49  C   UNL A   1      37.486  34.359  33.774  1.00  0.00     0.031 C 
ATOM     50  C   UNL A   1      41.895  32.047  37.254  1.00  0.00     0.029 A 
ATOM     51  C   UNL A   1      41.018  32.263  36.201  1.00  0.00     0.049 A 
ATOM     52  H   UNL A   1      40.820  31.187  34.398  1.00  0.00     0.167 HD
ATOM     53  C   UNL A   1      39.189  33.440  35.008  1.00  0.00     0.074 A 
ATOM     54  C   UNL A   1      38.171  34.467  34.904  1.00  0.00     0.031 C 
ATOM     55  C   UNL A   1      40.004  33.281  36.078  1.00  0.00     0.031 A 
BRANCH  42  56
ATOM     56  C   UNL A   1      43.983  28.565  35.591  1.00  0.00    -0.014 A 
ATOM     57  C   UNL A   1      43.713  27.452  36.408  1.00  0.00     0.010 A 
ATOM     58  C   UNL A   1      45.324  28.903  35.324  1.00  0.00     0.010 A 
ATOM     59  C   UNL A   1      44.760  26.719  36.976  1.00  0.00     0.020 A 
ATOM     60  C   UNL A   1      46.374  28.154  35.864  1.00  0.00     0.020 A 
ATOM     61  C   UNL A   1      46.085  27.077  36.702  1.00  0.00     0.054 A 
BRANCH  61  62
ATOM     62  S   UNL A   1      47.423  26.093  37.433  1.00  0.00     0.124 S 
ATOM     63  O   UNL A   1      48.532  26.369  36.524  1.00  0.00    -0.237 OA
ATOM     64  O   UNL A   1      47.549  26.669  38.770  1.00  0.00    -0.237 OA
ATOM     65  O   UNL A   1      46.911  24.725  37.393  1.00  0.00    -0.744 OA
ENDBRANCH  61  62
ENDBRANCH  42  56
BRANCH  43  66
ATOM     66  C   UNL A   1      36.559  33.577  31.099  1.00  0.00    -0.014 A 
ATOM     67  C   UNL A   1      36.635  33.967  29.751  1.00  0.00     0.010 A 
ATOM     68  C   UNL A   1      35.386  33.860  31.825  1.00  0.00     0.010 A 
ATOM     69  C   UNL A   1      35.568  34.638  29.146  1.00  0.00     0.020 A 
ATOM     70  C   UNL A   1      34.303  34.497  31.214  1.00  0.00     0.020 A 
ATOM     71  C   UNL A   1      34.407  34.895  29.882  1.00  0.00     0.054 A 
BRANCH  71  72
ATOM     72  S   UNL A   1      33.017  35.724  29.062  1.00  0.00     0.124 S 
ATOM     73  O   UNL A   1      33.689  36.795  28.333  1.00  0.00    -0.237 OA
ATOM     74  O   UNL A   1      32.453  34.656  28.240  1.00  0.00    -0.237 OA
ATOM     75  O   UNL A   1      32.172  36.156  30.173  1.00  0.00    -0.744 OA
ENDBRANCH  71  72
ENDBRANCH  43  66
BRANCH  55  76
ATOM     76  C   UNL A   1      39.871  34.273  37.202  1.00  0.00    -0.014 A 
ATOM     77  C   UNL A   1      40.508  35.524  37.156  1.00  0.00     0.010 A 
ATOM     78  C   UNL A   1      39.049  33.960  38.301  1.00  0.00     0.010 A 
ATOM     79  C   UNL A   1      40.350  36.434  38.205  1.00  0.00     0.020 A 
ATOM     80  C   UNL A   1      38.862  34.879  39.335  1.00  0.00     0.020 A 
ATOM     81  C   UNL A   1      39.526  36.106  39.286  1.00  0.00     0.054 A 
BRANCH  81  82
ATOM     82  S   UNL A   1      39.298  37.324  40.610  1.00  0.00     0.124 S 
ATOM     83  O   UNL A   1      40.639  37.890  40.737  1.00  0.00    -0.237 OA
ATOM     84  O   UNL A   1      38.289  38.219  40.051  1.00  0.00    -0.237 OA
ATOM     85  O   UNL A   1      38.852  36.522  41.748  1.00  0.00    -0.744 OA
ENDBRANCH  81  82
ENDBRANCH  55  76
ENDBRANCH  29  30
ENDBRANCH  22  24
ENDBRANCH  21  22
ENDBRANCH   1  21
TORSDOF 16
ENDMDL
