MODEL 1
REMARK VINA RESULT:     -10.5      0.000      0.000
REMARK SMILES O=C(COc1ccc(S(=O)(=O)N2CCC(O)CC2)cc1)OCCOC(=O)c1ccc(-c2c3nc(c(-c4ccc(S(=O)(=O)[O-])cc4)c4ccc([nH]4)c(-c4ccc(S(=O)(=O)[O-])cc4)c4nc(c(-c5ccc(S(=O)(=O)[O-])cc5)c5ccc2[nH]5)C=C4)C=C3)cc1
REMARK SMILES IDX 22 1 21 2 2 3 1 4 3 5 4 6 5 7 6 8 20 9 7 10 19 11 8 12 9 13
REMARK SMILES IDX 10 14 11 15 12 16 13 17 18 18 14 19 17 20 15 21 16 22 23 24
REMARK SMILES IDX 24 25 25 26 26 27 27 28 28 29 86 30 29 31 85 32 30 33 31 34
REMARK SMILES IDX 32 35 79 36 33 37 84 38 78 39 80 40 34 41 83 42 77 43 76 44
REMARK SMILES IDX 35 46 65 47 46 48 64 49 47 50 50 51 63 52 81 53 48 54 49 55
REMARK SMILES IDX 62 57 82 58 51 59 36 60 37 61 45 62 38 63 44 64 39 65 40 66
REMARK SMILES IDX 41 67 42 68 43 69 66 70 67 71 75 72 68 73 74 74 69 75 70 76
REMARK SMILES IDX 71 77 72 78 73 79 52 80 53 81 61 82 54 83 60 84 55 85 56 86
REMARK SMILES IDX 57 87 58 88 59 89
REMARK H PARENT 16 23 80 45 50 56
REMARK Flexibility Score: inf
ROOT
ATOM      1  C   UNL A   1      36.240  21.525  24.753  1.00  0.00     0.274 C 
ENDROOT
BRANCH   1   2
ATOM      2  O   UNL A   1      35.599  20.258  25.001  1.00  0.00    -0.460 OA
BRANCH   2   3
ATOM      3  C   UNL A   1      34.254  20.085  24.980  1.00  0.00     0.344 C 
ATOM      4  O   UNL A   1      33.773  19.062  24.495  1.00  0.00    -0.248 OA
BRANCH   3   5
ATOM      5  C   UNL A   1      33.374  21.142  25.651  1.00  0.00     0.351 C 
BRANCH   5   6
ATOM      6  O   UNL A   1      32.432  21.796  24.799  1.00  0.00    -0.482 OA
BRANCH   6   7
ATOM      7  C   UNL A   1      32.417  23.135  25.078  1.00  0.00     0.120 A 
ATOM      8  C   UNL A   1      33.436  23.948  24.587  1.00  0.00     0.048 A 
ATOM      9  C   UNL A   1      31.381  23.673  25.831  1.00  0.00     0.048 A 
ATOM     10  C   UNL A   1      33.381  25.327  24.811  1.00  0.00     0.025 A 
ATOM     11  C   UNL A   1      31.302  25.047  26.012  1.00  0.00     0.025 A 
ATOM     12  C   UNL A   1      32.306  25.880  25.522  1.00  0.00     0.082 A 
BRANCH  12  13
ATOM     13  S   UNL A   1      32.292  27.648  25.765  1.00  0.00     0.243 S 
ATOM     14  O   UNL A   1      31.751  27.869  27.094  1.00  0.00    -0.207 OA
ATOM     15  O   UNL A   1      33.603  28.122  25.390  1.00  0.00    -0.207 OA
BRANCH  13  16
ATOM     16  N   UNL A   1      31.179  28.315  24.643  1.00  0.00    -0.198 NA
ATOM     17  C   UNL A   1      31.070  27.632  23.329  1.00  0.00     0.105 C 
ATOM     18  C   UNL A   1      31.057  29.792  24.673  1.00  0.00     0.105 C 
ATOM     19  C   UNL A   1      29.912  28.167  22.500  1.00  0.00     0.048 C 
ATOM     20  C   UNL A   1      29.897  30.277  23.817  1.00  0.00     0.048 C 
ATOM     21  C   UNL A   1      29.945  29.685  22.415  1.00  0.00     0.117 C 
BRANCH  21  22
ATOM     22  O   UNL A   1      31.119  30.075  21.703  1.00  0.00    -0.393 OA
ATOM     23  H   UNL A   1      31.850  30.201  22.330  1.00  0.00     0.210 HD
ENDBRANCH  21  22
ENDBRANCH  13  16
ENDBRANCH  12  13
ENDBRANCH   6   7
ENDBRANCH   5   6
ENDBRANCH   3   5
ENDBRANCH   2   3
ENDBRANCH   1   2
BRANCH   1  24
ATOM     24  C   UNL A   1      37.730  21.452  25.093  1.00  0.00     0.275 C 
BRANCH  24  25
ATOM     25  O   UNL A   1      38.105  22.594  25.886  1.00  0.00    -0.458 OA
BRANCH  25  26
ATOM     26  C   UNL A   1      39.422  22.703  26.201  1.00  0.00     0.338 C 
ATOM     27  O   UNL A   1      40.318  21.952  25.860  1.00  0.00    -0.246 OA
BRANCH  26  28
ATOM     28  C   UNL A   1      39.631  24.022  26.844  1.00  0.00     0.060 A 
ATOM     29  C   UNL A   1      40.399  24.985  26.173  1.00  0.00     0.016 A 
ATOM     30  C   UNL A   1      39.033  24.329  28.070  1.00  0.00     0.016 A 
ATOM     31  C   UNL A   1      40.589  26.249  26.738  1.00  0.00     0.010 A 
ATOM     32  C   UNL A   1      39.232  25.587  28.637  1.00  0.00     0.010 A 
ATOM     33  C   UNL A   1      40.031  26.544  27.989  1.00  0.00    -0.014 A 
BRANCH  33  34
ATOM     34  C   UNL A   1      40.421  27.762  28.738  1.00  0.00     0.031 A 
ATOM     35  C   UNL A   1      41.714  27.735  29.506  1.00  0.00     0.074 A 
ATOM     36  C   UNL A   1      39.619  28.838  28.807  1.00  0.00     0.049 A 
ATOM     37  N   UNL A   1      42.194  28.604  30.353  1.00  0.00    -0.248 NA
ATOM     38  C   UNL A   1      42.567  26.553  29.297  1.00  0.00     0.031 C 
ATOM     39  C   UNL A   1      38.356  29.004  28.089  1.00  0.00     0.029 A 
ATOM     40  N   UNL A   1      39.740  29.987  29.550  1.00  0.00    -0.354 N 
ATOM     41  C   UNL A   1      43.397  28.069  30.796  1.00  0.00     0.074 A 
ATOM     42  C   UNL A   1      43.561  26.790  30.138  1.00  0.00     0.031 C 
ATOM     43  C   UNL A   1      37.805  30.176  28.450  1.00  0.00     0.029 A 
ATOM     44  C   UNL A   1      38.657  30.823  29.449  1.00  0.00     0.049 A 
ATOM     45  H   UNL A   1      40.530  30.190  30.102  1.00  0.00     0.167 HD
ATOM     46  C   UNL A   1      44.285  28.589  31.675  1.00  0.00     0.031 A 
ATOM     47  C   UNL A   1      38.367  31.963  30.110  1.00  0.00     0.031 A 
ATOM     48  C   UNL A   1      44.109  29.844  32.353  1.00  0.00     0.049 A 
ATOM     49  C   UNL A   1      39.337  32.500  31.132  1.00  0.00     0.074 A 
ATOM     50  C   UNL A   1      44.958  30.463  33.252  1.00  0.00     0.029 A 
ATOM     51  N   UNL A   1      42.999  30.664  32.217  1.00  0.00    -0.354 N 
ATOM     52  N   UNL A   1      40.487  32.000  31.520  1.00  0.00    -0.248 NA
ATOM     53  C   UNL A   1      38.973  33.758  31.802  1.00  0.00     0.031 C 
ATOM     54  C   UNL A   1      44.337  31.633  33.701  1.00  0.00     0.029 A 
ATOM     55  C   UNL A   1      43.129  31.773  33.034  1.00  0.00     0.049 A 
ATOM     56  H   UNL A   1      42.233  30.485  31.626  1.00  0.00     0.167 HD
ATOM     57  C   UNL A   1      40.996  32.897  32.454  1.00  0.00     0.074 A 
ATOM     58  C   UNL A   1      40.031  33.969  32.575  1.00  0.00     0.031 C 
ATOM     59  C   UNL A   1      42.164  32.839  33.141  1.00  0.00     0.031 A 
BRANCH  46  60
ATOM     60  C   UNL A   1      45.498  27.757  31.987  1.00  0.00    -0.014 A 
ATOM     61  C   UNL A   1      45.487  26.813  33.031  1.00  0.00     0.010 A 
ATOM     62  C   UNL A   1      46.675  27.942  31.241  1.00  0.00     0.010 A 
ATOM     63  C   UNL A   1      46.650  26.117  33.364  1.00  0.00     0.020 A 
ATOM     64  C   UNL A   1      47.833  27.227  31.554  1.00  0.00     0.020 A 
ATOM     65  C   UNL A   1      47.821  26.340  32.632  1.00  0.00     0.054 A 
BRANCH  65  66
ATOM     66  S   UNL A   1      49.329  25.451  33.105  1.00  0.00     0.124 S 
ATOM     67  O   UNL A   1      49.831  25.004  31.808  1.00  0.00    -0.237 OA
ATOM     68  O   UNL A   1      50.121  26.487  33.762  1.00  0.00    -0.237 OA
ATOM     69  O   UNL A   1      48.844  24.390  33.984  1.00  0.00    -0.744 OA
ENDBRANCH  65  66
ENDBRANCH  46  60
BRANCH  47  70
ATOM     70  C   UNL A   1      37.085  32.665  29.834  1.00  0.00    -0.014 A 
ATOM     71  C   UNL A   1      35.948  32.417  30.621  1.00  0.00     0.010 A 
ATOM     72  C   UNL A   1      37.008  33.616  28.799  1.00  0.00     0.010 A 
ATOM     73  C   UNL A   1      34.757  33.108  30.381  1.00  0.00     0.020 A 
ATOM     74  C   UNL A   1      35.825  34.324  28.570  1.00  0.00     0.020 A 
ATOM     75  C   UNL A   1      34.705  34.062  29.360  1.00  0.00     0.054 A 
BRANCH  75  76
ATOM     76  S   UNL A   1      33.173  35.007  29.119  1.00  0.00     0.124 S 
ATOM     77  O   UNL A   1      32.581  34.970  30.453  1.00  0.00    -0.237 OA
ATOM     78  O   UNL A   1      33.671  36.309  28.684  1.00  0.00    -0.237 OA
ATOM     79  O   UNL A   1      32.460  34.245  28.096  1.00  0.00    -0.744 OA
ENDBRANCH  75  76
ENDBRANCH  47  70
BRANCH  59  80
ATOM     80  C   UNL A   1      42.505  33.986  34.057  1.00  0.00    -0.014 A 
ATOM     81  C   UNL A   1      42.130  33.980  35.410  1.00  0.00     0.010 A 
ATOM     82  C   UNL A   1      43.309  35.036  33.572  1.00  0.00     0.010 A 
ATOM     83  C   UNL A   1      42.545  35.009  36.263  1.00  0.00     0.020 A 
ATOM     84  C   UNL A   1      43.745  36.052  34.425  1.00  0.00     0.020 A 
ATOM     85  C   UNL A   1      43.354  36.036  35.766  1.00  0.00     0.054 A 
BRANCH  85  86
ATOM     86  S   UNL A   1      43.948  37.316  36.908  1.00  0.00     0.124 S 
ATOM     87  O   UNL A   1      42.900  37.328  37.923  1.00  0.00    -0.237 OA
ATOM     88  O   UNL A   1      45.238  36.784  37.343  1.00  0.00    -0.237 OA
ATOM     89  O   UNL A   1      44.026  38.515  36.076  1.00  0.00    -0.744 OA
ENDBRANCH  85  86
ENDBRANCH  59  80
ENDBRANCH  33  34
ENDBRANCH  26  28
ENDBRANCH  25  26
ENDBRANCH  24  25
ENDBRANCH   1  24
TORSDOF 19
ENDMDL
MODEL 2
REMARK VINA RESULT:     -10.4      3.022      4.492
REMARK SMILES O=C(COc1ccc(S(=O)(=O)N2CCC(O)CC2)cc1)OCCOC(=O)c1ccc(-c2c3nc(c(-c4ccc(S(=O)(=O)[O-])cc4)c4ccc([nH]4)c(-c4ccc(S(=O)(=O)[O-])cc4)c4nc(c(-c5ccc(S(=O)(=O)[O-])cc5)c5ccc2[nH]5)C=C4)C=C3)cc1
REMARK SMILES IDX 22 1 21 2 2 3 1 4 3 5 4 6 5 7 6 8 20 9 7 10 19 11 8 12 9 13
REMARK SMILES IDX 10 14 11 15 12 16 13 17 18 18 14 19 17 20 15 21 16 22 23 24
REMARK SMILES IDX 24 25 25 26 26 27 27 28 28 29 86 30 29 31 85 32 30 33 31 34
REMARK SMILES IDX 32 35 79 36 33 37 84 38 78 39 80 40 34 41 83 42 77 43 76 44
REMARK SMILES IDX 35 46 65 47 46 48 64 49 47 50 50 51 63 52 81 53 48 54 49 55
REMARK SMILES IDX 62 57 82 58 51 59 36 60 37 61 45 62 38 63 44 64 39 65 40 66
REMARK SMILES IDX 41 67 42 68 43 69 66 70 67 71 75 72 68 73 74 74 69 75 70 76
REMARK SMILES IDX 71 77 72 78 73 79 52 80 53 81 61 82 54 83 60 84 55 85 56 86
REMARK SMILES IDX 57 87 58 88 59 89
REMARK H PARENT 16 23 80 45 50 56
REMARK Flexibility Score: inf
ROOT
ATOM      1  C   UNL A   1      41.653  22.712  27.012  1.00  0.00     0.274 C 
ENDROOT
BRANCH   1   2
ATOM      2  O   UNL A   1      40.533  21.845  27.281  1.00  0.00    -0.460 OA
BRANCH   2   3
ATOM      3  C   UNL A   1      39.965  21.047  26.343  1.00  0.00     0.344 C 
ATOM      4  O   UNL A   1      40.390  19.906  26.167  1.00  0.00    -0.248 OA
BRANCH   3   5
ATOM      5  C   UNL A   1      38.740  21.569  25.588  1.00  0.00     0.351 C 
BRANCH   5   6
ATOM      6  O   UNL A   1      37.651  20.653  25.465  1.00  0.00    -0.482 OA
BRANCH   6   7
ATOM      7  C   UNL A   1      36.576  21.293  24.911  1.00  0.00     0.120 A 
ATOM      8  C   UNL A   1      36.785  22.417  24.116  1.00  0.00     0.048 A 
ATOM      9  C   UNL A   1      35.293  20.808  25.132  1.00  0.00     0.048 A 
ATOM     10  C   UNL A   1      35.692  23.027  23.491  1.00  0.00     0.025 A 
ATOM     11  C   UNL A   1      34.216  21.385  24.474  1.00  0.00     0.025 A 
ATOM     12  C   UNL A   1      34.403  22.505  23.667  1.00  0.00     0.082 A 
BRANCH  12  13
ATOM     13  S   UNL A   1      33.054  23.326  22.834  1.00  0.00     0.243 S 
ATOM     14  O   UNL A   1      33.656  24.121  21.778  1.00  0.00    -0.207 OA
ATOM     15  O   UNL A   1      32.069  22.310  22.553  1.00  0.00    -0.207 OA
BRANCH  13  16
ATOM     16  N   UNL A   1      32.344  24.416  23.952  1.00  0.00    -0.198 NA
ATOM     17  C   UNL A   1      33.006  24.536  25.276  1.00  0.00     0.105 C 
ATOM     18  C   UNL A   1      30.864  24.501  23.903  1.00  0.00     0.105 C 
ATOM     19  C   UNL A   1      32.430  25.675  26.103  1.00  0.00     0.048 C 
ATOM     20  C   UNL A   1      30.338  25.643  24.757  1.00  0.00     0.048 C 
ATOM     21  C   UNL A   1      30.913  25.603  26.167  1.00  0.00     0.117 C 
BRANCH  21  22
ATOM     22  O   UNL A   1      30.544  24.415  26.868  1.00  0.00    -0.393 OA
ATOM     23  H   UNL A   1      31.029  24.370  27.707  1.00  0.00     0.210 HD
ENDBRANCH  21  22
ENDBRANCH  13  16
ENDBRANCH  12  13
ENDBRANCH   6   7
ENDBRANCH   5   6
ENDBRANCH   3   5
ENDBRANCH   2   3
ENDBRANCH   1   2
BRANCH   1  24
ATOM     24  C   UNL A   1      41.489  24.047  27.741  1.00  0.00     0.275 C 
BRANCH  24  25
ATOM     25  O   UNL A   1      40.891  25.014  26.858  1.00  0.00    -0.458 OA
BRANCH  25  26
ATOM     26  C   UNL A   1      39.605  25.361  27.126  1.00  0.00     0.338 C 
ATOM     27  O   UNL A   1      38.600  24.800  26.728  1.00  0.00    -0.246 OA
BRANCH  26  28
ATOM     28  C   UNL A   1      39.622  26.404  28.179  1.00  0.00     0.060 A 
ATOM     29  C   UNL A   1      40.325  27.595  27.938  1.00  0.00     0.016 A 
ATOM     30  C   UNL A   1      38.910  26.238  29.370  1.00  0.00     0.016 A 
ATOM     31  C   UNL A   1      40.334  28.611  28.898  1.00  0.00     0.010 A 
ATOM     32  C   UNL A   1      38.928  27.248  30.331  1.00  0.00     0.010 A 
ATOM     33  C   UNL A   1      39.661  28.427  30.113  1.00  0.00    -0.014 A 
BRANCH  33  34
ATOM     34  C   UNL A   1      39.861  29.355  31.251  1.00  0.00     0.031 A 
ATOM     35  C   UNL A   1      41.003  29.083  32.190  1.00  0.00     0.074 A 
ATOM     36  C   UNL A   1      39.010  30.365  31.500  1.00  0.00     0.049 A 
ATOM     37  N   UNL A   1      41.291  29.648  33.332  1.00  0.00    -0.248 NA
ATOM     38  C   UNL A   1      41.933  28.014  31.789  1.00  0.00     0.031 C 
ATOM     39  C   UNL A   1      37.882  30.753  30.654  1.00  0.00     0.029 A 
ATOM     40  N   UNL A   1      38.950  31.231  32.564  1.00  0.00    -0.354 N 
ATOM     41  C   UNL A   1      42.424  28.993  33.797  1.00  0.00     0.074 A 
ATOM     42  C   UNL A   1      42.757  27.975  32.824  1.00  0.00     0.031 C 
ATOM     43  C   UNL A   1      37.224  31.764  31.248  1.00  0.00     0.029 A 
ATOM     44  C   UNL A   1      37.862  32.068  32.531  1.00  0.00     0.049 A 
ATOM     45  H   UNL A   1      39.624  31.249  33.282  1.00  0.00     0.167 HD
ATOM     46  C   UNL A   1      43.125  29.212  34.935  1.00  0.00     0.031 A 
ATOM     47  C   UNL A   1      37.412  32.953  33.443  1.00  0.00     0.031 A 
ATOM     48  C   UNL A   1      42.777  30.202  35.918  1.00  0.00     0.049 A 
ATOM     49  C   UNL A   1      38.168  33.144  34.734  1.00  0.00     0.074 A 
ATOM     50  C   UNL A   1      43.431  30.508  37.097  1.00  0.00     0.029 A 
ATOM     51  N   UNL A   1      41.671  31.033  35.842  1.00  0.00    -0.354 N 
ATOM     52  N   UNL A   1      39.256  32.540  35.149  1.00  0.00    -0.248 NA
ATOM     53  C   UNL A   1      37.637  34.140  35.677  1.00  0.00     0.031 C 
ATOM     54  C   UNL A   1      42.690  31.491  37.761  1.00  0.00     0.029 A 
ATOM     55  C   UNL A   1      41.609  31.838  36.966  1.00  0.00     0.049 A 
ATOM     56  H   UNL A   1      41.026  31.049  35.099  1.00  0.00     0.167 HD
ATOM     57  C   UNL A   1      39.557  33.104  36.386  1.00  0.00     0.074 A 
ATOM     58  C   UNL A   1      38.537  34.096  36.652  1.00  0.00     0.031 C 
ATOM     59  C   UNL A   1      40.592  32.829  37.218  1.00  0.00     0.031 A 
BRANCH  46  60
ATOM     60  C   UNL A   1      44.303  28.314  35.190  1.00  0.00    -0.014 A 
ATOM     61  C   UNL A   1      45.604  28.692  34.811  1.00  0.00     0.010 A 
ATOM     62  C   UNL A   1      44.101  27.061  35.794  1.00  0.00     0.010 A 
ATOM     63  C   UNL A   1      46.671  27.806  34.971  1.00  0.00     0.020 A 
ATOM     64  C   UNL A   1      45.171  26.182  35.981  1.00  0.00     0.020 A 
ATOM     65  C   UNL A   1      46.444  26.550  35.542  1.00  0.00     0.054 A 
BRANCH  65  66
ATOM     66  S   UNL A   1      47.838  25.402  35.709  1.00  0.00     0.124 S 
ATOM     67  O   UNL A   1      47.157  24.149  36.024  1.00  0.00    -0.237 OA
ATOM     68  O   UNL A   1      48.465  25.462  34.392  1.00  0.00    -0.237 OA
ATOM     69  O   UNL A   1      48.628  25.972  36.798  1.00  0.00    -0.744 OA
ENDBRANCH  65  66
ENDBRANCH  46  60
BRANCH  47  70
ATOM     70  C   UNL A   1      36.165  33.717  33.170  1.00  0.00    -0.014 A 
ATOM     71  C   UNL A   1      36.219  34.984  32.564  1.00  0.00     0.010 A 
ATOM     72  C   UNL A   1      34.911  33.161  33.486  1.00  0.00     0.010 A 
ATOM     73  C   UNL A   1      35.042  35.681  32.275  1.00  0.00     0.020 A 
ATOM     74  C   UNL A   1      33.731  33.845  33.179  1.00  0.00     0.020 A 
ATOM     75  C   UNL A   1      33.805  35.104  32.579  1.00  0.00     0.054 A 
BRANCH  75  76
ATOM     76  S   UNL A   1      32.288  35.989  32.121  1.00  0.00     0.124 S 
ATOM     77  O   UNL A   1      31.252  35.045  32.527  1.00  0.00    -0.237 OA
ATOM     78  O   UNL A   1      32.380  37.209  32.918  1.00  0.00    -0.237 OA
ATOM     79  O   UNL A   1      32.429  36.182  30.679  1.00  0.00    -0.744 OA
ENDBRANCH  75  76
ENDBRANCH  47  70
BRANCH  59  80
ATOM     80  C   UNL A   1      40.718  33.638  38.482  1.00  0.00    -0.014 A 
ATOM     81  C   UNL A   1      41.517  34.792  38.538  1.00  0.00     0.010 A 
ATOM     82  C   UNL A   1      39.936  33.291  39.601  1.00  0.00     0.010 A 
ATOM     83  C   UNL A   1      41.538  35.582  39.693  1.00  0.00     0.020 A 
ATOM     84  C   UNL A   1      39.936  34.089  40.747  1.00  0.00     0.020 A 
ATOM     85  C   UNL A   1      40.744  35.228  40.789  1.00  0.00     0.054 A 
BRANCH  85  86
ATOM     86  S   UNL A   1      40.725  36.311  42.245  1.00  0.00     0.124 S 
ATOM     87  O   UNL A   1      41.390  37.509  41.742  1.00  0.00    -0.237 OA
ATOM     88  O   UNL A   1      39.296  36.454  42.520  1.00  0.00    -0.237 OA
ATOM     89  O   UNL A   1      41.472  35.556  43.249  1.00  0.00    -0.744 OA
ENDBRANCH  85  86
ENDBRANCH  59  80
ENDBRANCH  33  34
ENDBRANCH  26  28
ENDBRANCH  25  26
ENDBRANCH  24  25
ENDBRANCH   1  24
TORSDOF 19
ENDMDL
MODEL 3
REMARK VINA RESULT:     -10.4      3.712      9.725
REMARK SMILES O=C(COc1ccc(S(=O)(=O)N2CCC(O)CC2)cc1)OCCOC(=O)c1ccc(-c2c3nc(c(-c4ccc(S(=O)(=O)[O-])cc4)c4ccc([nH]4)c(-c4ccc(S(=O)(=O)[O-])cc4)c4nc(c(-c5ccc(S(=O)(=O)[O-])cc5)c5ccc2[nH]5)C=C4)C=C3)cc1
REMARK SMILES IDX 22 1 21 2 2 3 1 4 3 5 4 6 5 7 6 8 20 9 7 10 19 11 8 12 9 13
REMARK SMILES IDX 10 14 11 15 12 16 13 17 18 18 14 19 17 20 15 21 16 22 23 24
REMARK SMILES IDX 24 25 25 26 26 27 27 28 28 29 86 30 29 31 85 32 30 33 31 34
REMARK SMILES IDX 32 35 79 36 33 37 84 38 78 39 80 40 34 41 83 42 77 43 76 44
REMARK SMILES IDX 35 46 65 47 46 48 64 49 47 50 50 51 63 52 81 53 48 54 49 55
REMARK SMILES IDX 62 57 82 58 51 59 36 60 37 61 45 62 38 63 44 64 39 65 40 66
REMARK SMILES IDX 41 67 42 68 43 69 66 70 67 71 75 72 68 73 74 74 69 75 70 76
REMARK SMILES IDX 71 77 72 78 73 79 52 80 53 81 61 82 54 83 60 84 55 85 56 86
REMARK SMILES IDX 57 87 58 88 59 89
REMARK H PARENT 16 23 80 45 50 56
REMARK Flexibility Score: inf
ROOT
ATOM      1  C   UNL A   1      42.576  21.941  26.430  1.00  0.00     0.274 C 
ENDROOT
BRANCH   1   2
ATOM      2  O   UNL A   1      41.283  21.776  25.814  1.00  0.00    -0.460 OA
BRANCH   2   3
ATOM      3  C   UNL A   1      40.114  22.020  26.457  1.00  0.00     0.344 C 
ATOM      4  O   UNL A   1      40.123  22.528  27.578  1.00  0.00    -0.248 OA
BRANCH   3   5
ATOM      5  C   UNL A   1      38.804  21.734  25.720  1.00  0.00     0.351 C 
BRANCH   5   6
ATOM      6  O   UNL A   1      37.764  22.694  25.908  1.00  0.00    -0.482 OA
BRANCH   6   7
ATOM      7  C   UNL A   1      36.574  22.168  25.487  1.00  0.00     0.120 A 
ATOM      8  C   UNL A   1      36.471  20.796  25.270  1.00  0.00     0.048 A 
ATOM      9  C   UNL A   1      35.478  23.000  25.296  1.00  0.00     0.048 A 
ATOM     10  C   UNL A   1      35.236  20.249  24.909  1.00  0.00     0.025 A 
ATOM     11  C   UNL A   1      34.242  22.452  24.985  1.00  0.00     0.025 A 
ATOM     12  C   UNL A   1      34.114  21.081  24.772  1.00  0.00     0.082 A 
BRANCH  12  13
ATOM     13  S   UNL A   1      32.565  20.317  24.319  1.00  0.00     0.243 S 
ATOM     14  O   UNL A   1      31.600  20.739  25.318  1.00  0.00    -0.207 OA
ATOM     15  O   UNL A   1      32.373  20.588  22.914  1.00  0.00    -0.207 OA
BRANCH  13  16
ATOM     16  N   UNL A   1      32.759  18.621  24.479  1.00  0.00    -0.198 NA
ATOM     17  C   UNL A   1      32.729  18.076  25.860  1.00  0.00     0.105 C 
ATOM     18  C   UNL A   1      33.680  17.992  23.502  1.00  0.00     0.105 C 
ATOM     19  C   UNL A   1      32.692  16.555  25.875  1.00  0.00     0.048 C 
ATOM     20  C   UNL A   1      33.619  16.474  23.568  1.00  0.00     0.048 C 
ATOM     21  C   UNL A   1      33.782  15.965  24.994  1.00  0.00     0.117 C 
BRANCH  21  22
ATOM     22  O   UNL A   1      35.051  16.310  25.549  1.00  0.00    -0.393 OA
ATOM     23  H   UNL A   1      35.283  17.216  25.289  1.00  0.00     0.210 HD
ENDBRANCH  21  22
ENDBRANCH  13  16
ENDBRANCH  12  13
ENDBRANCH   6   7
ENDBRANCH   5   6
ENDBRANCH   3   5
ENDBRANCH   2   3
ENDBRANCH   1   2
BRANCH   1  24
ATOM     24  C   UNL A   1      43.277  23.188  25.888  1.00  0.00     0.275 C 
BRANCH  24  25
ATOM     25  O   UNL A   1      42.486  24.355  26.177  1.00  0.00    -0.458 OA
BRANCH  25  26
ATOM     26  C   UNL A   1      43.142  25.546  26.168  1.00  0.00     0.338 C 
ATOM     27  O   UNL A   1      43.853  25.979  25.280  1.00  0.00    -0.246 OA
BRANCH  26  28
ATOM     28  C   UNL A   1      42.664  26.340  27.325  1.00  0.00     0.060 A 
ATOM     29  C   UNL A   1      43.218  27.609  27.547  1.00  0.00     0.016 A 
ATOM     30  C   UNL A   1      41.642  25.865  28.152  1.00  0.00     0.016 A 
ATOM     31  C   UNL A   1      42.766  28.396  28.611  1.00  0.00     0.010 A 
ATOM     32  C   UNL A   1      41.199  26.646  29.219  1.00  0.00     0.010 A 
ATOM     33  C   UNL A   1      41.776  27.903  29.470  1.00  0.00    -0.014 A 
BRANCH  33  34
ATOM     34  C   UNL A   1      41.459  28.582  30.749  1.00  0.00     0.031 A 
ATOM     35  C   UNL A   1      40.312  29.553  30.767  1.00  0.00     0.074 A 
ATOM     36  C   UNL A   1      42.214  28.410  31.848  1.00  0.00     0.049 A 
ATOM     37  N   UNL A   1      39.937  30.378  31.707  1.00  0.00    -0.248 NA
ATOM     38  C   UNL A   1      39.489  29.607  29.546  1.00  0.00     0.031 C 
ATOM     39  C   UNL A   1      43.334  27.479  31.972  1.00  0.00     0.029 A 
ATOM     40  N   UNL A   1      42.163  29.045  33.064  1.00  0.00    -0.354 N 
ATOM     41  C   UNL A   1      38.847  31.065  31.188  1.00  0.00     0.074 A 
ATOM     42  C   UNL A   1      38.636  30.574  29.843  1.00  0.00     0.031 C 
ATOM     43  C   UNL A   1      43.884  27.625  33.191  1.00  0.00     0.029 A 
ATOM     44  C   UNL A   1      43.178  28.683  33.916  1.00  0.00     0.049 A 
ATOM     45  H   UNL A   1      41.465  29.698  33.303  1.00  0.00     0.167 HD
ATOM     46  C   UNL A   1      38.091  32.025  31.772  1.00  0.00     0.031 A 
ATOM     47  C   UNL A   1      43.520  29.171  35.126  1.00  0.00     0.031 A 
ATOM     48  C   UNL A   1      38.320  32.536  33.096  1.00  0.00     0.049 A 
ATOM     49  C   UNL A   1      42.706  30.282  35.740  1.00  0.00     0.074 A 
ATOM     50  C   UNL A   1      37.602  33.498  33.782  1.00  0.00     0.029 A 
ATOM     51  N   UNL A   1      39.354  32.137  33.928  1.00  0.00    -0.354 N 
ATOM     52  N   UNL A   1      41.658  30.903  35.252  1.00  0.00    -0.248 NA
ATOM     53  C   UNL A   1      43.118  30.754  37.071  1.00  0.00     0.031 C 
ATOM     54  C   UNL A   1      38.234  33.719  35.009  1.00  0.00     0.029 A 
ATOM     55  C   UNL A   1      39.310  32.850  35.112  1.00  0.00     0.049 A 
ATOM     56  H   UNL A   1      40.022  31.448  33.708  1.00  0.00     0.167 HD
ATOM     57  C   UNL A   1      41.268  31.816  36.228  1.00  0.00     0.074 A 
ATOM     58  C   UNL A   1      42.191  31.667  37.333  1.00  0.00     0.031 C 
ATOM     59  C   UNL A   1      40.231  32.690  36.210  1.00  0.00     0.031 A 
BRANCH  46  60
ATOM     60  C   UNL A   1      36.984  32.614  30.944  1.00  0.00    -0.014 A 
ATOM     61  C   UNL A   1      37.229  33.663  30.038  1.00  0.00     0.010 A 
ATOM     62  C   UNL A   1      35.673  32.130  31.095  1.00  0.00     0.010 A 
ATOM     63  C   UNL A   1      36.172  34.259  29.348  1.00  0.00     0.020 A 
ATOM     64  C   UNL A   1      34.617  32.705  30.384  1.00  0.00     0.020 A 
ATOM     65  C   UNL A   1      34.870  33.785  29.537  1.00  0.00     0.054 A 
BRANCH  65  66
ATOM     66  S   UNL A   1      33.509  34.596  28.656  1.00  0.00     0.124 S 
ATOM     67  O   UNL A   1      32.585  34.898  29.746  1.00  0.00    -0.237 OA
ATOM     68  O   UNL A   1      34.162  35.753  28.048  1.00  0.00    -0.237 OA
ATOM     69  O   UNL A   1      33.050  33.579  27.714  1.00  0.00    -0.744 OA
ENDBRANCH  65  66
ENDBRANCH  46  60
BRANCH  47  70
ATOM     70  C   UNL A   1      44.707  28.617  35.830  1.00  0.00    -0.014 A 
ATOM     71  C   UNL A   1      44.579  27.517  36.695  1.00  0.00     0.010 A 
ATOM     72  C   UNL A   1      45.982  29.171  35.610  1.00  0.00     0.010 A 
ATOM     73  C   UNL A   1      45.704  26.977  37.325  1.00  0.00     0.020 A 
ATOM     74  C   UNL A   1      47.113  28.620  36.221  1.00  0.00     0.020 A 
ATOM     75  C   UNL A   1      46.965  27.529  37.079  1.00  0.00     0.054 A 
BRANCH  75  76
ATOM     76  S   UNL A   1      48.423  26.761  37.841  1.00  0.00     0.124 S 
ATOM     77  O   UNL A   1      48.393  25.419  37.268  1.00  0.00    -0.237 OA
ATOM     78  O   UNL A   1      49.510  27.621  37.382  1.00  0.00    -0.237 OA
ATOM     79  O   UNL A   1      48.138  26.838  39.273  1.00  0.00    -0.744 OA
ENDBRANCH  75  76
ENDBRANCH  47  70
BRANCH  59  80
ATOM     80  C   UNL A   1      39.993  33.531  37.436  1.00  0.00    -0.014 A 
ATOM     81  C   UNL A   1      40.659  34.753  37.628  1.00  0.00     0.010 A 
ATOM     82  C   UNL A   1      39.003  33.137  38.358  1.00  0.00     0.010 A 
ATOM     83  C   UNL A   1      40.345  35.563  38.725  1.00  0.00     0.020 A 
ATOM     84  C   UNL A   1      38.671  33.954  39.441  1.00  0.00     0.020 A 
ATOM     85  C   UNL A   1      39.350  35.161  39.622  1.00  0.00     0.054 A 
BRANCH  85  86
ATOM     86  S   UNL A   1      38.903  36.266  40.991  1.00  0.00     0.124 S 
ATOM     87  O   UNL A   1      40.164  36.373  41.719  1.00  0.00    -0.237 OA
ATOM     88  O   UNL A   1      38.473  37.479  40.298  1.00  0.00    -0.237 OA
ATOM     89  O   UNL A   1      37.840  35.544  41.687  1.00  0.00    -0.744 OA
ENDBRANCH  85  86
ENDBRANCH  59  80
ENDBRANCH  33  34
ENDBRANCH  26  28
ENDBRANCH  25  26
ENDBRANCH  24  25
ENDBRANCH   1  24
TORSDOF 19
ENDMDL
