MODEL 1
REMARK VINA RESULT:     -14.4      0.000      0.000
REMARK SMILES Cc1c(C(=O)OCCOC(=O)c2ccc(-c3c4nc(c(-c5ccc(S(=O)(=O)[O-])cc5)c5ccc([nH]5)c(-c5ccc(S(=O)(=O)[O-])cc5)c5nc(c(-c6ccc(S(=O)(=O)[O-])cc6)c6ccc3[nH]6)C=C5)C=C4)cc2)cccc1-n1c(C)cc(/C=C2/C(=O)NC(=S)N=C2O)c1C
REMARK SMILES IDX 7 1 6 2 4 3 5 4 3 5 1 6 2 7 75 8 72 9 74 10 73 11 76 12
REMARK SMILES IDX 77 13 91 14 78 15 79 16 80 17 92 18 81 19 82 20 83 21 89 22
REMARK SMILES IDX 84 23 85 24 88 25 86 26 87 28 90 29 8 31 9 32 10 33 11 34
REMARK SMILES IDX 12 35 13 36 71 37 14 38 70 39 15 40 16 41 17 42 64 43 18 44
REMARK SMILES IDX 69 45 63 46 65 47 19 48 68 49 62 50 61 51 20 53 50 54 31 55
REMARK SMILES IDX 49 56 32 57 35 58 48 59 66 60 33 61 34 62 47 64 67 65 36 66
REMARK SMILES IDX 21 67 22 68 30 69 23 70 29 71 24 72 25 73 26 74 27 75 28 76
REMARK SMILES IDX 51 77 52 78 60 79 53 80 59 81 54 82 55 83 56 84 57 85 58 86
REMARK SMILES IDX 37 87 38 88 46 89 39 90 45 91 40 92 41 93 42 94 43 95 44 96
REMARK H PARENT 85 27 90 30 65 52 35 63
REMARK Flexibility Score: inf
ROOT
ATOM      1  C   UNL A   1      33.410  31.774  27.603  1.00  0.00     0.275 C 
ENDROOT
BRANCH   1   2
ATOM      2  O   UNL A   1      33.407  30.516  26.909  1.00  0.00    -0.458 OA
BRANCH   2   3
ATOM      3  C   UNL A   1      32.165  30.166  26.114  1.00  0.00     0.338 C 
ATOM      4  O   UNL A   1      31.568  31.284  26.221  1.00  0.00    -0.246 OA
BRANCH   3   5
ATOM      5  C   UNL A   1      31.677  28.285  25.192  1.00  0.00     0.065 A 
ATOM      6  C   UNL A   1      34.008  26.707  24.833  1.00  0.00     0.047 C 
ATOM      7  C   UNL A   1      32.459  26.952  24.808  1.00  0.00    -0.012 A 
ATOM      8  C   UNL A   1      31.797  25.758  24.212  1.00  0.00     0.049 A 
ATOM      9  C   UNL A   1      30.222  27.841  24.659  1.00  0.00     0.016 A 
ATOM     10  C   UNL A   1      30.464  25.634  23.836  1.00  0.00     0.027 A 
ATOM     11  C   UNL A   1      29.667  26.698  24.044  1.00  0.00     0.003 A 
BRANCH   8  12
ATOM     12  N   UNL A   1      32.544  24.635  23.797  1.00  0.00    -0.318 N 
ATOM     13  C   UNL A   1      32.937  24.367  22.505  1.00  0.00     0.020 A 
ATOM     14  C   UNL A   1      32.949  23.622  24.656  1.00  0.00     0.027 A 
ATOM     15  C   UNL A   1      32.550  25.243  21.361  1.00  0.00     0.065 C 
ATOM     16  C   UNL A   1      33.661  23.193  22.552  1.00  0.00     0.031 A 
ATOM     17  C   UNL A   1      33.742  22.761  23.915  1.00  0.00    -0.003 A 
ATOM     18  C   UNL A   1      32.460  23.632  26.072  1.00  0.00     0.065 C 
BRANCH  17  19
ATOM     19  C   UNL A   1      34.427  21.566  24.304  1.00  0.00     0.029 C 
ATOM     20  C   UNL A   1      34.008  20.356  24.725  1.00  0.00     0.102 C 
ATOM     21  C   UNL A   1      35.070  19.337  24.943  1.00  0.00     0.262 C 
ATOM     22  C   UNL A   1      32.662  19.829  24.962  1.00  0.00     0.226 C 
ATOM     23  O   UNL A   1      36.264  19.586  25.056  1.00  0.00    -0.269 OA
ATOM     24  N   UNL A   1      34.606  18.049  24.989  1.00  0.00    -0.297 N 
ATOM     25  N   UNL A   1      32.312  18.597  25.027  1.00  0.00    -0.184 NA
ATOM     26  C   UNL A   1      33.294  17.648  24.942  1.00  0.00     0.203 C 
ATOM     27  H   UNL A   1      35.282  17.337  25.063  1.00  0.00     0.172 HD
ATOM     28  S   UNL A   1      32.983  16.002  24.889  1.00  0.00    -0.038 S 
BRANCH  22  29
ATOM     29  O   UNL A   1      31.716  20.722  25.242  1.00  0.00    -0.493 OA
ATOM     30  H   UNL A   1      31.144  21.028  24.565  1.00  0.00     0.295 HD
ENDBRANCH  22  29
ENDBRANCH  17  19
ENDBRANCH   8  12
ENDBRANCH   3   5
ENDBRANCH   2   3
ENDBRANCH   1   2
BRANCH   1  31
ATOM     31  C   UNL A   1      34.568  31.778  28.613  1.00  0.00     0.275 C 
BRANCH  31  32
ATOM     32  O   UNL A   1      35.885  31.735  28.004  1.00  0.00    -0.458 OA
BRANCH  32  33
ATOM     33  C   UNL A   1      36.959  31.427  28.782  1.00  0.00     0.338 C 
ATOM     34  O   UNL A   1      37.433  32.109  29.674  1.00  0.00    -0.246 OA
BRANCH  33  35
ATOM     35  C   UNL A   1      37.245  29.985  28.638  1.00  0.00     0.060 A 
ATOM     36  C   UNL A   1      37.412  28.975  30.113  1.00  0.00     0.016 A 
ATOM     37  C   UNL A   1      38.345  29.723  27.263  1.00  0.00     0.016 A 
ATOM     38  C   UNL A   1      38.739  27.678  30.224  1.00  0.00     0.010 A 
ATOM     39  C   UNL A   1      39.680  28.471  27.378  1.00  0.00     0.010 A 
ATOM     40  C   UNL A   1      39.885  27.467  28.858  1.00  0.00    -0.014 A 
BRANCH  40  41
ATOM     41  C   UNL A   1      41.285  27.057  29.035  1.00  0.00     0.031 A 
ATOM     42  C   UNL A   1      41.554  25.655  28.631  1.00  0.00     0.074 A 
ATOM     43  C   UNL A   1      42.192  27.965  29.473  1.00  0.00     0.049 A 
ATOM     44  N   UNL A   1      41.949  24.713  29.431  1.00  0.00    -0.248 NA
ATOM     45  C   UNL A   1      41.128  25.107  27.327  1.00  0.00     0.031 C 
ATOM     46  C   UNL A   1      43.651  27.920  29.472  1.00  0.00     0.029 A 
ATOM     47  N   UNL A   1      41.948  29.147  30.158  1.00  0.00    -0.354 N 
ATOM     48  C   UNL A   1      42.205  23.646  28.581  1.00  0.00     0.074 A 
ATOM     49  C   UNL A   1      41.300  23.801  27.491  1.00  0.00     0.031 C 
ATOM     50  C   UNL A   1      44.129  28.824  30.355  1.00  0.00     0.029 A 
ATOM     51  C   UNL A   1      42.997  29.454  31.017  1.00  0.00     0.049 A 
ATOM     52  H   UNL A   1      41.138  29.697  30.048  1.00  0.00     0.167 HD
ATOM     53  C   UNL A   1      43.472  23.146  28.455  1.00  0.00     0.031 A 
ATOM     54  C   UNL A   1      42.788  29.478  32.369  1.00  0.00     0.031 A 
ATOM     55  C   UNL A   1      44.383  23.892  29.312  1.00  0.00     0.049 A 
ATOM     56  C   UNL A   1      43.340  28.221  33.028  1.00  0.00     0.074 A 
ATOM     57  C   UNL A   1      45.336  24.865  29.066  1.00  0.00     0.029 A 
ATOM     58  N   UNL A   1      44.094  23.973  30.658  1.00  0.00    -0.354 N 
ATOM     59  N   UNL A   1      43.710  27.160  32.360  1.00  0.00    -0.248 NA
ATOM     60  C   UNL A   1      43.539  28.048  34.465  1.00  0.00     0.031 C 
ATOM     61  C   UNL A   1      45.652  25.491  30.307  1.00  0.00     0.029 A 
ATOM     62  C   UNL A   1      44.879  24.906  31.291  1.00  0.00     0.049 A 
ATOM     63  H   UNL A   1      43.408  23.429  31.110  1.00  0.00     0.167 HD
ATOM     64  C   UNL A   1      44.219  26.208  33.204  1.00  0.00     0.074 A 
ATOM     65  C   UNL A   1      44.031  26.795  34.521  1.00  0.00     0.031 C 
ATOM     66  C   UNL A   1      44.751  25.034  32.736  1.00  0.00     0.031 A 
BRANCH  53  67
ATOM     67  C   UNL A   1      43.929  22.285  27.290  1.00  0.00    -0.014 A 
ATOM     68  C   UNL A   1      43.122  21.205  26.886  1.00  0.00     0.010 A 
ATOM     69  C   UNL A   1      45.107  22.492  26.534  1.00  0.00     0.010 A 
ATOM     70  C   UNL A   1      43.478  20.361  25.827  1.00  0.00     0.020 A 
ATOM     71  C   UNL A   1      45.498  21.630  25.494  1.00  0.00     0.020 A 
ATOM     72  C   UNL A   1      44.666  20.577  25.135  1.00  0.00     0.054 A 
BRANCH  72  73
ATOM     73  S   UNL A   1      45.057  19.508  23.727  1.00  0.00     0.124 S 
ATOM     74  O   UNL A   1      46.515  19.429  23.787  1.00  0.00    -0.237 OA
ATOM     75  O   UNL A   1      44.346  18.279  24.065  1.00  0.00    -0.237 OA
ATOM     76  O   UNL A   1      44.526  20.238  22.578  1.00  0.00    -0.744 OA
ENDBRANCH  72  73
ENDBRANCH  53  67
BRANCH  54  77
ATOM     77  C   UNL A   1      41.559  30.259  32.739  1.00  0.00    -0.014 A 
ATOM     78  C   UNL A   1      40.389  29.493  32.978  1.00  0.00     0.010 A 
ATOM     79  C   UNL A   1      41.597  31.567  33.244  1.00  0.00     0.010 A 
ATOM     80  C   UNL A   1      39.396  29.929  33.863  1.00  0.00     0.020 A 
ATOM     81  C   UNL A   1      40.567  32.031  34.098  1.00  0.00     0.020 A 
ATOM     82  C   UNL A   1      39.501  31.189  34.442  1.00  0.00     0.054 A 
BRANCH  82  83
ATOM     83  S   UNL A   1      38.275  31.649  35.713  1.00  0.00     0.124 S 
ATOM     84  O   UNL A   1      38.928  32.759  36.396  1.00  0.00    -0.237 OA
ATOM     85  O   UNL A   1      37.100  32.013  34.924  1.00  0.00    -0.237 OA
ATOM     86  O   UNL A   1      38.129  30.428  36.504  1.00  0.00    -0.744 OA
ENDBRANCH  82  83
ENDBRANCH  54  77
BRANCH  66  87
ATOM     87  C   UNL A   1      45.190  23.840  33.563  1.00  0.00    -0.014 A 
ATOM     88  C   UNL A   1      46.518  23.554  33.877  1.00  0.00     0.010 A 
ATOM     89  C   UNL A   1      44.223  22.911  34.043  1.00  0.00     0.010 A 
ATOM     90  C   UNL A   1      46.852  22.489  34.722  1.00  0.00     0.020 A 
ATOM     91  C   UNL A   1      44.538  21.838  34.873  1.00  0.00     0.020 A 
ATOM     92  C   UNL A   1      45.860  21.648  35.226  1.00  0.00     0.054 A 
BRANCH  92  93
ATOM     93  S   UNL A   1      46.341  20.272  36.283  1.00  0.00     0.124 S 
ATOM     94  O   UNL A   1      47.795  20.409  36.320  1.00  0.00    -0.237 OA
ATOM     95  O   UNL A   1      45.648  20.589  37.529  1.00  0.00    -0.237 OA
ATOM     96  O   UNL A   1      45.846  19.092  35.577  1.00  0.00    -0.744 OA
ENDBRANCH  92  93
ENDBRANCH  66  87
ENDBRANCH  40  41
ENDBRANCH  33  35
ENDBRANCH  32  33
ENDBRANCH  31  32
ENDBRANCH   1  31
TORSDOF 17
ENDMDL
MODEL 2
REMARK VINA RESULT:     -13.8      4.885     11.804
REMARK SMILES Cc1c(C(=O)OCCOC(=O)c2ccc(-c3c4nc(c(-c5ccc(S(=O)(=O)[O-])cc5)c5ccc([nH]5)c(-c5ccc(S(=O)(=O)[O-])cc5)c5nc(c(-c6ccc(S(=O)(=O)[O-])cc6)c6ccc3[nH]6)C=C5)C=C4)cc2)cccc1-n1c(C)cc(/C=C2/C(=O)NC(=S)N=C2O)c1C
REMARK SMILES IDX 7 1 6 2 4 3 5 4 3 5 1 6 2 7 75 8 72 9 74 10 73 11 76 12
REMARK SMILES IDX 77 13 91 14 78 15 79 16 80 17 92 18 81 19 82 20 83 21 89 22
REMARK SMILES IDX 84 23 85 24 88 25 86 26 87 28 90 29 8 31 9 32 10 33 11 34
REMARK SMILES IDX 12 35 13 36 71 37 14 38 70 39 15 40 16 41 17 42 64 43 18 44
REMARK SMILES IDX 69 45 63 46 65 47 19 48 68 49 62 50 61 51 20 53 50 54 31 55
REMARK SMILES IDX 49 56 32 57 35 58 48 59 66 60 33 61 34 62 47 64 67 65 36 66
REMARK SMILES IDX 21 67 22 68 30 69 23 70 29 71 24 72 25 73 26 74 27 75 28 76
REMARK SMILES IDX 51 77 52 78 60 79 53 80 59 81 54 82 55 83 56 84 57 85 58 86
REMARK SMILES IDX 37 87 38 88 46 89 39 90 45 91 40 92 41 93 42 94 43 95 44 96
REMARK H PARENT 85 27 90 30 65 52 35 63
REMARK Flexibility Score: inf
ROOT
ATOM      1  C   UNL A   1      38.394  22.276  25.966  1.00  0.00     0.275 C 
ENDROOT
BRANCH   1   2
ATOM      2  O   UNL A   1      38.276  21.185  25.038  1.00  0.00    -0.458 OA
BRANCH   2   3
ATOM      3  C   UNL A   1      36.935  20.486  24.958  1.00  0.00     0.338 C 
ATOM      4  O   UNL A   1      37.355  19.289  25.050  1.00  0.00    -0.246 OA
BRANCH   3   5
ATOM      5  C   UNL A   1      34.994  21.380  24.708  1.00  0.00     0.065 A 
ATOM      6  C   UNL A   1      34.824  23.828  26.132  1.00  0.00     0.047 C 
ATOM      7  C   UNL A   1      34.287  22.740  25.138  1.00  0.00    -0.012 A 
ATOM      8  C   UNL A   1      32.897  23.102  24.740  1.00  0.00     0.049 A 
ATOM      9  C   UNL A   1      33.745  20.727  23.925  1.00  0.00     0.016 A 
ATOM     10  C   UNL A   1      31.996  22.320  24.027  1.00  0.00     0.027 A 
ATOM     11  C   UNL A   1      32.417  21.106  23.629  1.00  0.00     0.003 A 
BRANCH   8  12
ATOM     12  N   UNL A   1      32.277  24.273  25.224  1.00  0.00    -0.318 N 
ATOM     13  C   UNL A   1      31.352  24.327  26.243  1.00  0.00     0.020 A 
ATOM     14  C   UNL A   1      32.501  25.536  24.693  1.00  0.00     0.027 A 
ATOM     15  C   UNL A   1      30.853  23.098  26.926  1.00  0.00     0.065 C 
ATOM     16  C   UNL A   1      31.028  25.658  26.406  1.00  0.00     0.031 A 
ATOM     17  C   UNL A   1      31.808  26.434  25.489  1.00  0.00    -0.003 A 
ATOM     18  C   UNL A   1      33.333  25.665  23.455  1.00  0.00     0.065 C 
BRANCH  17  19
ATOM     19  C   UNL A   1      31.704  27.859  25.404  1.00  0.00     0.029 C 
ATOM     20  C   UNL A   1      31.028  28.689  24.585  1.00  0.00     0.102 C 
ATOM     21  C   UNL A   1      31.123  30.139  24.904  1.00  0.00     0.262 C 
ATOM     22  C   UNL A   1      30.152  28.417  23.444  1.00  0.00     0.226 C 
ATOM     23  O   UNL A   1      31.970  30.640  25.633  1.00  0.00    -0.269 OA
ATOM     24  N   UNL A   1      30.148  30.904  24.319  1.00  0.00    -0.297 N 
ATOM     25  N   UNL A   1      29.281  29.206  22.930  1.00  0.00    -0.184 NA
ATOM     26  C   UNL A   1      29.190  30.474  23.435  1.00  0.00     0.203 C 
ATOM     27  H   UNL A   1      30.131  31.858  24.558  1.00  0.00     0.172 HD
ATOM     28  S   UNL A   1      28.023  31.577  22.953  1.00  0.00    -0.038 S 
BRANCH  22  29
ATOM     29  O   UNL A   1      30.349  27.266  22.806  1.00  0.00    -0.493 OA
ATOM     30  H   UNL A   1      29.955  27.121  21.967  1.00  0.00     0.295 HD
ENDBRANCH  22  29
ENDBRANCH  17  19
ENDBRANCH   8  12
ENDBRANCH   3   5
ENDBRANCH   2   3
ENDBRANCH   1   2
BRANCH   1  31
ATOM     31  C   UNL A   1      39.724  22.138  26.723  1.00  0.00     0.275 C 
BRANCH  31  32
ATOM     32  O   UNL A   1      40.687  23.182  26.422  1.00  0.00    -0.458 OA
BRANCH  32  33
ATOM     33  C   UNL A   1      41.013  24.076  27.396  1.00  0.00     0.338 C 
ATOM     34  O   UNL A   1      42.034  24.088  28.062  1.00  0.00    -0.246 OA
BRANCH  33  35
ATOM     35  C   UNL A   1      40.118  25.244  27.280  1.00  0.00     0.060 A 
ATOM     36  C   UNL A   1      40.642  26.654  26.299  1.00  0.00     0.016 A 
ATOM     37  C   UNL A   1      39.274  25.512  28.825  1.00  0.00     0.016 A 
ATOM     38  C   UNL A   1      40.333  28.387  26.896  1.00  0.00     0.010 A 
ATOM     39  C   UNL A   1      38.998  27.218  29.439  1.00  0.00     0.010 A 
ATOM     40  C   UNL A   1      39.540  28.646  28.487  1.00  0.00    -0.014 A 
BRANCH  40  41
ATOM     41  C   UNL A   1      39.840  29.788  29.361  1.00  0.00     0.031 A 
ATOM     42  C   UNL A   1      38.828  30.872  29.299  1.00  0.00     0.074 A 
ATOM     43  C   UNL A   1      40.930  29.740  30.166  1.00  0.00     0.049 A 
ATOM     44  N   UNL A   1      39.055  32.079  28.880  1.00  0.00    -0.248 NA
ATOM     45  C   UNL A   1      37.379  30.617  29.438  1.00  0.00     0.031 C 
ATOM     46  C   UNL A   1      41.303  30.576  31.303  1.00  0.00     0.029 A 
ATOM     47  N   UNL A   1      42.051  28.933  30.030  1.00  0.00    -0.354 N 
ATOM     48  C   UNL A   1      37.870  32.748  29.149  1.00  0.00     0.074 A 
ATOM     49  C   UNL A   1      36.843  31.765  29.042  1.00  0.00     0.031 C 
ATOM     50  C   UNL A   1      42.627  30.444  31.541  1.00  0.00     0.029 A 
ATOM     51  C   UNL A   1      43.186  29.564  30.526  1.00  0.00     0.049 A 
ATOM     52  H   UNL A   1      42.042  28.031  29.635  1.00  0.00     0.167 HD
ATOM     53  C   UNL A   1      37.844  33.784  30.041  1.00  0.00     0.031 A 
ATOM     54  C   UNL A   1      44.213  29.886  29.681  1.00  0.00     0.031 A 
ATOM     55  C   UNL A   1      39.179  34.004  30.581  1.00  0.00     0.049 A 
ATOM     56  C   UNL A   1      44.199  31.373  29.351  1.00  0.00     0.074 A 
ATOM     57  C   UNL A   1      39.776  33.700  31.792  1.00  0.00     0.029 A 
ATOM     58  N   UNL A   1      40.210  34.236  29.695  1.00  0.00    -0.354 N 
ATOM     59  N   UNL A   1      43.192  32.162  29.619  1.00  0.00    -0.248 NA
ATOM     60  C   UNL A   1      45.297  32.100  28.718  1.00  0.00     0.031 C 
ATOM     61  C   UNL A   1      41.186  33.813  31.625  1.00  0.00     0.029 A 
ATOM     62  C   UNL A   1      41.436  34.168  30.313  1.00  0.00     0.049 A 
ATOM     63  H   UNL A   1      40.083  34.428  28.737  1.00  0.00     0.167 HD
ATOM     64  C   UNL A   1      43.480  33.455  29.265  1.00  0.00     0.074 A 
ATOM     65  C   UNL A   1      44.793  33.347  28.647  1.00  0.00     0.031 C 
ATOM     66  C   UNL A   1      42.615  34.487  29.521  1.00  0.00     0.031 A 
BRANCH  53  67
ATOM     67  C   UNL A   1      36.576  34.301  30.700  1.00  0.00    -0.014 A 
ATOM     68  C   UNL A   1      35.431  34.499  29.907  1.00  0.00     0.010 A 
ATOM     69  C   UNL A   1      36.427  34.580  32.078  1.00  0.00     0.010 A 
ATOM     70  C   UNL A   1      34.227  34.980  30.437  1.00  0.00     0.020 A 
ATOM     71  C   UNL A   1      35.238  35.101  32.620  1.00  0.00     0.020 A 
ATOM     72  C   UNL A   1      34.136  35.280  31.793  1.00  0.00     0.054 A 
BRANCH  72  73
ATOM     73  S   UNL A   1      32.544  35.831  32.455  1.00  0.00     0.124 S 
ATOM     74  O   UNL A   1      31.908  36.436  31.287  1.00  0.00    -0.237 OA
ATOM     75  O   UNL A   1      31.951  34.580  32.918  1.00  0.00    -0.237 OA
ATOM     76  O   UNL A   1      32.913  36.772  33.512  1.00  0.00    -0.744 OA
ENDBRANCH  72  73
ENDBRANCH  53  67
BRANCH  54  77
ATOM     77  C   UNL A   1      44.595  28.739  28.791  1.00  0.00    -0.014 A 
ATOM     78  C   UNL A   1      43.939  28.687  27.534  1.00  0.00     0.010 A 
ATOM     79  C   UNL A   1      45.786  28.012  28.936  1.00  0.00     0.010 A 
ATOM     80  C   UNL A   1      44.551  28.117  26.411  1.00  0.00     0.020 A 
ATOM     81  C   UNL A   1      46.381  27.389  27.812  1.00  0.00     0.020 A 
ATOM     82  C   UNL A   1      45.785  27.491  26.548  1.00  0.00     0.054 A 
BRANCH  82  83
ATOM     83  S   UNL A   1      46.619  26.910  25.034  1.00  0.00     0.124 S 
ATOM     84  O   UNL A   1      46.120  27.833  24.022  1.00  0.00    -0.237 OA
ATOM     85  O   UNL A   1      48.036  27.057  25.358  1.00  0.00    -0.237 OA
ATOM     86  O   UNL A   1      46.160  25.528  24.900  1.00  0.00    -0.744 OA
ENDBRANCH  82  83
ENDBRANCH  54  77
BRANCH  66  87
ATOM     87  C   UNL A   1      42.738  35.919  29.036  1.00  0.00    -0.014 A 
ATOM     88  C   UNL A   1      43.494  36.899  29.681  1.00  0.00     0.010 A 
ATOM     89  C   UNL A   1      42.032  36.343  27.874  1.00  0.00     0.010 A 
ATOM     90  C   UNL A   1      43.643  38.178  29.134  1.00  0.00     0.020 A 
ATOM     91  C   UNL A   1      42.157  37.616  27.323  1.00  0.00     0.020 A 
ATOM     92  C   UNL A   1      42.987  38.524  27.952  1.00  0.00     0.054 A 
BRANCH  92  93
ATOM     93  S   UNL A   1      43.183  40.192  27.304  1.00  0.00     0.124 S 
ATOM     94  O   UNL A   1      42.531  40.091  26.000  1.00  0.00    -0.237 OA
ATOM     95  O   UNL A   1      42.476  40.991  28.302  1.00  0.00    -0.237 OA
ATOM     96  O   UNL A   1      44.630  40.388  27.261  1.00  0.00    -0.744 OA
ENDBRANCH  92  93
ENDBRANCH  66  87
ENDBRANCH  40  41
ENDBRANCH  33  35
ENDBRANCH  32  33
ENDBRANCH  31  32
ENDBRANCH   1  31
TORSDOF 17
ENDMDL
MODEL 3
REMARK VINA RESULT:     -13.0      3.336      4.386
REMARK SMILES Cc1c(C(=O)OCCOC(=O)c2ccc(-c3c4nc(c(-c5ccc(S(=O)(=O)[O-])cc5)c5ccc([nH]5)c(-c5ccc(S(=O)(=O)[O-])cc5)c5nc(c(-c6ccc(S(=O)(=O)[O-])cc6)c6ccc3[nH]6)C=C5)C=C4)cc2)cccc1-n1c(C)cc(/C=C2/C(=O)NC(=S)N=C2O)c1C
REMARK SMILES IDX 7 1 6 2 4 3 5 4 3 5 1 6 2 7 75 8 72 9 74 10 73 11 76 12
REMARK SMILES IDX 77 13 91 14 78 15 79 16 80 17 92 18 81 19 82 20 83 21 89 22
REMARK SMILES IDX 84 23 85 24 88 25 86 26 87 28 90 29 8 31 9 32 10 33 11 34
REMARK SMILES IDX 12 35 13 36 71 37 14 38 70 39 15 40 16 41 17 42 64 43 18 44
REMARK SMILES IDX 69 45 63 46 65 47 19 48 68 49 62 50 61 51 20 53 50 54 31 55
REMARK SMILES IDX 49 56 32 57 35 58 48 59 66 60 33 61 34 62 47 64 67 65 36 66
REMARK SMILES IDX 21 67 22 68 30 69 23 70 29 71 24 72 25 73 26 74 27 75 28 76
REMARK SMILES IDX 51 77 52 78 60 79 53 80 59 81 54 82 55 83 56 84 57 85 58 86
REMARK SMILES IDX 37 87 38 88 46 89 39 90 45 91 40 92 41 93 42 94 43 95 44 96
REMARK H PARENT 85 27 90 30 65 52 35 63
REMARK Flexibility Score: inf
ROOT
ATOM      1  C   UNL A   1      35.689  30.972  28.033  1.00  0.00     0.275 C 
ENDROOT
BRANCH   1   2
ATOM      2  O   UNL A   1      35.321  29.767  27.345  1.00  0.00    -0.458 OA
BRANCH   2   3
ATOM      3  C   UNL A   1      33.845  29.540  27.086  1.00  0.00     0.338 C 
ATOM      4  O   UNL A   1      33.430  30.696  27.417  1.00  0.00    -0.246 OA
BRANCH   3   5
ATOM      5  C   UNL A   1      32.887  27.734  26.417  1.00  0.00     0.065 A 
ATOM      6  C   UNL A   1      34.766  25.989  25.203  1.00  0.00     0.047 C 
ATOM      7  C   UNL A   1      33.348  26.357  25.766  1.00  0.00    -0.012 A 
ATOM      8  C   UNL A   1      32.411  25.239  25.465  1.00  0.00     0.049 A 
ATOM      9  C   UNL A   1      31.306  27.425  26.474  1.00  0.00     0.016 A 
ATOM     10  C   UNL A   1      31.029  25.233  25.621  1.00  0.00     0.027 A 
ATOM     11  C   UNL A   1      30.464  26.349  26.115  1.00  0.00     0.003 A 
BRANCH   8  12
ATOM     12  N   UNL A   1      32.847  24.074  24.798  1.00  0.00    -0.318 N 
ATOM     13  C   UNL A   1      32.701  23.819  23.452  1.00  0.00     0.020 A 
ATOM     14  C   UNL A   1      33.456  23.004  25.440  1.00  0.00     0.027 A 
ATOM     15  C   UNL A   1      31.990  24.760  22.540  1.00  0.00     0.065 C 
ATOM     16  C   UNL A   1      33.286  22.590  23.223  1.00  0.00     0.031 A 
ATOM     17  C   UNL A   1      33.835  22.108  24.454  1.00  0.00    -0.003 A 
ATOM     18  C   UNL A   1      33.538  23.007  26.936  1.00  0.00     0.065 C 
BRANCH  17  19
ATOM     19  C   UNL A   1      34.510  20.849  24.555  1.00  0.00     0.029 C 
ATOM     20  C   UNL A   1      34.126  19.625  24.967  1.00  0.00     0.102 C 
ATOM     21  C   UNL A   1      35.135  18.542  24.822  1.00  0.00     0.262 C 
ATOM     22  C   UNL A   1      32.848  19.141  25.495  1.00  0.00     0.226 C 
ATOM     23  O   UNL A   1      36.334  18.723  24.648  1.00  0.00    -0.269 OA
ATOM     24  N   UNL A   1      34.608  17.278  24.878  1.00  0.00    -0.297 N 
ATOM     25  N   UNL A   1      32.440  17.926  25.543  1.00  0.00    -0.184 NA
ATOM     26  C   UNL A   1      33.301  16.945  25.133  1.00  0.00     0.203 C 
ATOM     27  H   UNL A   1      35.230  16.532  24.718  1.00  0.00     0.172 HD
ATOM     28  S   UNL A   1      32.873  15.328  25.024  1.00  0.00    -0.038 S 
BRANCH  22  29
ATOM     29  O   UNL A   1      32.066  20.046  26.079  1.00  0.00    -0.493 OA
ATOM     30  H   UNL A   1      31.488  19.789  26.771  1.00  0.00     0.295 HD
ENDBRANCH  22  29
ENDBRANCH  17  19
ENDBRANCH   8  12
ENDBRANCH   3   5
ENDBRANCH   2   3
ENDBRANCH   1   2
BRANCH   1  31
ATOM     31  C   UNL A   1      36.950  30.699  28.867  1.00  0.00     0.275 C 
BRANCH  31  32
ATOM     32  O   UNL A   1      37.051  29.338  29.361  1.00  0.00    -0.458 OA
BRANCH  32  33
ATOM     33  C   UNL A   1      38.286  28.792  29.537  1.00  0.00     0.338 C 
ATOM     34  O   UNL A   1      38.542  27.724  30.067  1.00  0.00    -0.246 OA
BRANCH  33  35
ATOM     35  C   UNL A   1      39.243  29.505  28.669  1.00  0.00     0.060 A 
ATOM     36  C   UNL A   1      39.458  28.962  26.971  1.00  0.00     0.016 A 
ATOM     37  C   UNL A   1      40.664  30.003  29.620  1.00  0.00     0.016 A 
ATOM     38  C   UNL A   1      41.152  28.890  26.209  1.00  0.00     0.010 A 
ATOM     39  C   UNL A   1      42.343  29.900  28.889  1.00  0.00     0.010 A 
ATOM     40  C   UNL A   1      42.586  29.330  27.199  1.00  0.00    -0.014 A 
BRANCH  40  41
ATOM     41  C   UNL A   1      43.905  28.706  27.030  1.00  0.00     0.031 A 
ATOM     42  C   UNL A   1      43.879  27.224  27.105  1.00  0.00     0.074 A 
ATOM     43  C   UNL A   1      44.981  29.488  26.767  1.00  0.00     0.049 A 
ATOM     44  N   UNL A   1      44.479  26.515  28.011  1.00  0.00    -0.248 NA
ATOM     45  C   UNL A   1      42.933  26.403  26.322  1.00  0.00     0.031 C 
ATOM     46  C   UNL A   1      46.314  29.133  26.290  1.00  0.00     0.029 A 
ATOM     47  N   UNL A   1      45.122  30.848  27.008  1.00  0.00    -0.354 N 
ATOM     48  C   UNL A   1      44.294  25.209  27.582  1.00  0.00     0.074 A 
ATOM     49  C   UNL A   1      43.049  25.208  26.887  1.00  0.00     0.031 C 
ATOM     50  C   UNL A   1      47.171  30.142  26.560  1.00  0.00     0.029 A 
ATOM     51  C   UNL A   1      46.444  31.174  27.284  1.00  0.00     0.049 A 
ATOM     52  H   UNL A   1      44.381  31.496  26.984  1.00  0.00     0.167 HD
ATOM     53  C   UNL A   1      45.365  24.435  27.229  1.00  0.00     0.031 A 
ATOM     54  C   UNL A   1      46.785  31.660  28.517  1.00  0.00     0.031 A 
ATOM     55  C   UNL A   1      46.597  25.196  27.388  1.00  0.00     0.049 A 
ATOM     56  C   UNL A   1      47.448  30.582  29.363  1.00  0.00     0.074 A 
ATOM     57  C   UNL A   1      47.451  25.817  26.494  1.00  0.00     0.029 A 
ATOM     58  N   UNL A   1      46.866  25.751  28.621  1.00  0.00    -0.354 N 
ATOM     59  N   UNL A   1      47.439  29.313  29.051  1.00  0.00    -0.248 NA
ATOM     60  C   UNL A   1      48.180  30.824  30.604  1.00  0.00     0.031 C 
ATOM     61  C   UNL A   1      48.278  26.714  27.231  1.00  0.00     0.029 A 
ATOM     62  C   UNL A   1      47.909  26.643  28.560  1.00  0.00     0.049 A 
ATOM     63  H   UNL A   1      46.371  25.533  29.445  1.00  0.00     0.167 HD
ATOM     64  C   UNL A   1      48.160  28.583  29.960  1.00  0.00     0.074 A 
ATOM     65  C   UNL A   1      48.552  29.575  30.948  1.00  0.00     0.031 C 
ATOM     66  C   UNL A   1      48.369  27.237  29.807  1.00  0.00     0.031 A 
BRANCH  53  67
ATOM     67  C   UNL A   1      45.257  23.177  26.382  1.00  0.00    -0.014 A 
ATOM     68  C   UNL A   1      44.327  22.188  26.751  1.00  0.00     0.010 A 
ATOM     69  C   UNL A   1      46.004  22.916  25.209  1.00  0.00     0.010 A 
ATOM     70  C   UNL A   1      44.173  20.999  26.027  1.00  0.00     0.020 A 
ATOM     71  C   UNL A   1      45.889  21.710  24.494  1.00  0.00     0.020 A 
ATOM     72  C   UNL A   1      44.957  20.765  24.902  1.00  0.00     0.054 A 
BRANCH  72  73
ATOM     73  S   UNL A   1      44.681  19.249  23.951  1.00  0.00     0.124 S 
ATOM     74  O   UNL A   1      44.484  19.757  22.596  1.00  0.00    -0.237 OA
ATOM     75  O   UNL A   1      45.922  18.514  24.174  1.00  0.00    -0.237 OA
ATOM     76  O   UNL A   1      43.493  18.662  24.568  1.00  0.00    -0.744 OA
ENDBRANCH  72  73
ENDBRANCH  53  67
BRANCH  54  77
ATOM     77  C   UNL A   1      45.867  32.761  28.965  1.00  0.00    -0.014 A 
ATOM     78  C   UNL A   1      46.094  34.032  28.379  1.00  0.00     0.010 A 
ATOM     79  C   UNL A   1      44.618  32.531  29.560  1.00  0.00     0.010 A 
ATOM     80  C   UNL A   1      45.054  34.953  28.201  1.00  0.00     0.020 A 
ATOM     81  C   UNL A   1      43.579  33.484  29.428  1.00  0.00     0.020 A 
ATOM     82  C   UNL A   1      43.791  34.665  28.703  1.00  0.00     0.054 A 
BRANCH  82  83
ATOM     83  S   UNL A   1      42.431  35.814  28.305  1.00  0.00     0.124 S 
ATOM     84  O   UNL A   1      42.383  35.756  26.849  1.00  0.00    -0.237 OA
ATOM     85  O   UNL A   1      41.283  35.218  28.985  1.00  0.00    -0.237 OA
ATOM     86  O   UNL A   1      42.884  37.086  28.865  1.00  0.00    -0.744 OA
ENDBRANCH  82  83
ENDBRANCH  54  77
BRANCH  66  87
ATOM     87  C   UNL A   1      48.999  26.293  30.815  1.00  0.00    -0.014 A 
ATOM     88  C   UNL A   1      48.464  26.028  32.075  1.00  0.00     0.010 A 
ATOM     89  C   UNL A   1      50.227  25.640  30.510  1.00  0.00     0.010 A 
ATOM     90  C   UNL A   1      49.042  25.076  32.924  1.00  0.00     0.020 A 
ATOM     91  C   UNL A   1      50.824  24.701  31.348  1.00  0.00     0.020 A 
ATOM     92  C   UNL A   1      50.208  24.409  32.549  1.00  0.00     0.054 A 
BRANCH  92  93
ATOM     93  S   UNL A   1      50.932  23.216  33.688  1.00  0.00     0.124 S 
ATOM     94  O   UNL A   1      52.330  23.198  33.262  1.00  0.00    -0.237 OA
ATOM     95  O   UNL A   1      50.677  23.841  34.984  1.00  0.00    -0.237 OA
ATOM     96  O   UNL A   1      50.189  21.985  33.432  1.00  0.00    -0.744 OA
ENDBRANCH  92  93
ENDBRANCH  66  87
ENDBRANCH  40  41
ENDBRANCH  33  35
ENDBRANCH  32  33
ENDBRANCH  31  32
ENDBRANCH   1  31
TORSDOF 17
ENDMDL
