MODEL 1
REMARK VINA RESULT:      -9.1      0.000      0.000
REMARK SMILES COc1ccc(Cl)c(C[C@H]([NH3+])C(=O)OCCOC(=O)c2ccc(-c3c4nc(c(-c5ccc(S(=O)(=O)[O-])cc5)c5ccc([nH]5)c(-c5ccc(S(=O)(=O)[O-])cc5)c5nc(c(-c6ccc(S(=O)(=O)[O-])cc6)c6ccc3[nH]6)C=C5)C=C4)cc2)c1F
REMARK SMILES IDX 15 1 14 2 12 3 13 4 10 5 9 6 8 7 3 8 4 9 80 10 5 11 81 12
REMARK SMILES IDX 6 13 7 14 2 15 1 16 11 17 16 21 17 22 18 23 19 24 20 25
REMARK SMILES IDX 21 26 79 27 22 28 78 29 23 30 24 31 25 32 72 33 26 34 77 35
REMARK SMILES IDX 71 36 73 37 27 38 76 39 70 40 69 41 28 43 58 44 39 45 57 46
REMARK SMILES IDX 40 47 43 48 56 49 74 50 41 51 42 52 55 54 75 55 44 56 29 57
REMARK SMILES IDX 30 58 38 59 31 60 37 61 32 62 33 63 34 64 35 65 36 66 59 67
REMARK SMILES IDX 60 68 68 69 61 70 67 71 62 72 63 73 64 74 65 75 66 76 45 77
REMARK SMILES IDX 46 78 54 79 47 80 53 81 48 82 49 83 50 84 51 85 52 86
REMARK H PARENT 11 18 11 19 11 20 73 42 43 53
REMARK Flexibility Score: inf
ROOT
ATOM      1  C   UNL A   1      40.941  19.560  26.119  1.00  0.00     0.274 C 
ENDROOT
BRANCH   1   2
ATOM      2  O   UNL A   1      42.194  20.271  26.149  1.00  0.00    -0.458 OA
BRANCH   2   3
ATOM      3  C   UNL A   1      43.234  19.655  25.510  1.00  0.00     0.365 C 
ATOM      4  O   UNL A   1      43.280  18.452  25.288  1.00  0.00    -0.245 OA
BRANCH   3   5
ATOM      5  C   UNL A   1      44.334  20.647  25.085  1.00  0.00     0.296 C 
BRANCH   5   6
ATOM      6  C   UNL A   1      43.838  22.100  25.228  1.00  0.00     0.117 C 
BRANCH   6   7
ATOM      7  C   UNL A   1      44.793  22.968  26.032  1.00  0.00     0.017 A 
ATOM      8  C   UNL A   1      46.830  24.327  26.067  1.00  0.00     0.154 A 
ATOM      9  C   UNL A   1      46.743  24.460  27.447  1.00  0.00     0.051 A 
ATOM     10  C   UNL A   1      45.895  23.547  25.379  1.00  0.00     0.169 A 
ATOM     11  C   UNL A   1      45.649  23.913  28.114  1.00  0.00     0.025 A 
ATOM     12  F   UNL A   1      46.041  23.362  24.057  1.00  0.00    -0.203 F 
ATOM     13  C   UNL A   1      44.660  23.214  27.408  1.00  0.00     0.047 A 
ATOM     14  Cl  UNL A   1      43.248  22.769  28.293  1.00  0.00    -0.084 Cl
BRANCH   8  15
ATOM     15  O   UNL A   1      47.865  24.978  25.449  1.00  0.00    -0.494 OA
ATOM     16  C   UNL A   1      48.569  25.820  26.363  1.00  0.00     0.278 C 
ENDBRANCH   8  15
ENDBRANCH   6   7
ENDBRANCH   5   6
BRANCH   5  17
ATOM     17  N   UNL A   1      44.807  20.347  23.704  1.00  0.00    -0.346 N 
ATOM     18  H   UNL A   1      45.620  20.925  23.492  1.00  0.00     0.345 HD
ATOM     19  H   UNL A   1      44.061  20.551  23.038  1.00  0.00     0.345 HD
ATOM     20  H   UNL A   1      45.063  19.363  23.639  1.00  0.00     0.345 HD
ENDBRANCH   5  17
ENDBRANCH   3   5
ENDBRANCH   2   3
ENDBRANCH   1   2
BRANCH   1  21
ATOM     21  C   UNL A   1      39.729  20.484  25.925  1.00  0.00     0.275 C 
BRANCH  21  22
ATOM     22  O   UNL A   1      40.009  21.861  26.241  1.00  0.00    -0.458 OA
BRANCH  22  23
ATOM     23  C   UNL A   1      38.937  22.691  26.203  1.00  0.00     0.338 C 
ATOM     24  O   UNL A   1      37.808  22.402  25.839  1.00  0.00    -0.246 OA
BRANCH  23  25
ATOM     25  C   UNL A   1      39.266  23.984  26.837  1.00  0.00     0.060 A 
ATOM     26  C   UNL A   1      40.055  24.878  26.105  1.00  0.00     0.016 A 
ATOM     27  C   UNL A   1      38.869  24.301  28.137  1.00  0.00     0.016 A 
ATOM     28  C   UNL A   1      40.452  26.090  26.661  1.00  0.00     0.010 A 
ATOM     29  C   UNL A   1      39.280  25.517  28.703  1.00  0.00     0.010 A 
ATOM     30  C   UNL A   1      40.080  26.413  27.970  1.00  0.00    -0.014 A 
BRANCH  30  31
ATOM     31  C   UNL A   1      40.585  27.666  28.580  1.00  0.00     0.031 A 
ATOM     32  C   UNL A   1      42.019  27.752  29.021  1.00  0.00     0.074 A 
ATOM     33  C   UNL A   1      39.774  28.734  28.696  1.00  0.00     0.049 A 
ATOM     34  N   UNL A   1      42.635  28.727  29.638  1.00  0.00    -0.248 NA
ATOM     35  C   UNL A   1      42.874  26.589  28.727  1.00  0.00     0.031 C 
ATOM     36  C   UNL A   1      38.384  28.797  28.236  1.00  0.00     0.029 A 
ATOM     37  N   UNL A   1      40.002  29.975  29.235  1.00  0.00    -0.354 N 
ATOM     38  C   UNL A   1      43.940  28.288  29.831  1.00  0.00     0.074 A 
ATOM     39  C   UNL A   1      44.028  26.958  29.269  1.00  0.00     0.031 C 
ATOM     40  C   UNL A   1      37.886  30.013  28.515  1.00  0.00     0.029 A 
ATOM     41  C   UNL A   1      38.900  30.796  29.214  1.00  0.00     0.049 A 
ATOM     42  H   UNL A   1      40.873  30.252  29.601  1.00  0.00     0.167 HD
ATOM     43  C   UNL A   1      44.968  28.936  30.429  1.00  0.00     0.031 A 
ATOM     44  C   UNL A   1      38.718  32.027  29.734  1.00  0.00     0.031 A 
ATOM     45  C   UNL A   1      44.877  30.264  30.975  1.00  0.00     0.049 A 
ATOM     46  C   UNL A   1      39.856  32.690  30.463  1.00  0.00     0.074 A 
ATOM     47  C   UNL A   1      45.870  31.012  31.585  1.00  0.00     0.029 A 
ATOM     48  N   UNL A   1      43.730  31.043  30.980  1.00  0.00    -0.354 N 
ATOM     49  N   UNL A   1      41.083  32.261  30.641  1.00  0.00    -0.248 NA
ATOM     50  C   UNL A   1      39.582  34.002  31.068  1.00  0.00     0.031 C 
ATOM     51  C   UNL A   1      45.309  32.222  32.007  1.00  0.00     0.029 A 
ATOM     52  C   UNL A   1      43.981  32.250  31.611  1.00  0.00     0.049 A 
ATOM     53  H   UNL A   1      42.865  30.777  30.593  1.00  0.00     0.167 HD
ATOM     54  C   UNL A   1      41.733  33.261  31.358  1.00  0.00     0.074 A 
ATOM     55  C   UNL A   1      40.769  34.321  31.566  1.00  0.00     0.031 C 
ATOM     56  C   UNL A   1      43.012  33.297  31.805  1.00  0.00     0.031 A 
BRANCH  43  57
ATOM     57  C   UNL A   1      46.273  28.204  30.571  1.00  0.00    -0.014 A 
ATOM     58  C   UNL A   1      46.515  27.336  31.649  1.00  0.00     0.010 A 
ATOM     59  C   UNL A   1      47.247  28.334  29.563  1.00  0.00     0.010 A 
ATOM     60  C   UNL A   1      47.717  26.625  31.726  1.00  0.00     0.020 A 
ATOM     61  C   UNL A   1      48.439  27.609  29.625  1.00  0.00     0.020 A 
ATOM     62  C   UNL A   1      48.671  26.766  30.713  1.00  0.00     0.054 A 
BRANCH  62  63
ATOM     63  S   UNL A   1      50.200  25.794  30.811  1.00  0.00     0.124 S 
ATOM     64  O   UNL A   1      49.958  24.970  31.994  1.00  0.00    -0.237 OA
ATOM     65  O   UNL A   1      50.208  25.078  29.538  1.00  0.00    -0.237 OA
ATOM     66  O   UNL A   1      51.246  26.804  30.961  1.00  0.00    -0.744 OA
ENDBRANCH  62  63
ENDBRANCH  43  57
BRANCH  44  67
ATOM     67  C   UNL A   1      37.392  32.697  29.634  1.00  0.00    -0.014 A 
ATOM     68  C   UNL A   1      37.056  33.464  28.505  1.00  0.00     0.010 A 
ATOM     69  C   UNL A   1      36.469  32.598  30.692  1.00  0.00     0.010 A 
ATOM     70  C   UNL A   1      35.836  34.144  28.448  1.00  0.00     0.020 A 
ATOM     71  C   UNL A   1      35.235  33.250  30.625  1.00  0.00     0.020 A 
ATOM     72  C   UNL A   1      34.935  34.035  29.511  1.00  0.00     0.054 A 
BRANCH  72  73
ATOM     73  S   UNL A   1      33.345  34.906  29.409  1.00  0.00     0.124 S 
ATOM     74  O   UNL A   1      33.758  36.240  28.984  1.00  0.00    -0.237 OA
ATOM     75  O   UNL A   1      32.616  34.122  28.417  1.00  0.00    -0.237 OA
ATOM     76  O   UNL A   1      32.821  34.815  30.771  1.00  0.00    -0.744 OA
ENDBRANCH  72  73
ENDBRANCH  44  67
BRANCH  56  77
ATOM     77  C   UNL A   1      43.456  34.538  32.530  1.00  0.00    -0.014 A 
ATOM     78  C   UNL A   1      44.023  35.622  31.838  1.00  0.00     0.010 A 
ATOM     79  C   UNL A   1      43.256  34.638  33.919  1.00  0.00     0.010 A 
ATOM     80  C   UNL A   1      44.410  36.775  32.528  1.00  0.00     0.020 A 
ATOM     81  C   UNL A   1      43.619  35.798  34.608  1.00  0.00     0.020 A 
ATOM     82  C   UNL A   1      44.207  36.854  33.910  1.00  0.00     0.054 A 
BRANCH  82  83
ATOM     83  S   UNL A   1      44.679  38.375  34.778  1.00  0.00     0.124 S 
ATOM     84  O   UNL A   1      44.900  37.892  36.138  1.00  0.00    -0.237 OA
ATOM     85  O   UNL A   1      45.879  38.797  34.059  1.00  0.00    -0.237 OA
ATOM     86  O   UNL A   1      43.519  39.246  34.605  1.00  0.00    -0.744 OA
ENDBRANCH  82  83
ENDBRANCH  56  77
ENDBRANCH  30  31
ENDBRANCH  23  25
ENDBRANCH  22  23
ENDBRANCH  21  22
ENDBRANCH   1  21
TORSDOF 18
ENDMDL
MODEL 2
REMARK VINA RESULT:      -9.1      1.563      2.107
REMARK SMILES COc1ccc(Cl)c(C[C@H]([NH3+])C(=O)OCCOC(=O)c2ccc(-c3c4nc(c(-c5ccc(S(=O)(=O)[O-])cc5)c5ccc([nH]5)c(-c5ccc(S(=O)(=O)[O-])cc5)c5nc(c(-c6ccc(S(=O)(=O)[O-])cc6)c6ccc3[nH]6)C=C5)C=C4)cc2)c1F
REMARK SMILES IDX 15 1 14 2 12 3 13 4 10 5 9 6 8 7 3 8 4 9 80 10 5 11 81 12
REMARK SMILES IDX 6 13 7 14 2 15 1 16 11 17 16 21 17 22 18 23 19 24 20 25
REMARK SMILES IDX 21 26 79 27 22 28 78 29 23 30 24 31 25 32 72 33 26 34 77 35
REMARK SMILES IDX 71 36 73 37 27 38 76 39 70 40 69 41 28 43 58 44 39 45 57 46
REMARK SMILES IDX 40 47 43 48 56 49 74 50 41 51 42 52 55 54 75 55 44 56 29 57
REMARK SMILES IDX 30 58 38 59 31 60 37 61 32 62 33 63 34 64 35 65 36 66 59 67
REMARK SMILES IDX 60 68 68 69 61 70 67 71 62 72 63 73 64 74 65 75 66 76 45 77
REMARK SMILES IDX 46 78 54 79 47 80 53 81 48 82 49 83 50 84 51 85 52 86
REMARK H PARENT 11 18 11 19 11 20 73 42 43 53
REMARK Flexibility Score: inf
ROOT
ATOM      1  C   UNL A   1      40.417  19.618  26.258  1.00  0.00     0.274 C 
ENDROOT
BRANCH   1   2
ATOM      2  O   UNL A   1      41.552  19.513  25.377  1.00  0.00    -0.458 OA
BRANCH   2   3
ATOM      3  C   UNL A   1      42.750  19.271  25.989  1.00  0.00     0.365 C 
ATOM      4  O   UNL A   1      42.910  18.434  26.867  1.00  0.00    -0.245 OA
BRANCH   3   5
ATOM      5  C   UNL A   1      43.883  20.158  25.436  1.00  0.00     0.296 C 
BRANCH   5   6
ATOM      6  C   UNL A   1      43.436  21.632  25.374  1.00  0.00     0.117 C 
BRANCH   6   7
ATOM      7  C   UNL A   1      44.563  22.601  25.694  1.00  0.00     0.017 A 
ATOM      8  C   UNL A   1      46.470  23.905  24.881  1.00  0.00     0.154 A 
ATOM      9  C   UNL A   1      46.805  24.264  26.181  1.00  0.00     0.051 A 
ATOM     10  C   UNL A   1      45.394  23.041  24.650  1.00  0.00     0.169 A 
ATOM     11  C   UNL A   1      45.984  23.858  27.231  1.00  0.00     0.025 A 
ATOM     12  F   UNL A   1      45.135  22.639  23.395  1.00  0.00    -0.203 F 
ATOM     13  C   UNL A   1      44.849  23.073  26.985  1.00  0.00     0.047 A 
ATOM     14  Cl  UNL A   1      43.789  22.809  28.320  1.00  0.00    -0.084 Cl
BRANCH   8  15
ATOM     15  O   UNL A   1      47.246  24.423  23.879  1.00  0.00    -0.494 OA
ATOM     16  C   UNL A   1      47.804  25.684  24.253  1.00  0.00     0.278 C 
ENDBRANCH   8  15
ENDBRANCH   6   7
ENDBRANCH   5   6
BRANCH   5  17
ATOM     17  N   UNL A   1      44.347  19.655  24.113  1.00  0.00    -0.346 N 
ATOM     18  H   UNL A   1      44.637  18.681  24.204  1.00  0.00     0.345 HD
ATOM     19  H   UNL A   1      45.137  20.216  23.795  1.00  0.00     0.345 HD
ATOM     20  H   UNL A   1      43.587  19.722  23.438  1.00  0.00     0.345 HD
ENDBRANCH   5  17
ENDBRANCH   3   5
ENDBRANCH   2   3
ENDBRANCH   1   2
BRANCH   1  21
ATOM     21  C   UNL A   1      40.183  21.047  26.770  1.00  0.00     0.275 C 
BRANCH  21  22
ATOM     22  O   UNL A   1      39.710  21.946  25.749  1.00  0.00    -0.458 OA
BRANCH  22  23
ATOM     23  C   UNL A   1      38.673  22.740  26.115  1.00  0.00     0.338 C 
ATOM     24  O   UNL A   1      37.492  22.431  26.128  1.00  0.00    -0.246 OA
BRANCH  23  25
ATOM     25  C   UNL A   1      39.174  24.011  26.677  1.00  0.00     0.060 A 
ATOM     26  C   UNL A   1      39.908  24.846  25.828  1.00  0.00     0.016 A 
ATOM     27  C   UNL A   1      38.989  24.360  28.016  1.00  0.00     0.016 A 
ATOM     28  C   UNL A   1      40.460  26.031  26.305  1.00  0.00     0.010 A 
ATOM     29  C   UNL A   1      39.555  25.548  28.500  1.00  0.00     0.010 A 
ATOM     30  C   UNL A   1      40.300  26.385  27.648  1.00  0.00    -0.014 A 
BRANCH  30  31
ATOM     31  C   UNL A   1      40.969  27.603  28.162  1.00  0.00     0.031 A 
ATOM     32  C   UNL A   1      42.469  27.694  28.141  1.00  0.00     0.074 A 
ATOM     33  C   UNL A   1      40.233  28.641  28.605  1.00  0.00     0.049 A 
ATOM     34  N   UNL A   1      43.245  28.637  28.606  1.00  0.00    -0.248 NA
ATOM     35  C   UNL A   1      43.190  26.575  27.509  1.00  0.00     0.031 C 
ATOM     36  C   UNL A   1      38.769  28.701  28.606  1.00  0.00     0.029 A 
ATOM     37  N   UNL A   1      40.617  29.846  29.138  1.00  0.00    -0.354 N 
ATOM     38  C   UNL A   1      44.545  28.218  28.350  1.00  0.00     0.074 A 
ATOM     39  C   UNL A   1      44.455  26.933  27.691  1.00  0.00     0.031 C 
ATOM     40  C   UNL A   1      38.381  29.882  29.117  1.00  0.00     0.029 A 
ATOM     41  C   UNL A   1      39.562  30.639  29.522  1.00  0.00     0.049 A 
ATOM     42  H   UNL A   1      41.558  30.117  29.233  1.00  0.00     0.167 HD
ATOM     43  C   UNL A   1      45.708  28.847  28.645  1.00  0.00     0.031 A 
ATOM     44  C   UNL A   1      39.550  31.825  30.163  1.00  0.00     0.031 A 
ATOM     45  C   UNL A   1      45.790  30.131  29.290  1.00  0.00     0.049 A 
ATOM     46  C   UNL A   1      40.858  32.462  30.549  1.00  0.00     0.074 A 
ATOM     47  C   UNL A   1      46.923  30.858  29.615  1.00  0.00     0.029 A 
ATOM     48  N   UNL A   1      44.701  30.879  29.710  1.00  0.00    -0.354 N 
ATOM     49  N   UNL A   1      42.079  32.052  30.304  1.00  0.00    -0.248 NA
ATOM     50  C   UNL A   1      40.785  33.721  31.306  1.00  0.00     0.031 C 
ATOM     51  C   UNL A   1      46.520  32.021  30.279  1.00  0.00     0.029 A 
ATOM     52  C   UNL A   1      45.136  32.044  30.319  1.00  0.00     0.049 A 
ATOM     53  H   UNL A   1      43.759  30.620  29.592  1.00  0.00     0.167 HD
ATOM     54  C   UNL A   1      42.919  33.015  30.855  1.00  0.00     0.074 A 
ATOM     55  C   UNL A   1      42.067  34.033  31.432  1.00  0.00     0.031 C 
ATOM     56  C   UNL A   1      44.274  33.051  30.883  1.00  0.00     0.031 A 
BRANCH  43  57
ATOM     57  C   UNL A   1      46.993  28.139  28.318  1.00  0.00    -0.014 A 
ATOM     58  C   UNL A   1      47.458  27.064  29.095  1.00  0.00     0.010 A 
ATOM     59  C   UNL A   1      47.710  28.513  27.165  1.00  0.00     0.010 A 
ATOM     60  C   UNL A   1      48.629  26.389  28.736  1.00  0.00     0.020 A 
ATOM     61  C   UNL A   1      48.867  27.826  26.791  1.00  0.00     0.020 A 
ATOM     62  C   UNL A   1      49.325  26.773  27.585  1.00  0.00     0.054 A 
BRANCH  62  63
ATOM     63  S   UNL A   1      50.812  25.847  27.113  1.00  0.00     0.124 S 
ATOM     64  O   UNL A   1      50.963  26.216  25.707  1.00  0.00    -0.237 OA
ATOM     65  O   UNL A   1      51.826  26.386  28.016  1.00  0.00    -0.237 OA
ATOM     66  O   UNL A   1      50.445  24.453  27.354  1.00  0.00    -0.744 OA
ENDBRANCH  62  63
ENDBRANCH  43  57
BRANCH  44  67
ATOM     67  C   UNL A   1      38.258  32.468  30.531  1.00  0.00    -0.014 A 
ATOM     68  C   UNL A   1      37.669  32.233  31.785  1.00  0.00     0.010 A 
ATOM     69  C   UNL A   1      37.592  33.295  29.607  1.00  0.00     0.010 A 
ATOM     70  C   UNL A   1      36.425  32.789  32.098  1.00  0.00     0.020 A 
ATOM     71  C   UNL A   1      36.363  33.877  29.927  1.00  0.00     0.020 A 
ATOM     72  C   UNL A   1      35.778  33.605  31.165  1.00  0.00     0.054 A 
BRANCH  72  73
ATOM     73  S   UNL A   1      34.174  34.336  31.597  1.00  0.00     0.124 S 
ATOM     74  O   UNL A   1      33.653  33.372  32.562  1.00  0.00    -0.237 OA
ATOM     75  O   UNL A   1      34.553  35.636  32.142  1.00  0.00    -0.237 OA
ATOM     76  O   UNL A   1      33.469  34.387  30.318  1.00  0.00    -0.744 OA
ENDBRANCH  72  73
ENDBRANCH  44  67
BRANCH  56  77
ATOM     77  C   UNL A   1      44.921  34.248  31.524  1.00  0.00    -0.014 A 
ATOM     78  C   UNL A   1      45.196  35.411  30.785  1.00  0.00     0.010 A 
ATOM     79  C   UNL A   1      45.211  34.224  32.901  1.00  0.00     0.010 A 
ATOM     80  C   UNL A   1      45.779  36.520  31.404  1.00  0.00     0.020 A 
ATOM     81  C   UNL A   1      45.770  35.340  33.529  1.00  0.00     0.020 A 
ATOM     82  C   UNL A   1      46.064  36.476  32.773  1.00  0.00     0.054 A 
BRANCH  82  83
ATOM     83  S   UNL A   1      46.781  37.942  33.565  1.00  0.00     0.124 S 
ATOM     84  O   UNL A   1      47.015  38.821  32.422  1.00  0.00    -0.237 OA
ATOM     85  O   UNL A   1      45.722  38.366  34.477  1.00  0.00    -0.237 OA
ATOM     86  O   UNL A   1      47.986  37.429  34.214  1.00  0.00    -0.744 OA
ENDBRANCH  82  83
ENDBRANCH  56  77
ENDBRANCH  30  31
ENDBRANCH  23  25
ENDBRANCH  22  23
ENDBRANCH  21  22
ENDBRANCH   1  21
TORSDOF 18
ENDMDL
MODEL 3
REMARK VINA RESULT:      -8.9      4.205     11.932
REMARK SMILES COc1ccc(Cl)c(C[C@H]([NH3+])C(=O)OCCOC(=O)c2ccc(-c3c4nc(c(-c5ccc(S(=O)(=O)[O-])cc5)c5ccc([nH]5)c(-c5ccc(S(=O)(=O)[O-])cc5)c5nc(c(-c6ccc(S(=O)(=O)[O-])cc6)c6ccc3[nH]6)C=C5)C=C4)cc2)c1F
REMARK SMILES IDX 15 1 14 2 12 3 13 4 10 5 9 6 8 7 3 8 4 9 80 10 5 11 81 12
REMARK SMILES IDX 6 13 7 14 2 15 1 16 11 17 16 21 17 22 18 23 19 24 20 25
REMARK SMILES IDX 21 26 79 27 22 28 78 29 23 30 24 31 25 32 72 33 26 34 77 35
REMARK SMILES IDX 71 36 73 37 27 38 76 39 70 40 69 41 28 43 58 44 39 45 57 46
REMARK SMILES IDX 40 47 43 48 56 49 74 50 41 51 42 52 55 54 75 55 44 56 29 57
REMARK SMILES IDX 30 58 38 59 31 60 37 61 32 62 33 63 34 64 35 65 36 66 59 67
REMARK SMILES IDX 60 68 68 69 61 70 67 71 62 72 63 73 64 74 65 75 66 76 45 77
REMARK SMILES IDX 46 78 54 79 47 80 53 81 48 82 49 83 50 84 51 85 52 86
REMARK H PARENT 11 18 11 19 11 20 73 42 43 53
REMARK Flexibility Score: inf
ROOT
ATOM      1  C   UNL A   1      33.085  34.226  28.143  1.00  0.00     0.274 C 
ENDROOT
BRANCH   1   2
ATOM      2  O   UNL A   1      33.886  34.486  29.312  1.00  0.00    -0.458 OA
BRANCH   2   3
ATOM      3  C   UNL A   1      33.301  35.279  30.260  1.00  0.00     0.365 C 
ATOM      4  O   UNL A   1      32.469  36.140  30.008  1.00  0.00    -0.245 OA
BRANCH   3   5
ATOM      5  C   UNL A   1      33.793  34.955  31.684  1.00  0.00     0.296 C 
BRANCH   5   6
ATOM      6  C   UNL A   1      34.660  33.680  31.681  1.00  0.00     0.117 C 
BRANCH   6   7
ATOM      7  C   UNL A   1      36.067  33.927  32.202  1.00  0.00     0.017 A 
ATOM      8  C   UNL A   1      37.531  34.276  34.134  1.00  0.00     0.154 A 
ATOM      9  C   UNL A   1      38.603  34.559  33.296  1.00  0.00     0.051 A 
ATOM     10  C   UNL A   1      36.269  34.017  33.589  1.00  0.00     0.169 A 
ATOM     11  C   UNL A   1      38.434  34.456  31.917  1.00  0.00     0.025 A 
ATOM     12  F   UNL A   1      35.227  33.827  34.415  1.00  0.00    -0.203 F 
ATOM     13  C   UNL A   1      37.191  34.098  31.377  1.00  0.00     0.047 A 
ATOM     14  Cl  UNL A   1      37.146  33.789  29.681  1.00  0.00    -0.084 Cl
BRANCH   8  15
ATOM     15  O   UNL A   1      37.782  34.283  35.480  1.00  0.00    -0.494 OA
ATOM     16  C   UNL A   1      37.636  32.979  36.042  1.00  0.00     0.278 C 
ENDBRANCH   8  15
ENDBRANCH   6   7
ENDBRANCH   5   6
BRANCH   5  17
ATOM     17  N   UNL A   1      32.644  34.852  32.626  1.00  0.00    -0.346 N 
ATOM     18  H   UNL A   1      32.093  35.709  32.585  1.00  0.00     0.345 HD
ATOM     19  H   UNL A   1      32.994  34.718  33.575  1.00  0.00     0.345 HD
ATOM     20  H   UNL A   1      32.060  34.059  32.365  1.00  0.00     0.345 HD
ENDBRANCH   5  17
ENDBRANCH   3   5
ENDBRANCH   2   3
ENDBRANCH   1   2
BRANCH   1  21
ATOM     21  C   UNL A   1      33.216  32.782  27.635  1.00  0.00     0.275 C 
BRANCH  21  22
ATOM     22  O   UNL A   1      34.261  32.040  28.292  1.00  0.00    -0.458 OA
BRANCH  22  23
ATOM     23  C   UNL A   1      34.539  30.829  27.749  1.00  0.00     0.338 C 
ATOM     24  O   UNL A   1      33.907  30.267  26.867  1.00  0.00    -0.246 OA
BRANCH  23  25
ATOM     25  C   UNL A   1      35.837  30.330  28.245  1.00  0.00     0.060 A 
ATOM     26  C   UNL A   1      35.849  29.689  29.488  1.00  0.00     0.016 A 
ATOM     27  C   UNL A   1      37.030  30.531  27.548  1.00  0.00     0.016 A 
ATOM     28  C   UNL A   1      37.044  29.244  30.044  1.00  0.00     0.010 A 
ATOM     29  C   UNL A   1      38.237  30.094  28.114  1.00  0.00     0.010 A 
ATOM     30  C   UNL A   1      38.250  29.456  29.369  1.00  0.00    -0.014 A 
BRANCH  30  31
ATOM     31  C   UNL A   1      39.523  29.058  30.014  1.00  0.00     0.031 A 
ATOM     32  C   UNL A   1      39.974  29.760  31.264  1.00  0.00     0.074 A 
ATOM     33  C   UNL A   1      40.248  28.043  29.506  1.00  0.00     0.049 A 
ATOM     34  N   UNL A   1      41.084  29.610  31.938  1.00  0.00    -0.248 NA
ATOM     35  C   UNL A   1      39.053  30.759  31.831  1.00  0.00     0.031 C 
ATOM     36  C   UNL A   1      39.876  27.237  28.341  1.00  0.00     0.029 A 
ATOM     37  N   UNL A   1      41.449  27.514  29.908  1.00  0.00    -0.354 N 
ATOM     38  C   UNL A   1      41.010  30.513  32.993  1.00  0.00     0.074 A 
ATOM     39  C   UNL A   1      39.748  31.209  32.869  1.00  0.00     0.031 C 
ATOM     40  C   UNL A   1      40.831  26.317  28.123  1.00  0.00     0.029 A 
ATOM     41  C   UNL A   1      41.902  26.500  29.098  1.00  0.00     0.049 A 
ATOM     42  H   UNL A   1      41.938  27.830  30.701  1.00  0.00     0.167 HD
ATOM     43  C   UNL A   1      41.918  30.743  33.972  1.00  0.00     0.031 A 
ATOM     44  C   UNL A   1      43.066  25.820  29.120  1.00  0.00     0.031 A 
ATOM     45  C   UNL A   1      43.167  30.039  34.097  1.00  0.00     0.049 A 
ATOM     46  C   UNL A   1      44.090  26.153  30.172  1.00  0.00     0.074 A 
ATOM     47  C   UNL A   1      44.145  30.190  35.066  1.00  0.00     0.029 A 
ATOM     48  N   UNL A   1      43.612  29.054  33.228  1.00  0.00    -0.354 N 
ATOM     49  N   UNL A   1      44.007  27.012  31.161  1.00  0.00    -0.248 NA
ATOM     50  C   UNL A   1      45.368  25.429  30.108  1.00  0.00     0.031 C 
ATOM     51  C   UNL A   1      45.205  29.334  34.752  1.00  0.00     0.029 A 
ATOM     52  C   UNL A   1      44.864  28.611  33.620  1.00  0.00     0.049 A 
ATOM     53  H   UNL A   1      43.113  28.721  32.449  1.00  0.00     0.167 HD
ATOM     54  C   UNL A   1      45.213  26.913  31.849  1.00  0.00     0.074 A 
ATOM     55  C   UNL A   1      45.999  25.902  31.174  1.00  0.00     0.031 C 
ATOM     56  C   UNL A   1      45.632  27.600  32.940  1.00  0.00     0.031 A 
BRANCH  43  57
ATOM     57  C   UNL A   1      41.622  31.834  34.963  1.00  0.00    -0.014 A 
ATOM     58  C   UNL A   1      41.162  31.543  36.259  1.00  0.00     0.010 A 
ATOM     59  C   UNL A   1      41.880  33.172  34.611  1.00  0.00     0.010 A 
ATOM     60  C   UNL A   1      40.948  32.575  37.179  1.00  0.00     0.020 A 
ATOM     61  C   UNL A   1      41.688  34.202  35.534  1.00  0.00     0.020 A 
ATOM     62  C   UNL A   1      41.213  33.898  36.810  1.00  0.00     0.054 A 
BRANCH  62  63
ATOM     63  S   UNL A   1      40.975  35.211  38.039  1.00  0.00     0.124 S 
ATOM     64  O   UNL A   1      39.867  34.685  38.832  1.00  0.00    -0.237 OA
ATOM     65  O   UNL A   1      42.268  35.255  38.717  1.00  0.00    -0.237 OA
ATOM     66  O   UNL A   1      40.658  36.389  37.232  1.00  0.00    -0.744 OA
ENDBRANCH  62  63
ENDBRANCH  43  57
BRANCH  44  67
ATOM     67  C   UNL A   1      43.356  24.792  28.083  1.00  0.00    -0.014 A 
ATOM     68  C   UNL A   1      42.975  23.452  28.270  1.00  0.00     0.010 A 
ATOM     69  C   UNL A   1      44.051  25.147  26.911  1.00  0.00     0.010 A 
ATOM     70  C   UNL A   1      43.309  22.481  27.322  1.00  0.00     0.020 A 
ATOM     71  C   UNL A   1      44.360  24.185  25.946  1.00  0.00     0.020 A 
ATOM     72  C   UNL A   1      44.003  22.854  26.166  1.00  0.00     0.054 A 
BRANCH  72  73
ATOM     73  S   UNL A   1      44.408  21.584  24.935  1.00  0.00     0.124 S 
ATOM     74  O   UNL A   1      44.234  22.312  23.682  1.00  0.00    -0.237 OA
ATOM     75  O   UNL A   1      45.783  21.234  25.279  1.00  0.00    -0.237 OA
ATOM     76  O   UNL A   1      43.423  20.535  25.193  1.00  0.00    -0.744 OA
ENDBRANCH  72  73
ENDBRANCH  44  67
BRANCH  56  77
ATOM     77  C   UNL A   1      46.986  27.254  33.497  1.00  0.00    -0.014 A 
ATOM     78  C   UNL A   1      48.137  27.952  33.096  1.00  0.00     0.010 A 
ATOM     79  C   UNL A   1      47.097  26.247  34.473  1.00  0.00     0.010 A 
ATOM     80  C   UNL A   1      49.384  27.629  33.640  1.00  0.00     0.020 A 
ATOM     81  C   UNL A   1      48.337  25.938  35.038  1.00  0.00     0.020 A 
ATOM     82  C   UNL A   1      49.475  26.622  34.607  1.00  0.00     0.054 A 
BRANCH  82  83
ATOM     83  S   UNL A   1      51.096  26.248  35.330  1.00  0.00     0.124 S 
ATOM     84  O   UNL A   1      51.863  25.834  34.158  1.00  0.00    -0.237 OA
ATOM     85  O   UNL A   1      51.489  27.526  35.918  1.00  0.00    -0.237 OA
ATOM     86  O   UNL A   1      50.808  25.188  36.294  1.00  0.00    -0.744 OA
ENDBRANCH  82  83
ENDBRANCH  56  77
ENDBRANCH  30  31
ENDBRANCH  23  25
ENDBRANCH  22  23
ENDBRANCH  21  22
ENDBRANCH   1  21
TORSDOF 18
ENDMDL
