MODEL 1
REMARK VINA RESULT:     -11.0      0.000      0.000
REMARK SMILES O=C(OCCOC(=O)c1ccc(-n2cnc3ccccc32)nc1)c1ccc(-c2c3nc(c(-c4ccc(S(=O)(=O)[O-])cc4)c4ccc([nH]4)c(-c4ccc(S(=O)(=O)[O-])cc4)c4nc(c(-c5ccc(S(=O)(=O)[O-])cc5)c5ccc2[nH]5)C=C4)C=C3)cc1
REMARK SMILES IDX 4 1 3 2 2 3 1 4 24 5 25 6 83 7 26 8 82 9 27 10 28 11 29 12
REMARK SMILES IDX 76 13 30 14 81 15 75 16 77 17 31 18 80 19 74 20 73 21 32 23
REMARK SMILES IDX 62 24 43 25 61 26 44 27 47 28 60 29 78 30 45 31 46 32 59 34
REMARK SMILES IDX 79 35 48 36 33 37 34 38 42 39 35 40 41 41 36 42 37 43 38 44
REMARK SMILES IDX 39 45 40 46 63 47 64 48 72 49 65 50 71 51 66 52 67 53 68 54
REMARK SMILES IDX 69 55 70 56 49 57 50 58 58 59 51 60 57 61 52 62 53 63 54 64
REMARK SMILES IDX 55 65 56 66 5 67 6 68 7 69 8 70 9 71 10 72 23 73 11 74 22 75
REMARK SMILES IDX 12 76 13 77 14 78 21 79 15 80 16 81 20 82 17 83 19 84 18 85
REMARK H PARENT 77 22 47 33
REMARK Flexibility Score: inf
ROOT
ATOM      1  C   UNL A   1      33.444  35.831  28.437  1.00  0.00     0.275 C 
ENDROOT
BRANCH   1   2
ATOM      2  O   UNL A   1      32.612  34.641  28.517  1.00  0.00    -0.458 OA
BRANCH   2   3
ATOM      3  C   UNL A   1      32.831  33.430  27.927  1.00  0.00     0.338 C 
ATOM      4  O   UNL A   1      32.049  32.971  27.105  1.00  0.00    -0.246 OA
BRANCH   3   5
ATOM      5  C   UNL A   1      33.942  32.601  28.440  1.00  0.00     0.060 A 
ATOM      6  C   UNL A   1      34.308  32.799  29.770  1.00  0.00     0.016 A 
ATOM      7  C   UNL A   1      34.766  31.874  27.582  1.00  0.00     0.016 A 
ATOM      8  C   UNL A   1      35.639  32.625  30.107  1.00  0.00     0.010 A 
ATOM      9  C   UNL A   1      36.099  31.692  27.927  1.00  0.00     0.010 A 
ATOM     10  C   UNL A   1      36.563  32.211  29.133  1.00  0.00    -0.014 A 
BRANCH  10  11
ATOM     11  C   UNL A   1      37.979  32.136  29.513  1.00  0.00     0.031 A 
ATOM     12  C   UNL A   1      38.494  30.753  29.366  1.00  0.00     0.074 A 
ATOM     13  C   UNL A   1      38.777  33.175  29.848  1.00  0.00     0.049 A 
ATOM     14  N   UNL A   1      38.939  29.967  30.291  1.00  0.00    -0.248 NA
ATOM     15  C   UNL A   1      38.245  30.099  28.068  1.00  0.00     0.031 C 
ATOM     16  C   UNL A   1      38.456  34.600  29.853  1.00  0.00     0.029 A 
ATOM     17  N   UNL A   1      40.111  33.185  30.151  1.00  0.00    -0.354 N 
ATOM     18  C   UNL A   1      39.218  28.777  29.630  1.00  0.00     0.074 A 
ATOM     19  C   UNL A   1      38.537  28.836  28.362  1.00  0.00     0.031 C 
ATOM     20  C   UNL A   1      39.595  35.328  29.852  1.00  0.00     0.029 A 
ATOM     21  C   UNL A   1      40.724  34.426  29.969  1.00  0.00     0.049 A 
ATOM     22  H   UNL A   1      40.595  32.389  30.468  1.00  0.00     0.167 HD
ATOM     23  C   UNL A   1      40.230  27.954  30.010  1.00  0.00     0.031 A 
ATOM     24  C   UNL A   1      42.054  34.686  29.832  1.00  0.00     0.031 A 
ATOM     25  C   UNL A   1      40.643  28.179  31.364  1.00  0.00     0.049 A 
ATOM     26  C   UNL A   1      42.781  33.518  30.383  1.00  0.00     0.074 A 
ATOM     27  C   UNL A   1      40.003  28.100  32.585  1.00  0.00     0.029 A 
ATOM     28  N   UNL A   1      41.770  28.937  31.570  1.00  0.00    -0.354 N 
ATOM     29  N   UNL A   1      42.774  33.197  31.646  1.00  0.00    -0.248 NA
ATOM     30  C   UNL A   1      43.119  32.446  29.460  1.00  0.00     0.031 C 
ATOM     31  C   UNL A   1      40.516  29.189  33.341  1.00  0.00     0.029 A 
ATOM     32  C   UNL A   1      41.497  29.827  32.580  1.00  0.00     0.049 A 
ATOM     33  H   UNL A   1      42.621  28.856  31.081  1.00  0.00     0.167 HD
ATOM     34  C   UNL A   1      42.666  31.815  31.651  1.00  0.00     0.074 A 
ATOM     35  C   UNL A   1      42.956  31.404  30.278  1.00  0.00     0.031 C 
ATOM     36  C   UNL A   1      42.074  31.153  32.687  1.00  0.00     0.031 A 
BRANCH  23  37
ATOM     37  C   UNL A   1      41.045  27.214  28.986  1.00  0.00    -0.014 A 
ATOM     38  C   UNL A   1      42.163  27.806  28.353  1.00  0.00     0.010 A 
ATOM     39  C   UNL A   1      40.840  25.845  28.767  1.00  0.00     0.010 A 
ATOM     40  C   UNL A   1      42.972  27.113  27.462  1.00  0.00     0.020 A 
ATOM     41  C   UNL A   1      41.687  25.118  27.916  1.00  0.00     0.020 A 
ATOM     42  C   UNL A   1      42.728  25.766  27.249  1.00  0.00     0.054 A 
BRANCH  42  43
ATOM     43  S   UNL A   1      43.841  24.888  26.130  1.00  0.00     0.124 S 
ATOM     44  O   UNL A   1      43.969  25.841  25.029  1.00  0.00    -0.237 OA
ATOM     45  O   UNL A   1      45.035  24.712  26.952  1.00  0.00    -0.237 OA
ATOM     46  O   UNL A   1      43.112  23.662  25.817  1.00  0.00    -0.744 OA
ENDBRANCH  42  43
ENDBRANCH  23  37
BRANCH  24  47
ATOM     47  C   UNL A   1      42.696  35.602  28.839  1.00  0.00    -0.014 A 
ATOM     48  C   UNL A   1      43.930  36.214  29.139  1.00  0.00     0.010 A 
ATOM     49  C   UNL A   1      41.956  36.131  27.758  1.00  0.00     0.010 A 
ATOM     50  C   UNL A   1      44.359  37.365  28.467  1.00  0.00     0.020 A 
ATOM     51  C   UNL A   1      42.382  37.290  27.078  1.00  0.00     0.020 A 
ATOM     52  C   UNL A   1      43.561  37.923  27.471  1.00  0.00     0.054 A 
BRANCH  52  53
ATOM     53  S   UNL A   1      44.045  39.539  26.794  1.00  0.00     0.124 S 
ATOM     54  O   UNL A   1      45.209  39.189  25.983  1.00  0.00    -0.237 OA
ATOM     55  O   UNL A   1      42.857  39.934  26.042  1.00  0.00    -0.237 OA
ATOM     56  O   UNL A   1      44.327  40.344  27.978  1.00  0.00    -0.744 OA
ENDBRANCH  52  53
ENDBRANCH  24  47
BRANCH  36  57
ATOM     57  C   UNL A   1      41.768  31.904  33.969  1.00  0.00    -0.014 A 
ATOM     58  C   UNL A   1      40.886  32.996  33.872  1.00  0.00     0.010 A 
ATOM     59  C   UNL A   1      42.464  31.715  35.181  1.00  0.00     0.010 A 
ATOM     60  C   UNL A   1      40.742  33.905  34.919  1.00  0.00     0.020 A 
ATOM     61  C   UNL A   1      42.302  32.612  36.252  1.00  0.00     0.020 A 
ATOM     62  C   UNL A   1      41.463  33.720  36.099  1.00  0.00     0.054 A 
BRANCH  62  63
ATOM     63  S   UNL A   1      41.306  34.978  37.397  1.00  0.00     0.124 S 
ATOM     64  O   UNL A   1      42.584  35.680  37.298  1.00  0.00    -0.237 OA
ATOM     65  O   UNL A   1      40.139  35.743  36.961  1.00  0.00    -0.237 OA
ATOM     66  O   UNL A   1      41.116  34.204  38.620  1.00  0.00    -0.744 OA
ENDBRANCH  62  63
ENDBRANCH  36  57
ENDBRANCH  10  11
ENDBRANCH   3   5
ENDBRANCH   2   3
ENDBRANCH   1   2
BRANCH   1  67
ATOM     67  C   UNL A   1      33.298  36.855  29.571  1.00  0.00     0.275 C 
BRANCH  67  68
ATOM     68  O   UNL A   1      32.599  36.329  30.698  1.00  0.00    -0.458 OA
BRANCH  68  69
ATOM     69  C   UNL A   1      32.955  36.754  31.923  1.00  0.00     0.339 C 
ATOM     70  O   UNL A   1      32.599  37.776  32.492  1.00  0.00    -0.246 OA
BRANCH  69  71
ATOM     71  C   UNL A   1      33.792  35.716  32.526  1.00  0.00     0.078 A 
ATOM     72  C   UNL A   1      33.281  34.467  32.865  1.00  0.00     0.021 A 
ATOM     73  C   UNL A   1      35.119  35.998  32.823  1.00  0.00     0.129 A 
ATOM     74  C   UNL A   1      34.141  33.525  33.425  1.00  0.00     0.048 A 
ATOM     75  N   UNL A   1      35.972  35.109  33.398  1.00  0.00    -0.238 NA
ATOM     76  C   UNL A   1      35.484  33.860  33.618  1.00  0.00     0.138 A 
BRANCH  76  77
ATOM     77  N   UNL A   1      36.411  32.834  33.932  1.00  0.00    -0.283 N 
ATOM     78  C   UNL A   1      36.649  31.697  33.196  1.00  0.00     0.206 A 
ATOM     79  C   UNL A   1      37.128  32.705  35.111  1.00  0.00     0.074 A 
ATOM     80  N   UNL A   1      37.546  30.912  33.758  1.00  0.00    -0.236 NA
ATOM     81  C   UNL A   1      37.828  31.508  34.963  1.00  0.00     0.089 A 
ATOM     82  C   UNL A   1      37.157  33.445  36.303  1.00  0.00     0.029 A 
ATOM     83  C   UNL A   1      38.646  31.060  36.015  1.00  0.00     0.030 A 
ATOM     84  C   UNL A   1      37.957  32.974  37.344  1.00  0.00     0.002 A 
ATOM     85  C   UNL A   1      38.699  31.804  37.202  1.00  0.00     0.002 A 
ENDBRANCH  76  77
ENDBRANCH  69  71
ENDBRANCH  68  69
ENDBRANCH  67  68
ENDBRANCH   1  67
TORSDOF 15
ENDMDL
MODEL 2
REMARK VINA RESULT:     -11.0      4.988     11.604
REMARK SMILES O=C(OCCOC(=O)c1ccc(-n2cnc3ccccc32)nc1)c1ccc(-c2c3nc(c(-c4ccc(S(=O)(=O)[O-])cc4)c4ccc([nH]4)c(-c4ccc(S(=O)(=O)[O-])cc4)c4nc(c(-c5ccc(S(=O)(=O)[O-])cc5)c5ccc2[nH]5)C=C4)C=C3)cc1
REMARK SMILES IDX 4 1 3 2 2 3 1 4 24 5 25 6 83 7 26 8 82 9 27 10 28 11 29 12
REMARK SMILES IDX 76 13 30 14 81 15 75 16 77 17 31 18 80 19 74 20 73 21 32 23
REMARK SMILES IDX 62 24 43 25 61 26 44 27 47 28 60 29 78 30 45 31 46 32 59 34
REMARK SMILES IDX 79 35 48 36 33 37 34 38 42 39 35 40 41 41 36 42 37 43 38 44
REMARK SMILES IDX 39 45 40 46 63 47 64 48 72 49 65 50 71 51 66 52 67 53 68 54
REMARK SMILES IDX 69 55 70 56 49 57 50 58 58 59 51 60 57 61 52 62 53 63 54 64
REMARK SMILES IDX 55 65 56 66 5 67 6 68 7 69 8 70 9 71 10 72 23 73 11 74 22 75
REMARK SMILES IDX 12 76 13 77 14 78 21 79 15 80 16 81 20 82 17 83 19 84 18 85
REMARK H PARENT 77 22 47 33
REMARK Flexibility Score: inf
ROOT
ATOM      1  C   UNL A   1      45.405  19.973  24.292  1.00  0.00     0.275 C 
ENDROOT
BRANCH   1   2
ATOM      2  O   UNL A   1      44.406  21.016  24.128  1.00  0.00    -0.458 OA
BRANCH   2   3
ATOM      3  C   UNL A   1      44.581  22.364  24.248  1.00  0.00     0.338 C 
ATOM      4  O   UNL A   1      45.309  22.983  23.482  1.00  0.00    -0.246 OA
BRANCH   3   5
ATOM      5  C   UNL A   1      44.013  23.034  25.437  1.00  0.00     0.060 A 
ATOM      6  C   UNL A   1      42.969  23.928  25.213  1.00  0.00     0.016 A 
ATOM      7  C   UNL A   1      44.660  22.999  26.672  1.00  0.00     0.016 A 
ATOM      8  C   UNL A   1      42.861  25.020  26.057  1.00  0.00     0.010 A 
ATOM      9  C   UNL A   1      44.542  24.091  27.522  1.00  0.00     0.010 A 
ATOM     10  C   UNL A   1      43.754  25.171  27.131  1.00  0.00    -0.014 A 
BRANCH  10  11
ATOM     11  C   UNL A   1      43.663  26.393  27.938  1.00  0.00     0.031 A 
ATOM     12  C   UNL A   1      44.906  27.196  27.825  1.00  0.00     0.074 A 
ATOM     13  C   UNL A   1      42.579  26.829  28.617  1.00  0.00     0.049 A 
ATOM     14  N   UNL A   1      45.749  27.493  28.759  1.00  0.00    -0.248 NA
ATOM     15  C   UNL A   1      45.374  27.483  26.456  1.00  0.00     0.031 C 
ATOM     16  C   UNL A   1      41.241  26.242  28.663  1.00  0.00     0.029 A 
ATOM     17  N   UNL A   1      42.405  27.981  29.334  1.00  0.00    -0.354 N 
ATOM     18  C   UNL A   1      46.758  28.189  28.106  1.00  0.00     0.074 A 
ATOM     19  C   UNL A   1      46.606  27.921  26.699  1.00  0.00     0.031 C 
ATOM     20  C   UNL A   1      40.351  27.159  29.104  1.00  0.00     0.029 A 
ATOM     21  C   UNL A   1      41.070  28.358  29.487  1.00  0.00     0.049 A 
ATOM     22  H   UNL A   1      43.155  28.498  29.707  1.00  0.00     0.167 HD
ATOM     23  C   UNL A   1      47.460  29.185  28.706  1.00  0.00     0.031 A 
ATOM     24  C   UNL A   1      40.584  29.588  29.814  1.00  0.00     0.031 A 
ATOM     25  C   UNL A   1      47.392  29.121  30.136  1.00  0.00     0.049 A 
ATOM     26  C   UNL A   1      41.694  30.336  30.448  1.00  0.00     0.074 A 
ATOM     27  C   UNL A   1      47.766  28.175  31.071  1.00  0.00     0.029 A 
ATOM     28  N   UNL A   1      46.508  29.959  30.772  1.00  0.00    -0.354 N 
ATOM     29  N   UNL A   1      42.210  30.017  31.601  1.00  0.00    -0.248 NA
ATOM     30  C   UNL A   1      42.538  31.143  29.580  1.00  0.00     0.031 C 
ATOM     31  C   UNL A   1      46.744  28.209  32.059  1.00  0.00     0.029 A 
ATOM     32  C   UNL A   1      45.846  29.224  31.725  1.00  0.00     0.049 A 
ATOM     33  H   UNL A   1      46.373  30.915  30.579  1.00  0.00     0.167 HD
ATOM     34  C   UNL A   1      43.575  30.193  31.431  1.00  0.00     0.074 A 
ATOM     35  C   UNL A   1      43.709  30.956  30.191  1.00  0.00     0.031 C 
ATOM     36  C   UNL A   1      44.479  29.464  32.147  1.00  0.00     0.031 A 
BRANCH  23  37
ATOM     37  C   UNL A   1      47.888  30.401  27.932  1.00  0.00    -0.014 A 
ATOM     38  C   UNL A   1      46.948  31.278  27.341  1.00  0.00     0.010 A 
ATOM     39  C   UNL A   1      49.229  30.809  27.932  1.00  0.00     0.010 A 
ATOM     40  C   UNL A   1      47.323  32.444  26.686  1.00  0.00     0.020 A 
ATOM     41  C   UNL A   1      49.613  32.017  27.327  1.00  0.00     0.020 A 
ATOM     42  C   UNL A   1      48.659  32.809  26.685  1.00  0.00     0.054 A 
BRANCH  42  43
ATOM     43  S   UNL A   1      49.095  34.364  25.876  1.00  0.00     0.124 S 
ATOM     44  O   UNL A   1      50.232  33.962  25.051  1.00  0.00    -0.237 OA
ATOM     45  O   UNL A   1      47.872  34.689  25.147  1.00  0.00    -0.237 OA
ATOM     46  O   UNL A   1      49.411  35.251  26.991  1.00  0.00    -0.744 OA
ENDBRANCH  42  43
ENDBRANCH  23  37
BRANCH  24  47
ATOM     47  C   UNL A   1      39.431  30.299  29.180  1.00  0.00    -0.014 A 
ATOM     48  C   UNL A   1      38.926  31.480  29.762  1.00  0.00     0.010 A 
ATOM     49  C   UNL A   1      38.624  29.655  28.216  1.00  0.00     0.010 A 
ATOM     50  C   UNL A   1      37.635  31.943  29.477  1.00  0.00     0.020 A 
ATOM     51  C   UNL A   1      37.324  30.115  27.926  1.00  0.00     0.020 A 
ATOM     52  C   UNL A   1      36.823  31.232  28.596  1.00  0.00     0.054 A 
BRANCH  52  53
ATOM     53  S   UNL A   1      35.084  31.736  28.440  1.00  0.00     0.124 S 
ATOM     54  O   UNL A   1      34.728  32.022  29.827  1.00  0.00    -0.237 OA
ATOM     55  O   UNL A   1      35.171  32.902  27.564  1.00  0.00    -0.237 OA
ATOM     56  O   UNL A   1      34.434  30.568  27.854  1.00  0.00    -0.744 OA
ENDBRANCH  52  53
ENDBRANCH  24  47
BRANCH  36  57
ATOM     57  C   UNL A   1      44.001  28.644  33.331  1.00  0.00    -0.014 A 
ATOM     58  C   UNL A   1      43.345  27.434  33.043  1.00  0.00     0.010 A 
ATOM     59  C   UNL A   1      43.981  29.114  34.661  1.00  0.00     0.010 A 
ATOM     60  C   UNL A   1      42.641  26.740  34.028  1.00  0.00     0.020 A 
ATOM     61  C   UNL A   1      43.298  28.404  35.665  1.00  0.00     0.020 A 
ATOM     62  C   UNL A   1      42.606  27.237  35.331  1.00  0.00     0.054 A 
BRANCH  62  63
ATOM     63  S   UNL A   1      41.606  26.344  36.553  1.00  0.00     0.124 S 
ATOM     64  O   UNL A   1      40.881  25.390  35.715  1.00  0.00    -0.237 OA
ATOM     65  O   UNL A   1      42.618  25.759  37.430  1.00  0.00    -0.237 OA
ATOM     66  O   UNL A   1      40.782  27.383  37.165  1.00  0.00    -0.744 OA
ENDBRANCH  62  63
ENDBRANCH  36  57
ENDBRANCH  10  11
ENDBRANCH   3   5
ENDBRANCH   2   3
ENDBRANCH   1   2
BRANCH   1  67
ATOM     67  C   UNL A   1      45.099  18.878  25.322  1.00  0.00     0.275 C 
BRANCH  67  68
ATOM     68  O   UNL A   1      43.751  18.418  25.250  1.00  0.00    -0.458 OA
BRANCH  68  69
ATOM     69  C   UNL A   1      43.076  18.240  26.400  1.00  0.00     0.339 C 
ATOM     70  O   UNL A   1      43.286  17.405  27.268  1.00  0.00    -0.246 OA
BRANCH  69  71
ATOM     71  C   UNL A   1      42.075  19.303  26.494  1.00  0.00     0.078 A 
ATOM     72  C   UNL A   1      42.269  20.424  27.294  1.00  0.00     0.021 A 
ATOM     73  C   UNL A   1      40.872  19.168  25.813  1.00  0.00     0.129 A 
ATOM     74  C   UNL A   1      41.275  21.401  27.326  1.00  0.00     0.048 A 
ATOM     75  N   UNL A   1      39.873  20.091  25.850  1.00  0.00    -0.238 NA
ATOM     76  C   UNL A   1      40.129  21.228  26.547  1.00  0.00     0.138 A 
BRANCH  76  77
ATOM     77  N   UNL A   1      39.248  22.325  26.366  1.00  0.00    -0.283 N 
ATOM     78  C   UNL A   1      39.368  23.570  26.939  1.00  0.00     0.206 A 
ATOM     79  C   UNL A   1      38.025  22.301  25.715  1.00  0.00     0.074 A 
ATOM     80  N   UNL A   1      38.377  24.374  26.609  1.00  0.00    -0.236 NA
ATOM     81  C   UNL A   1      37.519  23.590  25.876  1.00  0.00     0.089 A 
ATOM     82  C   UNL A   1      37.283  21.278  25.102  1.00  0.00     0.029 A 
ATOM     83  C   UNL A   1      36.254  23.899  25.348  1.00  0.00     0.030 A 
ATOM     84  C   UNL A   1      36.021  21.598  24.603  1.00  0.00     0.002 A 
ATOM     85  C   UNL A   1      35.514  22.891  24.714  1.00  0.00     0.002 A 
ENDBRANCH  76  77
ENDBRANCH  69  71
ENDBRANCH  68  69
ENDBRANCH  67  68
ENDBRANCH   1  67
TORSDOF 15
ENDMDL
MODEL 3
REMARK VINA RESULT:     -10.7      3.198      8.044
REMARK SMILES O=C(OCCOC(=O)c1ccc(-n2cnc3ccccc32)nc1)c1ccc(-c2c3nc(c(-c4ccc(S(=O)(=O)[O-])cc4)c4ccc([nH]4)c(-c4ccc(S(=O)(=O)[O-])cc4)c4nc(c(-c5ccc(S(=O)(=O)[O-])cc5)c5ccc2[nH]5)C=C4)C=C3)cc1
REMARK SMILES IDX 4 1 3 2 2 3 1 4 24 5 25 6 83 7 26 8 82 9 27 10 28 11 29 12
REMARK SMILES IDX 76 13 30 14 81 15 75 16 77 17 31 18 80 19 74 20 73 21 32 23
REMARK SMILES IDX 62 24 43 25 61 26 44 27 47 28 60 29 78 30 45 31 46 32 59 34
REMARK SMILES IDX 79 35 48 36 33 37 34 38 42 39 35 40 41 41 36 42 37 43 38 44
REMARK SMILES IDX 39 45 40 46 63 47 64 48 72 49 65 50 71 51 66 52 67 53 68 54
REMARK SMILES IDX 69 55 70 56 49 57 50 58 58 59 51 60 57 61 52 62 53 63 54 64
REMARK SMILES IDX 55 65 56 66 5 67 6 68 7 69 8 70 9 71 10 72 23 73 11 74 22 75
REMARK SMILES IDX 12 76 13 77 14 78 21 79 15 80 16 81 20 82 17 83 19 84 18 85
REMARK H PARENT 77 22 47 33
REMARK Flexibility Score: inf
ROOT
ATOM      1  C   UNL A   1      34.432  34.750  28.127  1.00  0.00     0.275 C 
ENDROOT
BRANCH   1   2
ATOM      2  O   UNL A   1      34.965  33.482  27.655  1.00  0.00    -0.458 OA
BRANCH   2   3
ATOM      3  C   UNL A   1      34.677  32.232  28.119  1.00  0.00     0.338 C 
ATOM      4  O   UNL A   1      33.549  31.764  28.032  1.00  0.00    -0.246 OA
BRANCH   3   5
ATOM      5  C   UNL A   1      35.717  31.524  28.896  1.00  0.00     0.060 A 
ATOM      6  C   UNL A   1      36.731  32.308  29.441  1.00  0.00     0.016 A 
ATOM      7  C   UNL A   1      35.844  30.136  28.850  1.00  0.00     0.016 A 
ATOM      8  C   UNL A   1      37.991  31.746  29.555  1.00  0.00     0.010 A 
ATOM      9  C   UNL A   1      37.107  29.575  28.975  1.00  0.00     0.010 A 
ATOM     10  C   UNL A   1      38.203  30.410  29.176  1.00  0.00    -0.014 A 
BRANCH  10  11
ATOM     11  C   UNL A   1      39.574  29.889  29.221  1.00  0.00     0.031 A 
ATOM     12  C   UNL A   1      40.089  29.873  30.612  1.00  0.00     0.074 A 
ATOM     13  C   UNL A   1      40.274  29.376  28.184  1.00  0.00     0.049 A 
ATOM     14  N   UNL A   1      41.085  30.539  31.100  1.00  0.00    -0.248 NA
ATOM     15  C   UNL A   1      39.229  29.224  31.618  1.00  0.00     0.031 C 
ATOM     16  C   UNL A   1      39.828  29.157  26.809  1.00  0.00     0.029 A 
ATOM     17  N   UNL A   1      41.524  28.820  28.167  1.00  0.00    -0.354 N 
ATOM     18  C   UNL A   1      41.088  30.217  32.451  1.00  0.00     0.074 A 
ATOM     19  C   UNL A   1      39.801  29.639  32.744  1.00  0.00     0.031 C 
ATOM     20  C   UNL A   1      40.650  28.279  26.193  1.00  0.00     0.029 A 
ATOM     21  C   UNL A   1      41.750  27.965  27.086  1.00  0.00     0.049 A 
ATOM     22  H   UNL A   1      42.202  29.005  28.855  1.00  0.00     0.167 HD
ATOM     23  C   UNL A   1      42.232  30.148  33.179  1.00  0.00     0.031 A 
ATOM     24  C   UNL A   1      42.710  27.007  26.968  1.00  0.00     0.031 A 
ATOM     25  C   UNL A   1      43.314  30.866  32.573  1.00  0.00     0.049 A 
ATOM     26  C   UNL A   1      43.768  27.333  27.953  1.00  0.00     0.074 A 
ATOM     27  C   UNL A   1      43.510  32.189  32.227  1.00  0.00     0.029 A 
ATOM     28  N   UNL A   1      44.242  30.144  31.864  1.00  0.00    -0.354 N 
ATOM     29  N   UNL A   1      44.531  28.386  27.865  1.00  0.00    -0.248 NA
ATOM     30  C   UNL A   1      43.653  26.745  29.278  1.00  0.00     0.031 C 
ATOM     31  C   UNL A   1      44.215  32.147  30.993  1.00  0.00     0.029 A 
ATOM     32  C   UNL A   1      44.485  30.812  30.689  1.00  0.00     0.049 A 
ATOM     33  H   UNL A   1      44.659  29.298  32.147  1.00  0.00     0.167 HD
ATOM     34  C   UNL A   1      44.630  28.851  29.167  1.00  0.00     0.074 A 
ATOM     35  C   UNL A   1      44.130  27.760  30.002  1.00  0.00     0.031 C 
ATOM     36  C   UNL A   1      44.837  30.173  29.435  1.00  0.00     0.031 A 
BRANCH  23  37
ATOM     37  C   UNL A   1      42.401  29.108  34.251  1.00  0.00    -0.014 A 
ATOM     38  C   UNL A   1      42.344  27.725  33.964  1.00  0.00     0.010 A 
ATOM     39  C   UNL A   1      42.811  29.475  35.541  1.00  0.00     0.010 A 
ATOM     40  C   UNL A   1      42.572  26.751  34.928  1.00  0.00     0.020 A 
ATOM     41  C   UNL A   1      43.103  28.500  36.508  1.00  0.00     0.020 A 
ATOM     42  C   UNL A   1      42.953  27.146  36.200  1.00  0.00     0.054 A 
BRANCH  42  43
ATOM     43  S   UNL A   1      43.299  25.846  37.405  1.00  0.00     0.124 S 
ATOM     44  O   UNL A   1      44.550  25.292  36.894  1.00  0.00    -0.237 OA
ATOM     45  O   UNL A   1      43.405  26.598  38.652  1.00  0.00    -0.237 OA
ATOM     46  O   UNL A   1      42.135  24.969  37.303  1.00  0.00    -0.744 OA
ENDBRANCH  42  43
ENDBRANCH  23  37
BRANCH  24  47
ATOM     47  C   UNL A   1      42.535  25.615  26.450  1.00  0.00    -0.014 A 
ATOM     48  C   UNL A   1      41.472  24.816  26.919  1.00  0.00     0.010 A 
ATOM     49  C   UNL A   1      43.582  24.962  25.762  1.00  0.00     0.010 A 
ATOM     50  C   UNL A   1      41.499  23.420  26.804  1.00  0.00     0.020 A 
ATOM     51  C   UNL A   1      43.615  23.558  25.644  1.00  0.00     0.020 A 
ATOM     52  C   UNL A   1      42.592  22.795  26.208  1.00  0.00     0.054 A 
BRANCH  52  53
ATOM     53  S   UNL A   1      42.690  20.983  26.292  1.00  0.00     0.124 S 
ATOM     54  O   UNL A   1      43.987  20.722  25.673  1.00  0.00    -0.237 OA
ATOM     55  O   UNL A   1      42.623  20.730  27.729  1.00  0.00    -0.237 OA
ATOM     56  O   UNL A   1      41.530  20.534  25.528  1.00  0.00    -0.744 OA
ENDBRANCH  52  53
ENDBRANCH  24  47
BRANCH  36  57
ATOM     57  C   UNL A   1      45.226  31.108  28.305  1.00  0.00    -0.014 A 
ATOM     58  C   UNL A   1      46.583  31.470  28.219  1.00  0.00     0.010 A 
ATOM     59  C   UNL A   1      44.300  31.791  27.490  1.00  0.00     0.010 A 
ATOM     60  C   UNL A   1      47.002  32.515  27.394  1.00  0.00     0.020 A 
ATOM     61  C   UNL A   1      44.720  32.826  26.635  1.00  0.00     0.020 A 
ATOM     62  C   UNL A   1      46.066  33.200  26.619  1.00  0.00     0.054 A 
BRANCH  62  63
ATOM     63  S   UNL A   1      46.649  34.606  25.631  1.00  0.00     0.124 S 
ATOM     64  O   UNL A   1      45.794  34.524  24.448  1.00  0.00    -0.237 OA
ATOM     65  O   UNL A   1      46.389  35.745  26.510  1.00  0.00    -0.237 OA
ATOM     66  O   UNL A   1      48.061  34.314  25.398  1.00  0.00    -0.744 OA
ENDBRANCH  62  63
ENDBRANCH  36  57
ENDBRANCH  10  11
ENDBRANCH   3   5
ENDBRANCH   2   3
ENDBRANCH   1   2
BRANCH   1  67
ATOM     67  C   UNL A   1      32.925  34.803  28.414  1.00  0.00     0.275 C 
BRANCH  67  68
ATOM     68  O   UNL A   1      32.628  34.692  29.805  1.00  0.00    -0.458 OA
BRANCH  68  69
ATOM     69  C   UNL A   1      32.984  35.705  30.615  1.00  0.00     0.339 C 
ATOM     70  O   UNL A   1      32.575  36.857  30.595  1.00  0.00    -0.246 OA
BRANCH  69  71
ATOM     71  C   UNL A   1      33.900  35.166  31.621  1.00  0.00     0.078 A 
ATOM     72  C   UNL A   1      34.238  33.817  31.657  1.00  0.00     0.021 A 
ATOM     73  C   UNL A   1      34.404  36.008  32.604  1.00  0.00     0.129 A 
ATOM     74  C   UNL A   1      35.125  33.378  32.638  1.00  0.00     0.048 A 
ATOM     75  N   UNL A   1      35.247  35.600  33.591  1.00  0.00    -0.238 NA
ATOM     76  C   UNL A   1      35.652  34.304  33.541  1.00  0.00     0.138 A 
BRANCH  76  77
ATOM     77  N   UNL A   1      36.746  33.922  34.359  1.00  0.00    -0.283 N 
ATOM     78  C   UNL A   1      36.722  33.752  35.724  1.00  0.00     0.206 A 
ATOM     79  C   UNL A   1      38.069  33.809  33.965  1.00  0.00     0.074 A 
ATOM     80  N   UNL A   1      37.902  33.426  36.211  1.00  0.00    -0.236 NA
ATOM     81  C   UNL A   1      38.756  33.490  35.136  1.00  0.00     0.089 A 
ATOM     82  C   UNL A   1      38.733  34.046  32.751  1.00  0.00     0.029 A 
ATOM     83  C   UNL A   1      40.151  33.330  35.089  1.00  0.00     0.030 A 
ATOM     84  C   UNL A   1      40.121  33.904  32.728  1.00  0.00     0.002 A 
ATOM     85  C   UNL A   1      40.822  33.543  33.876  1.00  0.00     0.002 A 
ENDBRANCH  76  77
ENDBRANCH  69  71
ENDBRANCH  68  69
ENDBRANCH  67  68
ENDBRANCH   1  67
TORSDOF 15
ENDMDL
