MODEL 1
REMARK VINA RESULT:     -10.2      0.000      0.000
REMARK SMILES CC(C)[NH2+][C@@]1(C(=O)OCCOC(=O)c2ccc(-c3c4nc(c(-c5ccc(S(=O)(=O)[O-])cc5)c5ccc([nH]5)c(-c5ccc(S(=O)(=O)[O-])cc5)c5nc(c(-c6ccc(S(=O)(=O)[O-])cc6)c6ccc3[nH]6)C=C5)C=C4)cc2)CCC[C@H](SC2CCCCC2)C1
REMARK SMILES IDX 10 1 9 2 8 3 6 4 7 5 5 6 74 7 85 8 75 9 77 10 76 11 4 12
REMARK SMILES IDX 2 15 1 16 3 17 78 18 79 19 80 20 84 21 81 22 83 23 82 24
REMARK SMILES IDX 11 25 12 26 13 27 14 28 15 29 73 30 16 31 72 32 17 33 18 34
REMARK SMILES IDX 19 35 66 36 20 37 71 38 65 39 67 40 21 41 70 42 64 43 63 44
REMARK SMILES IDX 22 46 52 47 33 48 51 49 34 50 37 51 50 52 68 53 35 54 36 55
REMARK SMILES IDX 49 57 69 58 38 59 23 60 24 61 32 62 25 63 31 64 26 65 27 66
REMARK SMILES IDX 28 67 29 68 30 69 53 70 54 71 62 72 55 73 61 74 56 75 57 76
REMARK SMILES IDX 58 77 59 78 60 79 39 80 40 81 48 82 41 83 47 84 42 85 43 86
REMARK SMILES IDX 44 87 45 88 46 89
REMARK H PARENT 4 13 4 14 67 45 37 56
REMARK Flexibility Score: inf
ROOT
ATOM      1  C   UNL A   1      37.121  22.514  24.421  1.00  0.00     0.275 C 
ENDROOT
BRANCH   1   2
ATOM      2  C   UNL A   1      36.360  23.264  23.332  1.00  0.00     0.274 C 
BRANCH   2   3
ATOM      3  O   UNL A   1      35.208  23.876  23.942  1.00  0.00    -0.457 OA
BRANCH   3   4
ATOM      4  C   UNL A   1      33.990  23.707  23.397  1.00  0.00     0.368 C 
ATOM      5  O   UNL A   1      33.765  23.846  22.200  1.00  0.00    -0.245 OA
BRANCH   4   6
ATOM      6  C   UNL A   1      32.892  23.313  24.471  1.00  0.00     0.195 C 
ATOM      7  C   UNL A   1      31.611  23.104  23.632  1.00  0.00     0.081 C 
ATOM      8  C   UNL A   1      32.671  24.361  25.611  1.00  0.00     0.095 C 
ATOM      9  C   UNL A   1      30.987  24.437  23.213  1.00  0.00     0.008 C 
ATOM     10  C   UNL A   1      31.809  25.621  25.312  1.00  0.00     0.053 C 
ATOM     11  C   UNL A   1      30.605  25.227  24.458  1.00  0.00     0.015 C 
BRANCH   6  12
ATOM     12  N   UNL A   1      33.431  22.066  25.089  1.00  0.00    -0.330 N 
ATOM     13  H   UNL A   1      34.393  22.276  25.354  1.00  0.00     0.347 HD
ATOM     14  H   UNL A   1      32.736  21.877  25.811  1.00  0.00     0.347 HD
BRANCH  12  15
ATOM     15  C   UNL A   1      33.475  20.791  24.381  1.00  0.00     0.176 C 
ATOM     16  C   UNL A   1      34.762  20.084  24.833  1.00  0.00     0.075 C 
ATOM     17  C   UNL A   1      32.286  19.884  24.700  1.00  0.00     0.075 C 
ENDBRANCH  12  15
ENDBRANCH   6  12
BRANCH  10  18
ATOM     18  S   UNL A   1      32.916  26.963  24.711  1.00  0.00    -0.155 SA
BRANCH  18  19
ATOM     19  C   UNL A   1      33.021  28.235  25.997  1.00  0.00     0.047 C 
ATOM     20  C   UNL A   1      34.462  28.500  26.443  1.00  0.00     0.014 C 
ATOM     21  C   UNL A   1      32.212  29.495  25.709  1.00  0.00     0.014 C 
ATOM     22  C   UNL A   1      34.513  29.499  27.594  1.00  0.00     0.001 C 
ATOM     23  C   UNL A   1      32.270  30.437  26.911  1.00  0.00     0.001 C 
ATOM     24  C   UNL A   1      33.714  30.762  27.284  1.00  0.00     0.000 C 
ENDBRANCH  18  19
ENDBRANCH  10  18
ENDBRANCH   4   6
ENDBRANCH   3   4
ENDBRANCH   2   3
ENDBRANCH   1   2
BRANCH   1  25
ATOM     25  O   UNL A   1      37.675  23.479  25.330  1.00  0.00    -0.458 OA
BRANCH  25  26
ATOM     26  C   UNL A   1      38.782  23.082  25.989  1.00  0.00     0.338 C 
ATOM     27  O   UNL A   1      39.360  22.003  25.935  1.00  0.00    -0.246 OA
BRANCH  26  28
ATOM     28  C   UNL A   1      39.292  24.224  26.742  1.00  0.00     0.060 A 
ATOM     29  C   UNL A   1      38.884  24.386  28.065  1.00  0.00     0.016 A 
ATOM     30  C   UNL A   1      40.115  25.161  26.125  1.00  0.00     0.016 A 
ATOM     31  C   UNL A   1      39.232  25.534  28.762  1.00  0.00     0.010 A 
ATOM     32  C   UNL A   1      40.541  26.268  26.858  1.00  0.00     0.010 A 
ATOM     33  C   UNL A   1      40.085  26.474  28.174  1.00  0.00    -0.014 A 
BRANCH  33  34
ATOM     34  C   UNL A   1      40.515  27.674  28.931  1.00  0.00     0.031 A 
ATOM     35  C   UNL A   1      41.821  27.657  29.670  1.00  0.00     0.074 A 
ATOM     36  C   UNL A   1      39.714  28.755  28.982  1.00  0.00     0.049 A 
ATOM     37  N   UNL A   1      42.270  28.491  30.570  1.00  0.00    -0.248 NA
ATOM     38  C   UNL A   1      42.736  26.542  29.370  1.00  0.00     0.031 C 
ATOM     39  C   UNL A   1      38.444  28.907  28.264  1.00  0.00     0.029 A 
ATOM     40  N   UNL A   1      39.840  29.929  29.680  1.00  0.00    -0.354 N 
ATOM     41  C   UNL A   1      43.487  27.969  30.992  1.00  0.00     0.074 A 
ATOM     42  C   UNL A   1      43.712  26.753  30.243  1.00  0.00     0.031 C 
ATOM     43  C   UNL A   1      37.917  30.106  28.550  1.00  0.00     0.029 A 
ATOM     44  C   UNL A   1      38.760  30.768  29.537  1.00  0.00     0.049 A 
ATOM     45  H   UNL A   1      40.627  30.150  30.230  1.00  0.00     0.167 HD
ATOM     46  C   UNL A   1      44.327  28.458  31.935  1.00  0.00     0.031 A 
ATOM     47  C   UNL A   1      38.449  31.913  30.173  1.00  0.00     0.031 A 
ATOM     48  C   UNL A   1      44.095  29.685  32.651  1.00  0.00     0.049 A 
ATOM     49  C   UNL A   1      39.383  32.426  31.228  1.00  0.00     0.074 A 
ATOM     50  C   UNL A   1      44.886  30.284  33.615  1.00  0.00     0.029 A 
ATOM     51  N   UNL A   1      42.990  30.505  32.470  1.00  0.00    -0.354 N 
ATOM     52  N   UNL A   1      40.512  31.906  31.648  1.00  0.00    -0.248 NA
ATOM     53  C   UNL A   1      38.998  33.671  31.908  1.00  0.00     0.031 C 
ATOM     54  C   UNL A   1      44.239  31.448  34.045  1.00  0.00     0.029 A 
ATOM     55  C   UNL A   1      43.069  31.597  33.315  1.00  0.00     0.049 A 
ATOM     56  H   UNL A   1      42.259  30.335  31.834  1.00  0.00     0.167 HD
ATOM     57  C   UNL A   1      40.977  32.760  32.638  1.00  0.00     0.074 A 
ATOM     58  C   UNL A   1      40.016  33.842  32.742  1.00  0.00     0.031 C 
ATOM     59  C   UNL A   1      42.095  32.658  33.397  1.00  0.00     0.031 A 
BRANCH  46  60
ATOM     60  C   UNL A   1      45.533  27.629  32.288  1.00  0.00    -0.014 A 
ATOM     61  C   UNL A   1      45.453  26.555  33.191  1.00  0.00     0.010 A 
ATOM     62  C   UNL A   1      46.773  27.935  31.696  1.00  0.00     0.010 A 
ATOM     63  C   UNL A   1      46.601  25.832  33.533  1.00  0.00     0.020 A 
ATOM     64  C   UNL A   1      47.918  27.200  32.017  1.00  0.00     0.020 A 
ATOM     65  C   UNL A   1      47.828  26.167  32.951  1.00  0.00     0.054 A 
BRANCH  65  66
ATOM     66  S   UNL A   1      49.306  25.221  33.414  1.00  0.00     0.124 S 
ATOM     67  O   UNL A   1      50.141  26.249  34.028  1.00  0.00    -0.237 OA
ATOM     68  O   UNL A   1      48.773  24.216  34.331  1.00  0.00    -0.237 OA
ATOM     69  O   UNL A   1      49.795  24.698  32.141  1.00  0.00    -0.744 OA
ENDBRANCH  65  66
ENDBRANCH  46  60
BRANCH  47  70
ATOM     70  C   UNL A   1      37.167  32.597  29.858  1.00  0.00    -0.014 A 
ATOM     71  C   UNL A   1      35.966  32.184  30.458  1.00  0.00     0.010 A 
ATOM     72  C   UNL A   1      37.156  33.718  29.006  1.00  0.00     0.010 A 
ATOM     73  C   UNL A   1      34.779  32.884  30.217  1.00  0.00     0.020 A 
ATOM     74  C   UNL A   1      35.978  34.435  28.783  1.00  0.00     0.020 A 
ATOM     75  C   UNL A   1      34.794  34.009  29.386  1.00  0.00     0.054 A 
BRANCH  75  76
ATOM     76  S   UNL A   1      33.263  34.958  29.160  1.00  0.00     0.124 S 
ATOM     77  O   UNL A   1      32.737  35.012  30.521  1.00  0.00    -0.237 OA
ATOM     78  O   UNL A   1      33.749  36.226  28.619  1.00  0.00    -0.237 OA
ATOM     79  O   UNL A   1      32.493  34.145  28.222  1.00  0.00    -0.744 OA
ENDBRANCH  75  76
ENDBRANCH  47  70
BRANCH  59  80
ATOM     80  C   UNL A   1      42.355  33.756  34.388  1.00  0.00    -0.014 A 
ATOM     81  C   UNL A   1      41.900  33.653  35.714  1.00  0.00     0.010 A 
ATOM     82  C   UNL A   1      43.129  34.866  34.005  1.00  0.00     0.010 A 
ATOM     83  C   UNL A   1      42.208  34.651  36.641  1.00  0.00     0.020 A 
ATOM     84  C   UNL A   1      43.454  35.856  34.934  1.00  0.00     0.020 A 
ATOM     85  C   UNL A   1      42.984  35.745  36.245  1.00  0.00     0.054 A 
BRANCH  85  86
ATOM     86  S   UNL A   1      43.431  36.994  37.483  1.00  0.00     0.124 S 
ATOM     87  O   UNL A   1      43.853  38.113  36.646  1.00  0.00    -0.237 OA
ATOM     88  O   UNL A   1      42.179  37.189  38.210  1.00  0.00    -0.237 OA
ATOM     89  O   UNL A   1      44.495  36.352  38.252  1.00  0.00    -0.744 OA
ENDBRANCH  85  86
ENDBRANCH  59  80
ENDBRANCH  33  34
ENDBRANCH  26  28
ENDBRANCH  25  26
ENDBRANCH   1  25
TORSDOF 18
ENDMDL
MODEL 2
REMARK VINA RESULT:     -10.0      4.964     10.622
REMARK SMILES CC(C)[NH2+][C@@]1(C(=O)OCCOC(=O)c2ccc(-c3c4nc(c(-c5ccc(S(=O)(=O)[O-])cc5)c5ccc([nH]5)c(-c5ccc(S(=O)(=O)[O-])cc5)c5nc(c(-c6ccc(S(=O)(=O)[O-])cc6)c6ccc3[nH]6)C=C5)C=C4)cc2)CCC[C@H](SC2CCCCC2)C1
REMARK SMILES IDX 10 1 9 2 8 3 6 4 7 5 5 6 74 7 85 8 75 9 77 10 76 11 4 12
REMARK SMILES IDX 2 15 1 16 3 17 78 18 79 19 80 20 84 21 81 22 83 23 82 24
REMARK SMILES IDX 11 25 12 26 13 27 14 28 15 29 73 30 16 31 72 32 17 33 18 34
REMARK SMILES IDX 19 35 66 36 20 37 71 38 65 39 67 40 21 41 70 42 64 43 63 44
REMARK SMILES IDX 22 46 52 47 33 48 51 49 34 50 37 51 50 52 68 53 35 54 36 55
REMARK SMILES IDX 49 57 69 58 38 59 23 60 24 61 32 62 25 63 31 64 26 65 27 66
REMARK SMILES IDX 28 67 29 68 30 69 53 70 54 71 62 72 55 73 61 74 56 75 57 76
REMARK SMILES IDX 58 77 59 78 60 79 39 80 40 81 48 82 41 83 47 84 42 85 43 86
REMARK SMILES IDX 44 87 45 88 46 89
REMARK H PARENT 4 13 4 14 67 45 37 56
REMARK Flexibility Score: inf
ROOT
ATOM      1  C   UNL A   1      34.349  29.922  26.966  1.00  0.00     0.275 C 
ENDROOT
BRANCH   1   2
ATOM      2  C   UNL A   1      33.055  29.138  27.162  1.00  0.00     0.274 C 
BRANCH   2   3
ATOM      3  O   UNL A   1      32.302  29.217  25.937  1.00  0.00    -0.457 OA
BRANCH   3   4
ATOM      4  C   UNL A   1      31.429  28.243  25.621  1.00  0.00     0.368 C 
ATOM      5  O   UNL A   1      30.853  27.559  26.461  1.00  0.00    -0.245 OA
BRANCH   4   6
ATOM      6  C   UNL A   1      31.234  28.084  24.056  1.00  0.00     0.195 C 
ATOM      7  C   UNL A   1      30.076  27.070  23.927  1.00  0.00     0.081 C 
ATOM      8  C   UNL A   1      32.504  27.614  23.272  1.00  0.00     0.095 C 
ATOM      9  C   UNL A   1      30.546  25.639  24.199  1.00  0.00     0.008 C 
ATOM     10  C   UNL A   1      32.881  26.105  23.296  1.00  0.00     0.053 C 
ATOM     11  C   UNL A   1      31.614  25.258  23.181  1.00  0.00     0.015 C 
BRANCH   6  12
ATOM     12  N   UNL A   1      30.895  29.464  23.598  1.00  0.00    -0.330 N 
ATOM     13  H   UNL A   1      31.189  30.090  24.347  1.00  0.00     0.347 HD
ATOM     14  H   UNL A   1      31.364  29.502  22.693  1.00  0.00     0.347 HD
BRANCH  12  15
ATOM     15  C   UNL A   1      29.537  29.866  23.245  1.00  0.00     0.176 C 
ATOM     16  C   UNL A   1      29.250  31.162  24.016  1.00  0.00     0.075 C 
ATOM     17  C   UNL A   1      29.362  30.141  21.751  1.00  0.00     0.075 C 
ENDBRANCH  12  15
ENDBRANCH   6  12
BRANCH  10  18
ATOM     18  S   UNL A   1      34.019  25.804  24.712  1.00  0.00    -0.155 SA
BRANCH  18  19
ATOM     19  C   UNL A   1      33.577  24.220  25.473  1.00  0.00     0.047 C 
ATOM     20  C   UNL A   1      34.803  23.360  25.788  1.00  0.00     0.014 C 
ATOM     21  C   UNL A   1      32.573  24.325  26.616  1.00  0.00     0.014 C 
ATOM     22  C   UNL A   1      34.400  21.994  26.334  1.00  0.00     0.001 C 
ATOM     23  C   UNL A   1      32.178  22.927  27.091  1.00  0.00     0.001 C 
ATOM     24  C   UNL A   1      33.408  22.115  27.488  1.00  0.00     0.000 C 
ENDBRANCH  18  19
ENDBRANCH  10  18
ENDBRANCH   4   6
ENDBRANCH   3   4
ENDBRANCH   2   3
ENDBRANCH   1   2
BRANCH   1  25
ATOM     25  O   UNL A   1      35.392  29.262  27.702  1.00  0.00    -0.458 OA
BRANCH  25  26
ATOM     26  C   UNL A   1      36.011  30.018  28.630  1.00  0.00     0.338 C 
ATOM     27  O   UNL A   1      35.516  30.788  29.445  1.00  0.00    -0.246 OA
BRANCH  26  28
ATOM     28  C   UNL A   1      37.433  29.691  28.602  1.00  0.00     0.060 A 
ATOM     29  C   UNL A   1      38.113  29.775  27.387  1.00  0.00     0.016 A 
ATOM     30  C   UNL A   1      38.074  29.245  29.753  1.00  0.00     0.016 A 
ATOM     31  C   UNL A   1      39.424  29.333  27.295  1.00  0.00     0.010 A 
ATOM     32  C   UNL A   1      39.420  28.890  29.678  1.00  0.00     0.010 A 
ATOM     33  C   UNL A   1      40.100  28.910  28.445  1.00  0.00    -0.014 A 
BRANCH  33  34
ATOM     34  C   UNL A   1      41.521  28.496  28.371  1.00  0.00     0.031 A 
ATOM     35  C   UNL A   1      42.603  29.524  28.527  1.00  0.00     0.074 A 
ATOM     36  C   UNL A   1      41.830  27.209  28.127  1.00  0.00     0.049 A 
ATOM     37  N   UNL A   1      43.880  29.424  28.266  1.00  0.00    -0.248 NA
ATOM     38  C   UNL A   1      42.191  30.848  29.026  1.00  0.00     0.031 C 
ATOM     39  C   UNL A   1      40.865  26.111  28.007  1.00  0.00     0.029 A 
ATOM     40  N   UNL A   1      43.044  26.605  27.921  1.00  0.00    -0.354 N 
ATOM     41  C   UNL A   1      44.412  30.685  28.504  1.00  0.00     0.074 A 
ATOM     42  C   UNL A   1      43.324  31.531  28.941  1.00  0.00     0.031 C 
ATOM     43  C   UNL A   1      41.524  24.970  27.760  1.00  0.00     0.029 A 
ATOM     44  C   UNL A   1      42.943  25.268  27.615  1.00  0.00     0.049 A 
ATOM     45  H   UNL A   1      43.903  27.081  27.986  1.00  0.00     0.167 HD
ATOM     46  C   UNL A   1      45.693  31.096  28.351  1.00  0.00     0.031 A 
ATOM     47  C   UNL A   1      43.877  24.390  27.203  1.00  0.00     0.031 A 
ATOM     48  C   UNL A   1      46.766  30.229  27.940  1.00  0.00     0.049 A 
ATOM     49  C   UNL A   1      45.286  24.871  27.020  1.00  0.00     0.074 A 
ATOM     50  C   UNL A   1      48.104  30.534  27.768  1.00  0.00     0.029 A 
ATOM     51  N   UNL A   1      46.619  28.881  27.645  1.00  0.00    -0.354 N 
ATOM     52  N   UNL A   1      45.772  26.074  27.210  1.00  0.00    -0.248 NA
ATOM     53  C   UNL A   1      46.270  23.885  26.555  1.00  0.00     0.031 C 
ATOM     54  C   UNL A   1      48.760  29.378  27.332  1.00  0.00     0.029 A 
ATOM     55  C   UNL A   1      47.838  28.342  27.277  1.00  0.00     0.049 A 
ATOM     56  H   UNL A   1      45.772  28.382  27.692  1.00  0.00     0.167 HD
ATOM     57  C   UNL A   1      47.121  25.992  26.892  1.00  0.00     0.074 A 
ATOM     58  C   UNL A   1      47.377  24.615  26.515  1.00  0.00     0.031 C 
ATOM     59  C   UNL A   1      48.063  26.967  26.906  1.00  0.00     0.031 A 
BRANCH  46  60
ATOM     60  C   UNL A   1      45.984  32.558  28.566  1.00  0.00    -0.014 A 
ATOM     61  C   UNL A   1      45.872  33.494  27.524  1.00  0.00     0.010 A 
ATOM     62  C   UNL A   1      46.374  32.999  29.844  1.00  0.00     0.010 A 
ATOM     63  C   UNL A   1      46.192  34.838  27.744  1.00  0.00     0.020 A 
ATOM     64  C   UNL A   1      46.673  34.345  30.075  1.00  0.00     0.020 A 
ATOM     65  C   UNL A   1      46.601  35.252  29.016  1.00  0.00     0.054 A 
BRANCH  65  66
ATOM     66  S   UNL A   1      47.018  36.999  29.278  1.00  0.00     0.124 S 
ATOM     67  O   UNL A   1      46.254  37.652  28.219  1.00  0.00    -0.237 OA
ATOM     68  O   UNL A   1      46.542  37.246  30.637  1.00  0.00    -0.237 OA
ATOM     69  O   UNL A   1      48.469  37.037  29.115  1.00  0.00    -0.744 OA
ENDBRANCH  65  66
ENDBRANCH  46  60
BRANCH  47  70
ATOM     70  C   UNL A   1      43.475  22.995  26.881  1.00  0.00    -0.014 A 
ATOM     71  C   UNL A   1      43.894  22.384  25.688  1.00  0.00     0.010 A 
ATOM     72  C   UNL A   1      42.727  22.245  27.809  1.00  0.00     0.010 A 
ATOM     73  C   UNL A   1      43.578  21.045  25.432  1.00  0.00     0.020 A 
ATOM     74  C   UNL A   1      42.431  20.901  27.568  1.00  0.00     0.020 A 
ATOM     75  C   UNL A   1      42.854  20.310  26.377  1.00  0.00     0.054 A 
BRANCH  75  76
ATOM     76  S   UNL A   1      42.534  18.550  26.068  1.00  0.00     0.124 S 
ATOM     77  O   UNL A   1      41.102  18.548  25.786  1.00  0.00    -0.237 OA
ATOM     78  O   UNL A   1      43.403  18.262  24.929  1.00  0.00    -0.237 OA
ATOM     79  O   UNL A   1      42.928  17.908  27.319  1.00  0.00    -0.744 OA
ENDBRANCH  75  76
ENDBRANCH  47  70
BRANCH  59  80
ATOM     80  C   UNL A   1      49.462  26.575  26.527  1.00  0.00    -0.014 A 
ATOM     81  C   UNL A   1      50.312  25.950  27.455  1.00  0.00     0.010 A 
ATOM     82  C   UNL A   1      49.901  26.768  25.205  1.00  0.00     0.010 A 
ATOM     83  C   UNL A   1      51.587  25.532  27.067  1.00  0.00     0.020 A 
ATOM     84  C   UNL A   1      51.168  26.335  24.811  1.00  0.00     0.020 A 
ATOM     85  C   UNL A   1      52.006  25.725  25.747  1.00  0.00     0.054 A 
BRANCH  85  86
ATOM     86  S   UNL A   1      53.638  25.111  25.248  1.00  0.00     0.124 S 
ATOM     87  O   UNL A   1      53.477  23.668  25.395  1.00  0.00    -0.237 OA
ATOM     88  O   UNL A   1      53.759  25.595  23.875  1.00  0.00    -0.237 OA
ATOM     89  O   UNL A   1      54.549  25.738  26.204  1.00  0.00    -0.744 OA
ENDBRANCH  85  86
ENDBRANCH  59  80
ENDBRANCH  33  34
ENDBRANCH  26  28
ENDBRANCH  25  26
ENDBRANCH   1  25
TORSDOF 18
ENDMDL
MODEL 3
REMARK VINA RESULT:      -9.9      3.792      9.533
REMARK SMILES CC(C)[NH2+][C@@]1(C(=O)OCCOC(=O)c2ccc(-c3c4nc(c(-c5ccc(S(=O)(=O)[O-])cc5)c5ccc([nH]5)c(-c5ccc(S(=O)(=O)[O-])cc5)c5nc(c(-c6ccc(S(=O)(=O)[O-])cc6)c6ccc3[nH]6)C=C5)C=C4)cc2)CCC[C@H](SC2CCCCC2)C1
REMARK SMILES IDX 10 1 9 2 8 3 6 4 7 5 5 6 74 7 85 8 75 9 77 10 76 11 4 12
REMARK SMILES IDX 2 15 1 16 3 17 78 18 79 19 80 20 84 21 81 22 83 23 82 24
REMARK SMILES IDX 11 25 12 26 13 27 14 28 15 29 73 30 16 31 72 32 17 33 18 34
REMARK SMILES IDX 19 35 66 36 20 37 71 38 65 39 67 40 21 41 70 42 64 43 63 44
REMARK SMILES IDX 22 46 52 47 33 48 51 49 34 50 37 51 50 52 68 53 35 54 36 55
REMARK SMILES IDX 49 57 69 58 38 59 23 60 24 61 32 62 25 63 31 64 26 65 27 66
REMARK SMILES IDX 28 67 29 68 30 69 53 70 54 71 62 72 55 73 61 74 56 75 57 76
REMARK SMILES IDX 58 77 59 78 60 79 39 80 40 81 48 82 41 83 47 84 42 85 43 86
REMARK SMILES IDX 44 87 45 88 46 89
REMARK H PARENT 4 13 4 14 67 45 37 56
REMARK Flexibility Score: inf
ROOT
ATOM      1  C   UNL A   1      32.432  29.710  27.247  1.00  0.00     0.275 C 
ENDROOT
BRANCH   1   2
ATOM      2  C   UNL A   1      31.656  28.400  27.161  1.00  0.00     0.274 C 
BRANCH   2   3
ATOM      3  O   UNL A   1      32.353  27.534  26.246  1.00  0.00    -0.457 OA
BRANCH   3   4
ATOM      4  C   UNL A   1      31.671  26.618  25.535  1.00  0.00     0.368 C 
ATOM      5  O   UNL A   1      30.707  26.004  25.981  1.00  0.00    -0.245 OA
BRANCH   4   6
ATOM      6  C   UNL A   1      32.250  26.426  24.072  1.00  0.00     0.195 C 
ATOM      7  C   UNL A   1      33.300  27.553  23.938  1.00  0.00     0.081 C 
ATOM      8  C   UNL A   1      31.190  26.485  22.924  1.00  0.00     0.095 C 
ATOM      9  C   UNL A   1      32.639  28.913  23.697  1.00  0.00     0.008 C 
ATOM     10  C   UNL A   1      30.677  27.875  22.450  1.00  0.00     0.053 C 
ATOM     11  C   UNL A   1      31.843  28.862  22.400  1.00  0.00     0.015 C 
BRANCH   6  12
ATOM     12  N   UNL A   1      32.828  25.050  24.096  1.00  0.00    -0.330 N 
ATOM     13  H   UNL A   1      32.037  24.411  24.022  1.00  0.00     0.347 HD
ATOM     14  H   UNL A   1      33.512  25.100  23.341  1.00  0.00     0.347 HD
BRANCH  12  15
ATOM     15  C   UNL A   1      33.645  24.557  25.201  1.00  0.00     0.176 C 
ATOM     16  C   UNL A   1      33.140  23.142  25.519  1.00  0.00     0.075 C 
ATOM     17  C   UNL A   1      35.133  24.476  24.859  1.00  0.00     0.075 C 
ENDBRANCH  12  15
ENDBRANCH   6  12
BRANCH  10  18
ATOM     18  S   UNL A   1      29.186  28.319  23.435  1.00  0.00    -0.155 SA
BRANCH  18  19
ATOM     19  C   UNL A   1      28.529  29.885  22.801  1.00  0.00     0.047 C 
ATOM     20  C   UNL A   1      28.931  31.082  23.666  1.00  0.00     0.014 C 
ATOM     21  C   UNL A   1      28.731  30.095  21.304  1.00  0.00     0.014 C 
ATOM     22  C   UNL A   1      28.284  32.370  23.168  1.00  0.00     0.001 C 
ATOM     23  C   UNL A   1      28.027  31.378  20.860  1.00  0.00     0.001 C 
ATOM     24  C   UNL A   1      28.509  32.577  21.672  1.00  0.00     0.000 C 
ENDBRANCH  18  19
ENDBRANCH  10  18
ENDBRANCH   4   6
ENDBRANCH   3   4
ENDBRANCH   2   3
ENDBRANCH   1   2
BRANCH   1  25
ATOM     25  O   UNL A   1      33.745  29.424  27.756  1.00  0.00    -0.458 OA
BRANCH  25  26
ATOM     26  C   UNL A   1      34.459  30.497  28.149  1.00  0.00     0.338 C 
ATOM     27  O   UNL A   1      34.061  31.623  28.425  1.00  0.00    -0.246 OA
BRANCH  26  28
ATOM     28  C   UNL A   1      35.847  30.078  28.319  1.00  0.00     0.060 A 
ATOM     29  C   UNL A   1      36.280  29.707  29.592  1.00  0.00     0.016 A 
ATOM     30  C   UNL A   1      36.729  30.115  27.244  1.00  0.00     0.016 A 
ATOM     31  C   UNL A   1      37.623  29.446  29.817  1.00  0.00     0.010 A 
ATOM     32  C   UNL A   1      38.060  29.759  27.453  1.00  0.00     0.010 A 
ATOM     33  C   UNL A   1      38.523  29.444  28.745  1.00  0.00    -0.014 A 
BRANCH  33  34
ATOM     34  C   UNL A   1      39.949  29.104  28.963  1.00  0.00     0.031 A 
ATOM     35  C   UNL A   1      40.905  30.167  29.417  1.00  0.00     0.074 A 
ATOM     36  C   UNL A   1      40.383  27.853  28.715  1.00  0.00     0.049 A 
ATOM     37  N   UNL A   1      42.212  30.147  29.440  1.00  0.00    -0.248 NA
ATOM     38  C   UNL A   1      40.313  31.430  29.892  1.00  0.00     0.031 C 
ATOM     39  C   UNL A   1      39.538  26.723  28.318  1.00  0.00     0.029 A 
ATOM     40  N   UNL A   1      41.648  27.324  28.747  1.00  0.00    -0.354 N 
ATOM     41  C   UNL A   1      42.600  31.411  29.866  1.00  0.00     0.074 A 
ATOM     42  C   UNL A   1      41.392  32.171  30.102  1.00  0.00     0.031 C 
ATOM     43  C   UNL A   1      40.304  25.635  28.154  1.00  0.00     0.029 A 
ATOM     44  C   UNL A   1      41.700  26.010  28.345  1.00  0.00     0.049 A 
ATOM     45  H   UNL A   1      42.441  27.834  29.030  1.00  0.00     0.167 HD
ATOM     46  C   UNL A   1      43.856  31.892  30.027  1.00  0.00     0.031 A 
ATOM     47  C   UNL A   1      42.754  25.210  28.098  1.00  0.00     0.031 A 
ATOM     48  C   UNL A   1      45.044  31.109  29.811  1.00  0.00     0.049 A 
ATOM     49  C   UNL A   1      44.136  25.769  28.261  1.00  0.00     0.074 A 
ATOM     50  C   UNL A   1      46.366  31.489  29.959  1.00  0.00     0.029 A 
ATOM     51  N   UNL A   1      45.049  29.781  29.409  1.00  0.00    -0.354 N 
ATOM     52  N   UNL A   1      44.493  26.977  28.627  1.00  0.00    -0.248 NA
ATOM     53  C   UNL A   1      45.257  24.867  27.966  1.00  0.00     0.031 C 
ATOM     54  C   UNL A   1      47.171  30.399  29.609  1.00  0.00     0.029 A 
ATOM     55  C   UNL A   1      46.350  29.328  29.288  1.00  0.00     0.049 A 
ATOM     56  H   UNL A   1      44.245  29.240  29.237  1.00  0.00     0.167 HD
ATOM     57  C   UNL A   1      45.882  26.981  28.612  1.00  0.00     0.074 A 
ATOM     58  C   UNL A   1      46.299  25.649  28.218  1.00  0.00     0.031 C 
ATOM     59  C   UNL A   1      46.735  27.996  28.893  1.00  0.00     0.031 A 
BRANCH  46  60
ATOM     60  C   UNL A   1      44.001  33.346  30.389  1.00  0.00    -0.014 A 
ATOM     61  C   UNL A   1      44.018  33.775  31.728  1.00  0.00     0.010 A 
ATOM     62  C   UNL A   1      44.127  34.300  29.363  1.00  0.00     0.010 A 
ATOM     63  C   UNL A   1      44.108  35.138  32.032  1.00  0.00     0.020 A 
ATOM     64  C   UNL A   1      44.241  35.661  29.662  1.00  0.00     0.020 A 
ATOM     65  C   UNL A   1      44.209  36.073  30.995  1.00  0.00     0.054 A 
BRANCH  65  66
ATOM     66  S   UNL A   1      44.319  37.836  31.412  1.00  0.00     0.124 S 
ATOM     67  O   UNL A   1      43.585  38.451  30.309  1.00  0.00    -0.237 OA
ATOM     68  O   UNL A   1      43.662  37.902  32.715  1.00  0.00    -0.237 OA
ATOM     69  O   UNL A   1      45.755  38.099  31.429  1.00  0.00    -0.744 OA
ENDBRANCH  65  66
ENDBRANCH  46  60
BRANCH  47  70
ATOM     70  C   UNL A   1      42.519  23.824  27.611  1.00  0.00    -0.014 A 
ATOM     71  C   UNL A   1      42.426  23.553  26.236  1.00  0.00     0.010 A 
ATOM     72  C   UNL A   1      42.460  22.755  28.526  1.00  0.00     0.010 A 
ATOM     73  C   UNL A   1      42.285  22.236  25.785  1.00  0.00     0.020 A 
ATOM     74  C   UNL A   1      42.345  21.437  28.077  1.00  0.00     0.020 A 
ATOM     75  C   UNL A   1      42.253  21.186  26.708  1.00  0.00     0.054 A 
BRANCH  75  76
ATOM     76  S   UNL A   1      42.163  19.479  26.099  1.00  0.00     0.124 S 
ATOM     77  O   UNL A   1      40.751  19.354  25.753  1.00  0.00    -0.237 OA
ATOM     78  O   UNL A   1      43.091  19.492  24.970  1.00  0.00    -0.237 OA
ATOM     79  O   UNL A   1      42.601  18.684  27.244  1.00  0.00    -0.744 OA
ENDBRANCH  75  76
ENDBRANCH  47  70
BRANCH  59  80
ATOM     80  C   UNL A   1      48.205  27.700  28.810  1.00  0.00    -0.014 A 
ATOM     81  C   UNL A   1      48.904  27.206  29.925  1.00  0.00     0.010 A 
ATOM     82  C   UNL A   1      48.873  27.846  27.582  1.00  0.00     0.010 A 
ATOM     83  C   UNL A   1      50.256  26.873  29.813  1.00  0.00     0.020 A 
ATOM     84  C   UNL A   1      50.218  27.495  27.463  1.00  0.00     0.020 A 
ATOM     85  C   UNL A   1      50.904  27.018  28.582  1.00  0.00     0.054 A 
BRANCH  85  86
ATOM     86  S   UNL A   1      52.640  26.512  28.442  1.00  0.00     0.124 S 
ATOM     87  O   UNL A   1      52.579  25.507  27.386  1.00  0.00    -0.237 OA
ATOM     88  O   UNL A   1      53.312  27.760  28.086  1.00  0.00    -0.237 OA
ATOM     89  O   UNL A   1      52.958  26.000  29.774  1.00  0.00    -0.744 OA
ENDBRANCH  85  86
ENDBRANCH  59  80
ENDBRANCH  33  34
ENDBRANCH  26  28
ENDBRANCH  25  26
ENDBRANCH   1  25
TORSDOF 18
ENDMDL
