MODEL 1
REMARK VINA RESULT:     -10.2      0.000      0.000
REMARK SMILES O=Cc1ccc2c(c1)C=C(C(=O)OCCOC(=O)c1ccc(-c3c4nc(c(-c5ccc(S(=O)(=O)[O-])cc5)c5ccc([nH]5)c(-c5ccc(S(=O)(=O)[O-])cc5)c5nc(c(-c6ccc(S(=O)(=O)[O-])cc6)c6ccc3[nH]6)C=C5)C=C4)cc1)[C@H](C(F)(F)F)O2
REMARK SMILES IDX 15 1 14 2 13 3 11 4 12 5 10 6 3 7 4 8 8 9 5 10 7 11 6 12
REMARK SMILES IDX 9 13 84 14 79 15 2 16 1 17 80 18 81 19 82 20 83 21 16 22
REMARK SMILES IDX 17 23 18 24 19 25 20 26 78 27 21 28 77 29 22 30 23 31 24 32
REMARK SMILES IDX 71 33 25 34 76 35 70 36 72 37 26 38 75 39 69 40 68 41 27 43
REMARK SMILES IDX 57 44 38 45 56 46 39 47 42 48 55 49 73 50 40 51 41 52 54 54
REMARK SMILES IDX 74 55 43 56 28 57 29 58 37 59 30 60 36 61 31 62 32 63 33 64
REMARK SMILES IDX 34 65 35 66 58 67 59 68 67 69 60 70 66 71 61 72 62 73 63 74
REMARK SMILES IDX 64 75 65 76 44 77 45 78 53 79 46 80 52 81 47 82 48 83 49 84
REMARK SMILES IDX 50 85 51 86
REMARK H PARENT 72 42 42 53
REMARK Flexibility Score: inf
ROOT
ATOM      1  C   UNL A   1      34.100  32.772  27.629  1.00  0.00     0.275 C 
ENDROOT
BRANCH   1   2
ATOM      2  C   UNL A   1      32.875  33.681  27.767  1.00  0.00     0.275 C 
BRANCH   2   3
ATOM      3  O   UNL A   1      32.780  34.264  29.087  1.00  0.00    -0.459 OA
BRANCH   3   4
ATOM      4  C   UNL A   1      33.807  35.074  29.455  1.00  0.00     0.338 C 
ATOM      5  O   UNL A   1      34.207  36.032  28.817  1.00  0.00    -0.246 OA
BRANCH   4   6
ATOM      6  C   UNL A   1      34.391  34.675  30.759  1.00  0.00     0.087 C 
ATOM      7  C   UNL A   1      37.597  32.285  33.467  1.00  0.00     0.015 A 
ATOM      8  C   UNL A   1      37.008  32.804  34.624  1.00  0.00     0.015 A 
ATOM      9  C   UNL A   1      37.116  32.635  32.198  1.00  0.00     0.023 A 
ATOM     10  C   UNL A   1      35.966  33.721  34.509  1.00  0.00     0.048 A 
ATOM     11  C   UNL A   1      36.049  33.534  32.085  1.00  0.00     0.018 A 
ATOM     12  C   UNL A   1      35.504  34.090  33.245  1.00  0.00     0.128 A 
ATOM     13  C   UNL A   1      35.514  33.934  30.785  1.00  0.00     0.027 C 
ATOM     14  O   UNL A   1      34.565  35.077  33.211  1.00  0.00    -0.475 OA
ATOM     15  C   UNL A   1      33.698  35.112  32.042  1.00  0.00     0.316 C 
BRANCH   7  16
ATOM     16  C   UNL A   1      38.763  31.385  33.581  1.00  0.00     0.260 C 
ATOM     17  O   UNL A   1      38.972  30.477  32.786  1.00  0.00    -0.298 OA
ENDBRANCH   7  16
BRANCH  15  18
ATOM     18  C   UNL A   1      32.976  36.475  32.058  1.00  0.00     0.430 C 
ATOM     19  F   UNL A   1      31.729  36.392  31.545  1.00  0.00    -0.167 F 
ATOM     20  F   UNL A   1      32.819  36.905  33.337  1.00  0.00    -0.167 F 
ATOM     21  F   UNL A   1      33.666  37.430  31.399  1.00  0.00    -0.167 F 
ENDBRANCH  15  18
ENDBRANCH   4   6
ENDBRANCH   3   4
ENDBRANCH   2   3
ENDBRANCH   1   2
BRANCH   1  22
ATOM     22  O   UNL A   1      34.039  31.669  28.549  1.00  0.00    -0.458 OA
BRANCH  22  23
ATOM     23  C   UNL A   1      34.283  30.452  28.005  1.00  0.00     0.338 C 
ATOM     24  O   UNL A   1      33.579  29.848  27.212  1.00  0.00    -0.246 OA
BRANCH  23  25
ATOM     25  C   UNL A   1      35.663  30.048  28.326  1.00  0.00     0.060 A 
ATOM     26  C   UNL A   1      36.567  30.028  27.263  1.00  0.00     0.016 A 
ATOM     27  C   UNL A   1      36.082  29.710  29.612  1.00  0.00     0.016 A 
ATOM     28  C   UNL A   1      37.917  29.764  27.484  1.00  0.00     0.010 A 
ATOM     29  C   UNL A   1      37.430  29.388  29.828  1.00  0.00     0.010 A 
ATOM     30  C   UNL A   1      38.358  29.441  28.771  1.00  0.00    -0.014 A 
BRANCH  30  31
ATOM     31  C   UNL A   1      39.787  29.121  29.002  1.00  0.00     0.031 A 
ATOM     32  C   UNL A   1      40.719  30.188  29.495  1.00  0.00     0.074 A 
ATOM     33  C   UNL A   1      40.245  27.874  28.789  1.00  0.00     0.049 A 
ATOM     34  N   UNL A   1      42.016  30.142  29.652  1.00  0.00    -0.248 NA
ATOM     35  C   UNL A   1      40.107  31.470  29.876  1.00  0.00     0.031 C 
ATOM     36  C   UNL A   1      39.420  26.723  28.420  1.00  0.00     0.029 A 
ATOM     37  N   UNL A   1      41.520  27.369  28.846  1.00  0.00    -0.354 N 
ATOM     38  C   UNL A   1      42.382  31.388  30.140  1.00  0.00     0.074 A 
ATOM     39  C   UNL A   1      41.168  32.171  30.253  1.00  0.00     0.031 C 
ATOM     40  C   UNL A   1      40.217  25.652  28.253  1.00  0.00     0.029 A 
ATOM     41  C   UNL A   1      41.608  26.054  28.453  1.00  0.00     0.049 A 
ATOM     42  H   UNL A   1      42.297  27.898  29.138  1.00  0.00     0.167 HD
ATOM     43  C   UNL A   1      43.620  31.843  30.450  1.00  0.00     0.031 A 
ATOM     44  C   UNL A   1      42.689  25.277  28.235  1.00  0.00     0.031 A 
ATOM     45  C   UNL A   1      44.827  31.075  30.298  1.00  0.00     0.049 A 
ATOM     46  C   UNL A   1      44.067  25.855  28.442  1.00  0.00     0.074 A 
ATOM     47  C   UNL A   1      46.129  31.459  30.566  1.00  0.00     0.029 A 
ATOM     48  N   UNL A   1      44.884  29.774  29.821  1.00  0.00    -0.354 N 
ATOM     49  N   UNL A   1      44.405  27.041  28.893  1.00  0.00    -0.248 NA
ATOM     50  C   UNL A   1      45.209  24.996  28.098  1.00  0.00     0.031 C 
ATOM     51  C   UNL A   1      46.979  30.416  30.184  1.00  0.00     0.029 A 
ATOM     52  C   UNL A   1      46.202  29.356  29.743  1.00  0.00     0.049 A 
ATOM     53  H   UNL A   1      44.103  29.228  29.574  1.00  0.00     0.167 HD
ATOM     54  C   UNL A   1      45.797  27.061  28.903  1.00  0.00     0.074 A 
ATOM     55  C   UNL A   1      46.238  25.765  28.432  1.00  0.00     0.031 C 
ATOM     56  C   UNL A   1      46.633  28.064  29.267  1.00  0.00     0.031 A 
BRANCH  43  57
ATOM     57  C   UNL A   1      43.736  33.270  30.916  1.00  0.00    -0.014 A 
ATOM     58  C   UNL A   1      43.710  33.600  32.283  1.00  0.00     0.010 A 
ATOM     59  C   UNL A   1      43.911  34.292  29.965  1.00  0.00     0.010 A 
ATOM     60  C   UNL A   1      43.820  34.933  32.687  1.00  0.00     0.020 A 
ATOM     61  C   UNL A   1      44.046  35.623  30.367  1.00  0.00     0.020 A 
ATOM     62  C   UNL A   1      43.984  35.937  31.725  1.00  0.00     0.054 A 
BRANCH  62  63
ATOM     63  S   UNL A   1      44.136  37.657  32.280  1.00  0.00     0.124 S 
ATOM     64  O   UNL A   1      43.174  37.705  33.378  1.00  0.00    -0.237 OA
ATOM     65  O   UNL A   1      45.540  37.744  32.671  1.00  0.00    -0.237 OA
ATOM     66  O   UNL A   1      43.771  38.436  31.099  1.00  0.00    -0.744 OA
ENDBRANCH  62  63
ENDBRANCH  43  57
BRANCH  44  67
ATOM     67  C   UNL A   1      42.521  23.890  27.715  1.00  0.00    -0.014 A 
ATOM     68  C   UNL A   1      42.496  23.633  26.332  1.00  0.00     0.010 A 
ATOM     69  C   UNL A   1      42.359  22.815  28.609  1.00  0.00     0.010 A 
ATOM     70  C   UNL A   1      42.293  22.333  25.856  1.00  0.00     0.020 A 
ATOM     71  C   UNL A   1      42.187  21.511  28.139  1.00  0.00     0.020 A 
ATOM     72  C   UNL A   1      42.141  21.280  26.764  1.00  0.00     0.054 A 
BRANCH  72  73
ATOM     73  S   UNL A   1      41.916  19.596  26.125  1.00  0.00     0.124 S 
ATOM     74  O   UNL A   1      40.496  19.589  25.784  1.00  0.00    -0.237 OA
ATOM     75  O   UNL A   1      42.839  19.562  24.993  1.00  0.00    -0.237 OA
ATOM     76  O   UNL A   1      42.293  18.748  27.253  1.00  0.00    -0.744 OA
ENDBRANCH  72  73
ENDBRANCH  44  67
BRANCH  56  77
ATOM     77  C   UNL A   1      48.115  27.806  29.190  1.00  0.00    -0.014 A 
ATOM     78  C   UNL A   1      48.808  27.223  30.265  1.00  0.00     0.010 A 
ATOM     79  C   UNL A   1      48.809  28.076  27.995  1.00  0.00     0.010 A 
ATOM     80  C   UNL A   1      50.171  26.928  30.153  1.00  0.00     0.020 A 
ATOM     81  C   UNL A   1      50.164  27.757  27.870  1.00  0.00     0.020 A 
ATOM     82  C   UNL A   1      50.839  27.192  28.954  1.00  0.00     0.054 A 
BRANCH  82  83
ATOM     83  S   UNL A   1      52.589  26.735  28.812  1.00  0.00     0.124 S 
ATOM     84  O   UNL A   1      52.590  25.897  27.617  1.00  0.00    -0.237 OA
ATOM     85  O   UNL A   1      53.248  28.031  28.672  1.00  0.00    -0.237 OA
ATOM     86  O   UNL A   1      52.868  26.033  30.063  1.00  0.00    -0.744 OA
ENDBRANCH  82  83
ENDBRANCH  56  77
ENDBRANCH  30  31
ENDBRANCH  23  25
ENDBRANCH  22  23
ENDBRANCH   1  22
TORSDOF 16
ENDMDL
MODEL 2
REMARK VINA RESULT:     -10.1      3.748      6.213
REMARK SMILES O=Cc1ccc2c(c1)C=C(C(=O)OCCOC(=O)c1ccc(-c3c4nc(c(-c5ccc(S(=O)(=O)[O-])cc5)c5ccc([nH]5)c(-c5ccc(S(=O)(=O)[O-])cc5)c5nc(c(-c6ccc(S(=O)(=O)[O-])cc6)c6ccc3[nH]6)C=C5)C=C4)cc1)[C@H](C(F)(F)F)O2
REMARK SMILES IDX 15 1 14 2 13 3 11 4 12 5 10 6 3 7 4 8 8 9 5 10 7 11 6 12
REMARK SMILES IDX 9 13 84 14 79 15 2 16 1 17 80 18 81 19 82 20 83 21 16 22
REMARK SMILES IDX 17 23 18 24 19 25 20 26 78 27 21 28 77 29 22 30 23 31 24 32
REMARK SMILES IDX 71 33 25 34 76 35 70 36 72 37 26 38 75 39 69 40 68 41 27 43
REMARK SMILES IDX 57 44 38 45 56 46 39 47 42 48 55 49 73 50 40 51 41 52 54 54
REMARK SMILES IDX 74 55 43 56 28 57 29 58 37 59 30 60 36 61 31 62 32 63 33 64
REMARK SMILES IDX 34 65 35 66 58 67 59 68 67 69 60 70 66 71 61 72 62 73 63 74
REMARK SMILES IDX 64 75 65 76 44 77 45 78 53 79 46 80 52 81 47 82 48 83 49 84
REMARK SMILES IDX 50 85 51 86
REMARK H PARENT 72 42 42 53
REMARK Flexibility Score: inf
ROOT
ATOM      1  C   UNL A   1      33.300  28.738  27.553  1.00  0.00     0.275 C 
ENDROOT
BRANCH   1   2
ATOM      2  C   UNL A   1      31.987  28.624  26.773  1.00  0.00     0.275 C 
BRANCH   2   3
ATOM      3  O   UNL A   1      32.103  27.722  25.650  1.00  0.00    -0.459 OA
BRANCH   3   4
ATOM      4  C   UNL A   1      31.938  26.401  25.927  1.00  0.00     0.338 C 
ATOM      5  O   UNL A   1      31.083  25.941  26.662  1.00  0.00    -0.246 OA
BRANCH   4   6
ATOM      6  C   UNL A   1      32.921  25.555  25.205  1.00  0.00     0.087 C 
ATOM      7  C   UNL A   1      36.931  22.871  24.998  1.00  0.00     0.015 A 
ATOM      8  C   UNL A   1      36.702  22.634  23.640  1.00  0.00     0.015 A 
ATOM      9  C   UNL A   1      36.034  23.642  25.752  1.00  0.00     0.023 A 
ATOM     10  C   UNL A   1      35.541  23.123  23.045  1.00  0.00     0.048 A 
ATOM     11  C   UNL A   1      34.884  24.158  25.146  1.00  0.00     0.018 A 
ATOM     12  C   UNL A   1      34.636  23.867  23.802  1.00  0.00     0.128 A 
ATOM     13  C   UNL A   1      33.917  24.963  25.890  1.00  0.00     0.027 C 
ATOM     14  O   UNL A   1      33.471  24.211  23.182  1.00  0.00    -0.475 OA
ATOM     15  C   UNL A   1      32.779  25.381  23.699  1.00  0.00     0.316 C 
BRANCH   7  16
ATOM     16  C   UNL A   1      38.112  22.276  25.656  1.00  0.00     0.260 C 
ATOM     17  O   UNL A   1      38.868  22.930  26.365  1.00  0.00    -0.298 OA
ENDBRANCH   7  16
BRANCH  15  18
ATOM     18  C   UNL A   1      31.361  25.369  23.093  1.00  0.00     0.430 C 
ATOM     19  F   UNL A   1      30.752  26.571  23.207  1.00  0.00    -0.167 F 
ATOM     20  F   UNL A   1      31.425  25.115  21.760  1.00  0.00    -0.167 F 
ATOM     21  F   UNL A   1      30.575  24.419  23.643  1.00  0.00    -0.167 F 
ENDBRANCH  15  18
ENDBRANCH   4   6
ENDBRANCH   3   4
ENDBRANCH   2   3
ENDBRANCH   1   2
BRANCH   1  22
ATOM     22  O   UNL A   1      34.139  29.777  27.018  1.00  0.00    -0.458 OA
BRANCH  22  23
ATOM     23  C   UNL A   1      34.662  30.624  27.937  1.00  0.00     0.338 C 
ATOM     24  O   UNL A   1      34.079  31.518  28.529  1.00  0.00    -0.246 OA
BRANCH  23  25
ATOM     25  C   UNL A   1      36.009  30.157  28.311  1.00  0.00     0.060 A 
ATOM     26  C   UNL A   1      36.948  30.083  27.283  1.00  0.00     0.016 A 
ATOM     27  C   UNL A   1      36.363  29.810  29.615  1.00  0.00     0.016 A 
ATOM     28  C   UNL A   1      38.275  29.755  27.555  1.00  0.00     0.010 A 
ATOM     29  C   UNL A   1      37.685  29.425  29.882  1.00  0.00     0.010 A 
ATOM     30  C   UNL A   1      38.652  29.422  28.860  1.00  0.00    -0.014 A 
BRANCH  30  31
ATOM     31  C   UNL A   1      40.054  29.035  29.146  1.00  0.00     0.031 A 
ATOM     32  C   UNL A   1      41.005  30.045  29.716  1.00  0.00     0.074 A 
ATOM     33  C   UNL A   1      40.470  27.776  28.914  1.00  0.00     0.049 A 
ATOM     34  N   UNL A   1      42.290  29.938  29.932  1.00  0.00    -0.248 NA
ATOM     35  C   UNL A   1      40.429  31.340  30.111  1.00  0.00     0.031 C 
ATOM     36  C   UNL A   1      39.617  26.674  28.469  1.00  0.00     0.029 A 
ATOM     37  N   UNL A   1      41.719  27.216  29.012  1.00  0.00    -0.354 N 
ATOM     38  C   UNL A   1      42.683  31.153  30.477  1.00  0.00     0.074 A 
ATOM     39  C   UNL A   1      41.498  31.982  30.560  1.00  0.00     0.031 C 
ATOM     40  C   UNL A   1      40.376  25.575  28.304  1.00  0.00     0.029 A 
ATOM     41  C   UNL A   1      41.772  25.911  28.581  1.00  0.00     0.049 A 
ATOM     42  H   UNL A   1      42.503  27.702  29.357  1.00  0.00     0.167 HD
ATOM     43  C   UNL A   1      43.922  31.544  30.859  1.00  0.00     0.031 A 
ATOM     44  C   UNL A   1      42.829  25.097  28.387  1.00  0.00     0.031 A 
ATOM     45  C   UNL A   1      45.103  30.730  30.738  1.00  0.00     0.049 A 
ATOM     46  C   UNL A   1      44.218  25.608  28.676  1.00  0.00     0.074 A 
ATOM     47  C   UNL A   1      46.406  31.050  31.078  1.00  0.00     0.029 A 
ATOM     48  N   UNL A   1      45.129  29.444  30.221  1.00  0.00    -0.354 N 
ATOM     49  N   UNL A   1      44.582  26.764  29.181  1.00  0.00    -0.248 NA
ATOM     50  C   UNL A   1      45.339  24.712  28.357  1.00  0.00     0.031 C 
ATOM     51  C   UNL A   1      47.229  29.984  30.702  1.00  0.00     0.029 A 
ATOM     52  C   UNL A   1      46.431  28.973  30.190  1.00  0.00     0.049 A 
ATOM     53  H   UNL A   1      44.339  28.940  29.920  1.00  0.00     0.167 HD
ATOM     54  C   UNL A   1      45.972  26.724  29.256  1.00  0.00     0.074 A 
ATOM     55  C   UNL A   1      46.381  25.426  28.764  1.00  0.00     0.031 C 
ATOM     56  C   UNL A   1      46.831  27.679  29.692  1.00  0.00     0.031 A 
BRANCH  43  57
ATOM     57  C   UNL A   1      44.075  32.950  31.377  1.00  0.00    -0.014 A 
ATOM     58  C   UNL A   1      43.989  33.239  32.750  1.00  0.00     0.010 A 
ATOM     59  C   UNL A   1      44.346  33.991  30.470  1.00  0.00     0.010 A 
ATOM     60  C   UNL A   1      44.134  34.553  33.203  1.00  0.00     0.020 A 
ATOM     61  C   UNL A   1      44.517  35.302  30.923  1.00  0.00     0.020 A 
ATOM     62  C   UNL A   1      44.394  35.577  32.285  1.00  0.00     0.054 A 
BRANCH  62  63
ATOM     63  S   UNL A   1      44.590  37.271  32.903  1.00  0.00     0.124 S 
ATOM     64  O   UNL A   1      43.940  38.051  31.853  1.00  0.00    -0.237 OA
ATOM     65  O   UNL A   1      43.887  37.229  34.182  1.00  0.00    -0.237 OA
ATOM     66  O   UNL A   1      46.039  37.440  32.997  1.00  0.00    -0.744 OA
ENDBRANCH  62  63
ENDBRANCH  43  57
BRANCH  44  67
ATOM     67  C   UNL A   1      42.630  23.735  27.814  1.00  0.00    -0.014 A 
ATOM     68  C   UNL A   1      42.371  22.630  28.645  1.00  0.00     0.010 A 
ATOM     69  C   UNL A   1      42.724  23.532  26.424  1.00  0.00     0.010 A 
ATOM     70  C   UNL A   1      42.232  21.350  28.099  1.00  0.00     0.020 A 
ATOM     71  C   UNL A   1      42.555  22.260  25.871  1.00  0.00     0.020 A 
ATOM     72  C   UNL A   1      42.323  21.173  26.715  1.00  0.00     0.054 A 
BRANCH  72  73
ATOM     73  S   UNL A   1      42.102  19.509  26.025  1.00  0.00     0.124 S 
ATOM     74  O   UNL A   1      42.908  19.575  24.810  1.00  0.00    -0.237 OA
ATOM     75  O   UNL A   1      42.627  18.655  27.088  1.00  0.00    -0.237 OA
ATOM     76  O   UNL A   1      40.659  19.414  25.816  1.00  0.00    -0.744 OA
ENDBRANCH  72  73
ENDBRANCH  44  67
BRANCH  56  77
ATOM     77  C   UNL A   1      48.303  27.361  29.675  1.00  0.00    -0.014 A 
ATOM     78  C   UNL A   1      49.081  27.584  28.525  1.00  0.00     0.010 A 
ATOM     79  C   UNL A   1      48.933  26.910  30.850  1.00  0.00     0.010 A 
ATOM     80  C   UNL A   1      50.460  27.346  28.547  1.00  0.00     0.020 A 
ATOM     81  C   UNL A   1      50.314  26.698  30.883  1.00  0.00     0.020 A 
ATOM     82  C   UNL A   1      51.068  26.910  29.728  1.00  0.00     0.054 A 
BRANCH  82  83
ATOM     83  S   UNL A   1      52.867  26.678  29.748  1.00  0.00     0.124 S 
ATOM     84  O   UNL A   1      53.113  26.081  28.439  1.00  0.00    -0.237 OA
ATOM     85  O   UNL A   1      53.364  28.041  29.920  1.00  0.00    -0.237 OA
ATOM     86  O   UNL A   1      53.091  25.792  30.888  1.00  0.00    -0.744 OA
ENDBRANCH  82  83
ENDBRANCH  56  77
ENDBRANCH  30  31
ENDBRANCH  23  25
ENDBRANCH  22  23
ENDBRANCH   1  22
TORSDOF 16
ENDMDL
MODEL 3
REMARK VINA RESULT:      -9.7      6.055     12.183
REMARK SMILES O=Cc1ccc2c(c1)C=C(C(=O)OCCOC(=O)c1ccc(-c3c4nc(c(-c5ccc(S(=O)(=O)[O-])cc5)c5ccc([nH]5)c(-c5ccc(S(=O)(=O)[O-])cc5)c5nc(c(-c6ccc(S(=O)(=O)[O-])cc6)c6ccc3[nH]6)C=C5)C=C4)cc1)[C@H](C(F)(F)F)O2
REMARK SMILES IDX 15 1 14 2 13 3 11 4 12 5 10 6 3 7 4 8 8 9 5 10 7 11 6 12
REMARK SMILES IDX 9 13 84 14 79 15 2 16 1 17 80 18 81 19 82 20 83 21 16 22
REMARK SMILES IDX 17 23 18 24 19 25 20 26 78 27 21 28 77 29 22 30 23 31 24 32
REMARK SMILES IDX 71 33 25 34 76 35 70 36 72 37 26 38 75 39 69 40 68 41 27 43
REMARK SMILES IDX 57 44 38 45 56 46 39 47 42 48 55 49 73 50 40 51 41 52 54 54
REMARK SMILES IDX 74 55 43 56 28 57 29 58 37 59 30 60 36 61 31 62 32 63 33 64
REMARK SMILES IDX 34 65 35 66 58 67 59 68 67 69 60 70 66 71 61 72 62 73 63 74
REMARK SMILES IDX 64 75 65 76 44 77 45 78 53 79 46 80 52 81 47 82 48 83 49 84
REMARK SMILES IDX 50 85 51 86
REMARK H PARENT 72 42 42 53
REMARK Flexibility Score: inf
ROOT
ATOM      1  C   UNL A   1      38.717  22.926  26.132  1.00  0.00     0.275 C 
ENDROOT
BRANCH   1   2
ATOM      2  C   UNL A   1      37.417  23.590  25.669  1.00  0.00     0.275 C 
BRANCH   2   3
ATOM      3  O   UNL A   1      36.551  22.661  24.978  1.00  0.00    -0.459 OA
BRANCH   3   4
ATOM      4  C   UNL A   1      35.757  23.193  24.011  1.00  0.00     0.338 C 
ATOM      5  O   UNL A   1      35.971  23.126  22.813  1.00  0.00    -0.246 OA
BRANCH   4   6
ATOM      6  C   UNL A   1      34.561  23.862  24.580  1.00  0.00     0.087 C 
ATOM      7  C   UNL A   1      32.100  27.771  25.990  1.00  0.00     0.015 A 
ATOM      8  C   UNL A   1      31.024  26.960  26.362  1.00  0.00     0.015 A 
ATOM      9  C   UNL A   1      33.256  27.214  25.424  1.00  0.00     0.023 A 
ATOM     10  C   UNL A   1      31.082  25.590  26.115  1.00  0.00     0.048 A 
ATOM     11  C   UNL A   1      33.324  25.834  25.205  1.00  0.00     0.018 A 
ATOM     12  C   UNL A   1      32.221  25.040  25.528  1.00  0.00     0.128 A 
ATOM     13  C   UNL A   1      34.504  25.206  24.614  1.00  0.00     0.027 C 
ATOM     14  O   UNL A   1      32.156  23.715  25.211  1.00  0.00    -0.475 OA
ATOM     15  C   UNL A   1      33.423  23.005  25.117  1.00  0.00     0.316 C 
BRANCH   7  16
ATOM     16  C   UNL A   1      32.007  29.235  26.163  1.00  0.00     0.260 C 
ATOM     17  O   UNL A   1      31.380  29.949  25.391  1.00  0.00    -0.298 OA
ENDBRANCH   7  16
BRANCH  15  18
ATOM     18  C   UNL A   1      33.132  21.656  24.427  1.00  0.00     0.430 C 
ATOM     19  F   UNL A   1      31.891  21.202  24.710  1.00  0.00    -0.167 F 
ATOM     20  F   UNL A   1      33.169  21.805  23.077  1.00  0.00    -0.167 F 
ATOM     21  F   UNL A   1      34.036  20.708  24.750  1.00  0.00    -0.167 F 
ENDBRANCH  15  18
ENDBRANCH   4   6
ENDBRANCH   3   4
ENDBRANCH   2   3
ENDBRANCH   1   2
BRANCH   1  22
ATOM     22  O   UNL A   1      39.270  23.598  27.276  1.00  0.00    -0.458 OA
BRANCH  22  23
ATOM     23  C   UNL A   1      40.414  24.286  27.042  1.00  0.00     0.338 C 
ATOM     24  O   UNL A   1      41.192  24.125  26.115  1.00  0.00    -0.246 OA
BRANCH  23  25
ATOM     25  C   UNL A   1      40.473  25.446  27.949  1.00  0.00     0.060 A 
ATOM     26  C   UNL A   1      39.353  25.663  28.752  1.00  0.00     0.016 A 
ATOM     27  C   UNL A   1      41.576  26.295  28.035  1.00  0.00     0.016 A 
ATOM     28  C   UNL A   1      39.356  26.668  29.717  1.00  0.00     0.010 A 
ATOM     29  C   UNL A   1      41.559  27.343  28.966  1.00  0.00     0.010 A 
ATOM     30  C   UNL A   1      40.461  27.517  29.830  1.00  0.00    -0.014 A 
BRANCH  30  31
ATOM     31  C   UNL A   1      40.450  28.613  30.828  1.00  0.00     0.031 A 
ATOM     32  C   UNL A   1      41.376  28.556  32.007  1.00  0.00     0.074 A 
ATOM     33  C   UNL A   1      39.627  29.666  30.670  1.00  0.00     0.049 A 
ATOM     34  N   UNL A   1      41.443  29.351  33.042  1.00  0.00    -0.248 NA
ATOM     35  C   UNL A   1      42.368  27.470  32.010  1.00  0.00     0.031 C 
ATOM     36  C   UNL A   1      38.762  29.895  29.513  1.00  0.00     0.029 A 
ATOM     37  N   UNL A   1      39.378  30.736  31.493  1.00  0.00    -0.354 N 
ATOM     38  C   UNL A   1      42.475  28.859  33.829  1.00  0.00     0.074 A 
ATOM     39  C   UNL A   1      43.007  27.696  33.150  1.00  0.00     0.031 C 
ATOM     40  C   UNL A   1      38.054  31.021  29.715  1.00  0.00     0.029 A 
ATOM     41  C   UNL A   1      38.378  31.562  31.034  1.00  0.00     0.049 A 
ATOM     42  H   UNL A   1      39.868  30.897  32.332  1.00  0.00     0.167 HD
ATOM     43  C   UNL A   1      42.928  29.328  35.017  1.00  0.00     0.031 A 
ATOM     44  C   UNL A   1      37.763  32.603  31.629  1.00  0.00     0.031 A 
ATOM     45  C   UNL A   1      42.369  30.461  35.707  1.00  0.00     0.049 A 
ATOM     46  C   UNL A   1      38.182  33.012  33.019  1.00  0.00     0.074 A 
ATOM     47  C   UNL A   1      42.747  30.996  36.926  1.00  0.00     0.029 A 
ATOM     48  N   UNL A   1      41.304  31.222  35.249  1.00  0.00    -0.354 N 
ATOM     49  N   UNL A   1      39.153  32.534  33.762  1.00  0.00    -0.248 NA
ATOM     50  C   UNL A   1      37.415  34.092  33.656  1.00  0.00     0.031 C 
ATOM     51  C   UNL A   1      41.865  32.036  37.238  1.00  0.00     0.029 A 
ATOM     52  C   UNL A   1      40.981  32.193  36.182  1.00  0.00     0.049 A 
ATOM     53  H   UNL A   1      40.846  31.091  34.388  1.00  0.00     0.167 HD
ATOM     54  C   UNL A   1      39.122  33.267  34.945  1.00  0.00     0.074 A 
ATOM     55  C   UNL A   1      38.051  34.233  34.812  1.00  0.00     0.031 C 
ATOM     56  C   UNL A   1      39.909  33.148  36.043  1.00  0.00     0.031 A 
BRANCH  43  57
ATOM     57  C   UNL A   1      44.039  28.563  35.685  1.00  0.00    -0.014 A 
ATOM     58  C   UNL A   1      43.772  27.498  36.564  1.00  0.00     0.010 A 
ATOM     59  C   UNL A   1      45.374  28.899  35.398  1.00  0.00     0.010 A 
ATOM     60  C   UNL A   1      44.823  26.806  37.171  1.00  0.00     0.020 A 
ATOM     61  C   UNL A   1      46.428  28.193  35.984  1.00  0.00     0.020 A 
ATOM     62  C   UNL A   1      46.145  27.161  36.879  1.00  0.00     0.054 A 
BRANCH  62  63
ATOM     63  S   UNL A   1      47.489  26.237  37.672  1.00  0.00     0.124 S 
ATOM     64  O   UNL A   1      48.646  26.650  36.882  1.00  0.00    -0.237 OA
ATOM     65  O   UNL A   1      47.456  26.735  39.044  1.00  0.00    -0.237 OA
ATOM     66  O   UNL A   1      47.093  24.839  37.510  1.00  0.00    -0.744 OA
ENDBRANCH  62  63
ENDBRANCH  43  57
BRANCH  44  67
ATOM     67  C   UNL A   1      36.626  33.289  30.950  1.00  0.00    -0.014 A 
ATOM     68  C   UNL A   1      36.796  33.906  29.698  1.00  0.00     0.010 A 
ATOM     69  C   UNL A   1      35.364  33.348  31.572  1.00  0.00     0.010 A 
ATOM     70  C   UNL A   1      35.733  34.585  29.092  1.00  0.00     0.020 A 
ATOM     71  C   UNL A   1      34.292  33.999  30.957  1.00  0.00     0.020 A 
ATOM     72  C   UNL A   1      34.487  34.625  29.726  1.00  0.00     0.054 A 
BRANCH  72  73
ATOM     73  S   UNL A   1      33.112  35.480  28.905  1.00  0.00     0.124 S 
ATOM     74  O   UNL A   1      32.494  34.399  28.144  1.00  0.00    -0.237 OA
ATOM     75  O   UNL A   1      32.335  35.985  30.035  1.00  0.00    -0.237 OA
ATOM     76  O   UNL A   1      33.776  36.508  28.106  1.00  0.00    -0.744 OA
ENDBRANCH  72  73
ENDBRANCH  44  67
BRANCH  56  77
ATOM     77  C   UNL A   1      39.661  34.092  37.191  1.00  0.00    -0.014 A 
ATOM     78  C   UNL A   1      38.896  33.699  38.303  1.00  0.00     0.010 A 
ATOM     79  C   UNL A   1      40.269  35.362  37.193  1.00  0.00     0.010 A 
ATOM     80  C   UNL A   1      38.731  34.563  39.391  1.00  0.00     0.020 A 
ATOM     81  C   UNL A   1      40.129  36.217  38.290  1.00  0.00     0.020 A 
ATOM     82  C   UNL A   1      39.353  35.815  39.379  1.00  0.00     0.054 A 
BRANCH  82  83
ATOM     83  S   UNL A   1      39.181  36.887  40.832  1.00  0.00     0.124 S 
ATOM     84  O   UNL A   1      40.572  37.107  41.216  1.00  0.00    -0.237 OA
ATOM     85  O   UNL A   1      38.487  38.053  40.290  1.00  0.00    -0.237 OA
ATOM     86  O   UNL A   1      38.397  36.083  41.768  1.00  0.00    -0.744 OA
ENDBRANCH  82  83
ENDBRANCH  56  77
ENDBRANCH  30  31
ENDBRANCH  23  25
ENDBRANCH  22  23
ENDBRANCH   1  22
TORSDOF 16
ENDMDL
