MODEL 1
REMARK VINA RESULT:     -11.0      0.000      0.000
REMARK SMILES Cc1n[nH]c(CN(C)C(=O)N[C@](C)(C(=O)OCCOC(=O)c2ccc(-c3c4nc(c(-c5ccc(S(=O)(=O)[O-])cc5)c5ccc([nH]5)c(-c5ccc(S(=O)(=O)[O-])cc5)c5nc(c(-c6ccc(S(=O)(=O)[O-])cc6)c6ccc3[nH]6)C=C5)C=C4)cc2)C(F)(F)F)n1
REMARK SMILES IDX 17 1 16 2 14 3 15 4 12 5 13 6 11 7 9 8 10 9 7 11 8 12 6 13
REMARK SMILES IDX 5 14 1 15 2 16 3 17 86 18 4 19 82 21 83 22 84 23 85 24 18 25
REMARK SMILES IDX 19 26 20 27 21 28 22 29 23 30 81 31 24 32 80 33 25 34 26 35
REMARK SMILES IDX 27 36 74 37 28 38 79 39 73 40 75 41 29 42 78 43 72 44 71 45
REMARK SMILES IDX 30 47 60 48 41 49 59 50 42 51 45 52 58 53 76 54 43 55 44 56
REMARK SMILES IDX 57 58 77 59 46 60 31 61 32 62 40 63 33 64 39 65 34 66 35 67
REMARK SMILES IDX 36 68 37 69 38 70 61 71 62 72 70 73 63 74 69 75 64 76 65 77
REMARK SMILES IDX 66 78 67 79 68 80 47 81 48 82 56 83 49 84 55 85 50 86 51 87
REMARK SMILES IDX 52 88 53 89 54 90
REMARK H PARENT 11 10 4 20 75 46 45 57
REMARK Flexibility Score: inf
ROOT
ATOM      1  C   UNL A   1      33.215  29.416  27.192  1.00  0.00     0.274 C 
ENDROOT
BRANCH   1   2
ATOM      2  O   UNL A   1      32.544  28.482  26.324  1.00  0.00    -0.460 OA
BRANCH   2   3
ATOM      3  C   UNL A   1      31.710  27.537  26.872  1.00  0.00     0.341 C 
ATOM      4  O   UNL A   1      31.076  27.721  27.896  1.00  0.00    -0.249 OA
BRANCH   3   5
ATOM      5  C   UNL A   1      31.722  26.261  25.990  1.00  0.00     0.232 C 
ATOM      6  C   UNL A   1      33.068  26.299  25.248  1.00  0.00     0.058 C 
BRANCH   5   7
ATOM      7  N   UNL A   1      31.663  25.043  26.842  1.00  0.00    -0.315 N 
ATOM      8  C   UNL A   1      32.003  23.751  26.663  1.00  0.00     0.318 C 
ATOM      9  O   UNL A   1      31.623  22.998  27.570  1.00  0.00    -0.249 OA
ATOM     10  H   UNL A   1      31.295  25.220  27.738  1.00  0.00     0.166 HD
BRANCH   8  11
ATOM     11  N   UNL A   1      32.770  23.272  25.628  1.00  0.00    -0.320 N 
ATOM     12  C   UNL A   1      34.214  23.195  25.415  1.00  0.00     0.149 C 
BRANCH  11  13
ATOM     13  C   UNL A   1      32.027  22.739  24.497  1.00  0.00     0.197 C 
BRANCH  13  14
ATOM     14  C   UNL A   1      32.173  21.266  24.395  1.00  0.00     0.144 A 
ATOM     15  C   UNL A   1      32.743  18.045  23.079  1.00  0.00     0.092 C 
ATOM     16  C   UNL A   1      32.447  19.244  23.883  1.00  0.00     0.147 A 
ATOM     17  N   UNL A   1      32.260  19.186  25.207  1.00  0.00    -0.159 NA
ATOM     18  N   UNL A   1      32.368  20.501  23.340  1.00  0.00    -0.215 NA
ATOM     19  N   UNL A   1      32.137  20.484  25.511  1.00  0.00    -0.262 N 
ATOM     20  H   UNL A   1      32.032  20.831  26.427  1.00  0.00     0.192 HD
ENDBRANCH  13  14
ENDBRANCH  11  13
ENDBRANCH   8  11
ENDBRANCH   5   7
BRANCH   5  21
ATOM     21  C   UNL A   1      30.463  26.282  25.083  1.00  0.00     0.422 C 
ATOM     22  F   UNL A   1      30.137  27.509  24.641  1.00  0.00    -0.168 F 
ATOM     23  F   UNL A   1      30.653  25.527  23.963  1.00  0.00    -0.168 F 
ATOM     24  F   UNL A   1      29.362  25.747  25.661  1.00  0.00    -0.168 F 
ENDBRANCH   5  21
ENDBRANCH   3   5
ENDBRANCH   2   3
ENDBRANCH   1   2
BRANCH   1  25
ATOM     25  C   UNL A   1      32.643  30.829  27.092  1.00  0.00     0.275 C 
BRANCH  25  26
ATOM     26  O   UNL A   1      33.682  31.790  27.309  1.00  0.00    -0.458 OA
BRANCH  26  27
ATOM     27  C   UNL A   1      33.283  32.922  27.944  1.00  0.00     0.338 C 
ATOM     28  O   UNL A   1      32.366  33.652  27.664  1.00  0.00    -0.246 OA
BRANCH  27  29
ATOM     29  C   UNL A   1      34.317  33.420  28.826  1.00  0.00     0.060 A 
ATOM     30  C   UNL A   1      35.286  34.296  28.305  1.00  0.00     0.016 A 
ATOM     31  C   UNL A   1      34.688  32.407  29.684  1.00  0.00     0.016 A 
ATOM     32  C   UNL A   1      36.627  33.859  28.331  1.00  0.00     0.010 A 
ATOM     33  C   UNL A   1      35.997  32.390  30.029  1.00  0.00     0.010 A 
ATOM     34  C   UNL A   1      36.943  32.669  29.043  1.00  0.00    -0.014 A 
BRANCH  34  35
ATOM     35  C   UNL A   1      38.293  32.237  29.564  1.00  0.00     0.031 A 
ATOM     36  C   UNL A   1      38.242  30.649  29.206  1.00  0.00     0.074 A 
ATOM     37  C   UNL A   1      39.339  33.093  30.031  1.00  0.00     0.049 A 
ATOM     38  N   UNL A   1      37.861  29.744  30.067  1.00  0.00    -0.248 NA
ATOM     39  C   UNL A   1      38.068  30.011  27.822  1.00  0.00     0.031 C 
ATOM     40  C   UNL A   1      39.498  34.572  30.411  1.00  0.00     0.029 A 
ATOM     41  N   UNL A   1      40.675  32.762  30.321  1.00  0.00    -0.354 N 
ATOM     42  C   UNL A   1      38.033  28.504  29.439  1.00  0.00     0.074 A 
ATOM     43  C   UNL A   1      37.826  28.718  28.060  1.00  0.00     0.031 C 
ATOM     44  C   UNL A   1      40.821  34.969  30.493  1.00  0.00     0.029 A 
ATOM     45  C   UNL A   1      41.680  33.812  30.325  1.00  0.00     0.049 A 
ATOM     46  H   UNL A   1      40.926  31.831  30.520  1.00  0.00     0.167 HD
ATOM     47  C   UNL A   1      38.790  27.551  30.039  1.00  0.00     0.031 A 
ATOM     48  C   UNL A   1      43.068  33.705  30.510  1.00  0.00     0.031 A 
ATOM     49  C   UNL A   1      38.997  27.953  31.402  1.00  0.00     0.049 A 
ATOM     50  C   UNL A   1      43.260  32.315  31.020  1.00  0.00     0.074 A 
ATOM     51  C   UNL A   1      38.144  28.210  32.454  1.00  0.00     0.029 A 
ATOM     52  N   UNL A   1      40.098  28.755  31.548  1.00  0.00    -0.354 N 
ATOM     53  N   UNL A   1      42.837  31.996  32.216  1.00  0.00    -0.248 NA
ATOM     54  C   UNL A   1      43.176  31.280  29.986  1.00  0.00     0.031 C 
ATOM     55  C   UNL A   1      38.630  29.411  33.046  1.00  0.00     0.029 A 
ATOM     56  C   UNL A   1      39.867  29.722  32.485  1.00  0.00     0.049 A 
ATOM     57  H   UNL A   1      40.938  28.649  31.046  1.00  0.00     0.167 HD
ATOM     58  C   UNL A   1      41.968  30.941  31.990  1.00  0.00     0.074 A 
ATOM     59  C   UNL A   1      42.222  30.539  30.575  1.00  0.00     0.031 C 
ATOM     60  C   UNL A   1      40.829  30.764  32.743  1.00  0.00     0.031 A 
BRANCH  47  61
ATOM     61  C   UNL A   1      39.751  26.616  29.345  1.00  0.00    -0.014 A 
ATOM     62  C   UNL A   1      41.034  27.132  29.090  1.00  0.00     0.010 A 
ATOM     63  C   UNL A   1      39.410  25.394  28.715  1.00  0.00     0.010 A 
ATOM     64  C   UNL A   1      41.940  26.470  28.263  1.00  0.00     0.020 A 
ATOM     65  C   UNL A   1      40.332  24.701  27.906  1.00  0.00     0.020 A 
ATOM     66  C   UNL A   1      41.595  25.249  27.691  1.00  0.00     0.054 A 
BRANCH  66  67
ATOM     67  S   UNL A   1      42.857  24.394  26.714  1.00  0.00     0.124 S 
ATOM     68  O   UNL A   1      43.743  23.862  27.743  1.00  0.00    -0.237 OA
ATOM     69  O   UNL A   1      42.058  23.402  25.997  1.00  0.00    -0.237 OA
ATOM     70  O   UNL A   1      43.424  25.449  25.878  1.00  0.00    -0.744 OA
ENDBRANCH  66  67
ENDBRANCH  47  61
BRANCH  48  71
ATOM     71  C   UNL A   1      44.205  34.409  29.732  1.00  0.00    -0.014 A 
ATOM     72  C   UNL A   1      45.595  34.588  30.064  1.00  0.00     0.010 A 
ATOM     73  C   UNL A   1      43.889  34.669  28.396  1.00  0.00     0.010 A 
ATOM     74  C   UNL A   1      46.583  34.931  29.067  1.00  0.00     0.020 A 
ATOM     75  C   UNL A   1      44.845  34.968  27.416  1.00  0.00     0.020 A 
ATOM     76  C   UNL A   1      46.193  35.071  27.733  1.00  0.00     0.054 A 
BRANCH  76  77
ATOM     77  S   UNL A   1      47.392  35.235  26.353  1.00  0.00     0.124 S 
ATOM     78  O   UNL A   1      47.418  33.894  25.777  1.00  0.00    -0.237 OA
ATOM     79  O   UNL A   1      46.791  36.272  25.520  1.00  0.00    -0.237 OA
ATOM     80  O   UNL A   1      48.629  35.635  27.026  1.00  0.00    -0.744 OA
ENDBRANCH  76  77
ENDBRANCH  48  71
BRANCH  60  81
ATOM     81  C   UNL A   1      40.522  31.653  33.947  1.00  0.00    -0.014 A 
ATOM     82  C   UNL A   1      40.912  31.456  35.298  1.00  0.00     0.010 A 
ATOM     83  C   UNL A   1      39.969  32.899  33.625  1.00  0.00     0.010 A 
ATOM     84  C   UNL A   1      40.628  32.423  36.292  1.00  0.00     0.020 A 
ATOM     85  C   UNL A   1      39.727  33.877  34.590  1.00  0.00     0.020 A 
ATOM     86  C   UNL A   1      40.013  33.622  35.928  1.00  0.00     0.054 A 
BRANCH  86  87
ATOM     87  S   UNL A   1      39.622  34.873  37.188  1.00  0.00     0.124 S 
ATOM     88  O   UNL A   1      40.850  34.931  37.974  1.00  0.00    -0.237 OA
ATOM     89  O   UNL A   1      39.329  36.059  36.390  1.00  0.00    -0.237 OA
ATOM     90  O   UNL A   1      38.468  34.307  37.891  1.00  0.00    -0.744 OA
ENDBRANCH  86  87
ENDBRANCH  60  81
ENDBRANCH  34  35
ENDBRANCH  27  29
ENDBRANCH  26  27
ENDBRANCH  25  26
ENDBRANCH   1  25
TORSDOF 19
ENDMDL
MODEL 2
REMARK VINA RESULT:     -10.8      3.248      7.698
REMARK SMILES Cc1n[nH]c(CN(C)C(=O)N[C@](C)(C(=O)OCCOC(=O)c2ccc(-c3c4nc(c(-c5ccc(S(=O)(=O)[O-])cc5)c5ccc([nH]5)c(-c5ccc(S(=O)(=O)[O-])cc5)c5nc(c(-c6ccc(S(=O)(=O)[O-])cc6)c6ccc3[nH]6)C=C5)C=C4)cc2)C(F)(F)F)n1
REMARK SMILES IDX 17 1 16 2 14 3 15 4 12 5 13 6 11 7 9 8 10 9 7 11 8 12 6 13
REMARK SMILES IDX 5 14 1 15 2 16 3 17 86 18 4 19 82 21 83 22 84 23 85 24 18 25
REMARK SMILES IDX 19 26 20 27 21 28 22 29 23 30 81 31 24 32 80 33 25 34 26 35
REMARK SMILES IDX 27 36 74 37 28 38 79 39 73 40 75 41 29 42 78 43 72 44 71 45
REMARK SMILES IDX 30 47 60 48 41 49 59 50 42 51 45 52 58 53 76 54 43 55 44 56
REMARK SMILES IDX 57 58 77 59 46 60 31 61 32 62 40 63 33 64 39 65 34 66 35 67
REMARK SMILES IDX 36 68 37 69 38 70 61 71 62 72 70 73 63 74 69 75 64 76 65 77
REMARK SMILES IDX 66 78 67 79 68 80 47 81 48 82 56 83 49 84 55 85 50 86 51 87
REMARK SMILES IDX 52 88 53 89 54 90
REMARK H PARENT 11 10 4 20 75 46 45 57
REMARK Flexibility Score: inf
ROOT
ATOM      1  C   UNL A   1      35.847  23.291  26.023  1.00  0.00     0.274 C 
ENDROOT
BRANCH   1   2
ATOM      2  O   UNL A   1      35.379  24.422  25.263  1.00  0.00    -0.460 OA
BRANCH   2   3
ATOM      3  C   UNL A   1      34.776  24.208  24.046  1.00  0.00     0.341 C 
ATOM      4  O   UNL A   1      35.357  23.723  23.090  1.00  0.00    -0.249 OA
BRANCH   3   5
ATOM      5  C   UNL A   1      33.298  24.671  24.112  1.00  0.00     0.232 C 
ATOM      6  C   UNL A   1      32.776  24.559  22.670  1.00  0.00     0.058 C 
BRANCH   5   7
ATOM      7  N   UNL A   1      32.512  23.765  24.992  1.00  0.00    -0.315 N 
ATOM      8  C   UNL A   1      32.113  22.480  24.905  1.00  0.00     0.318 C 
ATOM      9  O   UNL A   1      31.305  22.142  25.781  1.00  0.00    -0.249 OA
ATOM     10  H   UNL A   1      32.218  24.200  25.825  1.00  0.00     0.166 HD
BRANCH   8  11
ATOM     11  N   UNL A   1      32.588  21.565  23.997  1.00  0.00    -0.320 N 
ATOM     12  C   UNL A   1      32.137  21.162  22.666  1.00  0.00     0.149 C 
BRANCH  11  13
ATOM     13  C   UNL A   1      33.767  20.824  24.416  1.00  0.00     0.197 C 
BRANCH  13  14
ATOM     14  C   UNL A   1      33.430  19.422  24.769  1.00  0.00     0.144 A 
ATOM     15  C   UNL A   1      33.284  15.900  24.701  1.00  0.00     0.092 C 
ATOM     16  C   UNL A   1      33.159  17.345  24.962  1.00  0.00     0.147 A 
ATOM     17  N   UNL A   1      32.530  17.822  26.043  1.00  0.00    -0.159 NA
ATOM     18  N   UNL A   1      33.698  18.298  24.136  1.00  0.00    -0.215 NA
ATOM     19  N   UNL A   1      32.759  19.136  25.920  1.00  0.00    -0.262 N 
ATOM     20  H   UNL A   1      32.477  19.811  26.579  1.00  0.00     0.192 HD
ENDBRANCH  13  14
ENDBRANCH  11  13
ENDBRANCH   8  11
ENDBRANCH   5   7
BRANCH   5  21
ATOM     21  C   UNL A   1      33.259  26.098  24.722  1.00  0.00     0.422 C 
ATOM     22  F   UNL A   1      33.676  26.149  25.999  1.00  0.00    -0.168 F 
ATOM     23  F   UNL A   1      34.075  26.947  24.034  1.00  0.00    -0.168 F 
ATOM     24  F   UNL A   1      32.041  26.687  24.663  1.00  0.00    -0.168 F 
ENDBRANCH   5  21
ENDBRANCH   3   5
ENDBRANCH   2   3
ENDBRANCH   1   2
BRANCH   1  25
ATOM     25  C   UNL A   1      37.332  23.007  25.804  1.00  0.00     0.275 C 
BRANCH  25  26
ATOM     26  O   UNL A   1      38.121  23.949  26.538  1.00  0.00    -0.458 OA
BRANCH  26  27
ATOM     27  C   UNL A   1      39.451  23.678  26.562  1.00  0.00     0.338 C 
ATOM     28  O   UNL A   1      39.995  22.635  26.823  1.00  0.00    -0.246 OA
BRANCH  27  29
ATOM     29  C   UNL A   1      40.233  24.894  26.603  1.00  0.00     0.060 A 
ATOM     30  C   UNL A   1      41.495  24.866  27.224  1.00  0.00     0.016 A 
ATOM     31  C   UNL A   1      39.382  25.958  26.812  1.00  0.00     0.016 A 
ATOM     32  C   UNL A   1      41.674  25.693  28.354  1.00  0.00     0.010 A 
ATOM     33  C   UNL A   1      39.885  26.964  27.565  1.00  0.00     0.010 A 
ATOM     34  C   UNL A   1      40.657  26.633  28.678  1.00  0.00    -0.014 A 
BRANCH  34  35
ATOM     35  C   UNL A   1      40.785  27.870  29.535  1.00  0.00     0.031 A 
ATOM     36  C   UNL A   1      41.914  28.686  28.691  1.00  0.00     0.074 A 
ATOM     37  C   UNL A   1      39.953  28.229  30.641  1.00  0.00     0.049 A 
ATOM     38  N   UNL A   1      43.187  28.622  28.973  1.00  0.00    -0.248 NA
ATOM     39  C   UNL A   1      41.829  29.154  27.232  1.00  0.00     0.031 C 
ATOM     40  C   UNL A   1      38.884  27.554  31.512  1.00  0.00     0.029 A 
ATOM     41  N   UNL A   1      39.893  29.455  31.328  1.00  0.00    -0.354 N 
ATOM     42  C   UNL A   1      43.829  29.513  28.104  1.00  0.00     0.074 A 
ATOM     43  C   UNL A   1      43.072  29.534  26.914  1.00  0.00     0.031 C 
ATOM     44  C   UNL A   1      38.143  28.456  32.253  1.00  0.00     0.029 A 
ATOM     45  C   UNL A   1      38.698  29.786  32.086  1.00  0.00     0.049 A 
ATOM     46  H   UNL A   1      40.653  30.081  31.296  1.00  0.00     0.167 HD
ATOM     47  C   UNL A   1      44.622  30.490  28.615  1.00  0.00     0.031 A 
ATOM     48  C   UNL A   1      38.389  30.968  32.777  1.00  0.00     0.031 A 
ATOM     49  C   UNL A   1      44.875  30.170  29.991  1.00  0.00     0.049 A 
ATOM     50  C   UNL A   1      39.688  31.702  32.837  1.00  0.00     0.074 A 
ATOM     51  C   UNL A   1      45.466  29.095  30.622  1.00  0.00     0.029 A 
ATOM     52  N   UNL A   1      43.914  30.672  30.829  1.00  0.00    -0.354 N 
ATOM     53  N   UNL A   1      40.664  31.242  33.578  1.00  0.00    -0.248 NA
ATOM     54  C   UNL A   1      40.061  32.365  31.584  1.00  0.00     0.031 C 
ATOM     55  C   UNL A   1      44.609  28.786  31.716  1.00  0.00     0.029 A 
ATOM     56  C   UNL A   1      43.660  29.798  31.847  1.00  0.00     0.049 A 
ATOM     57  H   UNL A   1      43.468  31.542  30.712  1.00  0.00     0.167 HD
ATOM     58  C   UNL A   1      41.709  31.078  32.685  1.00  0.00     0.074 A 
ATOM     59  C   UNL A   1      41.272  31.798  31.454  1.00  0.00     0.031 C 
ATOM     60  C   UNL A   1      42.608  30.040  32.802  1.00  0.00     0.031 A 
BRANCH  47  61
ATOM     61  C   UNL A   1      44.711  31.911  28.113  1.00  0.00    -0.014 A 
ATOM     62  C   UNL A   1      45.989  32.342  27.717  1.00  0.00     0.010 A 
ATOM     63  C   UNL A   1      43.707  32.901  28.242  1.00  0.00     0.010 A 
ATOM     64  C   UNL A   1      46.261  33.684  27.451  1.00  0.00     0.020 A 
ATOM     65  C   UNL A   1      43.964  34.253  27.942  1.00  0.00     0.020 A 
ATOM     66  C   UNL A   1      45.244  34.631  27.543  1.00  0.00     0.054 A 
BRANCH  66  67
ATOM     67  S   UNL A   1      45.642  36.335  27.082  1.00  0.00     0.124 S 
ATOM     68  O   UNL A   1      46.423  36.796  28.225  1.00  0.00    -0.237 OA
ATOM     69  O   UNL A   1      46.394  36.140  25.843  1.00  0.00    -0.237 OA
ATOM     70  O   UNL A   1      44.335  36.966  26.916  1.00  0.00    -0.744 OA
ENDBRANCH  66  67
ENDBRANCH  47  61
BRANCH  48  71
ATOM     71  C   UNL A   1      37.055  31.750  32.811  1.00  0.00    -0.014 A 
ATOM     72  C   UNL A   1      36.436  32.500  33.874  1.00  0.00     0.010 A 
ATOM     73  C   UNL A   1      36.512  31.981  31.544  1.00  0.00     0.010 A 
ATOM     74  C   UNL A   1      35.393  33.467  33.621  1.00  0.00     0.020 A 
ATOM     75  C   UNL A   1      35.525  32.941  31.286  1.00  0.00     0.020 A 
ATOM     76  C   UNL A   1      34.983  33.708  32.308  1.00  0.00     0.054 A 
BRANCH  76  77
ATOM     77  S   UNL A   1      33.870  35.094  31.847  1.00  0.00     0.124 S 
ATOM     78  O   UNL A   1      32.590  34.694  32.421  1.00  0.00    -0.237 OA
ATOM     79  O   UNL A   1      34.511  36.249  32.468  1.00  0.00    -0.237 OA
ATOM     80  O   UNL A   1      33.912  35.088  30.384  1.00  0.00    -0.744 OA
ENDBRANCH  76  77
ENDBRANCH  48  71
BRANCH  60  81
ATOM     81  C   UNL A   1      42.570  29.082  33.992  1.00  0.00    -0.014 A 
ATOM     82  C   UNL A   1      42.959  29.341  35.332  1.00  0.00     0.010 A 
ATOM     83  C   UNL A   1      41.881  27.886  33.754  1.00  0.00     0.010 A 
ATOM     84  C   UNL A   1      42.778  28.373  36.349  1.00  0.00     0.020 A 
ATOM     85  C   UNL A   1      41.656  26.945  34.760  1.00  0.00     0.020 A 
ATOM     86  C   UNL A   1      42.144  27.168  36.045  1.00  0.00     0.054 A 
BRANCH  86  87
ATOM     87  S   UNL A   1      41.915  25.901  37.329  1.00  0.00     0.124 S 
ATOM     88  O   UNL A   1      40.509  26.060  37.687  1.00  0.00    -0.237 OA
ATOM     89  O   UNL A   1      42.251  24.665  36.630  1.00  0.00    -0.237 OA
ATOM     90  O   UNL A   1      42.864  26.292  38.374  1.00  0.00    -0.744 OA
ENDBRANCH  86  87
ENDBRANCH  60  81
ENDBRANCH  34  35
ENDBRANCH  27  29
ENDBRANCH  26  27
ENDBRANCH  25  26
ENDBRANCH   1  25
TORSDOF 19
ENDMDL
MODEL 3
REMARK VINA RESULT:     -10.6      3.067      7.219
REMARK SMILES Cc1n[nH]c(CN(C)C(=O)N[C@](C)(C(=O)OCCOC(=O)c2ccc(-c3c4nc(c(-c5ccc(S(=O)(=O)[O-])cc5)c5ccc([nH]5)c(-c5ccc(S(=O)(=O)[O-])cc5)c5nc(c(-c6ccc(S(=O)(=O)[O-])cc6)c6ccc3[nH]6)C=C5)C=C4)cc2)C(F)(F)F)n1
REMARK SMILES IDX 17 1 16 2 14 3 15 4 12 5 13 6 11 7 9 8 10 9 7 11 8 12 6 13
REMARK SMILES IDX 5 14 1 15 2 16 3 17 86 18 4 19 82 21 83 22 84 23 85 24 18 25
REMARK SMILES IDX 19 26 20 27 21 28 22 29 23 30 81 31 24 32 80 33 25 34 26 35
REMARK SMILES IDX 27 36 74 37 28 38 79 39 73 40 75 41 29 42 78 43 72 44 71 45
REMARK SMILES IDX 30 47 60 48 41 49 59 50 42 51 45 52 58 53 76 54 43 55 44 56
REMARK SMILES IDX 57 58 77 59 46 60 31 61 32 62 40 63 33 64 39 65 34 66 35 67
REMARK SMILES IDX 36 68 37 69 38 70 61 71 62 72 70 73 63 74 69 75 64 76 65 77
REMARK SMILES IDX 66 78 67 79 68 80 47 81 48 82 56 83 49 84 55 85 50 86 51 87
REMARK SMILES IDX 52 88 53 89 54 90
REMARK H PARENT 11 10 4 20 75 46 45 57
REMARK Flexibility Score: inf
ROOT
ATOM      1  C   UNL A   1      31.945  30.373  26.359  1.00  0.00     0.274 C 
ENDROOT
BRANCH   1   2
ATOM      2  O   UNL A   1      32.462  29.041  26.173  1.00  0.00    -0.460 OA
BRANCH   2   3
ATOM      3  C   UNL A   1      31.799  27.979  26.743  1.00  0.00     0.341 C 
ATOM      4  O   UNL A   1      31.130  28.078  27.757  1.00  0.00    -0.249 OA
BRANCH   3   5
ATOM      5  C   UNL A   1      32.045  26.702  25.898  1.00  0.00     0.232 C 
ATOM      6  C   UNL A   1      33.529  26.763  25.501  1.00  0.00     0.058 C 
BRANCH   5   7
ATOM      7  N   UNL A   1      31.804  25.485  26.721  1.00  0.00    -0.315 N 
ATOM      8  C   UNL A   1      31.846  24.160  26.476  1.00  0.00     0.318 C 
ATOM      9  O   UNL A   1      31.395  23.462  27.395  1.00  0.00    -0.249 OA
ATOM     10  H   UNL A   1      31.560  25.694  27.651  1.00  0.00     0.166 HD
BRANCH   8  11
ATOM     11  N   UNL A   1      32.402  23.580  25.361  1.00  0.00    -0.320 N 
ATOM     12  C   UNL A   1      33.736  23.646  24.768  1.00  0.00     0.149 C 
BRANCH  11  13
ATOM     13  C   UNL A   1      31.507  22.734  24.587  1.00  0.00     0.197 C 
BRANCH  13  14
ATOM     14  C   UNL A   1      31.954  21.319  24.592  1.00  0.00     0.144 A 
ATOM     15  C   UNL A   1      33.116  18.176  23.497  1.00  0.00     0.092 C 
ATOM     16  C   UNL A   1      32.619  19.358  24.223  1.00  0.00     0.147 A 
ATOM     17  N   UNL A   1      32.524  19.386  25.558  1.00  0.00    -0.159 NA
ATOM     18  N   UNL A   1      32.246  20.516  23.590  1.00  0.00    -0.215 NA
ATOM     19  N   UNL A   1      32.147  20.655  25.766  1.00  0.00    -0.262 N 
ATOM     20  H   UNL A   1      32.024  21.057  26.657  1.00  0.00     0.192 HD
ENDBRANCH  13  14
ENDBRANCH  11  13
ENDBRANCH   8  11
ENDBRANCH   5   7
BRANCH   5  21
ATOM     21  C   UNL A   1      31.041  26.697  24.715  1.00  0.00     0.422 C 
ATOM     22  F   UNL A   1      30.021  25.837  24.877  1.00  0.00    -0.168 F 
ATOM     23  F   UNL A   1      30.465  27.924  24.557  1.00  0.00    -0.168 F 
ATOM     24  F   UNL A   1      31.610  26.440  23.514  1.00  0.00    -0.168 F 
ENDBRANCH   5  21
ENDBRANCH   3   5
ENDBRANCH   2   3
ENDBRANCH   1   2
BRANCH   1  25
ATOM     25  C   UNL A   1      32.876  31.257  27.187  1.00  0.00     0.275 C 
BRANCH  25  26
ATOM     26  O   UNL A   1      34.099  30.561  27.450  1.00  0.00    -0.458 OA
BRANCH  26  27
ATOM     27  C   UNL A   1      35.099  31.339  27.940  1.00  0.00     0.338 C 
ATOM     28  O   UNL A   1      35.545  32.359  27.479  1.00  0.00    -0.246 OA
BRANCH  27  29
ATOM     29  C   UNL A   1      35.884  30.625  28.924  1.00  0.00     0.060 A 
ATOM     30  C   UNL A   1      36.530  31.359  29.935  1.00  0.00     0.016 A 
ATOM     31  C   UNL A   1      36.538  29.586  28.296  1.00  0.00     0.016 A 
ATOM     32  C   UNL A   1      37.939  31.294  29.976  1.00  0.00     0.010 A 
ATOM     33  C   UNL A   1      37.768  29.299  28.781  1.00  0.00     0.010 A 
ATOM     34  C   UNL A   1      38.603  30.358  29.135  1.00  0.00    -0.014 A 
BRANCH  34  35
ATOM     35  C   UNL A   1      40.002  29.811  29.290  1.00  0.00     0.031 A 
ATOM     36  C   UNL A   1      40.120  29.785  30.914  1.00  0.00     0.074 A 
ATOM     37  C   UNL A   1      40.833  29.292  28.249  1.00  0.00     0.049 A 
ATOM     38  N   UNL A   1      40.658  30.759  31.597  1.00  0.00    -0.248 NA
ATOM     39  C   UNL A   1      39.226  29.023  31.901  1.00  0.00     0.031 C 
ATOM     40  C   UNL A   1      40.832  29.269  26.713  1.00  0.00     0.029 A 
ATOM     41  N   UNL A   1      42.042  28.583  28.366  1.00  0.00    -0.354 N 
ATOM     42  C   UNL A   1      40.663  30.346  32.936  1.00  0.00     0.074 A 
ATOM     43  C   UNL A   1      39.539  29.511  33.106  1.00  0.00     0.031 C 
ATOM     44  C   UNL A   1      41.711  28.340  26.187  1.00  0.00     0.029 A 
ATOM     45  C   UNL A   1      42.485  27.749  27.262  1.00  0.00     0.049 A 
ATOM     46  H   UNL A   1      42.582  28.652  29.187  1.00  0.00     0.167 HD
ATOM     47  C   UNL A   1      41.832  30.337  33.627  1.00  0.00     0.031 A 
ATOM     48  C   UNL A   1      43.604  26.903  27.187  1.00  0.00     0.031 A 
ATOM     49  C   UNL A   1      42.792  31.088  32.869  1.00  0.00     0.049 A 
ATOM     50  C   UNL A   1      44.425  27.283  28.374  1.00  0.00     0.074 A 
ATOM     51  C   UNL A   1      42.841  32.395  32.430  1.00  0.00     0.029 A 
ATOM     52  N   UNL A   1      43.459  30.313  31.958  1.00  0.00    -0.354 N 
ATOM     53  N   UNL A   1      45.014  28.452  28.412  1.00  0.00    -0.248 NA
ATOM     54  C   UNL A   1      43.928  26.747  29.644  1.00  0.00     0.031 C 
ATOM     55  C   UNL A   1      43.279  32.319  31.077  1.00  0.00     0.029 A 
ATOM     56  C   UNL A   1      43.687  31.014  30.807  1.00  0.00     0.049 A 
ATOM     57  H   UNL A   1      43.734  29.381  32.110  1.00  0.00     0.167 HD
ATOM     58  C   UNL A   1      44.517  29.035  29.566  1.00  0.00     0.074 A 
ATOM     59  C   UNL A   1      43.844  27.921  30.294  1.00  0.00     0.031 C 
ATOM     60  C   UNL A   1      44.273  30.389  29.648  1.00  0.00     0.031 A 
BRANCH  47  61
ATOM     61  C   UNL A   1      42.268  29.282  34.615  1.00  0.00    -0.014 A 
ATOM     62  C   UNL A   1      42.822  29.757  35.816  1.00  0.00     0.010 A 
ATOM     63  C   UNL A   1      42.403  27.898  34.345  1.00  0.00     0.010 A 
ATOM     64  C   UNL A   1      43.469  28.908  36.713  1.00  0.00     0.020 A 
ATOM     65  C   UNL A   1      43.024  27.027  35.261  1.00  0.00     0.020 A 
ATOM     66  C   UNL A   1      43.549  27.544  36.443  1.00  0.00     0.054 A 
BRANCH  66  67
ATOM     67  S   UNL A   1      44.309  26.485  37.700  1.00  0.00     0.124 S 
ATOM     68  O   UNL A   1      44.293  27.340  38.882  1.00  0.00    -0.237 OA
ATOM     69  O   UNL A   1      43.387  25.351  37.731  1.00  0.00    -0.237 OA
ATOM     70  O   UNL A   1      45.631  26.190  37.153  1.00  0.00    -0.744 OA
ENDBRANCH  66  67
ENDBRANCH  47  61
BRANCH  48  71
ATOM     71  C   UNL A   1      43.699  25.473  26.605  1.00  0.00    -0.014 A 
ATOM     72  C   UNL A   1      43.079  24.893  25.442  1.00  0.00     0.010 A 
ATOM     73  C   UNL A   1      44.753  24.724  27.137  1.00  0.00     0.010 A 
ATOM     74  C   UNL A   1      43.569  23.674  24.840  1.00  0.00     0.020 A 
ATOM     75  C   UNL A   1      45.256  23.561  26.540  1.00  0.00     0.020 A 
ATOM     76  C   UNL A   1      44.694  23.046  25.379  1.00  0.00     0.054 A 
BRANCH  76  77
ATOM     77  S   UNL A   1      45.560  21.658  24.546  1.00  0.00     0.124 S 
ATOM     78  O   UNL A   1      44.579  21.196  23.569  1.00  0.00    -0.237 OA
ATOM     79  O   UNL A   1      46.751  22.299  23.996  1.00  0.00    -0.237 OA
ATOM     80  O   UNL A   1      45.823  20.719  25.638  1.00  0.00    -0.744 OA
ENDBRANCH  76  77
ENDBRANCH  48  71
BRANCH  60  81
ATOM     81  C   UNL A   1      44.648  31.338  28.511  1.00  0.00    -0.014 A 
ATOM     82  C   UNL A   1      43.929  31.588  27.313  1.00  0.00     0.010 A 
ATOM     83  C   UNL A   1      45.716  32.197  28.799  1.00  0.00     0.010 A 
ATOM     84  C   UNL A   1      44.361  32.572  26.391  1.00  0.00     0.020 A 
ATOM     85  C   UNL A   1      46.120  33.201  27.917  1.00  0.00     0.020 A 
ATOM     86  C   UNL A   1      45.473  33.357  26.695  1.00  0.00     0.054 A 
BRANCH  86  87
ATOM     87  S   UNL A   1      46.057  34.616  25.520  1.00  0.00     0.124 S 
ATOM     88  O   UNL A   1      45.202  34.392  24.359  1.00  0.00    -0.237 OA
ATOM     89  O   UNL A   1      45.828  35.865  26.240  1.00  0.00    -0.237 OA
ATOM     90  O   UNL A   1      47.468  34.274  25.320  1.00  0.00    -0.744 OA
ENDBRANCH  86  87
ENDBRANCH  60  81
ENDBRANCH  34  35
ENDBRANCH  27  29
ENDBRANCH  26  27
ENDBRANCH  25  26
ENDBRANCH   1  25
TORSDOF 19
ENDMDL
