MODEL 1
REMARK VINA RESULT:      -8.5      0.000      0.000
REMARK SMILES CCC[N@@H+](C)CC[C@@H]1CCC[C@]1([NH2+]C)C(=O)OCCOC(=O)c1ccc(-c2c3nc(c(-c4ccc(S(=O)(=O)[O-])cc4)c4ccc([nH]4)c(-c4ccc(S(=O)(=O)[O-])cc4)c4nc(c(-c5ccc(S(=O)(=O)[O-])cc5)c5ccc2[nH]5)C=C4)C=C3)cc1
REMARK SMILES IDX 18 1 17 2 15 3 16 4 12 5 8 6 9 7 10 8 11 9 7 10 6 11 4 12
REMARK SMILES IDX 5 13 3 15 2 16 1 17 13 18 14 19 19 22 20 23 21 24 22 25
REMARK SMILES IDX 23 26 24 27 82 28 25 29 81 30 26 31 27 32 28 33 75 34 29 35
REMARK SMILES IDX 80 36 74 37 76 38 30 39 79 40 73 41 72 42 31 44 61 45 42 46
REMARK SMILES IDX 60 47 43 48 46 49 59 50 77 51 44 52 45 53 58 55 78 56 47 57
REMARK SMILES IDX 32 58 33 59 41 60 34 61 40 62 35 63 36 64 37 65 38 66 39 67
REMARK SMILES IDX 62 68 63 69 71 70 64 71 70 72 65 73 66 74 67 75 68 76 69 77
REMARK SMILES IDX 48 78 49 79 57 80 50 81 56 82 51 83 52 84 53 85 54 86 55 87
REMARK H PARENT 4 14 13 20 13 21 76 43 46 54
REMARK Flexibility Score: inf
ROOT
ATOM      1  C   UNL A   1      42.388  21.384  26.180  1.00  0.00     0.274 C 
ENDROOT
BRANCH   1   2
ATOM      2  O   UNL A   1      43.270  21.014  25.101  1.00  0.00    -0.457 OA
BRANCH   2   3
ATOM      3  C   UNL A   1      44.080  21.997  24.625  1.00  0.00     0.368 C 
ATOM      4  O   UNL A   1      43.764  22.750  23.706  1.00  0.00    -0.245 OA
BRANCH   3   5
ATOM      5  C   UNL A   1      45.496  22.011  25.288  1.00  0.00     0.197 C 
ATOM      6  C   UNL A   1      45.728  23.054  26.418  1.00  0.00     0.068 C 
ATOM      7  C   UNL A   1      45.858  24.363  25.641  1.00  0.00     0.011 C 
ATOM      8  C   UNL A   1      46.829  23.979  24.540  1.00  0.00     0.008 C 
ATOM      9  C   UNL A   1      46.550  22.499  24.240  1.00  0.00     0.081 C 
BRANCH   6  10
ATOM     10  C   UNL A   1      44.775  23.133  27.612  1.00  0.00     0.072 C 
BRANCH  10  11
ATOM     11  C   UNL A   1      45.330  23.874  28.852  1.00  0.00     0.262 C 
BRANCH  11  12
ATOM     12  N   UNL A   1      44.461  24.347  29.936  1.00  0.00    -0.337 N 
ATOM     13  C   UNL A   1      44.905  25.644  30.452  1.00  0.00     0.332 C 
ATOM     14  H   UNL A   1      43.564  24.434  29.460  1.00  0.00     0.347 HD
BRANCH  12  15
ATOM     15  C   UNL A   1      44.146  23.423  31.032  1.00  0.00     0.261 C 
BRANCH  15  16
ATOM     16  C   UNL A   1      44.483  23.861  32.470  1.00  0.00     0.058 C 
ATOM     17  C   UNL A   1      43.685  23.261  33.615  1.00  0.00     0.010 C 
ENDBRANCH  15  16
ENDBRANCH  12  15
ENDBRANCH  11  12
ENDBRANCH  10  11
ENDBRANCH   6  10
BRANCH   5  18
ATOM     18  N   UNL A   1      45.810  20.646  25.804  1.00  0.00    -0.334 N 
ATOM     19  C   UNL A   1      46.398  19.761  24.799  1.00  0.00     0.331 C 
ATOM     20  H   UNL A   1      44.945  20.222  26.140  1.00  0.00     0.347 HD
ATOM     21  H   UNL A   1      46.501  20.759  26.545  1.00  0.00     0.347 HD
ENDBRANCH   5  18
ENDBRANCH   3   5
ENDBRANCH   2   3
ENDBRANCH   1   2
BRANCH   1  22
ATOM     22  C   UNL A   1      41.079  20.607  26.085  1.00  0.00     0.275 C 
BRANCH  22  23
ATOM     23  O   UNL A   1      40.132  21.184  26.996  1.00  0.00    -0.458 OA
BRANCH  23  24
ATOM     24  C   UNL A   1      39.259  22.069  26.463  1.00  0.00     0.338 C 
ATOM     25  O   UNL A   1      38.325  21.811  25.723  1.00  0.00    -0.246 OA
BRANCH  24  26
ATOM     26  C   UNL A   1      39.573  23.437  26.942  1.00  0.00     0.060 A 
ATOM     27  C   UNL A   1      39.299  24.557  26.156  1.00  0.00     0.016 A 
ATOM     28  C   UNL A   1      40.250  23.602  28.150  1.00  0.00     0.016 A 
ATOM     29  C   UNL A   1      39.789  25.813  26.517  1.00  0.00     0.010 A 
ATOM     30  C   UNL A   1      40.656  24.880  28.556  1.00  0.00     0.010 A 
ATOM     31  C   UNL A   1      40.476  25.999  27.722  1.00  0.00    -0.014 A 
BRANCH  31  32
ATOM     32  C   UNL A   1      41.072  27.322  28.078  1.00  0.00     0.031 A 
ATOM     33  C   UNL A   1      42.546  27.568  27.843  1.00  0.00     0.074 A 
ATOM     34  C   UNL A   1      40.325  28.324  28.589  1.00  0.00     0.049 A 
ATOM     35  N   UNL A   1      43.315  28.515  28.318  1.00  0.00    -0.248 NA
ATOM     36  C   UNL A   1      43.248  26.608  26.974  1.00  0.00     0.031 C 
ATOM     37  C   UNL A   1      38.877  28.291  28.806  1.00  0.00     0.029 A 
ATOM     38  N   UNL A   1      40.689  29.580  29.013  1.00  0.00    -0.354 N 
ATOM     39  C   UNL A   1      44.602  28.215  27.882  1.00  0.00     0.074 A 
ATOM     40  C   UNL A   1      44.507  27.007  27.090  1.00  0.00     0.031 C 
ATOM     41  C   UNL A   1      38.472  29.485  29.267  1.00  0.00     0.029 A 
ATOM     42  C   UNL A   1      39.638  30.331  29.484  1.00  0.00     0.049 A 
ATOM     43  H   UNL A   1      41.616  29.911  28.981  1.00  0.00     0.167 HD
ATOM     44  C   UNL A   1      45.758  28.876  28.129  1.00  0.00     0.031 A 
ATOM     45  C   UNL A   1      39.612  31.542  30.074  1.00  0.00     0.031 A 
ATOM     46  C   UNL A   1      45.844  30.115  28.858  1.00  0.00     0.049 A 
ATOM     47  C   UNL A   1      40.904  32.260  30.344  1.00  0.00     0.074 A 
ATOM     48  C   UNL A   1      46.970  30.848  29.189  1.00  0.00     0.029 A 
ATOM     49  N   UNL A   1      44.753  30.825  29.333  1.00  0.00    -0.354 N 
ATOM     50  N   UNL A   1      42.128  31.890  30.053  1.00  0.00    -0.248 NA
ATOM     51  C   UNL A   1      40.810  33.549  31.043  1.00  0.00     0.031 C 
ATOM     52  C   UNL A   1      46.561  31.997  29.877  1.00  0.00     0.029 A 
ATOM     53  C   UNL A   1      45.177  31.995  29.940  1.00  0.00     0.049 A 
ATOM     54  H   UNL A   1      43.814  30.541  29.251  1.00  0.00     0.167 HD
ATOM     55  C   UNL A   1      42.950  32.906  30.529  1.00  0.00     0.074 A 
ATOM     56  C   UNL A   1      42.083  33.916  31.101  1.00  0.00     0.031 C 
ATOM     57  C   UNL A   1      44.303  32.991  30.503  1.00  0.00     0.031 A 
BRANCH  44  58
ATOM     58  C   UNL A   1      47.037  28.245  27.646  1.00  0.00    -0.014 A 
ATOM     59  C   UNL A   1      47.615  28.595  26.413  1.00  0.00     0.010 A 
ATOM     60  C   UNL A   1      47.686  27.298  28.461  1.00  0.00     0.010 A 
ATOM     61  C   UNL A   1      48.796  27.981  25.988  1.00  0.00     0.020 A 
ATOM     62  C   UNL A   1      48.880  26.700  28.051  1.00  0.00     0.020 A 
ATOM     63  C   UNL A   1      49.417  27.031  26.806  1.00  0.00     0.054 A 
BRANCH  63  64
ATOM     64  S   UNL A   1      50.958  26.257  26.240  1.00  0.00     0.124 S 
ATOM     65  O   UNL A   1      50.919  24.972  26.932  1.00  0.00    -0.237 OA
ATOM     66  O   UNL A   1      50.777  26.196  24.792  1.00  0.00    -0.237 OA
ATOM     67  O   UNL A   1      51.996  27.179  26.695  1.00  0.00    -0.744 OA
ENDBRANCH  63  64
ENDBRANCH  44  58
BRANCH  45  68
ATOM     68  C   UNL A   1      38.315  32.131  30.508  1.00  0.00    -0.014 A 
ATOM     69  C   UNL A   1      37.835  31.915  31.812  1.00  0.00     0.010 A 
ATOM     70  C   UNL A   1      37.556  32.915  29.619  1.00  0.00     0.010 A 
ATOM     71  C   UNL A   1      36.613  32.463  32.214  1.00  0.00     0.020 A 
ATOM     72  C   UNL A   1      36.350  33.488  30.028  1.00  0.00     0.020 A 
ATOM     73  C   UNL A   1      35.880  33.247  31.321  1.00  0.00     0.054 A 
BRANCH  73  74
ATOM     74  S   UNL A   1      34.328  34.005  31.878  1.00  0.00     0.124 S 
ATOM     75  O   UNL A   1      33.661  34.292  30.612  1.00  0.00    -0.237 OA
ATOM     76  O   UNL A   1      33.725  32.945  32.684  1.00  0.00    -0.237 OA
ATOM     77  O   UNL A   1      34.773  35.173  32.634  1.00  0.00    -0.744 OA
ENDBRANCH  73  74
ENDBRANCH  45  68
BRANCH  57  78
ATOM     78  C   UNL A   1      44.917  34.240  31.070  1.00  0.00    -0.014 A 
ATOM     79  C   UNL A   1      45.271  34.326  32.428  1.00  0.00     0.010 A 
ATOM     80  C   UNL A   1      45.146  35.342  30.227  1.00  0.00     0.010 A 
ATOM     81  C   UNL A   1      45.800  35.512  32.944  1.00  0.00     0.020 A 
ATOM     82  C   UNL A   1      45.694  36.522  30.736  1.00  0.00     0.020 A 
ATOM     83  C   UNL A   1      45.997  36.606  32.097  1.00  0.00     0.054 A 
BRANCH  83  84
ATOM     84  S   UNL A   1      46.686  38.138  32.783  1.00  0.00     0.124 S 
ATOM     85  O   UNL A   1      45.479  38.872  33.154  1.00  0.00    -0.237 OA
ATOM     86  O   UNL A   1      47.497  37.657  33.900  1.00  0.00    -0.237 OA
ATOM     87  O   UNL A   1      47.444  38.703  31.671  1.00  0.00    -0.744 OA
ENDBRANCH  83  84
ENDBRANCH  57  78
ENDBRANCH  31  32
ENDBRANCH  24  26
ENDBRANCH  23  24
ENDBRANCH  22  23
ENDBRANCH   1  22
TORSDOF 20
ENDMDL
MODEL 2
REMARK VINA RESULT:      -8.2      4.944     11.843
REMARK SMILES CCC[N@@H+](C)CC[C@@H]1CCC[C@]1([NH2+]C)C(=O)OCCOC(=O)c1ccc(-c2c3nc(c(-c4ccc(S(=O)(=O)[O-])cc4)c4ccc([nH]4)c(-c4ccc(S(=O)(=O)[O-])cc4)c4nc(c(-c5ccc(S(=O)(=O)[O-])cc5)c5ccc2[nH]5)C=C4)C=C3)cc1
REMARK SMILES IDX 18 1 17 2 15 3 16 4 12 5 8 6 9 7 10 8 11 9 7 10 6 11 4 12
REMARK SMILES IDX 5 13 3 15 2 16 1 17 13 18 14 19 19 22 20 23 21 24 22 25
REMARK SMILES IDX 23 26 24 27 82 28 25 29 81 30 26 31 27 32 28 33 75 34 29 35
REMARK SMILES IDX 80 36 74 37 76 38 30 39 79 40 73 41 72 42 31 44 61 45 42 46
REMARK SMILES IDX 60 47 43 48 46 49 59 50 77 51 44 52 45 53 58 55 78 56 47 57
REMARK SMILES IDX 32 58 33 59 41 60 34 61 40 62 35 63 36 64 37 65 38 66 39 67
REMARK SMILES IDX 62 68 63 69 71 70 64 71 70 72 65 73 66 74 67 75 68 76 69 77
REMARK SMILES IDX 48 78 49 79 57 80 50 81 56 82 51 83 52 84 53 85 54 86 55 87
REMARK H PARENT 4 14 13 20 13 21 76 43 46 54
REMARK Flexibility Score: inf
ROOT
ATOM      1  C   UNL A   1      33.223  29.964  26.844  1.00  0.00     0.274 C 
ENDROOT
BRANCH   1   2
ATOM      2  O   UNL A   1      33.977  29.137  25.935  1.00  0.00    -0.457 OA
BRANCH   2   3
ATOM      3  C   UNL A   1      33.457  27.909  25.669  1.00  0.00     0.368 C 
ATOM      4  O   UNL A   1      33.215  27.073  26.537  1.00  0.00    -0.245 OA
BRANCH   3   5
ATOM      5  C   UNL A   1      33.292  27.622  24.141  1.00  0.00     0.197 C 
ATOM      6  C   UNL A   1      31.836  27.495  23.608  1.00  0.00     0.068 C 
ATOM      7  C   UNL A   1      31.413  26.118  24.117  1.00  0.00     0.011 C 
ATOM      8  C   UNL A   1      32.605  25.262  23.731  1.00  0.00     0.008 C 
ATOM      9  C   UNL A   1      33.827  26.186  23.827  1.00  0.00     0.081 C 
BRANCH   6  10
ATOM     10  C   UNL A   1      30.811  28.598  23.875  1.00  0.00     0.072 C 
BRANCH  10  11
ATOM     11  C   UNL A   1      29.551  28.560  22.977  1.00  0.00     0.262 C 
BRANCH  11  12
ATOM     12  N   UNL A   1      28.770  29.765  22.671  1.00  0.00    -0.337 N 
ATOM     13  C   UNL A   1      27.354  29.585  23.003  1.00  0.00     0.332 C 
ATOM     14  H   UNL A   1      29.201  30.454  23.286  1.00  0.00     0.347 HD
BRANCH  12  15
ATOM     15  C   UNL A   1      28.927  30.382  21.349  1.00  0.00     0.261 C 
BRANCH  15  16
ATOM     16  C   UNL A   1      27.912  31.462  20.927  1.00  0.00     0.058 C 
ATOM     17  C   UNL A   1      28.042  32.851  21.527  1.00  0.00     0.010 C 
ENDBRANCH  15  16
ENDBRANCH  12  15
ENDBRANCH  11  12
ENDBRANCH  10  11
ENDBRANCH   6  10
BRANCH   5  18
ATOM     18  N   UNL A   1      34.013  28.672  23.363  1.00  0.00    -0.334 N 
ATOM     19  C   UNL A   1      34.485  28.211  22.057  1.00  0.00     0.331 C 
ATOM     20  H   UNL A   1      34.819  28.979  23.907  1.00  0.00     0.347 HD
ATOM     21  H   UNL A   1      33.349  29.426  23.192  1.00  0.00     0.347 HD
ENDBRANCH   5  18
ENDBRANCH   3   5
ENDBRANCH   2   3
ENDBRANCH   1   2
BRANCH   1  22
ATOM     22  C   UNL A   1      34.162  30.847  27.660  1.00  0.00     0.275 C 
BRANCH  22  23
ATOM     23  O   UNL A   1      35.075  30.008  28.382  1.00  0.00    -0.458 OA
BRANCH  23  24
ATOM     24  C   UNL A   1      36.036  30.648  29.089  1.00  0.00     0.338 C 
ATOM     25  O   UNL A   1      35.882  31.627  29.800  1.00  0.00    -0.246 OA
BRANCH  24  26
ATOM     26  C   UNL A   1      37.336  29.957  28.912  1.00  0.00     0.060 A 
ATOM     27  C   UNL A   1      38.069  29.509  30.011  1.00  0.00     0.016 A 
ATOM     28  C   UNL A   1      37.887  29.848  27.636  1.00  0.00     0.016 A 
ATOM     29  C   UNL A   1      39.380  29.057  29.852  1.00  0.00     0.010 A 
ATOM     30  C   UNL A   1      39.166  29.302  27.470  1.00  0.00     0.010 A 
ATOM     31  C   UNL A   1      39.954  28.944  28.580  1.00  0.00    -0.014 A 
BRANCH  31  32
ATOM     32  C   UNL A   1      41.381  28.537  28.406  1.00  0.00     0.031 A 
ATOM     33  C   UNL A   1      42.480  29.557  28.602  1.00  0.00     0.074 A 
ATOM     34  C   UNL A   1      41.725  27.269  28.098  1.00  0.00     0.049 A 
ATOM     35  N   UNL A   1      43.738  29.499  28.243  1.00  0.00    -0.248 NA
ATOM     36  C   UNL A   1      42.107  30.814  29.273  1.00  0.00     0.031 C 
ATOM     37  C   UNL A   1      40.803  26.139  27.951  1.00  0.00     0.029 A 
ATOM     38  N   UNL A   1      42.960  26.714  27.858  1.00  0.00    -0.354 N 
ATOM     39  C   UNL A   1      44.281  30.740  28.561  1.00  0.00     0.074 A 
ATOM     40  C   UNL A   1      43.220  31.524  29.158  1.00  0.00     0.031 C 
ATOM     41  C   UNL A   1      41.507  25.024  27.705  1.00  0.00     0.029 A 
ATOM     42  C   UNL A   1      42.915  25.371  27.564  1.00  0.00     0.049 A 
ATOM     43  H   UNL A   1      43.798  27.230  27.894  1.00  0.00     0.167 HD
ATOM     44  C   UNL A   1      45.544  31.190  28.363  1.00  0.00     0.031 A 
ATOM     45  C   UNL A   1      43.884  24.520  27.173  1.00  0.00     0.031 A 
ATOM     46  C   UNL A   1      46.616  30.389  27.834  1.00  0.00     0.049 A 
ATOM     47  C   UNL A   1      45.278  25.037  26.955  1.00  0.00     0.074 A 
ATOM     48  C   UNL A   1      47.923  30.760  27.566  1.00  0.00     0.029 A 
ATOM     49  N   UNL A   1      46.516  29.040  27.532  1.00  0.00    -0.354 N 
ATOM     50  N   UNL A   1      45.741  26.252  27.122  1.00  0.00    -0.248 NA
ATOM     51  C   UNL A   1      46.273  24.070  26.472  1.00  0.00     0.031 C 
ATOM     52  C   UNL A   1      48.610  29.638  27.088  1.00  0.00     0.029 A 
ATOM     53  C   UNL A   1      47.739  28.560  27.096  1.00  0.00     0.049 A 
ATOM     54  H   UNL A   1      45.696  28.502  27.616  1.00  0.00     0.167 HD
ATOM     55  C   UNL A   1      47.085  26.193  26.770  1.00  0.00     0.074 A 
ATOM     56  C   UNL A   1      47.365  24.819  26.408  1.00  0.00     0.031 C 
ATOM     57  C   UNL A   1      48.003  27.190  26.741  1.00  0.00     0.031 A 
BRANCH  44  58
ATOM     58  C   UNL A   1      45.823  32.637  28.676  1.00  0.00    -0.014 A 
ATOM     59  C   UNL A   1      46.364  33.035  29.911  1.00  0.00     0.010 A 
ATOM     60  C   UNL A   1      45.562  33.614  27.697  1.00  0.00     0.010 A 
ATOM     61  C   UNL A   1      46.599  34.388  30.175  1.00  0.00     0.020 A 
ATOM     62  C   UNL A   1      45.819  34.964  27.947  1.00  0.00     0.020 A 
ATOM     63  C   UNL A   1      46.318  35.344  29.194  1.00  0.00     0.054 A 
BRANCH  63  64
ATOM     64  S   UNL A   1      46.645  37.093  29.553  1.00  0.00     0.124 S 
ATOM     65  O   UNL A   1      45.354  37.706  29.256  1.00  0.00    -0.237 OA
ATOM     66  O   UNL A   1      47.019  37.069  30.965  1.00  0.00    -0.237 OA
ATOM     67  O   UNL A   1      47.726  37.438  28.633  1.00  0.00    -0.744 OA
ENDBRANCH  63  64
ENDBRANCH  44  58
BRANCH  45  68
ATOM     68  C   UNL A   1      43.556  23.093  26.904  1.00  0.00    -0.014 A 
ATOM     69  C   UNL A   1      42.860  22.329  27.857  1.00  0.00     0.010 A 
ATOM     70  C   UNL A   1      43.936  22.492  25.689  1.00  0.00     0.010 A 
ATOM     71  C   UNL A   1      42.560  20.987  27.605  1.00  0.00     0.020 A 
ATOM     72  C   UNL A   1      43.610  21.160  25.422  1.00  0.00     0.020 A 
ATOM     73  C   UNL A   1      42.935  20.412  26.388  1.00  0.00     0.054 A 
BRANCH  73  74
ATOM     74  S   UNL A   1      42.482  18.688  26.048  1.00  0.00     0.124 S 
ATOM     75  O   UNL A   1      43.352  18.364  24.922  1.00  0.00    -0.237 OA
ATOM     76  O   UNL A   1      42.801  18.018  27.307  1.00  0.00    -0.237 OA
ATOM     77  O   UNL A   1      41.056  18.767  25.739  1.00  0.00    -0.744 OA
ENDBRANCH  73  74
ENDBRANCH  45  68
BRANCH  57  78
ATOM     78  C   UNL A   1      49.404  26.813  26.347  1.00  0.00    -0.014 A 
ATOM     79  C   UNL A   1      50.343  26.393  27.306  1.00  0.00     0.010 A 
ATOM     80  C   UNL A   1      49.783  26.879  24.994  1.00  0.00     0.010 A 
ATOM     81  C   UNL A   1      51.652  26.090  26.924  1.00  0.00     0.020 A 
ATOM     82  C   UNL A   1      51.086  26.557  24.606  1.00  0.00     0.020 A 
ATOM     83  C   UNL A   1      52.018  26.185  25.578  1.00  0.00     0.054 A 
BRANCH  83  84
ATOM     84  S   UNL A   1      53.722  25.788  25.099  1.00  0.00     0.124 S 
ATOM     85  O   UNL A   1      53.968  26.752  24.030  1.00  0.00    -0.237 OA
ATOM     86  O   UNL A   1      54.468  26.016  26.334  1.00  0.00    -0.237 OA
ATOM     87  O   UNL A   1      53.645  24.392  24.676  1.00  0.00    -0.744 OA
ENDBRANCH  83  84
ENDBRANCH  57  78
ENDBRANCH  31  32
ENDBRANCH  24  26
ENDBRANCH  23  24
ENDBRANCH  22  23
ENDBRANCH   1  22
TORSDOF 20
ENDMDL
MODEL 3
REMARK VINA RESULT:      -8.1      5.431     11.559
REMARK SMILES CCC[N@@H+](C)CC[C@@H]1CCC[C@]1([NH2+]C)C(=O)OCCOC(=O)c1ccc(-c2c3nc(c(-c4ccc(S(=O)(=O)[O-])cc4)c4ccc([nH]4)c(-c4ccc(S(=O)(=O)[O-])cc4)c4nc(c(-c5ccc(S(=O)(=O)[O-])cc5)c5ccc2[nH]5)C=C4)C=C3)cc1
REMARK SMILES IDX 18 1 17 2 15 3 16 4 12 5 8 6 9 7 10 8 11 9 7 10 6 11 4 12
REMARK SMILES IDX 5 13 3 15 2 16 1 17 13 18 14 19 19 22 20 23 21 24 22 25
REMARK SMILES IDX 23 26 24 27 82 28 25 29 81 30 26 31 27 32 28 33 75 34 29 35
REMARK SMILES IDX 80 36 74 37 76 38 30 39 79 40 73 41 72 42 31 44 61 45 42 46
REMARK SMILES IDX 60 47 43 48 46 49 59 50 77 51 44 52 45 53 58 55 78 56 47 57
REMARK SMILES IDX 32 58 33 59 41 60 34 61 40 62 35 63 36 64 37 65 38 66 39 67
REMARK SMILES IDX 62 68 63 69 71 70 64 71 70 72 65 73 66 74 67 75 68 76 69 77
REMARK SMILES IDX 48 78 49 79 57 80 50 81 56 82 51 83 52 84 53 85 54 86 55 87
REMARK H PARENT 4 14 13 20 13 21 76 43 46 54
REMARK Flexibility Score: inf
ROOT
ATOM      1  C   UNL A   1      31.601  30.302  25.769  1.00  0.00     0.274 C 
ENDROOT
BRANCH   1   2
ATOM      2  O   UNL A   1      32.330  29.071  25.596  1.00  0.00    -0.457 OA
BRANCH   2   3
ATOM      3  C   UNL A   1      31.726  27.946  26.063  1.00  0.00     0.368 C 
ATOM      4  O   UNL A   1      31.377  27.799  27.233  1.00  0.00    -0.245 OA
BRANCH   3   5
ATOM      5  C   UNL A   1      31.612  26.812  24.993  1.00  0.00     0.197 C 
ATOM      6  C   UNL A   1      32.130  25.405  25.407  1.00  0.00     0.068 C 
ATOM      7  C   UNL A   1      33.646  25.579  25.353  1.00  0.00     0.011 C 
ATOM      8  C   UNL A   1      33.835  26.263  24.011  1.00  0.00     0.008 C 
ATOM      9  C   UNL A   1      32.582  27.125  23.806  1.00  0.00     0.081 C 
BRANCH   6  10
ATOM     10  C   UNL A   1      31.627  24.737  26.687  1.00  0.00     0.072 C 
BRANCH  10  11
ATOM     11  C   UNL A   1      31.230  23.248  26.544  1.00  0.00     0.262 C 
BRANCH  11  12
ATOM     12  N   UNL A   1      32.190  22.158  26.755  1.00  0.00    -0.337 N 
ATOM     13  C   UNL A   1      33.048  22.414  27.915  1.00  0.00     0.332 C 
ATOM     14  H   UNL A   1      31.572  21.366  26.929  1.00  0.00     0.347 HD
BRANCH  12  15
ATOM     15  C   UNL A   1      32.980  21.690  25.608  1.00  0.00     0.261 C 
BRANCH  15  16
ATOM     16  C   UNL A   1      32.501  20.429  24.863  1.00  0.00     0.058 C 
ATOM     17  C   UNL A   1      32.341  20.498  23.354  1.00  0.00     0.010 C 
ENDBRANCH  15  16
ENDBRANCH  12  15
ENDBRANCH  11  12
ENDBRANCH  10  11
ENDBRANCH   6  10
BRANCH   5  18
ATOM     18  N   UNL A   1      30.193  26.703  24.543  1.00  0.00    -0.334 N 
ATOM     19  C   UNL A   1      29.938  27.339  23.250  1.00  0.00     0.331 C 
ATOM     20  H   UNL A   1      29.598  27.146  25.243  1.00  0.00     0.347 HD
ATOM     21  H   UNL A   1      29.990  25.710  24.433  1.00  0.00     0.347 HD
ENDBRANCH   5  18
ENDBRANCH   3   5
ENDBRANCH   2   3
ENDBRANCH   1   2
BRANCH   1  22
ATOM     22  C   UNL A   1      32.144  31.077  26.965  1.00  0.00     0.275 C 
BRANCH  22  23
ATOM     23  O   UNL A   1      33.538  30.772  27.119  1.00  0.00    -0.458 OA
BRANCH  23  24
ATOM     24  C   UNL A   1      34.277  31.694  27.779  1.00  0.00     0.338 C 
ATOM     25  O   UNL A   1      33.950  32.841  28.032  1.00  0.00    -0.246 OA
BRANCH  24  26
ATOM     26  C   UNL A   1      35.566  31.095  28.203  1.00  0.00     0.060 A 
ATOM     27  C   UNL A   1      35.653  29.748  28.554  1.00  0.00     0.016 A 
ATOM     28  C   UNL A   1      36.685  31.913  28.359  1.00  0.00     0.016 A 
ATOM     29  C   UNL A   1      36.809  29.244  29.153  1.00  0.00     0.010 A 
ATOM     30  C   UNL A   1      37.876  31.380  28.871  1.00  0.00     0.010 A 
ATOM     31  C   UNL A   1      37.941  30.049  29.323  1.00  0.00    -0.014 A 
BRANCH  31  32
ATOM     32  C   UNL A   1      39.154  29.543  30.034  1.00  0.00     0.031 A 
ATOM     33  C   UNL A   1      39.561  30.160  31.353  1.00  0.00     0.074 A 
ATOM     34  C   UNL A   1      39.893  28.526  29.542  1.00  0.00     0.049 A 
ATOM     35  N   UNL A   1      40.699  30.071  31.993  1.00  0.00    -0.248 NA
ATOM     36  C   UNL A   1      38.560  31.003  32.028  1.00  0.00     0.031 C 
ATOM     37  C   UNL A   1      39.602  27.761  28.327  1.00  0.00     0.029 A 
ATOM     38  N   UNL A   1      41.049  27.953  30.018  1.00  0.00    -0.354 N 
ATOM     39  C   UNL A   1      40.584  30.915  33.094  1.00  0.00     0.074 A 
ATOM     40  C   UNL A   1      39.258  31.493  33.044  1.00  0.00     0.031 C 
ATOM     41  C   UNL A   1      40.517  26.790  28.186  1.00  0.00     0.029 A 
ATOM     42  C   UNL A   1      41.522  26.928  29.232  1.00  0.00     0.049 A 
ATOM     43  H   UNL A   1      41.495  28.248  30.845  1.00  0.00     0.167 HD
ATOM     44  C   UNL A   1      41.501  31.192  34.052  1.00  0.00     0.031 A 
ATOM     45  C   UNL A   1      42.660  26.210  29.308  1.00  0.00     0.031 A 
ATOM     46  C   UNL A   1      42.794  30.565  34.142  1.00  0.00     0.049 A 
ATOM     47  C   UNL A   1      43.668  26.534  30.374  1.00  0.00     0.074 A 
ATOM     48  C   UNL A   1      43.808  30.800  35.055  1.00  0.00     0.029 A 
ATOM     49  N   UNL A   1      43.235  29.548  33.311  1.00  0.00    -0.354 N 
ATOM     50  N   UNL A   1      43.603  27.439  31.321  1.00  0.00    -0.248 NA
ATOM     51  C   UNL A   1      44.913  25.754  30.365  1.00  0.00     0.031 C 
ATOM     52  C   UNL A   1      44.869  29.933  34.766  1.00  0.00     0.029 A 
ATOM     53  C   UNL A   1      44.498  29.133  33.698  1.00  0.00     0.049 A 
ATOM     54  H   UNL A   1      42.725  29.175  32.555  1.00  0.00     0.167 HD
ATOM     55  C   UNL A   1      44.798  27.331  32.025  1.00  0.00     0.074 A 
ATOM     56  C   UNL A   1      45.552  26.258  31.412  1.00  0.00     0.031 C 
ATOM     57  C   UNL A   1      45.235  28.062  33.079  1.00  0.00     0.031 A 
BRANCH  44  58
ATOM     58  C   UNL A   1      41.157  32.260  35.056  1.00  0.00    -0.014 A 
ATOM     59  C   UNL A   1      40.431  31.970  36.225  1.00  0.00     0.010 A 
ATOM     60  C   UNL A   1      41.595  33.580  34.833  1.00  0.00     0.010 A 
ATOM     61  C   UNL A   1      40.115  32.987  37.130  1.00  0.00     0.020 A 
ATOM     62  C   UNL A   1      41.304  34.594  35.748  1.00  0.00     0.020 A 
ATOM     63  C   UNL A   1      40.548  34.294  36.883  1.00  0.00     0.054 A 
BRANCH  63  64
ATOM     64  S   UNL A   1      40.140  35.596  38.080  1.00  0.00     0.124 S 
ATOM     65  O   UNL A   1      39.821  36.719  37.203  1.00  0.00    -0.237 OA
ATOM     66  O   UNL A   1      39.008  35.025  38.806  1.00  0.00    -0.237 OA
ATOM     67  O   UNL A   1      41.365  35.743  38.861  1.00  0.00    -0.744 OA
ENDBRANCH  63  64
ENDBRANCH  44  58
BRANCH  45  68
ATOM     68  C   UNL A   1      42.937  25.147  28.304  1.00  0.00    -0.014 A 
ATOM     69  C   UNL A   1      43.612  25.454  27.109  1.00  0.00     0.010 A 
ATOM     70  C   UNL A   1      42.530  23.820  28.539  1.00  0.00     0.010 A 
ATOM     71  C   UNL A   1      43.865  24.456  26.164  1.00  0.00     0.020 A 
ATOM     72  C   UNL A   1      42.808  22.815  27.610  1.00  0.00     0.020 A 
ATOM     73  C   UNL A   1      43.463  23.143  26.421  1.00  0.00     0.054 A 
BRANCH  73  74
ATOM     74  S   UNL A   1      43.854  21.845  25.214  1.00  0.00     0.124 S 
ATOM     75  O   UNL A   1      43.707  22.555  23.948  1.00  0.00    -0.237 OA
ATOM     76  O   UNL A   1      45.221  21.473  25.575  1.00  0.00    -0.237 OA
ATOM     77  O   UNL A   1      42.849  20.819  25.482  1.00  0.00    -0.744 OA
ENDBRANCH  73  74
ENDBRANCH  45  68
BRANCH  57  78
ATOM     78  C   UNL A   1      46.570  27.689  33.659  1.00  0.00    -0.014 A 
ATOM     79  C   UNL A   1      46.678  26.731  34.683  1.00  0.00     0.010 A 
ATOM     80  C   UNL A   1      47.734  28.306  33.167  1.00  0.00     0.010 A 
ATOM     81  C   UNL A   1      47.925  26.431  35.239  1.00  0.00     0.020 A 
ATOM     82  C   UNL A   1      48.985  27.993  33.707  1.00  0.00     0.020 A 
ATOM     83  C   UNL A   1      49.068  27.073  34.754  1.00  0.00     0.054 A 
BRANCH  83  84
ATOM     84  S   UNL A   1      50.679  26.672  35.487  1.00  0.00     0.124 S 
ATOM     85  O   UNL A   1      51.222  27.997  35.768  1.00  0.00    -0.237 OA
ATOM     86  O   UNL A   1      50.314  25.881  36.660  1.00  0.00    -0.237 OA
ATOM     87  O   UNL A   1      51.362  25.927  34.431  1.00  0.00    -0.744 OA
ENDBRANCH  83  84
ENDBRANCH  57  78
ENDBRANCH  31  32
ENDBRANCH  24  26
ENDBRANCH  23  24
ENDBRANCH  22  23
ENDBRANCH   1  22
TORSDOF 20
ENDMDL
