MODEL 1
REMARK VINA RESULT:      -9.6      0.000      0.000
REMARK SMILES C[C@@H]([NH+]1CCC(CCC(=O)OCCOC(=O)c2ccc(-c3c4nc(c(-c5ccc(S(=O)(=O)[O-])cc5)c5ccc([nH]5)c(-c5ccc(S(=O)(=O)[O-])cc5)c5nc(c(-c6ccc(S(=O)(=O)[O-])cc6)c6ccc3[nH]6)C=C5)C=C4)cc2)CC1)C1(C)CC1
REMARK SMILES IDX 12 1 11 2 9 3 10 4 8 5 7 6 6 7 3 8 4 9 78 10 5 12 77 13 2 14
REMARK SMILES IDX 1 15 79 16 80 17 81 18 82 19 13 20 14 21 15 22 16 23 17 24
REMARK SMILES IDX 18 25 76 26 19 27 75 28 20 29 21 30 22 31 69 32 23 33 74 34
REMARK SMILES IDX 68 35 70 36 24 37 73 38 67 39 66 40 25 42 55 43 36 44 54 45
REMARK SMILES IDX 37 46 40 47 53 48 71 49 38 50 39 51 52 53 72 54 41 55 26 56
REMARK SMILES IDX 27 57 35 58 28 59 34 60 29 61 30 62 31 63 32 64 33 65 56 66
REMARK SMILES IDX 57 67 65 68 58 69 64 70 59 71 60 72 61 73 62 74 63 75 42 76
REMARK SMILES IDX 43 77 51 78 44 79 50 80 45 81 46 82 47 83 48 84 49 85
REMARK H PARENT 3 11 70 41 40 52
REMARK Flexibility Score: inf
ROOT
ATOM      1  C   UNL A   1      35.518  33.742  30.384  1.00  0.00     0.274 C 
ENDROOT
BRANCH   1   2
ATOM      2  O   UNL A   1      34.642  33.063  29.466  1.00  0.00    -0.462 OA
BRANCH   2   3
ATOM      3  C   UNL A   1      35.122  32.779  28.231  1.00  0.00     0.305 C 
ATOM      4  O   UNL A   1      35.660  33.596  27.492  1.00  0.00    -0.252 OA
BRANCH   3   5
ATOM      5  C   UNL A   1      34.856  31.346  27.809  1.00  0.00     0.123 C 
BRANCH   5   6
ATOM      6  C   UNL A   1      33.389  30.945  27.597  1.00  0.00     0.016 C 
BRANCH   6   7
ATOM      7  C   UNL A   1      33.142  29.981  26.427  1.00  0.00     0.001 C 
ATOM      8  N   UNL A   1      31.785  27.833  24.956  1.00  0.00    -0.332 N 
ATOM      9  C   UNL A   1      33.084  27.617  25.610  1.00  0.00     0.262 C 
ATOM     10  C   UNL A   1      31.597  29.245  24.588  1.00  0.00     0.262 C 
ATOM     11  H   UNL A   1      31.044  27.636  25.628  1.00  0.00     0.348 HD
ATOM     12  C   UNL A   1      33.289  28.512  26.828  1.00  0.00     0.065 C 
ATOM     13  C   UNL A   1      31.759  30.174  25.801  1.00  0.00     0.065 C 
BRANCH   8  14
ATOM     14  C   UNL A   1      31.556  26.862  23.855  1.00  0.00     0.186 C 
ATOM     15  C   UNL A   1      30.925  27.481  22.592  1.00  0.00     0.076 C 
BRANCH  14  16
ATOM     16  C   UNL A   1      30.857  25.582  24.366  1.00  0.00     0.019 C 
ATOM     17  C   UNL A   1      29.866  25.828  25.490  1.00  0.00     0.018 C 
ATOM     18  C   UNL A   1      30.573  24.437  23.406  1.00  0.00     0.013 C 
ATOM     19  C   UNL A   1      31.619  24.268  24.468  1.00  0.00     0.013 C 
ENDBRANCH  14  16
ENDBRANCH   8  14
ENDBRANCH   6   7
ENDBRANCH   5   6
ENDBRANCH   3   5
ENDBRANCH   2   3
ENDBRANCH   1   2
BRANCH   1  20
ATOM     20  C   UNL A   1      36.807  32.948  30.602  1.00  0.00     0.275 C 
BRANCH  20  21
ATOM     21  O   UNL A   1      36.609  31.910  31.579  1.00  0.00    -0.458 OA
BRANCH  21  22
ATOM     22  C   UNL A   1      36.752  30.649  31.106  1.00  0.00     0.338 C 
ATOM     23  O   UNL A   1      35.877  29.813  30.964  1.00  0.00    -0.246 OA
BRANCH  22  24
ATOM     24  C   UNL A   1      38.129  30.461  30.619  1.00  0.00     0.060 A 
ATOM     25  C   UNL A   1      38.319  30.360  29.239  1.00  0.00     0.016 A 
ATOM     26  C   UNL A   1      39.203  30.308  31.497  1.00  0.00     0.016 A 
ATOM     27  C   UNL A   1      39.582  30.095  28.725  1.00  0.00     0.010 A 
ATOM     28  C   UNL A   1      40.473  30.031  30.980  1.00  0.00     0.010 A 
ATOM     29  C   UNL A   1      40.663  29.902  29.592  1.00  0.00    -0.014 A 
BRANCH  29  30
ATOM     30  C   UNL A   1      41.958  29.453  29.030  1.00  0.00     0.031 A 
ATOM     31  C   UNL A   1      43.111  30.416  28.980  1.00  0.00     0.074 A 
ATOM     32  C   UNL A   1      42.119  28.176  28.637  1.00  0.00     0.049 A 
ATOM     33  N   UNL A   1      44.327  30.227  28.536  1.00  0.00    -0.248 NA
ATOM     34  C   UNL A   1      42.864  31.768  29.505  1.00  0.00     0.031 C 
ATOM     35  C   UNL A   1      41.090  27.138  28.690  1.00  0.00     0.029 A 
ATOM     36  N   UNL A   1      43.220  27.533  28.129  1.00  0.00    -0.354 N 
ATOM     37  C   UNL A   1      44.984  31.439  28.710  1.00  0.00     0.074 A 
ATOM     38  C   UNL A   1      44.027  32.361  29.284  1.00  0.00     0.031 C 
ATOM     39  C   UNL A   1      41.612  25.982  28.242  1.00  0.00     0.029 A 
ATOM     40  C   UNL A   1      42.998  26.208  27.840  1.00  0.00     0.049 A 
ATOM     41  H   UNL A   1      44.085  27.978  27.984  1.00  0.00     0.167 HD
ATOM     42  C   UNL A   1      46.270  31.755  28.421  1.00  0.00     0.031 A 
ATOM     43  C   UNL A   1      43.816  25.284  27.302  1.00  0.00     0.031 A 
ATOM     44  C   UNL A   1      47.218  30.836  27.850  1.00  0.00     0.049 A 
ATOM     45  C   UNL A   1      45.227  25.672  26.949  1.00  0.00     0.074 A 
ATOM     46  C   UNL A   1      48.541  31.061  27.513  1.00  0.00     0.029 A 
ATOM     47  N   UNL A   1      46.944  29.513  27.535  1.00  0.00    -0.354 N 
ATOM     48  N   UNL A   1      45.829  26.828  27.105  1.00  0.00    -0.248 NA
ATOM     49  C   UNL A   1      46.070  24.629  26.350  1.00  0.00     0.031 C 
ATOM     50  C   UNL A   1      49.056  29.884  26.957  1.00  0.00     0.029 A 
ATOM     51  C   UNL A   1      48.069  28.913  26.994  1.00  0.00     0.049 A 
ATOM     52  H   UNL A   1      46.077  29.068  27.675  1.00  0.00     0.167 HD
ATOM     53  C   UNL A   1      47.127  26.645  26.640  1.00  0.00     0.074 A 
ATOM     54  C   UNL A   1      47.227  25.263  26.217  1.00  0.00     0.031 C 
ATOM     55  C   UNL A   1      48.144  27.538  26.568  1.00  0.00     0.031 A 
BRANCH  42  56
ATOM     56  C   UNL A   1      46.704  33.172  28.683  1.00  0.00    -0.014 A 
ATOM     57  C   UNL A   1      46.568  34.170  27.701  1.00  0.00     0.010 A 
ATOM     58  C   UNL A   1      47.246  33.511  29.935  1.00  0.00     0.010 A 
ATOM     59  C   UNL A   1      47.008  35.473  27.952  1.00  0.00     0.020 A 
ATOM     60  C   UNL A   1      47.666  34.818  30.199  1.00  0.00     0.020 A 
ATOM     61  C   UNL A   1      47.561  35.786  29.198  1.00  0.00     0.054 A 
BRANCH  61  62
ATOM     62  S   UNL A   1      48.121  37.485  29.503  1.00  0.00     0.124 S 
ATOM     63  O   UNL A   1      48.182  38.029  28.149  1.00  0.00    -0.237 OA
ATOM     64  O   UNL A   1      47.062  38.027  30.351  1.00  0.00    -0.237 OA
ATOM     65  O   UNL A   1      49.413  37.310  30.162  1.00  0.00    -0.744 OA
ENDBRANCH  61  62
ENDBRANCH  42  56
BRANCH  43  66
ATOM     66  C   UNL A   1      43.318  23.906  27.046  1.00  0.00    -0.014 A 
ATOM     67  C   UNL A   1      42.804  23.549  25.788  1.00  0.00     0.010 A 
ATOM     68  C   UNL A   1      43.362  22.940  28.068  1.00  0.00     0.010 A 
ATOM     69  C   UNL A   1      42.326  22.254  25.561  1.00  0.00     0.020 A 
ATOM     70  C   UNL A   1      42.909  21.638  27.837  1.00  0.00     0.020 A 
ATOM     71  C   UNL A   1      42.382  21.306  26.587  1.00  0.00     0.054 A 
BRANCH  71  72
ATOM     72  S   UNL A   1      41.808  19.617  26.259  1.00  0.00     0.124 S 
ATOM     73  O   UNL A   1      42.024  18.967  27.547  1.00  0.00    -0.237 OA
ATOM     74  O   UNL A   1      40.412  19.823  25.880  1.00  0.00    -0.237 OA
ATOM     75  O   UNL A   1      42.677  19.167  25.174  1.00  0.00    -0.744 OA
ENDBRANCH  71  72
ENDBRANCH  43  66
BRANCH  55  76
ATOM     76  C   UNL A   1      49.458  27.036  26.034  1.00  0.00    -0.014 A 
ATOM     77  C   UNL A   1      50.400  26.423  26.879  1.00  0.00     0.010 A 
ATOM     78  C   UNL A   1      49.745  27.163  24.662  1.00  0.00     0.010 A 
ATOM     79  C   UNL A   1      51.626  25.988  26.370  1.00  0.00     0.020 A 
ATOM     80  C   UNL A   1      50.960  26.706  24.145  1.00  0.00     0.020 A 
ATOM     81  C   UNL A   1      51.903  26.140  25.007  1.00  0.00     0.054 A 
BRANCH  81  82
ATOM     82  S   UNL A   1      53.496  25.560  24.362  1.00  0.00     0.124 S 
ATOM     83  O   UNL A   1      53.453  24.137  24.689  1.00  0.00    -0.237 OA
ATOM     84  O   UNL A   1      53.406  25.881  22.940  1.00  0.00    -0.237 OA
ATOM     85  O   UNL A   1      54.475  26.343  25.111  1.00  0.00    -0.744 OA
ENDBRANCH  81  82
ENDBRANCH  55  76
ENDBRANCH  29  30
ENDBRANCH  22  24
ENDBRANCH  21  22
ENDBRANCH  20  21
ENDBRANCH   1  20
TORSDOF 18
ENDMDL
MODEL 2
REMARK VINA RESULT:      -9.4      1.690      2.693
REMARK SMILES C[C@@H]([NH+]1CCC(CCC(=O)OCCOC(=O)c2ccc(-c3c4nc(c(-c5ccc(S(=O)(=O)[O-])cc5)c5ccc([nH]5)c(-c5ccc(S(=O)(=O)[O-])cc5)c5nc(c(-c6ccc(S(=O)(=O)[O-])cc6)c6ccc3[nH]6)C=C5)C=C4)cc2)CC1)C1(C)CC1
REMARK SMILES IDX 12 1 11 2 9 3 10 4 8 5 7 6 6 7 3 8 4 9 78 10 5 12 77 13 2 14
REMARK SMILES IDX 1 15 79 16 80 17 81 18 82 19 13 20 14 21 15 22 16 23 17 24
REMARK SMILES IDX 18 25 76 26 19 27 75 28 20 29 21 30 22 31 69 32 23 33 74 34
REMARK SMILES IDX 68 35 70 36 24 37 73 38 67 39 66 40 25 42 55 43 36 44 54 45
REMARK SMILES IDX 37 46 40 47 53 48 71 49 38 50 39 51 52 53 72 54 41 55 26 56
REMARK SMILES IDX 27 57 35 58 28 59 34 60 29 61 30 62 31 63 32 64 33 65 56 66
REMARK SMILES IDX 57 67 65 68 58 69 64 70 59 71 60 72 61 73 62 74 63 75 42 76
REMARK SMILES IDX 43 77 51 78 44 79 50 80 45 81 46 82 47 83 48 84 49 85
REMARK H PARENT 3 11 70 41 40 52
REMARK Flexibility Score: inf
ROOT
ATOM      1  C   UNL A   1      34.368  31.261  27.437  1.00  0.00     0.274 C 
ENDROOT
BRANCH   1   2
ATOM      2  O   UNL A   1      32.937  31.132  27.360  1.00  0.00    -0.462 OA
BRANCH   2   3
ATOM      3  C   UNL A   1      32.434  29.949  26.932  1.00  0.00     0.305 C 
ATOM      4  O   UNL A   1      31.498  29.362  27.462  1.00  0.00    -0.252 OA
BRANCH   3   5
ATOM      5  C   UNL A   1      33.201  29.371  25.757  1.00  0.00     0.123 C 
BRANCH   5   6
ATOM      6  C   UNL A   1      32.380  28.652  24.677  1.00  0.00     0.016 C 
BRANCH   6   7
ATOM      7  C   UNL A   1      32.619  27.138  24.579  1.00  0.00     0.001 C 
ATOM      8  N   UNL A   1      34.158  24.644  24.746  1.00  0.00    -0.332 N 
ATOM      9  C   UNL A   1      33.819  25.254  23.452  1.00  0.00     0.262 C 
ATOM     10  C   UNL A   1      33.180  25.006  25.784  1.00  0.00     0.262 C 
ATOM     11  H   UNL A   1      35.041  25.035  25.070  1.00  0.00     0.348 HD
ATOM     12  C   UNL A   1      33.673  26.770  23.534  1.00  0.00     0.065 C 
ATOM     13  C   UNL A   1      33.036  26.530  25.920  1.00  0.00     0.065 C 
BRANCH   8  14
ATOM     14  C   UNL A   1      34.421  23.187  24.615  1.00  0.00     0.186 C 
ATOM     15  C   UNL A   1      33.313  22.292  25.204  1.00  0.00     0.076 C 
BRANCH  14  16
ATOM     16  C   UNL A   1      35.853  22.829  25.073  1.00  0.00     0.019 C 
ATOM     17  C   UNL A   1      36.621  23.996  25.666  1.00  0.00     0.018 C 
ATOM     18  C   UNL A   1      36.154  21.436  25.605  1.00  0.00     0.013 C 
ATOM     19  C   UNL A   1      36.703  21.852  24.272  1.00  0.00     0.013 C 
ENDBRANCH  14  16
ENDBRANCH   8  14
ENDBRANCH   6   7
ENDBRANCH   5   6
ENDBRANCH   3   5
ENDBRANCH   2   3
ENDBRANCH   1   2
BRANCH   1  20
ATOM     20  C   UNL A   1      34.801  31.755  28.819  1.00  0.00     0.275 C 
BRANCH  20  21
ATOM     21  O   UNL A   1      35.623  30.774  29.478  1.00  0.00    -0.458 OA
BRANCH  21  22
ATOM     22  C   UNL A   1      36.692  31.279  30.137  1.00  0.00     0.338 C 
ATOM     23  O   UNL A   1      36.679  32.082  31.054  1.00  0.00    -0.246 OA
BRANCH  22  24
ATOM     24  C   UNL A   1      37.913  30.589  29.691  1.00  0.00     0.060 A 
ATOM     25  C   UNL A   1      38.905  30.347  30.645  1.00  0.00     0.016 A 
ATOM     26  C   UNL A   1      38.119  30.254  28.352  1.00  0.00     0.016 A 
ATOM     27  C   UNL A   1      40.115  29.779  30.267  1.00  0.00     0.010 A 
ATOM     28  C   UNL A   1      39.343  29.691  27.970  1.00  0.00     0.010 A 
ATOM     29  C   UNL A   1      40.353  29.471  28.923  1.00  0.00    -0.014 A 
BRANCH  29  30
ATOM     30  C   UNL A   1      41.708  29.028  28.521  1.00  0.00     0.031 A 
ATOM     31  C   UNL A   1      42.841  30.016  28.543  1.00  0.00     0.074 A 
ATOM     32  C   UNL A   1      41.935  27.738  28.212  1.00  0.00     0.049 A 
ATOM     33  N   UNL A   1      44.100  29.837  28.237  1.00  0.00    -0.248 NA
ATOM     34  C   UNL A   1      42.513  31.386  28.970  1.00  0.00     0.031 C 
ATOM     35  C   UNL A   1      40.927  26.678  28.211  1.00  0.00     0.029 A 
ATOM     36  N   UNL A   1      43.096  27.100  27.854  1.00  0.00    -0.354 N 
ATOM     37  C   UNL A   1      44.711  31.073  28.417  1.00  0.00     0.074 A 
ATOM     38  C   UNL A   1      43.681  31.997  28.841  1.00  0.00     0.031 C 
ATOM     39  C   UNL A   1      41.516  25.516  27.878  1.00  0.00     0.029 A 
ATOM     40  C   UNL A   1      42.932  25.757  27.611  1.00  0.00     0.049 A 
ATOM     41  H   UNL A   1      43.963  27.559  27.777  1.00  0.00     0.167 HD
ATOM     42  C   UNL A   1      46.013  31.406  28.248  1.00  0.00     0.031 A 
ATOM     43  C   UNL A   1      43.821  24.830  27.207  1.00  0.00     0.031 A 
ATOM     44  C   UNL A   1      47.034  30.485  27.825  1.00  0.00     0.049 A 
ATOM     45  C   UNL A   1      45.253  25.236  26.983  1.00  0.00     0.074 A 
ATOM     46  C   UNL A   1      48.380  30.727  27.615  1.00  0.00     0.029 A 
ATOM     47  N   UNL A   1      46.821  29.142  27.550  1.00  0.00    -0.354 N 
ATOM     48  N   UNL A   1      45.812  26.412  27.143  1.00  0.00    -0.248 NA
ATOM     49  C   UNL A   1      46.175  24.186  26.529  1.00  0.00     0.031 C 
ATOM     50  C   UNL A   1      48.975  29.538  27.176  1.00  0.00     0.029 A 
ATOM     51  C   UNL A   1      48.008  28.545  27.159  1.00  0.00     0.049 A 
ATOM     52  H   UNL A   1      45.954  28.682  27.622  1.00  0.00     0.167 HD
ATOM     53  C   UNL A   1      47.154  26.240  26.824  1.00  0.00     0.074 A 
ATOM     54  C   UNL A   1      47.326  24.842  26.484  1.00  0.00     0.031 C 
ATOM     55  C   UNL A   1      48.156  27.154  26.814  1.00  0.00     0.031 A 
BRANCH  42  56
ATOM     56  C   UNL A   1      46.389  32.845  28.481  1.00  0.00    -0.014 A 
ATOM     57  C   UNL A   1      46.921  33.270  29.712  1.00  0.00     0.010 A 
ATOM     58  C   UNL A   1      46.216  33.783  27.447  1.00  0.00     0.010 A 
ATOM     59  C   UNL A   1      47.232  34.617  29.919  1.00  0.00     0.020 A 
ATOM     60  C   UNL A   1      46.548  35.126  27.642  1.00  0.00     0.020 A 
ATOM     61  C   UNL A   1      47.036  35.538  28.884  1.00  0.00     0.054 A 
BRANCH  61  62
ATOM     62  S   UNL A   1      47.451  37.280  29.174  1.00  0.00     0.124 S 
ATOM     63  O   UNL A   1      48.666  37.170  29.978  1.00  0.00    -0.237 OA
ATOM     64  O   UNL A   1      47.639  37.797  27.821  1.00  0.00    -0.237 OA
ATOM     65  O   UNL A   1      46.283  37.801  29.880  1.00  0.00    -0.744 OA
ENDBRANCH  61  62
ENDBRANCH  42  56
BRANCH  43  66
ATOM     66  C   UNL A   1      43.380  23.429  26.971  1.00  0.00    -0.014 A 
ATOM     67  C   UNL A   1      43.191  22.944  25.666  1.00  0.00     0.010 A 
ATOM     68  C   UNL A   1      43.151  22.568  28.061  1.00  0.00     0.010 A 
ATOM     69  C   UNL A   1      42.764  21.629  25.454  1.00  0.00     0.020 A 
ATOM     70  C   UNL A   1      42.749  21.247  27.853  1.00  0.00     0.020 A 
ATOM     71  C   UNL A   1      42.546  20.788  26.550  1.00  0.00     0.054 A 
BRANCH  71  72
ATOM     72  S   UNL A   1      42.045  19.069  26.255  1.00  0.00     0.124 S 
ATOM     73  O   UNL A   1      42.985  18.652  25.220  1.00  0.00    -0.237 OA
ATOM     74  O   UNL A   1      42.233  18.453  27.566  1.00  0.00    -0.237 OA
ATOM     75  O   UNL A   1      40.653  19.190  25.828  1.00  0.00    -0.744 OA
ENDBRANCH  71  72
ENDBRANCH  43  66
BRANCH  55  76
ATOM     76  C   UNL A   1      49.528  26.660  26.444  1.00  0.00    -0.014 A 
ATOM     77  C   UNL A   1      50.005  26.756  25.125  1.00  0.00     0.010 A 
ATOM     78  C   UNL A   1      50.358  26.109  27.438  1.00  0.00     0.010 A 
ATOM     79  C   UNL A   1      51.272  26.266  24.796  1.00  0.00     0.020 A 
ATOM     80  C   UNL A   1      51.635  25.641  27.116  1.00  0.00     0.020 A 
ATOM     81  C   UNL A   1      52.076  25.703  25.793  1.00  0.00     0.054 A 
BRANCH  81  82
ATOM     82  S   UNL A   1      53.721  25.082  25.348  1.00  0.00     0.124 S 
ATOM     83  O   UNL A   1      53.973  25.772  24.086  1.00  0.00    -0.237 OA
ATOM     84  O   UNL A   1      54.546  25.513  26.475  1.00  0.00    -0.237 OA
ATOM     85  O   UNL A   1      53.527  23.638  25.242  1.00  0.00    -0.744 OA
ENDBRANCH  81  82
ENDBRANCH  55  76
ENDBRANCH  29  30
ENDBRANCH  22  24
ENDBRANCH  21  22
ENDBRANCH  20  21
ENDBRANCH   1  20
TORSDOF 18
ENDMDL
MODEL 3
REMARK VINA RESULT:      -9.3      1.488      8.698
REMARK SMILES C[C@@H]([NH+]1CCC(CCC(=O)OCCOC(=O)c2ccc(-c3c4nc(c(-c5ccc(S(=O)(=O)[O-])cc5)c5ccc([nH]5)c(-c5ccc(S(=O)(=O)[O-])cc5)c5nc(c(-c6ccc(S(=O)(=O)[O-])cc6)c6ccc3[nH]6)C=C5)C=C4)cc2)CC1)C1(C)CC1
REMARK SMILES IDX 12 1 11 2 9 3 10 4 8 5 7 6 6 7 3 8 4 9 78 10 5 12 77 13 2 14
REMARK SMILES IDX 1 15 79 16 80 17 81 18 82 19 13 20 14 21 15 22 16 23 17 24
REMARK SMILES IDX 18 25 76 26 19 27 75 28 20 29 21 30 22 31 69 32 23 33 74 34
REMARK SMILES IDX 68 35 70 36 24 37 73 38 67 39 66 40 25 42 55 43 36 44 54 45
REMARK SMILES IDX 37 46 40 47 53 48 71 49 38 50 39 51 52 53 72 54 41 55 26 56
REMARK SMILES IDX 27 57 35 58 28 59 34 60 29 61 30 62 31 63 32 64 33 65 56 66
REMARK SMILES IDX 57 67 65 68 58 69 64 70 59 71 60 72 61 73 62 74 63 75 42 76
REMARK SMILES IDX 43 77 51 78 44 79 50 80 45 81 46 82 47 83 48 84 49 85
REMARK H PARENT 3 11 70 41 40 52
REMARK Flexibility Score: inf
ROOT
ATOM      1  C   UNL A   1      35.089  30.804  28.075  1.00  0.00     0.274 C 
ENDROOT
BRANCH   1   2
ATOM      2  O   UNL A   1      34.088  31.209  27.123  1.00  0.00    -0.462 OA
BRANCH   2   3
ATOM      3  C   UNL A   1      33.107  30.322  26.825  1.00  0.00     0.305 C 
ATOM      4  O   UNL A   1      31.922  30.486  27.092  1.00  0.00    -0.252 OA
BRANCH   3   5
ATOM      5  C   UNL A   1      33.634  29.051  26.188  1.00  0.00     0.123 C 
BRANCH   5   6
ATOM      6  C   UNL A   1      32.623  27.918  25.958  1.00  0.00     0.016 C 
BRANCH   6   7
ATOM      7  C   UNL A   1      33.227  26.507  25.910  1.00  0.00     0.001 C 
ATOM      8  N   UNL A   1      33.588  23.771  24.909  1.00  0.00    -0.332 N 
ATOM      9  C   UNL A   1      32.873  24.044  26.164  1.00  0.00     0.262 C 
ATOM     10  C   UNL A   1      34.567  24.827  24.607  1.00  0.00     0.262 C 
ATOM     11  H   UNL A   1      32.921  23.804  24.139  1.00  0.00     0.348 HD
ATOM     12  C   UNL A   1      32.195  25.410  26.173  1.00  0.00     0.065 C 
ATOM     13  C   UNL A   1      33.909  26.216  24.571  1.00  0.00     0.065 C 
BRANCH   8  14
ATOM     14  C   UNL A   1      34.128  22.387  24.873  1.00  0.00     0.186 C 
ATOM     15  C   UNL A   1      35.572  22.290  24.342  1.00  0.00     0.076 C 
BRANCH  14  16
ATOM     16  C   UNL A   1      33.130  21.407  24.215  1.00  0.00     0.019 C 
ATOM     17  C   UNL A   1      32.485  21.941  22.950  1.00  0.00     0.018 C 
ATOM     18  C   UNL A   1      33.359  19.907  24.318  1.00  0.00     0.013 C 
ATOM     19  C   UNL A   1      32.223  20.533  25.070  1.00  0.00     0.013 C 
ENDBRANCH  14  16
ENDBRANCH   8  14
ENDBRANCH   6   7
ENDBRANCH   5   6
ENDBRANCH   3   5
ENDBRANCH   2   3
ENDBRANCH   1   2
BRANCH   1  20
ATOM     20  C   UNL A   1      35.215  31.827  29.206  1.00  0.00     0.275 C 
BRANCH  20  21
ATOM     21  O   UNL A   1      36.597  32.066  29.527  1.00  0.00    -0.458 OA
BRANCH  21  22
ATOM     22  C   UNL A   1      37.100  31.270  30.501  1.00  0.00     0.338 C 
ATOM     23  O   UNL A   1      36.575  30.986  31.563  1.00  0.00    -0.246 OA
BRANCH  22  24
ATOM     24  C   UNL A   1      38.344  30.641  30.026  1.00  0.00     0.060 A 
ATOM     25  C   UNL A   1      39.354  30.414  30.963  1.00  0.00     0.016 A 
ATOM     26  C   UNL A   1      38.549  30.350  28.676  1.00  0.00     0.016 A 
ATOM     27  C   UNL A   1      40.581  29.905  30.560  1.00  0.00     0.010 A 
ATOM     28  C   UNL A   1      39.790  29.846  28.268  1.00  0.00     0.010 A 
ATOM     29  C   UNL A   1      40.818  29.642  29.206  1.00  0.00    -0.014 A 
BRANCH  29  30
ATOM     30  C   UNL A   1      42.185  29.264  28.781  1.00  0.00     0.031 A 
ATOM     31  C   UNL A   1      42.449  27.856  28.323  1.00  0.00     0.074 A 
ATOM     32  C   UNL A   1      43.160  30.189  28.734  1.00  0.00     0.049 A 
ATOM     33  N   UNL A   1      43.567  27.319  27.905  1.00  0.00    -0.248 NA
ATOM     34  C   UNL A   1      41.303  26.934  28.334  1.00  0.00     0.031 C 
ATOM     35  C   UNL A   1      43.009  31.598  29.099  1.00  0.00     0.029 A 
ATOM     36  N   UNL A   1      44.472  30.083  28.344  1.00  0.00    -0.354 N 
ATOM     37  C   UNL A   1      43.263  25.993  27.620  1.00  0.00     0.074 A 
ATOM     38  C   UNL A   1      41.862  25.803  27.930  1.00  0.00     0.031 C 
ATOM     39  C   UNL A   1      44.180  32.228  28.905  1.00  0.00     0.029 A 
ATOM     40  C   UNL A   1      45.171  31.262  28.435  1.00  0.00     0.049 A 
ATOM     41  H   UNL A   1      44.873  29.241  28.029  1.00  0.00     0.167 HD
ATOM     42  C   UNL A   1      44.077  25.022  27.141  1.00  0.00     0.031 A 
ATOM     43  C   UNL A   1      46.465  31.530  28.181  1.00  0.00     0.031 A 
ATOM     44  C   UNL A   1      45.470  25.214  26.835  1.00  0.00     0.049 A 
ATOM     45  C   UNL A   1      47.360  30.423  27.691  1.00  0.00     0.074 A 
ATOM     46  C   UNL A   1      46.382  24.292  26.353  1.00  0.00     0.029 A 
ATOM     47  N   UNL A   1      46.151  26.414  26.979  1.00  0.00    -0.354 N 
ATOM     48  N   UNL A   1      47.062  29.170  27.441  1.00  0.00    -0.248 NA
ATOM     49  C   UNL A   1      48.766  30.770  27.444  1.00  0.00     0.031 C 
ATOM     50  C   UNL A   1      47.626  24.925  26.242  1.00  0.00     0.029 A 
ATOM     51  C   UNL A   1      47.476  26.253  26.608  1.00  0.00     0.049 A 
ATOM     52  H   UNL A   1      45.752  27.255  27.298  1.00  0.00     0.167 HD
ATOM     53  C   UNL A   1      48.239  28.583  26.992  1.00  0.00     0.074 A 
ATOM     54  C   UNL A   1      49.248  29.623  26.984  1.00  0.00     0.031 C 
ATOM     55  C   UNL A   1      48.467  27.299  26.619  1.00  0.00     0.031 A 
BRANCH  42  56
ATOM     56  C   UNL A   1      43.480  23.652  26.962  1.00  0.00    -0.014 A 
ATOM     57  C   UNL A   1      43.407  22.743  28.033  1.00  0.00     0.010 A 
ATOM     58  C   UNL A   1      42.976  23.274  25.705  1.00  0.00     0.010 A 
ATOM     59  C   UNL A   1      42.879  21.463  27.837  1.00  0.00     0.020 A 
ATOM     60  C   UNL A   1      42.426  22.004  25.511  1.00  0.00     0.020 A 
ATOM     61  C   UNL A   1      42.399  21.100  26.575  1.00  0.00     0.054 A 
BRANCH  61  62
ATOM     62  S   UNL A   1      41.714  19.436  26.346  1.00  0.00     0.124 S 
ATOM     63  O   UNL A   1      42.512  18.933  25.230  1.00  0.00    -0.237 OA
ATOM     64  O   UNL A   1      41.970  18.800  27.637  1.00  0.00    -0.237 OA
ATOM     65  O   UNL A   1      40.305  19.679  26.044  1.00  0.00    -0.744 OA
ENDBRANCH  61  62
ENDBRANCH  42  56
BRANCH  43  66
ATOM     66  C   UNL A   1      47.000  32.901  28.401  1.00  0.00    -0.014 A 
ATOM     67  C   UNL A   1      46.984  33.854  27.369  1.00  0.00     0.010 A 
ATOM     68  C   UNL A   1      47.525  33.259  29.657  1.00  0.00     0.010 A 
ATOM     69  C   UNL A   1      47.501  35.137  27.582  1.00  0.00     0.020 A 
ATOM     70  C   UNL A   1      48.019  34.547  29.881  1.00  0.00     0.020 A 
ATOM     71  C   UNL A   1      48.014  35.475  28.838  1.00  0.00     0.054 A 
BRANCH  71  72
ATOM     72  S   UNL A   1      48.631  37.159  29.112  1.00  0.00     0.124 S 
ATOM     73  O   UNL A   1      48.553  37.733  27.773  1.00  0.00    -0.237 OA
ATOM     74  O   UNL A   1      47.679  37.692  30.085  1.00  0.00    -0.237 OA
ATOM     75  O   UNL A   1      49.981  36.948  29.628  1.00  0.00    -0.744 OA
ENDBRANCH  71  72
ENDBRANCH  43  66
BRANCH  55  76
ATOM     76  C   UNL A   1      49.856  26.960  26.150  1.00  0.00    -0.014 A 
ATOM     77  C   UNL A   1      50.226  27.116  24.802  1.00  0.00     0.010 A 
ATOM     78  C   UNL A   1      50.809  26.498  27.076  1.00  0.00     0.010 A 
ATOM     79  C   UNL A   1      51.513  26.770  24.380  1.00  0.00     0.020 A 
ATOM     80  C   UNL A   1      52.104  26.175  26.661  1.00  0.00     0.020 A 
ATOM     81  C   UNL A   1      52.441  26.293  25.311  1.00  0.00     0.054 A 
BRANCH  81  82
ATOM     82  S   UNL A   1      54.109  25.859  24.746  1.00  0.00     0.124 S 
ATOM     83  O   UNL A   1      54.068  26.265  23.344  1.00  0.00    -0.237 OA
ATOM     84  O   UNL A   1      54.965  26.669  25.609  1.00  0.00    -0.237 OA
ATOM     85  O   UNL A   1      54.187  24.418  24.977  1.00  0.00    -0.744 OA
ENDBRANCH  81  82
ENDBRANCH  55  76
ENDBRANCH  29  30
ENDBRANCH  22  24
ENDBRANCH  21  22
ENDBRANCH  20  21
ENDBRANCH   1  20
TORSDOF 18
ENDMDL
