MODEL 1
REMARK VINA RESULT:      -9.7      0.000      0.000
REMARK SMILES C[C@H](O)C[C@@]1(C(=O)OCCOC(=O)c2ccc(-c3c4nc(c(-c5ccc(S(=O)(=O)[O-])cc5)c5ccc([nH]5)c(-c5ccc(S(=O)(=O)[O-])cc5)c5nc(c(-c6ccc(S(=O)(=O)[O-])cc6)c6ccc3[nH]6)C=C5)C=C4)cc2)CCN(C(=O)OC(C)(C)C)C1
REMARK SMILES IDX 9 1 8 2 6 3 7 4 5 5 74 6 84 7 75 8 76 9 4 10 2 11 1 12 3 13
REMARK SMILES IDX 77 15 78 16 79 17 80 18 81 19 82 20 83 21 10 22 11 23 12 24
REMARK SMILES IDX 13 25 14 26 15 27 73 28 16 29 72 30 17 31 18 32 19 33 66 34
REMARK SMILES IDX 20 35 71 36 65 37 67 38 21 39 70 40 64 41 63 42 22 44 52 45
REMARK SMILES IDX 33 46 51 47 34 48 37 49 50 50 68 51 35 52 36 53 49 55 69 56
REMARK SMILES IDX 38 57 23 58 24 59 32 60 25 61 31 62 26 63 27 64 28 65 29 66
REMARK SMILES IDX 30 67 53 68 54 69 62 70 55 71 61 72 56 73 57 74 58 75 59 76
REMARK SMILES IDX 60 77 39 78 40 79 48 80 41 81 47 82 42 83 43 84 44 85 45 86
REMARK SMILES IDX 46 87
REMARK H PARENT 3 14 67 43 37 54
REMARK Flexibility Score: inf
ROOT
ATOM      1  C   UNL A   1      35.879  23.695  23.410  1.00  0.00     0.274 C 
ENDROOT
BRANCH   1   2
ATOM      2  O   UNL A   1      34.527  23.311  23.740  1.00  0.00    -0.462 OA
BRANCH   2   3
ATOM      3  C   UNL A   1      34.012  23.870  24.870  1.00  0.00     0.314 C 
ATOM      4  O   UNL A   1      33.990  25.078  25.078  1.00  0.00    -0.252 OA
BRANCH   3   5
ATOM      5  C   UNL A   1      33.459  22.839  25.864  1.00  0.00     0.090 C 
ATOM      6  C   UNL A   1      34.588  22.225  26.744  1.00  0.00     0.042 C 
ATOM      7  C   UNL A   1      32.895  21.633  25.102  1.00  0.00     0.142 C 
ATOM      8  C   UNL A   1      34.886  20.856  26.134  1.00  0.00     0.124 C 
ATOM      9  N   UNL A   1      33.624  20.476  25.556  1.00  0.00    -0.307 N 
BRANCH   5  10
ATOM     10  C   UNL A   1      32.424  23.580  26.775  1.00  0.00     0.052 C 
BRANCH  10  11
ATOM     11  C   UNL A   1      30.934  23.389  26.418  1.00  0.00     0.112 C 
ATOM     12  C   UNL A   1      30.258  24.695  26.022  1.00  0.00     0.038 C 
BRANCH  11  13
ATOM     13  O   UNL A   1      30.240  22.870  27.549  1.00  0.00    -0.393 OA
ATOM     14  H   UNL A   1      30.879  22.645  28.244  1.00  0.00     0.210 HD
ENDBRANCH  11  13
ENDBRANCH  10  11
ENDBRANCH   5  10
BRANCH   9  15
ATOM     15  C   UNL A   1      33.151  19.215  25.288  1.00  0.00     0.410 C 
ATOM     16  O   UNL A   1      32.138  18.767  25.811  1.00  0.00    -0.224 OA
BRANCH  15  17
ATOM     17  O   UNL A   1      33.934  18.531  24.413  1.00  0.00    -0.444 OA
BRANCH  17  18
ATOM     18  C   UNL A   1      33.373  17.388  23.710  1.00  0.00     0.106 C 
ATOM     19  C   UNL A   1      34.462  16.644  22.924  1.00  0.00     0.056 C 
ATOM     20  C   UNL A   1      32.601  16.446  24.644  1.00  0.00     0.056 C 
ATOM     21  C   UNL A   1      32.378  17.990  22.707  1.00  0.00     0.056 C 
ENDBRANCH  17  18
ENDBRANCH  15  17
ENDBRANCH   9  15
ENDBRANCH   3   5
ENDBRANCH   2   3
ENDBRANCH   1   2
BRANCH   1  22
ATOM     22  C   UNL A   1      36.898  22.960  24.274  1.00  0.00     0.275 C 
BRANCH  22  23
ATOM     23  O   UNL A   1      37.554  23.881  25.159  1.00  0.00    -0.458 OA
BRANCH  23  24
ATOM     24  C   UNL A   1      38.535  23.339  25.916  1.00  0.00     0.338 C 
ATOM     25  O   UNL A   1      38.904  22.177  25.925  1.00  0.00    -0.246 OA
BRANCH  24  26
ATOM     26  C   UNL A   1      39.158  24.383  26.739  1.00  0.00     0.060 A 
ATOM     27  C   UNL A   1      38.811  24.496  28.087  1.00  0.00     0.016 A 
ATOM     28  C   UNL A   1      39.966  25.341  26.135  1.00  0.00     0.016 A 
ATOM     29  C   UNL A   1      39.180  25.622  28.813  1.00  0.00     0.010 A 
ATOM     30  C   UNL A   1      40.426  26.416  26.895  1.00  0.00     0.010 A 
ATOM     31  C   UNL A   1      40.011  26.583  28.230  1.00  0.00    -0.014 A 
BRANCH  31  32
ATOM     32  C   UNL A   1      40.453  27.778  28.987  1.00  0.00     0.031 A 
ATOM     33  C   UNL A   1      41.735  27.723  29.767  1.00  0.00     0.074 A 
ATOM     34  C   UNL A   1      39.677  28.878  29.027  1.00  0.00     0.049 A 
ATOM     35  N   UNL A   1      42.145  28.496  30.736  1.00  0.00    -0.248 NA
ATOM     36  C   UNL A   1      42.670  26.639  29.419  1.00  0.00     0.031 C 
ATOM     37  C   UNL A   1      38.456  29.091  28.245  1.00  0.00     0.029 A 
ATOM     38  N   UNL A   1      39.788  30.018  29.784  1.00  0.00    -0.354 N 
ATOM     39  C   UNL A   1      43.357  27.960  31.157  1.00  0.00     0.074 A 
ATOM     40  C   UNL A   1      43.617  26.798  30.334  1.00  0.00     0.031 C 
ATOM     41  C   UNL A   1      37.928  30.280  28.569  1.00  0.00     0.029 A 
ATOM     42  C   UNL A   1      38.715  30.868  29.646  1.00  0.00     0.049 A 
ATOM     43  H   UNL A   1      40.557  30.208  30.367  1.00  0.00     0.167 HD
ATOM     44  C   UNL A   1      44.164  28.396  32.153  1.00  0.00     0.031 A 
ATOM     45  C   UNL A   1      38.365  31.958  30.353  1.00  0.00     0.031 A 
ATOM     46  C   UNL A   1      43.891  29.571  32.941  1.00  0.00     0.049 A 
ATOM     47  C   UNL A   1      39.233  32.384  31.503  1.00  0.00     0.074 A 
ATOM     48  C   UNL A   1      44.636  30.106  33.977  1.00  0.00     0.029 A 
ATOM     49  N   UNL A   1      42.789  30.397  32.770  1.00  0.00    -0.354 N 
ATOM     50  N   UNL A   1      40.343  31.838  31.941  1.00  0.00    -0.248 NA
ATOM     51  C   UNL A   1      38.799  33.563  32.264  1.00  0.00     0.031 C 
ATOM     52  C   UNL A   1      43.961  31.229  34.461  1.00  0.00     0.029 A 
ATOM     53  C   UNL A   1      42.827  31.430  33.689  1.00  0.00     0.049 A 
ATOM     54  H   UNL A   1      42.086  30.268  32.094  1.00  0.00     0.167 HD
ATOM     55  C   UNL A   1      40.758  32.626  33.007  1.00  0.00     0.074 A 
ATOM     56  C   UNL A   1      39.780  33.686  33.149  1.00  0.00     0.031 C 
ATOM     57  C   UNL A   1      41.853  32.488  33.794  1.00  0.00     0.031 A 
BRANCH  44  58
ATOM     58  C   UNL A   1      45.382  27.575  32.483  1.00  0.00    -0.014 A 
ATOM     59  C   UNL A   1      45.327  26.503  33.390  1.00  0.00     0.010 A 
ATOM     60  C   UNL A   1      46.601  27.863  31.841  1.00  0.00     0.010 A 
ATOM     61  C   UNL A   1      46.477  25.759  33.678  1.00  0.00     0.020 A 
ATOM     62  C   UNL A   1      47.745  27.107  32.105  1.00  0.00     0.020 A 
ATOM     63  C   UNL A   1      47.680  26.069  33.036  1.00  0.00     0.054 A 
BRANCH  63  64
ATOM     64  S   UNL A   1      49.153  25.079  33.414  1.00  0.00     0.124 S 
ATOM     65  O   UNL A   1      49.743  24.897  32.091  1.00  0.00    -0.237 OA
ATOM     66  O   UNL A   1      49.901  25.948  34.319  1.00  0.00    -0.237 OA
ATOM     67  O   UNL A   1      48.611  23.869  34.026  1.00  0.00    -0.744 OA
ENDBRANCH  63  64
ENDBRANCH  44  58
BRANCH  45  68
ATOM     68  C   UNL A   1      37.104  32.679  30.026  1.00  0.00    -0.014 A 
ATOM     69  C   UNL A   1      35.909  32.365  30.695  1.00  0.00     0.010 A 
ATOM     70  C   UNL A   1      37.100  33.707  29.064  1.00  0.00     0.010 A 
ATOM     71  C   UNL A   1      34.730  33.058  30.399  1.00  0.00     0.020 A 
ATOM     72  C   UNL A   1      35.931  34.421  28.788  1.00  0.00     0.020 A 
ATOM     73  C   UNL A   1      34.750  34.084  29.449  1.00  0.00     0.054 A 
BRANCH  73  74
ATOM     74  S   UNL A   1      33.221  35.005  29.123  1.00  0.00     0.124 S 
ATOM     75  O   UNL A   1      32.599  35.037  30.442  1.00  0.00    -0.237 OA
ATOM     76  O   UNL A   1      33.723  36.285  28.629  1.00  0.00    -0.237 OA
ATOM     77  O   UNL A   1      32.536  34.188  28.125  1.00  0.00    -0.744 OA
ENDBRANCH  73  74
ENDBRANCH  45  68
BRANCH  57  78
ATOM     78  C   UNL A   1      42.099  33.542  34.836  1.00  0.00    -0.014 A 
ATOM     79  C   UNL A   1      41.640  33.388  36.155  1.00  0.00     0.010 A 
ATOM     80  C   UNL A   1      42.897  34.654  34.507  1.00  0.00     0.010 A 
ATOM     81  C   UNL A   1      41.975  34.332  37.129  1.00  0.00     0.020 A 
ATOM     82  C   UNL A   1      43.252  35.587  35.483  1.00  0.00     0.020 A 
ATOM     83  C   UNL A   1      42.785  35.421  36.789  1.00  0.00     0.054 A 
BRANCH  83  84
ATOM     84  S   UNL A   1      43.283  36.580  38.091  1.00  0.00     0.124 S 
ATOM     85  O   UNL A   1      42.004  36.910  38.712  1.00  0.00    -0.237 OA
ATOM     86  O   UNL A   1      44.190  35.776  38.907  1.00  0.00    -0.237 OA
ATOM     87  O   UNL A   1      43.920  37.674  37.358  1.00  0.00    -0.744 OA
ENDBRANCH  83  84
ENDBRANCH  57  78
ENDBRANCH  31  32
ENDBRANCH  24  26
ENDBRANCH  23  24
ENDBRANCH  22  23
ENDBRANCH   1  22
TORSDOF 20
ENDMDL
MODEL 2
REMARK VINA RESULT:      -9.7      6.324     10.703
REMARK SMILES C[C@H](O)C[C@@]1(C(=O)OCCOC(=O)c2ccc(-c3c4nc(c(-c5ccc(S(=O)(=O)[O-])cc5)c5ccc([nH]5)c(-c5ccc(S(=O)(=O)[O-])cc5)c5nc(c(-c6ccc(S(=O)(=O)[O-])cc6)c6ccc3[nH]6)C=C5)C=C4)cc2)CCN(C(=O)OC(C)(C)C)C1
REMARK SMILES IDX 9 1 8 2 6 3 7 4 5 5 74 6 84 7 75 8 76 9 4 10 2 11 1 12 3 13
REMARK SMILES IDX 77 15 78 16 79 17 80 18 81 19 82 20 83 21 10 22 11 23 12 24
REMARK SMILES IDX 13 25 14 26 15 27 73 28 16 29 72 30 17 31 18 32 19 33 66 34
REMARK SMILES IDX 20 35 71 36 65 37 67 38 21 39 70 40 64 41 63 42 22 44 52 45
REMARK SMILES IDX 33 46 51 47 34 48 37 49 50 50 68 51 35 52 36 53 49 55 69 56
REMARK SMILES IDX 38 57 23 58 24 59 32 60 25 61 31 62 26 63 27 64 28 65 29 66
REMARK SMILES IDX 30 67 53 68 54 69 62 70 55 71 61 72 56 73 57 74 58 75 59 76
REMARK SMILES IDX 60 77 39 78 40 79 48 80 41 81 47 82 42 83 43 84 44 85 45 86
REMARK SMILES IDX 46 87
REMARK H PARENT 3 14 67 43 37 54
REMARK Flexibility Score: inf
ROOT
ATOM      1  C   UNL A   1      34.508  30.138  27.284  1.00  0.00     0.274 C 
ENDROOT
BRANCH   1   2
ATOM      2  O   UNL A   1      34.254  28.797  26.811  1.00  0.00    -0.462 OA
BRANCH   2   3
ATOM      3  C   UNL A   1      32.946  28.423  26.764  1.00  0.00     0.314 C 
ATOM      4  O   UNL A   1      32.138  28.672  27.651  1.00  0.00    -0.252 OA
BRANCH   3   5
ATOM      5  C   UNL A   1      32.577  27.653  25.488  1.00  0.00     0.090 C 
ATOM      6  C   UNL A   1      33.600  27.915  24.342  1.00  0.00     0.042 C 
ATOM      7  C   UNL A   1      31.254  28.187  24.924  1.00  0.00     0.142 C 
ATOM      8  C   UNL A   1      32.931  28.933  23.419  1.00  0.00     0.124 C 
ATOM      9  N   UNL A   1      31.529  28.654  23.589  1.00  0.00    -0.307 N 
BRANCH   5  10
ATOM     10  C   UNL A   1      32.569  26.130  25.850  1.00  0.00     0.052 C 
BRANCH  10  11
ATOM     11  C   UNL A   1      31.406  25.294  25.271  1.00  0.00     0.112 C 
ATOM     12  C   UNL A   1      30.878  24.267  26.265  1.00  0.00     0.038 C 
BRANCH  11  13
ATOM     13  O   UNL A   1      31.861  24.586  24.121  1.00  0.00    -0.393 OA
ATOM     14  H   UNL A   1      32.746  24.230  24.290  1.00  0.00     0.210 HD
ENDBRANCH  11  13
ENDBRANCH  10  11
ENDBRANCH   5  10
BRANCH   9  15
ATOM     15  C   UNL A   1      30.496  28.907  22.721  1.00  0.00     0.410 C 
ATOM     16  O   UNL A   1      30.177  28.127  21.832  1.00  0.00    -0.224 OA
BRANCH  15  17
ATOM     17  O   UNL A   1      29.898  30.106  22.944  1.00  0.00    -0.444 OA
BRANCH  17  18
ATOM     18  C   UNL A   1      28.471  30.240  22.699  1.00  0.00     0.106 C 
ATOM     19  C   UNL A   1      27.855  31.297  23.627  1.00  0.00     0.056 C 
ATOM     20  C   UNL A   1      28.153  30.523  21.225  1.00  0.00     0.056 C 
ATOM     21  C   UNL A   1      27.877  28.871  23.063  1.00  0.00     0.056 C 
ENDBRANCH  17  18
ENDBRANCH  15  17
ENDBRANCH   9  15
ENDBRANCH   3   5
ENDBRANCH   2   3
ENDBRANCH   1   2
BRANCH   1  22
ATOM     22  C   UNL A   1      35.525  30.149  28.421  1.00  0.00     0.275 C 
BRANCH  22  23
ATOM     23  O   UNL A   1      36.741  29.508  28.004  1.00  0.00    -0.458 OA
BRANCH  23  24
ATOM     24  C   UNL A   1      37.571  29.157  29.012  1.00  0.00     0.338 C 
ATOM     25  O   UNL A   1      37.288  29.024  30.189  1.00  0.00    -0.246 OA
BRANCH  24  26
ATOM     26  C   UNL A   1      38.917  28.908  28.479  1.00  0.00     0.060 A 
ATOM     27  C   UNL A   1      39.942  28.528  29.347  1.00  0.00     0.016 A 
ATOM     28  C   UNL A   1      39.191  29.199  27.147  1.00  0.00     0.016 A 
ATOM     29  C   UNL A   1      41.263  28.540  28.918  1.00  0.00     0.010 A 
ATOM     30  C   UNL A   1      40.506  29.107  26.690  1.00  0.00     0.010 A 
ATOM     31  C   UNL A   1      41.556  28.808  27.578  1.00  0.00    -0.014 A 
BRANCH  31  32
ATOM     32  C   UNL A   1      42.952  28.795  27.078  1.00  0.00     0.031 A 
ATOM     33  C   UNL A   1      43.532  27.515  26.550  1.00  0.00     0.074 A 
ATOM     34  C   UNL A   1      43.709  29.906  27.161  1.00  0.00     0.049 A 
ATOM     35  N   UNL A   1      44.785  27.189  26.375  1.00  0.00    -0.248 NA
ATOM     36  C   UNL A   1      42.573  26.457  26.190  1.00  0.00     0.031 C 
ATOM     37  C   UNL A   1      43.240  31.232  27.571  1.00  0.00     0.029 A 
ATOM     38  N   UNL A   1      45.051  30.087  26.930  1.00  0.00    -0.354 N 
ATOM     39  C   UNL A   1      44.770  25.867  25.941  1.00  0.00     0.074 A 
ATOM     40  C   UNL A   1      43.384  25.456  25.877  1.00  0.00     0.031 C 
ATOM     41  C   UNL A   1      44.275  32.084  27.572  1.00  0.00     0.029 A 
ATOM     42  C   UNL A   1      45.493  31.347  27.257  1.00  0.00     0.049 A 
ATOM     43  H   UNL A   1      45.637  29.384  26.568  1.00  0.00     0.167 HD
ATOM     44  C   UNL A   1      45.825  25.073  25.642  1.00  0.00     0.031 A 
ATOM     45  C   UNL A   1      46.742  31.837  27.364  1.00  0.00     0.031 A 
ATOM     46  C   UNL A   1      47.194  25.517  25.693  1.00  0.00     0.049 A 
ATOM     47  C   UNL A   1      47.903  30.921  27.102  1.00  0.00     0.074 A 
ATOM     48  C   UNL A   1      48.344  24.800  25.414  1.00  0.00     0.029 A 
ATOM     49  N   UNL A   1      47.595  26.801  26.036  1.00  0.00    -0.354 N 
ATOM     50  N   UNL A   1      47.889  29.654  26.756  1.00  0.00    -0.248 NA
ATOM     51  C   UNL A   1      49.249  31.489  27.255  1.00  0.00     0.031 C 
ATOM     52  C   UNL A   1      49.441  25.637  25.633  1.00  0.00     0.029 A 
ATOM     53  C   UNL A   1      48.974  26.893  25.989  1.00  0.00     0.049 A 
ATOM     54  H   UNL A   1      46.987  27.537  26.276  1.00  0.00     0.167 HD
ATOM     55  C   UNL A   1      49.221  29.285  26.618  1.00  0.00     0.074 A 
ATOM     56  C   UNL A   1      50.015  30.459  26.918  1.00  0.00     0.031 C 
ATOM     57  C   UNL A   1      49.740  28.082  26.269  1.00  0.00     0.031 A 
BRANCH  44  58
ATOM     58  C   UNL A   1      45.547  23.636  25.291  1.00  0.00    -0.014 A 
ATOM     59  C   UNL A   1      45.673  22.605  26.239  1.00  0.00     0.010 A 
ATOM     60  C   UNL A   1      45.115  23.317  23.990  1.00  0.00     0.010 A 
ATOM     61  C   UNL A   1      45.410  21.278  25.881  1.00  0.00     0.020 A 
ATOM     62  C   UNL A   1      44.825  21.997  23.635  1.00  0.00     0.020 A 
ATOM     63  C   UNL A   1      44.992  20.982  24.580  1.00  0.00     0.054 A 
BRANCH  63  64
ATOM     64  S   UNL A   1      44.640  19.256  24.145  1.00  0.00     0.124 S 
ATOM     65  O   UNL A   1      45.774  18.556  24.742  1.00  0.00    -0.237 OA
ATOM     66  O   UNL A   1      43.349  19.019  24.787  1.00  0.00    -0.237 OA
ATOM     67  O   UNL A   1      44.612  19.264  22.685  1.00  0.00    -0.744 OA
ENDBRANCH  63  64
ENDBRANCH  44  58
BRANCH  45  68
ATOM     68  C   UNL A   1      46.950  33.246  27.795  1.00  0.00    -0.014 A 
ATOM     69  C   UNL A   1      47.155  33.556  29.150  1.00  0.00     0.010 A 
ATOM     70  C   UNL A   1      46.975  34.285  26.845  1.00  0.00     0.010 A 
ATOM     71  C   UNL A   1      47.370  34.878  29.549  1.00  0.00     0.020 A 
ATOM     72  C   UNL A   1      47.219  35.605  27.236  1.00  0.00     0.020 A 
ATOM     73  C   UNL A   1      47.404  35.895  28.589  1.00  0.00     0.054 A 
BRANCH  73  74
ATOM     74  S   UNL A   1      47.739  37.595  29.124  1.00  0.00     0.124 S 
ATOM     75  O   UNL A   1      47.038  38.376  28.111  1.00  0.00    -0.237 OA
ATOM     76  O   UNL A   1      47.156  37.626  30.463  1.00  0.00    -0.237 OA
ATOM     77  O   UNL A   1      49.197  37.684  29.087  1.00  0.00    -0.744 OA
ENDBRANCH  73  74
ENDBRANCH  45  68
BRANCH  57  78
ATOM     78  C   UNL A   1      51.232  27.985  26.120  1.00  0.00    -0.014 A 
ATOM     79  C   UNL A   1      52.046  27.548  27.179  1.00  0.00     0.010 A 
ATOM     80  C   UNL A   1      51.811  28.234  24.861  1.00  0.00     0.010 A 
ATOM     81  C   UNL A   1      53.417  27.365  26.981  1.00  0.00     0.020 A 
ATOM     82  C   UNL A   1      53.176  28.029  24.654  1.00  0.00     0.020 A 
ATOM     83  C   UNL A   1      53.972  27.598  25.718  1.00  0.00     0.054 A 
BRANCH  83  84
ATOM     84  S   UNL A   1      55.735  27.261  25.462  1.00  0.00     0.124 S 
ATOM     85  O   UNL A   1      56.088  26.538  26.680  1.00  0.00    -0.237 OA
ATOM     86  O   UNL A   1      55.735  26.467  24.236  1.00  0.00    -0.237 OA
ATOM     87  O   UNL A   1      56.328  28.592  25.334  1.00  0.00    -0.744 OA
ENDBRANCH  83  84
ENDBRANCH  57  78
ENDBRANCH  31  32
ENDBRANCH  24  26
ENDBRANCH  23  24
ENDBRANCH  22  23
ENDBRANCH   1  22
TORSDOF 20
ENDMDL
MODEL 3
REMARK VINA RESULT:      -9.3      2.803      7.580
REMARK SMILES C[C@H](O)C[C@@]1(C(=O)OCCOC(=O)c2ccc(-c3c4nc(c(-c5ccc(S(=O)(=O)[O-])cc5)c5ccc([nH]5)c(-c5ccc(S(=O)(=O)[O-])cc5)c5nc(c(-c6ccc(S(=O)(=O)[O-])cc6)c6ccc3[nH]6)C=C5)C=C4)cc2)CCN(C(=O)OC(C)(C)C)C1
REMARK SMILES IDX 9 1 8 2 6 3 7 4 5 5 74 6 84 7 75 8 76 9 4 10 2 11 1 12 3 13
REMARK SMILES IDX 77 15 78 16 79 17 80 18 81 19 82 20 83 21 10 22 11 23 12 24
REMARK SMILES IDX 13 25 14 26 15 27 73 28 16 29 72 30 17 31 18 32 19 33 66 34
REMARK SMILES IDX 20 35 71 36 65 37 67 38 21 39 70 40 64 41 63 42 22 44 52 45
REMARK SMILES IDX 33 46 51 47 34 48 37 49 50 50 68 51 35 52 36 53 49 55 69 56
REMARK SMILES IDX 38 57 23 58 24 59 32 60 25 61 31 62 26 63 27 64 28 65 29 66
REMARK SMILES IDX 30 67 53 68 54 69 62 70 55 71 61 72 56 73 57 74 58 75 59 76
REMARK SMILES IDX 60 77 39 78 40 79 48 80 41 81 47 82 42 83 43 84 44 85 45 86
REMARK SMILES IDX 46 87
REMARK H PARENT 3 14 67 43 37 54
REMARK Flexibility Score: inf
ROOT
ATOM      1  C   UNL A   1      32.669  27.661  25.697  1.00  0.00     0.274 C 
ENDROOT
BRANCH   1   2
ATOM      2  O   UNL A   1      32.697  26.267  26.076  1.00  0.00    -0.462 OA
BRANCH   2   3
ATOM      3  C   UNL A   1      31.512  25.603  25.976  1.00  0.00     0.314 C 
ATOM      4  O   UNL A   1      30.493  25.945  26.563  1.00  0.00    -0.252 OA
BRANCH   3   5
ATOM      5  C   UNL A   1      31.577  24.377  25.054  1.00  0.00     0.090 C 
ATOM      6  C   UNL A   1      30.796  23.167  25.649  1.00  0.00     0.042 C 
ATOM      7  C   UNL A   1      33.021  23.869  24.965  1.00  0.00     0.142 C 
ATOM      8  C   UNL A   1      31.858  22.248  26.250  1.00  0.00     0.124 C 
ATOM      9  N   UNL A   1      33.013  22.506  25.430  1.00  0.00    -0.307 N 
BRANCH   5  10
ATOM     10  C   UNL A   1      30.943  24.793  23.685  1.00  0.00     0.052 C 
BRANCH  10  11
ATOM     11  C   UNL A   1      31.881  25.494  22.679  1.00  0.00     0.112 C 
ATOM     12  C   UNL A   1      31.319  26.823  22.188  1.00  0.00     0.038 C 
BRANCH  11  13
ATOM     13  O   UNL A   1      32.063  24.657  21.540  1.00  0.00    -0.393 OA
ATOM     14  H   UNL A   1      31.268  24.119  21.405  1.00  0.00     0.210 HD
ENDBRANCH  11  13
ENDBRANCH  10  11
ENDBRANCH   5  10
BRANCH   9  15
ATOM     15  C   UNL A   1      34.089  21.688  25.188  1.00  0.00     0.410 C 
ATOM     16  O   UNL A   1      34.319  20.687  25.855  1.00  0.00    -0.224 OA
BRANCH  15  17
ATOM     17  O   UNL A   1      34.864  22.124  24.161  1.00  0.00    -0.444 OA
BRANCH  17  18
ATOM     18  C   UNL A   1      36.274  22.384  24.402  1.00  0.00     0.106 C 
ATOM     19  C   UNL A   1      36.457  23.380  25.556  1.00  0.00     0.056 C 
ATOM     20  C   UNL A   1      37.077  21.095  24.631  1.00  0.00     0.056 C 
ATOM     21  C   UNL A   1      36.782  23.041  23.110  1.00  0.00     0.056 C 
ENDBRANCH  17  18
ENDBRANCH  15  17
ENDBRANCH   9  15
ENDBRANCH   3   5
ENDBRANCH   2   3
ENDBRANCH   1   2
BRANCH   1  22
ATOM     22  C   UNL A   1      32.704  28.575  26.918  1.00  0.00     0.275 C 
BRANCH  22  23
ATOM     23  O   UNL A   1      34.049  28.704  27.402  1.00  0.00    -0.458 OA
BRANCH  23  24
ATOM     24  C   UNL A   1      34.386  29.948  27.814  1.00  0.00     0.338 C 
ATOM     25  O   UNL A   1      33.659  30.922  27.893  1.00  0.00    -0.246 OA
BRANCH  24  26
ATOM     26  C   UNL A   1      35.801  29.970  28.209  1.00  0.00     0.060 A 
ATOM     27  C   UNL A   1      36.781  30.210  27.244  1.00  0.00     0.016 A 
ATOM     28  C   UNL A   1      36.157  29.602  29.502  1.00  0.00     0.016 A 
ATOM     29  C   UNL A   1      38.120  29.980  27.535  1.00  0.00     0.010 A 
ATOM     30  C   UNL A   1      37.509  29.477  29.822  1.00  0.00     0.010 A 
ATOM     31  C   UNL A   1      38.499  29.633  28.835  1.00  0.00    -0.014 A 
BRANCH  31  32
ATOM     32  C   UNL A   1      39.922  29.414  29.188  1.00  0.00     0.031 A 
ATOM     33  C   UNL A   1      40.572  28.105  28.846  1.00  0.00     0.074 A 
ATOM     34  C   UNL A   1      40.602  30.357  29.869  1.00  0.00     0.049 A 
ATOM     35  N   UNL A   1      41.664  27.575  29.330  1.00  0.00    -0.248 NA
ATOM     36  C   UNL A   1      39.890  27.275  27.838  1.00  0.00     0.031 C 
ATOM     37  C   UNL A   1      40.114  31.702  30.183  1.00  0.00     0.029 A 
ATOM     38  N   UNL A   1      41.846  30.313  30.447  1.00  0.00    -0.354 N 
ATOM     39  C   UNL A   1      41.770  26.324  28.732  1.00  0.00     0.074 A 
ATOM     40  C   UNL A   1      40.634  26.177  27.847  1.00  0.00     0.031 C 
ATOM     41  C   UNL A   1      41.042  32.350  30.903  1.00  0.00     0.029 A 
ATOM     42  C   UNL A   1      42.144  31.437  31.181  1.00  0.00     0.049 A 
ATOM     43  H   UNL A   1      42.463  29.553  30.346  1.00  0.00     0.167 HD
ATOM     44  C   UNL A   1      42.725  25.384  28.924  1.00  0.00     0.031 A 
ATOM     45  C   UNL A   1      43.151  31.681  32.040  1.00  0.00     0.031 A 
ATOM     46  C   UNL A   1      43.858  25.566  29.794  1.00  0.00     0.049 A 
ATOM     47  C   UNL A   1      44.160  30.598  32.298  1.00  0.00     0.074 A 
ATOM     48  C   UNL A   1      44.886  24.682  30.068  1.00  0.00     0.029 A 
ATOM     49  N   UNL A   1      44.114  26.719  30.523  1.00  0.00    -0.354 N 
ATOM     50  N   UNL A   1      44.222  29.393  31.781  1.00  0.00    -0.248 NA
ATOM     51  C   UNL A   1      45.228  30.898  33.262  1.00  0.00     0.031 C 
ATOM     52  C   UNL A   1      45.739  25.283  30.997  1.00  0.00     0.029 A 
ATOM     53  C   UNL A   1      45.277  26.564  31.256  1.00  0.00     0.049 A 
ATOM     54  H   UNL A   1      43.553  27.527  30.518  1.00  0.00     0.167 HD
ATOM     55  C   UNL A   1      45.353  28.804  32.332  1.00  0.00     0.074 A 
ATOM     56  C   UNL A   1      45.945  29.782  33.222  1.00  0.00     0.031 C 
ATOM     57  C   UNL A   1      45.859  27.564  32.116  1.00  0.00     0.031 A 
BRANCH  44  58
ATOM     58  C   UNL A   1      42.558  24.059  28.228  1.00  0.00    -0.014 A 
ATOM     59  C   UNL A   1      43.069  23.832  26.938  1.00  0.00     0.010 A 
ATOM     60  C   UNL A   1      41.907  23.006  28.898  1.00  0.00     0.010 A 
ATOM     61  C   UNL A   1      42.896  22.590  26.316  1.00  0.00     0.020 A 
ATOM     62  C   UNL A   1      41.755  21.757  28.292  1.00  0.00     0.020 A 
ATOM     63  C   UNL A   1      42.237  21.561  26.997  1.00  0.00     0.054 A 
BRANCH  63  64
ATOM     64  S   UNL A   1      42.041  19.955  26.176  1.00  0.00     0.124 S 
ATOM     65  O   UNL A   1      42.987  20.063  25.069  1.00  0.00    -0.237 OA
ATOM     66  O   UNL A   1      42.411  19.010  27.227  1.00  0.00    -0.237 OA
ATOM     67  O   UNL A   1      40.632  19.931  25.791  1.00  0.00    -0.744 OA
ENDBRANCH  63  64
ENDBRANCH  44  58
BRANCH  45  68
ATOM     68  C   UNL A   1      43.213  32.984  32.757  1.00  0.00    -0.014 A 
ATOM     69  C   UNL A   1      43.832  34.097  32.164  1.00  0.00     0.010 A 
ATOM     70  C   UNL A   1      42.622  33.126  34.028  1.00  0.00     0.010 A 
ATOM     71  C   UNL A   1      43.870  35.325  32.832  1.00  0.00     0.020 A 
ATOM     72  C   UNL A   1      42.633  34.359  34.685  1.00  0.00     0.020 A 
ATOM     73  C   UNL A   1      43.267  35.449  34.088  1.00  0.00     0.054 A 
BRANCH  73  74
ATOM     74  S   UNL A   1      43.282  37.066  34.911  1.00  0.00     0.124 S 
ATOM     75  O   UNL A   1      42.774  37.944  33.862  1.00  0.00    -0.237 OA
ATOM     76  O   UNL A   1      42.387  36.851  36.045  1.00  0.00    -0.237 OA
ATOM     77  O   UNL A   1      44.686  37.257  35.264  1.00  0.00    -0.744 OA
ENDBRANCH  73  74
ENDBRANCH  45  68
BRANCH  57  78
ATOM     78  C   UNL A   1      47.153  27.213  32.795  1.00  0.00    -0.014 A 
ATOM     79  C   UNL A   1      47.175  26.494  34.001  1.00  0.00     0.010 A 
ATOM     80  C   UNL A   1      48.367  27.519  32.151  1.00  0.00     0.010 A 
ATOM     81  C   UNL A   1      48.392  26.088  34.555  1.00  0.00     0.020 A 
ATOM     82  C   UNL A   1      49.583  27.095  32.688  1.00  0.00     0.020 A 
ATOM     83  C   UNL A   1      49.588  26.384  33.891  1.00  0.00     0.054 A 
BRANCH  83  84
ATOM     84  S   UNL A   1      51.147  25.764  34.579  1.00  0.00     0.124 S 
ATOM     85  O   UNL A   1      50.682  24.752  35.524  1.00  0.00    -0.237 OA
ATOM     86  O   UNL A   1      51.838  25.252  33.398  1.00  0.00    -0.237 OA
ATOM     87  O   UNL A   1      51.754  26.948  35.184  1.00  0.00    -0.744 OA
ENDBRANCH  83  84
ENDBRANCH  57  78
ENDBRANCH  31  32
ENDBRANCH  24  26
ENDBRANCH  23  24
ENDBRANCH  22  23
ENDBRANCH   1  22
TORSDOF 20
ENDMDL
