MODEL 1
REMARK VINA RESULT:     -11.2      0.000      0.000
REMARK SMILES COc1ccc2c(c1)c(CC(=O)OCCOC(=O)c1ccc(-c3c4nc(c(-c5ccc(S(=O)(=O)[O-])cc5)c5ccc([nH]5)c(-c5ccc(S(=O)(=O)[O-])cc5)c5nc(c(-c6ccc(S(=O)(=O)[O-])cc6)c6ccc3[nH]6)C=C5)C=C4)cc1)c(C)n2C(=O)c1ccc(Cl)cc1
REMARK SMILES IDX 14 1 13 2 11 3 12 4 10 5 9 6 3 7 4 8 8 9 5 10 7 11 6 12
REMARK SMILES IDX 81 13 79 14 80 15 2 16 1 17 82 18 83 19 84 20 85 21 90 22
REMARK SMILES IDX 86 23 89 24 87 25 88 26 15 27 16 28 17 29 18 30 19 31 20 32
REMARK SMILES IDX 78 33 21 34 77 35 22 36 23 37 24 38 71 39 25 40 76 41 70 42
REMARK SMILES IDX 72 43 26 44 75 45 69 46 68 47 27 49 57 50 38 51 56 52 39 53
REMARK SMILES IDX 42 54 55 55 73 56 40 57 41 58 54 60 74 61 43 62 28 63 29 64
REMARK SMILES IDX 37 65 30 66 36 67 31 68 32 69 33 70 34 71 35 72 58 73 59 74
REMARK SMILES IDX 67 75 60 76 66 77 61 78 62 79 63 80 64 81 65 82 44 83 45 84
REMARK SMILES IDX 53 85 46 86 52 87 47 88 48 89 49 90 50 91 51 92
REMARK H PARENT 72 48 42 59
REMARK Flexibility Score: inf
ROOT
ATOM      1  C   UNL A   1      34.164  34.707  31.380  1.00  0.00     0.274 C 
ENDROOT
BRANCH   1   2
ATOM      2  O   UNL A   1      33.191  34.375  30.362  1.00  0.00    -0.462 OA
BRANCH   2   3
ATOM      3  C   UNL A   1      33.236  35.127  29.235  1.00  0.00     0.310 C 
ATOM      4  O   UNL A   1      33.410  36.343  29.228  1.00  0.00    -0.252 OA
BRANCH   3   5
ATOM      5  C   UNL A   1      33.042  34.371  27.949  1.00  0.00     0.160 C 
BRANCH   5   6
ATOM      6  C   UNL A   1      33.387  32.909  27.856  1.00  0.00    -0.008 A 
ATOM      7  C   UNL A   1      37.000  31.837  28.651  1.00  0.00     0.119 A 
ATOM      8  C   UNL A   1      36.881  30.550  28.160  1.00  0.00     0.048 A 
ATOM      9  C   UNL A   1      35.873  32.670  28.669  1.00  0.00     0.057 A 
ATOM     10  C   UNL A   1      35.657  30.090  27.669  1.00  0.00     0.031 A 
ATOM     11  C   UNL A   1      34.630  32.254  28.134  1.00  0.00     0.008 A 
ATOM     12  C   UNL A   1      34.524  30.936  27.675  1.00  0.00     0.057 A 
ATOM     13  N   UNL A   1      33.188  30.721  27.295  1.00  0.00    -0.280 N 
ATOM     14  C   UNL A   1      32.574  31.972  27.227  1.00  0.00     0.028 A 
ATOM     15  C   UNL A   1      31.259  32.241  26.562  1.00  0.00     0.065 C 
BRANCH   7  16
ATOM     16  O   UNL A   1      38.154  32.380  29.148  1.00  0.00    -0.497 OA
ATOM     17  C   UNL A   1      38.242  33.801  29.131  1.00  0.00     0.278 C 
ENDBRANCH   7  16
BRANCH  13  18
ATOM     18  C   UNL A   1      32.582  29.467  27.024  1.00  0.00     0.262 C 
ATOM     19  O   UNL A   1      31.881  28.926  27.878  1.00  0.00    -0.268 OA
BRANCH  18  20
ATOM     20  C   UNL A   1      32.759  28.709  25.779  1.00  0.00     0.040 A 
ATOM     21  C   UNL A   1      33.521  27.537  25.779  1.00  0.00     0.015 A 
ATOM     22  C   UNL A   1      32.193  29.209  24.602  1.00  0.00     0.015 A 
ATOM     23  C   UNL A   1      33.765  26.887  24.570  1.00  0.00     0.021 A 
ATOM     24  C   UNL A   1      32.441  28.552  23.398  1.00  0.00     0.021 A 
ATOM     25  C   UNL A   1      33.233  27.402  23.385  1.00  0.00     0.041 A 
ATOM     26  Cl  UNL A   1      33.574  26.620  21.891  1.00  0.00    -0.084 Cl
ENDBRANCH  18  20
ENDBRANCH  13  18
ENDBRANCH   5   6
ENDBRANCH   3   5
ENDBRANCH   2   3
ENDBRANCH   1   2
BRANCH   1  27
ATOM     27  C   UNL A   1      34.549  33.461  32.182  1.00  0.00     0.275 C 
BRANCH  27  28
ATOM     28  O   UNL A   1      35.975  33.370  32.226  1.00  0.00    -0.458 OA
BRANCH  28  29
ATOM     29  C   UNL A   1      36.514  32.546  33.170  1.00  0.00     0.338 C 
ATOM     30  O   UNL A   1      36.126  32.369  34.298  1.00  0.00    -0.246 OA
BRANCH  29  31
ATOM     31  C   UNL A   1      37.430  31.666  32.420  1.00  0.00     0.060 A 
ATOM     32  C   UNL A   1      37.030  30.385  32.043  1.00  0.00     0.016 A 
ATOM     33  C   UNL A   1      38.770  32.055  32.332  1.00  0.00     0.016 A 
ATOM     34  C   UNL A   1      37.996  29.449  31.705  1.00  0.00     0.010 A 
ATOM     35  C   UNL A   1      39.740  31.106  32.035  1.00  0.00     0.010 A 
ATOM     36  C   UNL A   1      39.353  29.793  31.768  1.00  0.00    -0.014 A 
BRANCH  36  37
ATOM     37  C   UNL A   1      40.321  28.830  31.273  1.00  0.00     0.031 A 
ATOM     38  C   UNL A   1      41.344  28.472  32.278  1.00  0.00     0.074 A 
ATOM     39  C   UNL A   1      40.382  28.234  30.071  1.00  0.00     0.049 A 
ATOM     40  N   UNL A   1      42.535  28.955  32.364  1.00  0.00    -0.248 NA
ATOM     41  C   UNL A   1      40.955  27.593  33.386  1.00  0.00     0.031 C 
ATOM     42  C   UNL A   1      39.372  28.120  29.023  1.00  0.00     0.029 A 
ATOM     43  N   UNL A   1      41.432  27.514  29.578  1.00  0.00    -0.354 N 
ATOM     44  C   UNL A   1      43.117  28.338  33.460  1.00  0.00     0.074 A 
ATOM     45  C   UNL A   1      42.054  27.637  34.138  1.00  0.00     0.031 C 
ATOM     46  C   UNL A   1      39.789  27.204  28.111  1.00  0.00     0.029 A 
ATOM     47  C   UNL A   1      41.153  26.796  28.430  1.00  0.00     0.049 A 
ATOM     48  H   UNL A   1      42.318  27.506  30.007  1.00  0.00     0.167 HD
ATOM     49  C   UNL A   1      44.465  28.315  33.639  1.00  0.00     0.031 A 
ATOM     50  C   UNL A   1      41.982  25.897  27.843  1.00  0.00     0.031 A 
ATOM     51  C   UNL A   1      45.144  29.212  32.738  1.00  0.00     0.049 A 
ATOM     52  C   UNL A   1      43.372  26.213  28.268  1.00  0.00     0.074 A 
ATOM     53  C   UNL A   1      45.071  30.570  32.498  1.00  0.00     0.029 A 
ATOM     54  N   UNL A   1      45.767  28.665  31.639  1.00  0.00    -0.354 N 
ATOM     55  N   UNL A   1      44.029  27.274  27.889  1.00  0.00    -0.248 NA
ATOM     56  C   UNL A   1      43.924  25.523  29.424  1.00  0.00     0.031 C 
ATOM     57  C   UNL A   1      45.216  30.706  31.088  1.00  0.00     0.029 A 
ATOM     58  C   UNL A   1      45.421  29.432  30.554  1.00  0.00     0.049 A 
ATOM     59  H   UNL A   1      46.352  27.873  31.632  1.00  0.00     0.167 HD
ATOM     60  C   UNL A   1      44.814  27.620  28.980  1.00  0.00     0.074 A 
ATOM     61  C   UNL A   1      44.789  26.447  29.847  1.00  0.00     0.031 C 
ATOM     62  C   UNL A   1      45.190  28.913  29.216  1.00  0.00     0.031 A 
BRANCH  49  63
ATOM     63  C   UNL A   1      45.189  27.268  34.438  1.00  0.00    -0.014 A 
ATOM     64  C   UNL A   1      45.441  27.390  35.818  1.00  0.00     0.010 A 
ATOM     65  C   UNL A   1      45.443  26.014  33.848  1.00  0.00     0.010 A 
ATOM     66  C   UNL A   1      45.946  26.333  36.574  1.00  0.00     0.020 A 
ATOM     67  C   UNL A   1      45.900  24.929  34.609  1.00  0.00     0.020 A 
ATOM     68  C   UNL A   1      46.155  25.101  35.968  1.00  0.00     0.054 A 
BRANCH  68  69
ATOM     69  S   UNL A   1      46.666  23.718  37.012  1.00  0.00     0.124 S 
ATOM     70  O   UNL A   1      45.420  22.968  37.149  1.00  0.00    -0.237 OA
ATOM     71  O   UNL A   1      47.700  23.079  36.203  1.00  0.00    -0.237 OA
ATOM     72  O   UNL A   1      47.144  24.369  38.230  1.00  0.00    -0.744 OA
ENDBRANCH  68  69
ENDBRANCH  49  63
BRANCH  50  73
ATOM     73  C   UNL A   1      41.626  24.589  27.234  1.00  0.00    -0.014 A 
ATOM     74  C   UNL A   1      40.738  23.717  27.893  1.00  0.00     0.010 A 
ATOM     75  C   UNL A   1      42.395  24.067  26.175  1.00  0.00     0.010 A 
ATOM     76  C   UNL A   1      40.688  22.356  27.576  1.00  0.00     0.020 A 
ATOM     77  C   UNL A   1      42.357  22.699  25.857  1.00  0.00     0.020 A 
ATOM     78  C   UNL A   1      41.531  21.846  26.590  1.00  0.00     0.054 A 
BRANCH  78  79
ATOM     79  S   UNL A   1      41.598  20.047  26.366  1.00  0.00     0.124 S 
ATOM     80  O   UNL A   1      42.021  19.593  27.688  1.00  0.00    -0.237 OA
ATOM     81  O   UNL A   1      40.221  19.722  26.005  1.00  0.00    -0.237 OA
ATOM     82  O   UNL A   1      42.578  19.865  25.298  1.00  0.00    -0.744 OA
ENDBRANCH  78  79
ENDBRANCH  50  73
BRANCH  62  83
ATOM     83  C   UNL A   1      45.075  29.950  28.115  1.00  0.00    -0.014 A 
ATOM     84  C   UNL A   1      46.271  30.542  27.655  1.00  0.00     0.010 A 
ATOM     85  C   UNL A   1      43.856  30.487  27.660  1.00  0.00     0.010 A 
ATOM     86  C   UNL A   1      46.253  31.651  26.806  1.00  0.00     0.020 A 
ATOM     87  C   UNL A   1      43.831  31.581  26.780  1.00  0.00     0.020 A 
ATOM     88  C   UNL A   1      45.031  32.173  26.381  1.00  0.00     0.054 A 
BRANCH  88  89
ATOM     89  S   UNL A   1      45.045  33.645  25.323  1.00  0.00     0.124 S 
ATOM     90  O   UNL A   1      44.156  34.554  26.045  1.00  0.00    -0.237 OA
ATOM     91  O   UNL A   1      46.456  34.029  25.320  1.00  0.00    -0.237 OA
ATOM     92  O   UNL A   1      44.535  33.166  24.041  1.00  0.00    -0.744 OA
ENDBRANCH  88  89
ENDBRANCH  62  83
ENDBRANCH  36  37
ENDBRANCH  29  31
ENDBRANCH  28  29
ENDBRANCH  27  28
ENDBRANCH   1  27
TORSDOF 18
ENDMDL
MODEL 2
REMARK VINA RESULT:     -11.1      3.746     10.694
REMARK SMILES COc1ccc2c(c1)c(CC(=O)OCCOC(=O)c1ccc(-c3c4nc(c(-c5ccc(S(=O)(=O)[O-])cc5)c5ccc([nH]5)c(-c5ccc(S(=O)(=O)[O-])cc5)c5nc(c(-c6ccc(S(=O)(=O)[O-])cc6)c6ccc3[nH]6)C=C5)C=C4)cc1)c(C)n2C(=O)c1ccc(Cl)cc1
REMARK SMILES IDX 14 1 13 2 11 3 12 4 10 5 9 6 3 7 4 8 8 9 5 10 7 11 6 12
REMARK SMILES IDX 81 13 79 14 80 15 2 16 1 17 82 18 83 19 84 20 85 21 90 22
REMARK SMILES IDX 86 23 89 24 87 25 88 26 15 27 16 28 17 29 18 30 19 31 20 32
REMARK SMILES IDX 78 33 21 34 77 35 22 36 23 37 24 38 71 39 25 40 76 41 70 42
REMARK SMILES IDX 72 43 26 44 75 45 69 46 68 47 27 49 57 50 38 51 56 52 39 53
REMARK SMILES IDX 42 54 55 55 73 56 40 57 41 58 54 60 74 61 43 62 28 63 29 64
REMARK SMILES IDX 37 65 30 66 36 67 31 68 32 69 33 70 34 71 35 72 58 73 59 74
REMARK SMILES IDX 67 75 60 76 66 77 61 78 62 79 63 80 64 81 65 82 44 83 45 84
REMARK SMILES IDX 53 85 46 86 52 87 47 88 48 89 49 90 50 91 51 92
REMARK H PARENT 72 48 42 59
REMARK Flexibility Score: inf
ROOT
ATOM      1  C   UNL A   1      39.037  20.715  25.746  1.00  0.00     0.274 C 
ENDROOT
BRANCH   1   2
ATOM      2  O   UNL A   1      38.575  22.054  25.452  1.00  0.00    -0.462 OA
BRANCH   2   3
ATOM      3  C   UNL A   1      37.305  22.151  24.989  1.00  0.00     0.310 C 
ATOM      4  O   UNL A   1      37.007  22.160  23.797  1.00  0.00    -0.252 OA
BRANCH   3   5
ATOM      5  C   UNL A   1      36.241  22.263  26.048  1.00  0.00     0.160 C 
BRANCH   5   6
ATOM      6  C   UNL A   1      34.801  21.971  25.726  1.00  0.00    -0.008 A 
ATOM      7  C   UNL A   1      33.934  18.546  24.194  1.00  0.00     0.119 A 
ATOM      8  C   UNL A   1      32.641  18.872  23.831  1.00  0.00     0.048 A 
ATOM      9  C   UNL A   1      34.703  19.480  24.901  1.00  0.00     0.057 A 
ATOM     10  C   UNL A   1      32.111  20.124  24.149  1.00  0.00     0.031 A 
ATOM     11  C   UNL A   1      34.216  20.776  25.194  1.00  0.00     0.008 A 
ATOM     12  C   UNL A   1      32.893  21.072  24.850  1.00  0.00     0.057 A 
ATOM     13  N   UNL A   1      32.603  22.360  25.329  1.00  0.00    -0.280 N 
ATOM     14  C   UNL A   1      33.817  22.953  25.674  1.00  0.00     0.028 A 
ATOM     15  C   UNL A   1      34.009  24.417  25.927  1.00  0.00     0.065 C 
BRANCH   7  16
ATOM     16  O   UNL A   1      34.542  17.350  23.925  1.00  0.00    -0.497 OA
ATOM     17  C   UNL A   1      33.758  16.180  24.135  1.00  0.00     0.278 C 
ENDBRANCH   7  16
BRANCH  13  18
ATOM     18  C   UNL A   1      31.315  22.949  25.434  1.00  0.00     0.262 C 
ATOM     19  O   UNL A   1      30.451  22.415  26.126  1.00  0.00    -0.268 OA
BRANCH  18  20
ATOM     20  C   UNL A   1      30.897  24.165  24.726  1.00  0.00     0.040 A 
ATOM     21  C   UNL A   1      31.068  24.259  23.341  1.00  0.00     0.015 A 
ATOM     22  C   UNL A   1      30.375  25.229  25.468  1.00  0.00     0.015 A 
ATOM     23  C   UNL A   1      30.762  25.458  22.700  1.00  0.00     0.021 A 
ATOM     24  C   UNL A   1      30.070  26.424  24.819  1.00  0.00     0.021 A 
ATOM     25  C   UNL A   1      30.275  26.537  23.442  1.00  0.00     0.041 A 
ATOM     26  Cl  UNL A   1      29.940  28.029  22.652  1.00  0.00    -0.084 Cl
ENDBRANCH  18  20
ENDBRANCH  13  18
ENDBRANCH   5   6
ENDBRANCH   3   5
ENDBRANCH   2   3
ENDBRANCH   1   2
BRANCH   1  27
ATOM     27  C   UNL A   1      40.484  20.744  26.248  1.00  0.00     0.275 C 
BRANCH  27  28
ATOM     28  O   UNL A   1      40.797  22.077  26.657  1.00  0.00    -0.458 OA
BRANCH  28  29
ATOM     29  C   UNL A   1      41.903  22.651  26.101  1.00  0.00     0.338 C 
ATOM     30  O   UNL A   1      42.561  22.237  25.180  1.00  0.00    -0.246 OA
BRANCH  29  31
ATOM     31  C   UNL A   1      41.906  24.033  26.616  1.00  0.00     0.060 A 
ATOM     32  C   UNL A   1      42.740  24.392  27.675  1.00  0.00     0.016 A 
ATOM     33  C   UNL A   1      40.881  24.883  26.190  1.00  0.00     0.016 A 
ATOM     34  C   UNL A   1      42.459  25.543  28.395  1.00  0.00     0.010 A 
ATOM     35  C   UNL A   1      40.574  26.013  26.938  1.00  0.00     0.010 A 
ATOM     36  C   UNL A   1      41.336  26.315  28.066  1.00  0.00    -0.014 A 
BRANCH  36  37
ATOM     37  C   UNL A   1      41.159  27.583  28.752  1.00  0.00     0.031 A 
ATOM     38  C   UNL A   1      42.140  28.606  28.334  1.00  0.00     0.074 A 
ATOM     39  C   UNL A   1      40.235  27.930  29.664  1.00  0.00     0.049 A 
ATOM     40  N   UNL A   1      43.220  28.930  28.956  1.00  0.00    -0.248 NA
ATOM     41  C   UNL A   1      41.977  29.233  27.018  1.00  0.00     0.031 C 
ATOM     42  C   UNL A   1      38.974  27.285  30.020  1.00  0.00     0.029 A 
ATOM     43  N   UNL A   1      40.248  29.051  30.441  1.00  0.00    -0.354 N 
ATOM     44  C   UNL A   1      43.822  29.914  28.188  1.00  0.00     0.074 A 
ATOM     45  C   UNL A   1      43.100  29.945  26.939  1.00  0.00     0.031 C 
ATOM     46  C   UNL A   1      38.252  28.136  30.794  1.00  0.00     0.029 A 
ATOM     47  C   UNL A   1      39.066  29.303  31.112  1.00  0.00     0.049 A 
ATOM     48  H   UNL A   1      41.036  29.636  30.516  1.00  0.00     0.167 HD
ATOM     49  C   UNL A   1      44.768  30.746  28.700  1.00  0.00     0.031 A 
ATOM     50  C   UNL A   1      38.787  30.426  31.820  1.00  0.00     0.031 A 
ATOM     51  C   UNL A   1      45.235  30.303  29.989  1.00  0.00     0.049 A 
ATOM     52  C   UNL A   1      40.079  31.046  32.220  1.00  0.00     0.074 A 
ATOM     53  C   UNL A   1      45.825  29.142  30.451  1.00  0.00     0.029 A 
ATOM     54  N   UNL A   1      44.754  30.953  31.103  1.00  0.00    -0.354 N 
ATOM     55  N   UNL A   1      40.898  30.531  33.095  1.00  0.00    -0.248 NA
ATOM     56  C   UNL A   1      40.651  32.080  31.371  1.00  0.00     0.031 C 
ATOM     57  C   UNL A   1      45.256  28.924  31.738  1.00  0.00     0.029 A 
ATOM     58  C   UNL A   1      44.395  29.989  32.012  1.00  0.00     0.049 A 
ATOM     59  H   UNL A   1      44.682  31.928  31.226  1.00  0.00     0.167 HD
ATOM     60  C   UNL A   1      42.166  30.864  32.640  1.00  0.00     0.074 A 
ATOM     61  C   UNL A   1      41.946  31.906  31.643  1.00  0.00     0.031 C 
ATOM     62  C   UNL A   1      43.256  30.084  32.910  1.00  0.00     0.031 A 
BRANCH  49  63
ATOM     63  C   UNL A   1      45.063  32.116  28.158  1.00  0.00    -0.014 A 
ATOM     64  C   UNL A   1      44.089  32.925  27.539  1.00  0.00     0.010 A 
ATOM     65  C   UNL A   1      46.298  32.720  28.464  1.00  0.00     0.010 A 
ATOM     66  C   UNL A   1      44.335  34.258  27.211  1.00  0.00     0.020 A 
ATOM     67  C   UNL A   1      46.537  34.073  28.188  1.00  0.00     0.020 A 
ATOM     68  C   UNL A   1      45.553  34.830  27.556  1.00  0.00     0.054 A 
BRANCH  68  69
ATOM     69  S   UNL A   1      45.775  36.598  27.250  1.00  0.00     0.124 S 
ATOM     70  O   UNL A   1      46.481  36.595  25.972  1.00  0.00    -0.237 OA
ATOM     71  O   UNL A   1      44.399  37.084  27.208  1.00  0.00    -0.237 OA
ATOM     72  O   UNL A   1      46.558  37.047  28.399  1.00  0.00    -0.744 OA
ENDBRANCH  68  69
ENDBRANCH  49  63
BRANCH  50  73
ATOM     73  C   UNL A   1      37.507  31.179  31.872  1.00  0.00    -0.014 A 
ATOM     74  C   UNL A   1      36.997  31.792  30.711  1.00  0.00     0.010 A 
ATOM     75  C   UNL A   1      36.957  31.560  33.112  1.00  0.00     0.010 A 
ATOM     76  C   UNL A   1      36.045  32.814  30.789  1.00  0.00     0.020 A 
ATOM     77  C   UNL A   1      36.008  32.592  33.199  1.00  0.00     0.020 A 
ATOM     78  C   UNL A   1      35.590  33.239  32.035  1.00  0.00     0.054 A 
BRANCH  78  79
ATOM     79  S   UNL A   1      34.533  34.713  32.105  1.00  0.00     0.124 S 
ATOM     80  O   UNL A   1      34.371  35.036  30.690  1.00  0.00    -0.237 OA
ATOM     81  O   UNL A   1      33.334  34.210  32.772  1.00  0.00    -0.237 OA
ATOM     82  O   UNL A   1      35.319  35.669  32.880  1.00  0.00    -0.744 OA
ENDBRANCH  78  79
ENDBRANCH  50  73
BRANCH  62  83
ATOM     83  C   UNL A   1      43.188  29.036  34.005  1.00  0.00    -0.014 A 
ATOM     84  C   UNL A   1      42.417  27.882  33.750  1.00  0.00     0.010 A 
ATOM     85  C   UNL A   1      43.685  29.223  35.309  1.00  0.00     0.010 A 
ATOM     86  C   UNL A   1      42.118  26.969  34.764  1.00  0.00     0.020 A 
ATOM     87  C   UNL A   1      43.417  28.292  36.326  1.00  0.00     0.020 A 
ATOM     88  C   UNL A   1      42.611  27.186  36.052  1.00  0.00     0.054 A 
BRANCH  88  89
ATOM     89  S   UNL A   1      42.158  26.009  37.355  1.00  0.00     0.124 S 
ATOM     90  O   UNL A   1      43.024  26.421  38.459  1.00  0.00    -0.237 OA
ATOM     91  O   UNL A   1      40.734  26.274  37.551  1.00  0.00    -0.237 OA
ATOM     92  O   UNL A   1      42.466  24.703  36.778  1.00  0.00    -0.744 OA
ENDBRANCH  88  89
ENDBRANCH  62  83
ENDBRANCH  36  37
ENDBRANCH  29  31
ENDBRANCH  28  29
ENDBRANCH  27  28
ENDBRANCH   1  27
TORSDOF 18
ENDMDL
MODEL 3
REMARK VINA RESULT:     -11.0      4.118     12.093
REMARK SMILES COc1ccc2c(c1)c(CC(=O)OCCOC(=O)c1ccc(-c3c4nc(c(-c5ccc(S(=O)(=O)[O-])cc5)c5ccc([nH]5)c(-c5ccc(S(=O)(=O)[O-])cc5)c5nc(c(-c6ccc(S(=O)(=O)[O-])cc6)c6ccc3[nH]6)C=C5)C=C4)cc1)c(C)n2C(=O)c1ccc(Cl)cc1
REMARK SMILES IDX 14 1 13 2 11 3 12 4 10 5 9 6 3 7 4 8 8 9 5 10 7 11 6 12
REMARK SMILES IDX 81 13 79 14 80 15 2 16 1 17 82 18 83 19 84 20 85 21 90 22
REMARK SMILES IDX 86 23 89 24 87 25 88 26 15 27 16 28 17 29 18 30 19 31 20 32
REMARK SMILES IDX 78 33 21 34 77 35 22 36 23 37 24 38 71 39 25 40 76 41 70 42
REMARK SMILES IDX 72 43 26 44 75 45 69 46 68 47 27 49 57 50 38 51 56 52 39 53
REMARK SMILES IDX 42 54 55 55 73 56 40 57 41 58 54 60 74 61 43 62 28 63 29 64
REMARK SMILES IDX 37 65 30 66 36 67 31 68 32 69 33 70 34 71 35 72 58 73 59 74
REMARK SMILES IDX 67 75 60 76 66 77 61 78 62 79 63 80 64 81 65 82 44 83 45 84
REMARK SMILES IDX 53 85 46 86 52 87 47 88 48 89 49 90 50 91 51 92
REMARK H PARENT 72 48 42 59
REMARK Flexibility Score: inf
ROOT
ATOM      1  C   UNL A   1      42.439  22.280  28.196  1.00  0.00     0.274 C 
ENDROOT
BRANCH   1   2
ATOM      2  O   UNL A   1      42.229  23.632  28.668  1.00  0.00    -0.462 OA
BRANCH   2   3
ATOM      3  C   UNL A   1      43.313  24.445  28.628  1.00  0.00     0.310 C 
ATOM      4  O   UNL A   1      44.129  24.546  29.541  1.00  0.00    -0.252 OA
BRANCH   3   5
ATOM      5  C   UNL A   1      43.464  25.255  27.369  1.00  0.00     0.160 C 
BRANCH   5   6
ATOM      6  C   UNL A   1      44.569  24.959  26.392  1.00  0.00    -0.008 A 
ATOM      7  C   UNL A   1      44.643  21.491  24.718  1.00  0.00     0.119 A 
ATOM      8  C   UNL A   1      45.916  21.610  24.194  1.00  0.00     0.048 A 
ATOM      9  C   UNL A   1      44.077  22.581  25.394  1.00  0.00     0.057 A 
ATOM     10  C   UNL A   1      46.639  22.794  24.351  1.00  0.00     0.031 A 
ATOM     11  C   UNL A   1      44.799  23.778  25.615  1.00  0.00     0.008 A 
ATOM     12  C   UNL A   1      46.072  23.889  25.045  1.00  0.00     0.057 A 
ATOM     13  N   UNL A   1      46.545  25.186  25.303  1.00  0.00    -0.280 N 
ATOM     14  C   UNL A   1      45.715  25.740  26.277  1.00  0.00     0.028 A 
ATOM     15  C   UNL A   1      46.035  26.970  27.071  1.00  0.00     0.065 C 
BRANCH   7  16
ATOM     16  O   UNL A   1      43.860  20.373  24.621  1.00  0.00    -0.497 OA
ATOM     17  C   UNL A   1      44.539  19.122  24.631  1.00  0.00     0.278 C 
ENDBRANCH   7  16
BRANCH  13  18
ATOM     18  C   UNL A   1      47.665  25.811  24.693  1.00  0.00     0.262 C 
ATOM     19  O   UNL A   1      47.552  26.318  23.578  1.00  0.00    -0.268 OA
BRANCH  18  20
ATOM     20  C   UNL A   1      49.008  25.869  25.281  1.00  0.00     0.040 A 
ATOM     21  C   UNL A   1      50.050  26.483  24.579  1.00  0.00     0.015 A 
ATOM     22  C   UNL A   1      49.224  25.263  26.522  1.00  0.00     0.015 A 
ATOM     23  C   UNL A   1      51.340  26.438  25.106  1.00  0.00     0.021 A 
ATOM     24  C   UNL A   1      50.517  25.225  27.043  1.00  0.00     0.021 A 
ATOM     25  C   UNL A   1      51.570  25.802  26.328  1.00  0.00     0.041 A 
ATOM     26  Cl  UNL A   1      53.170  25.713  26.952  1.00  0.00    -0.084 Cl
ENDBRANCH  18  20
ENDBRANCH  13  18
ENDBRANCH   5   6
ENDBRANCH   3   5
ENDBRANCH   2   3
ENDBRANCH   1   2
BRANCH   1  27
ATOM     27  C   UNL A   1      41.134  21.694  27.647  1.00  0.00     0.275 C 
BRANCH  27  28
ATOM     28  O   UNL A   1      40.831  22.340  26.409  1.00  0.00    -0.458 OA
BRANCH  28  29
ATOM     29  C   UNL A   1      39.531  22.696  26.199  1.00  0.00     0.338 C 
ATOM     30  O   UNL A   1      38.589  21.965  26.022  1.00  0.00    -0.246 OA
BRANCH  29  31
ATOM     31  C   UNL A   1      39.464  24.118  26.588  1.00  0.00     0.060 A 
ATOM     32  C   UNL A   1      40.168  25.082  25.867  1.00  0.00     0.016 A 
ATOM     33  C   UNL A   1      38.895  24.422  27.827  1.00  0.00     0.016 A 
ATOM     34  C   UNL A   1      40.419  26.313  26.454  1.00  0.00     0.010 A 
ATOM     35  C   UNL A   1      39.182  25.640  28.432  1.00  0.00     0.010 A 
ATOM     36  C   UNL A   1      39.982  26.564  27.762  1.00  0.00    -0.014 A 
BRANCH  36  37
ATOM     37  C   UNL A   1      40.142  27.910  28.284  1.00  0.00     0.031 A 
ATOM     38  C   UNL A   1      41.380  28.567  27.816  1.00  0.00     0.074 A 
ATOM     39  C   UNL A   1      39.322  28.608  29.088  1.00  0.00     0.049 A 
ATOM     40  N   UNL A   1      42.488  28.663  28.466  1.00  0.00    -0.248 NA
ATOM     41  C   UNL A   1      41.438  29.040  26.429  1.00  0.00     0.031 C 
ATOM     42  C   UNL A   1      37.922  28.380  29.434  1.00  0.00     0.029 A 
ATOM     43  N   UNL A   1      39.620  29.774  29.730  1.00  0.00    -0.354 N 
ATOM     44  C   UNL A   1      43.362  29.341  27.631  1.00  0.00     0.074 A 
ATOM     45  C   UNL A   1      42.716  29.405  26.342  1.00  0.00     0.031 C 
ATOM     46  C   UNL A   1      37.440  29.486  30.056  1.00  0.00     0.029 A 
ATOM     47  C   UNL A   1      38.534  30.421  30.289  1.00  0.00     0.049 A 
ATOM     48  H   UNL A   1      40.537  30.128  29.789  1.00  0.00     0.167 HD
ATOM     49  C   UNL A   1      44.485  29.945  28.103  1.00  0.00     0.031 A 
ATOM     50  C   UNL A   1      38.555  31.659  30.844  1.00  0.00     0.031 A 
ATOM     51  C   UNL A   1      44.771  29.561  29.463  1.00  0.00     0.049 A 
ATOM     52  C   UNL A   1      39.955  31.952  31.253  1.00  0.00     0.074 A 
ATOM     53  C   UNL A   1      45.002  28.354  30.093  1.00  0.00     0.029 A 
ATOM     54  N   UNL A   1      44.455  30.455  30.461  1.00  0.00    -0.354 N 
ATOM     55  N   UNL A   1      40.572  31.352  32.232  1.00  0.00    -0.248 NA
ATOM     56  C   UNL A   1      40.817  32.675  30.329  1.00  0.00     0.031 C 
ATOM     57  C   UNL A   1      44.356  28.465  31.357  1.00  0.00     0.029 A 
ATOM     58  C   UNL A   1      43.814  29.749  31.449  1.00  0.00     0.049 A 
ATOM     59  H   UNL A   1      44.650  31.421  30.465  1.00  0.00     0.167 HD
ATOM     60  C   UNL A   1      41.896  31.268  31.826  1.00  0.00     0.074 A 
ATOM     61  C   UNL A   1      42.004  32.193  30.704  1.00  0.00     0.031 C 
ATOM     62  C   UNL A   1      42.719  30.264  32.254  1.00  0.00     0.031 A 
BRANCH  49  63
ATOM     63  C   UNL A   1      45.163  31.103  27.428  1.00  0.00    -0.014 A 
ATOM     64  C   UNL A   1      44.504  32.309  27.121  1.00  0.00     0.010 A 
ATOM     65  C   UNL A   1      46.564  31.083  27.282  1.00  0.00     0.010 A 
ATOM     66  C   UNL A   1      45.192  33.433  26.665  1.00  0.00     0.020 A 
ATOM     67  C   UNL A   1      47.272  32.222  26.876  1.00  0.00     0.020 A 
ATOM     68  C   UNL A   1      46.576  33.389  26.564  1.00  0.00     0.054 A 
BRANCH  68  69
ATOM     69  S   UNL A   1      47.442  34.910  26.115  1.00  0.00     0.124 S 
ATOM     70  O   UNL A   1      46.333  35.799  25.779  1.00  0.00    -0.237 OA
ATOM     71  O   UNL A   1      48.161  35.237  27.343  1.00  0.00    -0.237 OA
ATOM     72  O   UNL A   1      48.284  34.505  24.992  1.00  0.00    -0.744 OA
ENDBRANCH  68  69
ENDBRANCH  49  63
BRANCH  50  73
ATOM     73  C   UNL A   1      37.532  32.730  30.725  1.00  0.00    -0.014 A 
ATOM     74  C   UNL A   1      36.552  32.891  31.723  1.00  0.00     0.010 A 
ATOM     75  C   UNL A   1      37.326  33.380  29.491  1.00  0.00     0.010 A 
ATOM     76  C   UNL A   1      35.368  33.591  31.472  1.00  0.00     0.020 A 
ATOM     77  C   UNL A   1      36.135  34.077  29.229  1.00  0.00     0.020 A 
ATOM     78  C   UNL A   1      35.146  34.141  30.211  1.00  0.00     0.054 A 
BRANCH  78  79
ATOM     79  S   UNL A   1      33.510  34.841  29.857  1.00  0.00     0.124 S 
ATOM     80  O   UNL A   1      33.855  36.110  29.222  1.00  0.00    -0.237 OA
ATOM     81  O   UNL A   1      32.923  33.839  28.971  1.00  0.00    -0.237 OA
ATOM     82  O   UNL A   1      32.885  34.949  31.173  1.00  0.00    -0.744 OA
ENDBRANCH  78  79
ENDBRANCH  50  73
BRANCH  62  83
ATOM     83  C   UNL A   1      42.330  29.423  33.456  1.00  0.00    -0.014 A 
ATOM     84  C   UNL A   1      43.122  29.549  34.617  1.00  0.00     0.010 A 
ATOM     85  C   UNL A   1      41.359  28.405  33.426  1.00  0.00     0.010 A 
ATOM     86  C   UNL A   1      42.978  28.669  35.693  1.00  0.00     0.020 A 
ATOM     87  C   UNL A   1      41.187  27.537  34.517  1.00  0.00     0.020 A 
ATOM     88  C   UNL A   1      42.018  27.659  35.632  1.00  0.00     0.054 A 
BRANCH  88  89
ATOM     89  S   UNL A   1      41.897  26.502  37.024  1.00  0.00     0.124 S 
ATOM     90  O   UNL A   1      43.035  26.896  37.853  1.00  0.00    -0.237 OA
ATOM     91  O   UNL A   1      40.583  26.807  37.586  1.00  0.00    -0.237 OA
ATOM     92  O   UNL A   1      42.010  25.185  36.401  1.00  0.00    -0.744 OA
ENDBRANCH  88  89
ENDBRANCH  62  83
ENDBRANCH  36  37
ENDBRANCH  29  31
ENDBRANCH  28  29
ENDBRANCH  27  28
ENDBRANCH   1  27
TORSDOF 18
ENDMDL
