MODEL 1
REMARK VINA RESULT:     -10.1      0.000      0.000
REMARK SMILES CCC[NH2+][C@]1(C(=O)OCCOC(=O)c2ccc(-c3c4nc(c(-c5ccc(S(=O)(=O)[O-])cc5)c5ccc([nH]5)c(-c5ccc(S(=O)(=O)[O-])cc5)c5nc(c(-c6ccc(S(=O)(=O)[O-])cc6)c6ccc3[nH]6)C=C5)C=C4)cc2)CCC[C@H](Sc2nnc(C)o2)C1
REMARK SMILES IDX 9 1 8 2 6 3 7 4 5 5 74 6 85 7 75 8 77 9 76 10 4 11 3 14 2 15
REMARK SMILES IDX 1 16 78 17 79 18 80 19 84 20 81 21 82 22 83 23 10 24 11 25
REMARK SMILES IDX 12 26 13 27 14 28 15 29 73 30 16 31 72 32 17 33 18 34 19 35
REMARK SMILES IDX 66 36 20 37 71 38 65 39 67 40 21 41 70 42 64 43 63 44 22 46
REMARK SMILES IDX 52 47 33 48 51 49 34 50 37 51 50 52 68 53 35 54 36 55 49 57
REMARK SMILES IDX 69 58 38 59 23 60 24 61 32 62 25 63 31 64 26 65 27 66 28 67
REMARK SMILES IDX 29 68 30 69 53 70 54 71 62 72 55 73 61 74 56 75 57 76 58 77
REMARK SMILES IDX 59 78 60 79 39 80 40 81 48 82 41 83 47 84 42 85 43 86 44 87
REMARK SMILES IDX 45 88 46 89
REMARK H PARENT 4 12 4 13 67 45 37 56
REMARK Flexibility Score: inf
ROOT
ATOM      1  C   UNL A   1      33.228  29.936  26.989  1.00  0.00     0.274 C 
ENDROOT
BRANCH   1   2
ATOM      2  O   UNL A   1      33.461  28.513  26.970  1.00  0.00    -0.457 OA
BRANCH   2   3
ATOM      3  C   UNL A   1      32.366  27.702  26.964  1.00  0.00     0.368 C 
ATOM      4  O   UNL A   1      31.368  27.901  27.651  1.00  0.00    -0.245 OA
BRANCH   3   5
ATOM      5  C   UNL A   1      32.508  26.478  26.006  1.00  0.00     0.195 C 
ATOM      6  C   UNL A   1      34.003  26.369  25.632  1.00  0.00     0.081 C 
ATOM      7  C   UNL A   1      32.094  25.199  26.797  1.00  0.00     0.096 C 
ATOM      8  C   UNL A   1      34.359  25.064  24.926  1.00  0.00     0.008 C 
ATOM      9  C   UNL A   1      32.489  23.841  26.171  1.00  0.00     0.063 C 
ATOM     10  C   UNL A   1      33.970  23.857  25.774  1.00  0.00     0.015 C 
BRANCH   5  11
ATOM     11  N   UNL A   1      31.583  26.561  24.851  1.00  0.00    -0.332 N 
ATOM     12  H   UNL A   1      31.645  25.673  24.355  1.00  0.00     0.347 HD
ATOM     13  H   UNL A   1      30.684  26.788  25.275  1.00  0.00     0.347 HD
BRANCH  11  14
ATOM     14  C   UNL A   1      31.777  27.613  23.867  1.00  0.00     0.261 C 
BRANCH  14  15
ATOM     15  C   UNL A   1      31.085  27.233  22.549  1.00  0.00     0.058 C 
ATOM     16  C   UNL A   1      31.819  26.171  21.741  1.00  0.00     0.010 C 
ENDBRANCH  14  15
ENDBRANCH  11  14
ENDBRANCH   5  11
BRANCH   9  17
ATOM     17  S   UNL A   1      31.356  23.421  24.795  1.00  0.00    -0.062 SA
BRANCH  17  18
ATOM     18  C   UNL A   1      31.855  21.832  24.332  1.00  0.00     0.276 A 
ATOM     19  N   UNL A   1      32.070  21.407  23.104  1.00  0.00    -0.101 NA
ATOM     20  O   UNL A   1      32.045  20.843  25.262  1.00  0.00    -0.416 OA
ATOM     21  N   UNL A   1      32.409  20.071  23.197  1.00  0.00    -0.112 NA
ATOM     22  C   UNL A   1      32.392  19.781  24.479  1.00  0.00     0.214 A 
ATOM     23  C   UNL A   1      32.665  18.506  25.161  1.00  0.00     0.113 C 
ENDBRANCH  17  18
ENDBRANCH   9  17
ENDBRANCH   3   5
ENDBRANCH   2   3
ENDBRANCH   1   2
BRANCH   1  24
ATOM     24  C   UNL A   1      34.390  30.655  27.668  1.00  0.00     0.275 C 
BRANCH  24  25
ATOM     25  O   UNL A   1      35.467  29.727  27.883  1.00  0.00    -0.458 OA
BRANCH  25  26
ATOM     26  C   UNL A   1      36.070  29.816  29.087  1.00  0.00     0.338 C 
ATOM     27  O   UNL A   1      35.540  29.842  30.187  1.00  0.00    -0.246 OA
BRANCH  26  28
ATOM     28  C   UNL A   1      37.525  29.764  28.900  1.00  0.00     0.060 A 
ATOM     29  C   UNL A   1      38.012  29.708  27.597  1.00  0.00     0.016 A 
ATOM     30  C   UNL A   1      38.385  29.613  29.984  1.00  0.00     0.016 A 
ATOM     31  C   UNL A   1      39.342  29.372  27.368  1.00  0.00     0.010 A 
ATOM     32  C   UNL A   1      39.746  29.379  29.750  1.00  0.00     0.010 A 
ATOM     33  C   UNL A   1      40.231  29.202  28.440  1.00  0.00    -0.014 A 
BRANCH  33  34
ATOM     34  C   UNL A   1      41.634  28.765  28.186  1.00  0.00     0.031 A 
ATOM     35  C   UNL A   1      42.777  29.733  28.371  1.00  0.00     0.074 A 
ATOM     36  C   UNL A   1      41.907  27.491  27.837  1.00  0.00     0.049 A 
ATOM     37  N   UNL A   1      44.042  29.587  28.066  1.00  0.00    -0.248 NA
ATOM     38  C   UNL A   1      42.455  31.042  28.963  1.00  0.00     0.031 C 
ATOM     39  C   UNL A   1      40.918  26.424  27.660  1.00  0.00     0.029 A 
ATOM     40  N   UNL A   1      43.107  26.869  27.597  1.00  0.00    -0.354 N 
ATOM     41  C   UNL A   1      44.647  30.806  28.351  1.00  0.00     0.074 A 
ATOM     42  C   UNL A   1      43.615  31.677  28.871  1.00  0.00     0.031 C 
ATOM     43  C   UNL A   1      41.554  25.271  27.409  1.00  0.00     0.029 A 
ATOM     44  C   UNL A   1      42.989  25.525  27.329  1.00  0.00     0.049 A 
ATOM     45  H   UNL A   1      43.971  27.339  27.614  1.00  0.00     0.167 HD
ATOM     46  C   UNL A   1      45.941  31.172  28.188  1.00  0.00     0.031 A 
ATOM     47  C   UNL A   1      43.923  24.601  27.031  1.00  0.00     0.031 A 
ATOM     48  C   UNL A   1      46.987  30.291  27.739  1.00  0.00     0.049 A 
ATOM     49  C   UNL A   1      45.361  25.013  26.912  1.00  0.00     0.074 A 
ATOM     50  C   UNL A   1      48.323  30.579  27.515  1.00  0.00     0.029 A 
ATOM     51  N   UNL A   1      46.820  28.940  27.483  1.00  0.00    -0.354 N 
ATOM     52  N   UNL A   1      45.891  26.200  27.078  1.00  0.00    -0.248 NA
ATOM     53  C   UNL A   1      46.322  23.965  26.543  1.00  0.00     0.031 C 
ATOM     54  C   UNL A   1      48.964  29.399  27.117  1.00  0.00     0.029 A 
ATOM     55  C   UNL A   1      48.031  28.375  27.117  1.00  0.00     0.049 A 
ATOM     56  H   UNL A   1      45.968  28.453  27.550  1.00  0.00     0.167 HD
ATOM     57  C   UNL A   1      47.248  26.044  26.822  1.00  0.00     0.074 A 
ATOM     58  C   UNL A   1      47.462  24.642  26.521  1.00  0.00     0.031 C 
ATOM     59  C   UNL A   1      48.226  26.982  26.817  1.00  0.00     0.031 A 
BRANCH  46  60
ATOM     60  C   UNL A   1      46.284  32.612  28.452  1.00  0.00    -0.014 A 
ATOM     61  C   UNL A   1      46.183  33.588  27.447  1.00  0.00     0.010 A 
ATOM     62  C   UNL A   1      46.709  32.991  29.739  1.00  0.00     0.010 A 
ATOM     63  C   UNL A   1      46.542  34.914  27.713  1.00  0.00     0.020 A 
ATOM     64  C   UNL A   1      47.049  34.317  30.014  1.00  0.00     0.020 A 
ATOM     65  C   UNL A   1      46.984  35.267  28.993  1.00  0.00     0.054 A 
BRANCH  65  66
ATOM     66  S   UNL A   1      47.446  36.990  29.325  1.00  0.00     0.124 S 
ATOM     67  O   UNL A   1      48.889  36.961  29.101  1.00  0.00    -0.237 OA
ATOM     68  O   UNL A   1      46.672  37.735  28.335  1.00  0.00    -0.237 OA
ATOM     69  O   UNL A   1      47.033  37.193  30.712  1.00  0.00    -0.744 OA
ENDBRANCH  65  66
ENDBRANCH  46  60
BRANCH  47  70
ATOM     70  C   UNL A   1      43.514  23.191  26.796  1.00  0.00    -0.014 A 
ATOM     71  C   UNL A   1      43.577  22.639  25.506  1.00  0.00     0.010 A 
ATOM     72  C   UNL A   1      43.089  22.388  27.869  1.00  0.00     0.010 A 
ATOM     73  C   UNL A   1      43.220  21.304  25.291  1.00  0.00     0.020 A 
ATOM     74  C   UNL A   1      42.753  21.048  27.662  1.00  0.00     0.020 A 
ATOM     75  C   UNL A   1      42.813  20.516  26.371  1.00  0.00     0.054 A 
BRANCH  75  76
ATOM     76  S   UNL A   1      42.433  18.762  26.101  1.00  0.00     0.124 S 
ATOM     77  O   UNL A   1      42.689  18.190  27.418  1.00  0.00    -0.237 OA
ATOM     78  O   UNL A   1      41.033  18.792  25.685  1.00  0.00    -0.237 OA
ATOM     79  O   UNL A   1      43.375  18.375  25.052  1.00  0.00    -0.744 OA
ENDBRANCH  75  76
ENDBRANCH  47  70
BRANCH  59  80
ATOM     80  C   UNL A   1      49.613  26.516  26.481  1.00  0.00    -0.014 A 
ATOM     81  C   UNL A   1      50.084  26.566  25.157  1.00  0.00     0.010 A 
ATOM     82  C   UNL A   1      50.460  26.042  27.497  1.00  0.00     0.010 A 
ATOM     83  C   UNL A   1      51.371  26.118  24.849  1.00  0.00     0.020 A 
ATOM     84  C   UNL A   1      51.752  25.607  27.195  1.00  0.00     0.020 A 
ATOM     85  C   UNL A   1      52.194  25.633  25.869  1.00  0.00     0.054 A 
BRANCH  85  86
ATOM     86  S   UNL A   1      53.870  25.074  25.459  1.00  0.00     0.124 S 
ATOM     87  O   UNL A   1      54.506  25.033  26.772  1.00  0.00    -0.237 OA
ATOM     88  O   UNL A   1      53.640  23.775  24.832  1.00  0.00    -0.237 OA
ATOM     89  O   UNL A   1      54.366  26.113  24.557  1.00  0.00    -0.744 OA
ENDBRANCH  85  86
ENDBRANCH  59  80
ENDBRANCH  33  34
ENDBRANCH  26  28
ENDBRANCH  25  26
ENDBRANCH  24  25
ENDBRANCH   1  24
TORSDOF 19
ENDMDL
MODEL 2
REMARK VINA RESULT:      -9.9      7.098     13.545
REMARK SMILES CCC[NH2+][C@]1(C(=O)OCCOC(=O)c2ccc(-c3c4nc(c(-c5ccc(S(=O)(=O)[O-])cc5)c5ccc([nH]5)c(-c5ccc(S(=O)(=O)[O-])cc5)c5nc(c(-c6ccc(S(=O)(=O)[O-])cc6)c6ccc3[nH]6)C=C5)C=C4)cc2)CCC[C@H](Sc2nnc(C)o2)C1
REMARK SMILES IDX 9 1 8 2 6 3 7 4 5 5 74 6 85 7 75 8 77 9 76 10 4 11 3 14 2 15
REMARK SMILES IDX 1 16 78 17 79 18 80 19 84 20 81 21 82 22 83 23 10 24 11 25
REMARK SMILES IDX 12 26 13 27 14 28 15 29 73 30 16 31 72 32 17 33 18 34 19 35
REMARK SMILES IDX 66 36 20 37 71 38 65 39 67 40 21 41 70 42 64 43 63 44 22 46
REMARK SMILES IDX 52 47 33 48 51 49 34 50 37 51 50 52 68 53 35 54 36 55 49 57
REMARK SMILES IDX 69 58 38 59 23 60 24 61 32 62 25 63 31 64 26 65 27 66 28 67
REMARK SMILES IDX 29 68 30 69 53 70 54 71 62 72 55 73 61 74 56 75 57 76 58 77
REMARK SMILES IDX 59 78 60 79 39 80 40 81 48 82 41 83 47 84 42 85 43 86 44 87
REMARK SMILES IDX 45 88 46 89
REMARK H PARENT 4 12 4 13 67 45 37 56
REMARK Flexibility Score: inf
ROOT
ATOM      1  C   UNL A   1      39.940  22.096  26.889  1.00  0.00     0.274 C 
ENDROOT
BRANCH   1   2
ATOM      2  O   UNL A   1      40.944  21.866  25.879  1.00  0.00    -0.457 OA
BRANCH   2   3
ATOM      3  C   UNL A   1      41.995  21.066  26.216  1.00  0.00     0.368 C 
ATOM      4  O   UNL A   1      41.869  19.915  26.624  1.00  0.00    -0.245 OA
BRANCH   3   5
ATOM      5  C   UNL A   1      43.381  21.763  26.048  1.00  0.00     0.195 C 
ATOM      6  C   UNL A   1      44.244  20.845  25.155  1.00  0.00     0.081 C 
ATOM      7  C   UNL A   1      43.150  23.115  25.303  1.00  0.00     0.096 C 
ATOM      8  C   UNL A   1      45.529  21.506  24.665  1.00  0.00     0.008 C 
ATOM      9  C   UNL A   1      44.405  23.803  24.718  1.00  0.00     0.063 C 
ATOM     10  C   UNL A   1      45.228  22.795  23.906  1.00  0.00     0.015 C 
BRANCH   5  11
ATOM     11  N   UNL A   1      43.991  22.114  27.352  1.00  0.00    -0.332 N 
ATOM     12  H   UNL A   1      44.255  21.239  27.803  1.00  0.00     0.347 HD
ATOM     13  H   UNL A   1      44.751  22.747  27.102  1.00  0.00     0.347 HD
BRANCH  11  14
ATOM     14  C   UNL A   1      43.210  22.872  28.314  1.00  0.00     0.261 C 
BRANCH  14  15
ATOM     15  C   UNL A   1      44.062  23.185  29.553  1.00  0.00     0.058 C 
ATOM     16  C   UNL A   1      43.939  24.619  30.051  1.00  0.00     0.010 C 
ENDBRANCH  14  15
ENDBRANCH  11  14
ENDBRANCH   5  11
BRANCH   9  17
ATOM     17  S   UNL A   1      45.353  24.636  26.046  1.00  0.00    -0.062 SA
BRANCH  17  18
ATOM     18  C   UNL A   1      44.503  26.124  26.277  1.00  0.00     0.276 A 
ATOM     19  N   UNL A   1      44.611  26.933  27.310  1.00  0.00    -0.101 NA
ATOM     20  O   UNL A   1      43.587  26.574  25.361  1.00  0.00    -0.416 OA
ATOM     21  N   UNL A   1      43.725  27.972  27.098  1.00  0.00    -0.112 NA
ATOM     22  C   UNL A   1      43.151  27.729  25.941  1.00  0.00     0.214 A 
ATOM     23  C   UNL A   1      42.122  28.494  25.219  1.00  0.00     0.113 C 
ENDBRANCH  17  18
ENDBRANCH   9  17
ENDBRANCH   3   5
ENDBRANCH   2   3
ENDBRANCH   1   2
BRANCH   1  24
ATOM     24  C   UNL A   1      39.098  23.316  26.530  1.00  0.00     0.275 C 
BRANCH  24  25
ATOM     25  O   UNL A   1      39.216  24.302  27.571  1.00  0.00    -0.458 OA
BRANCH  25  26
ATOM     26  C   UNL A   1      39.770  25.473  27.193  1.00  0.00     0.338 C 
ATOM     27  O   UNL A   1      40.279  25.745  26.116  1.00  0.00    -0.246 OA
BRANCH  26  28
ATOM     28  C   UNL A   1      39.575  26.463  28.259  1.00  0.00     0.060 A 
ATOM     29  C   UNL A   1      40.191  27.702  28.116  1.00  0.00     0.016 A 
ATOM     30  C   UNL A   1      38.933  26.124  29.447  1.00  0.00     0.016 A 
ATOM     31  C   UNL A   1      40.280  28.562  29.206  1.00  0.00     0.010 A 
ATOM     32  C   UNL A   1      38.934  27.037  30.509  1.00  0.00     0.010 A 
ATOM     33  C   UNL A   1      39.654  28.244  30.420  1.00  0.00    -0.014 A 
BRANCH  33  34
ATOM     34  C   UNL A   1      39.821  29.135  31.605  1.00  0.00     0.031 A 
ATOM     35  C   UNL A   1      41.052  29.024  32.470  1.00  0.00     0.074 A 
ATOM     36  C   UNL A   1      38.904  30.081  31.891  1.00  0.00     0.049 A 
ATOM     37  N   UNL A   1      41.313  29.604  33.615  1.00  0.00    -0.248 NA
ATOM     38  C   UNL A   1      42.125  28.133  31.996  1.00  0.00     0.031 C 
ATOM     39  C   UNL A   1      37.682  30.344  31.126  1.00  0.00     0.029 A 
ATOM     40  N   UNL A   1      38.874  31.022  32.890  1.00  0.00    -0.354 N 
ATOM     41  C   UNL A   1      42.535  29.090  34.034  1.00  0.00     0.074 A 
ATOM     42  C   UNL A   1      42.974  28.163  33.014  1.00  0.00     0.031 C 
ATOM     43  C   UNL A   1      37.062  31.416  31.642  1.00  0.00     0.029 A 
ATOM     44  C   UNL A   1      37.795  31.871  32.818  1.00  0.00     0.049 A 
ATOM     45  H   UNL A   1      39.560  31.083  33.593  1.00  0.00     0.167 HD
ATOM     46  C   UNL A   1      43.225  29.357  35.169  1.00  0.00     0.031 A 
ATOM     47  C   UNL A   1      37.420  32.889  33.617  1.00  0.00     0.031 A 
ATOM     48  C   UNL A   1      42.831  30.329  36.154  1.00  0.00     0.049 A 
ATOM     49  C   UNL A   1      38.231  33.209  34.839  1.00  0.00     0.074 A 
ATOM     50  C   UNL A   1      43.451  30.649  37.350  1.00  0.00     0.029 A 
ATOM     51  N   UNL A   1      41.734  31.166  36.036  1.00  0.00    -0.354 N 
ATOM     52  N   UNL A   1      39.324  32.631  35.273  1.00  0.00    -0.248 NA
ATOM     53  C   UNL A   1      37.743  34.303  35.689  1.00  0.00     0.031 C 
ATOM     54  C   UNL A   1      42.723  31.678  37.959  1.00  0.00     0.029 A 
ATOM     55  C   UNL A   1      41.664  32.012  37.130  1.00  0.00     0.049 A 
ATOM     56  H   UNL A   1      41.095  31.160  35.287  1.00  0.00     0.167 HD
ATOM     57  C   UNL A   1      39.649  33.284  36.455  1.00  0.00     0.074 A 
ATOM     58  C   UNL A   1      38.656  34.322  36.651  1.00  0.00     0.031 C 
ATOM     59  C   UNL A   1      40.669  33.034  37.312  1.00  0.00     0.031 A 
BRANCH  46  60
ATOM     60  C   UNL A   1      44.461  28.540  35.426  1.00  0.00    -0.014 A 
ATOM     61  C   UNL A   1      45.730  28.974  35.006  1.00  0.00     0.010 A 
ATOM     62  C   UNL A   1      44.345  27.316  36.112  1.00  0.00     0.010 A 
ATOM     63  C   UNL A   1      46.857  28.176  35.230  1.00  0.00     0.020 A 
ATOM     64  C   UNL A   1      45.471  26.527  36.355  1.00  0.00     0.020 A 
ATOM     65  C   UNL A   1      46.718  26.952  35.892  1.00  0.00     0.054 A 
BRANCH  65  66
ATOM     66  S   UNL A   1      48.188  25.927  36.177  1.00  0.00     0.124 S 
ATOM     67  O   UNL A   1      47.648  24.579  36.018  1.00  0.00    -0.237 OA
ATOM     68  O   UNL A   1      49.102  26.363  35.123  1.00  0.00    -0.237 OA
ATOM     69  O   UNL A   1      48.596  26.282  37.534  1.00  0.00    -0.744 OA
ENDBRANCH  65  66
ENDBRANCH  46  60
BRANCH  47  70
ATOM     70  C   UNL A   1      36.194  33.664  33.293  1.00  0.00    -0.014 A 
ATOM     71  C   UNL A   1      36.284  34.870  32.577  1.00  0.00     0.010 A 
ATOM     72  C   UNL A   1      34.929  33.182  33.673  1.00  0.00     0.010 A 
ATOM     73  C   UNL A   1      35.128  35.583  32.247  1.00  0.00     0.020 A 
ATOM     74  C   UNL A   1      33.770  33.881  33.326  1.00  0.00     0.020 A 
ATOM     75  C   UNL A   1      33.878  35.082  32.621  1.00  0.00     0.054 A 
BRANCH  75  76
ATOM     76  S   UNL A   1      32.376  35.969  32.117  1.00  0.00     0.124 S 
ATOM     77  O   UNL A   1      32.572  36.101  30.678  1.00  0.00    -0.237 OA
ATOM     78  O   UNL A   1      31.308  35.062  32.530  1.00  0.00    -0.237 OA
ATOM     79  O   UNL A   1      32.452  37.212  32.880  1.00  0.00    -0.744 OA
ENDBRANCH  75  76
ENDBRANCH  47  70
BRANCH  59  80
ATOM     80  C   UNL A   1      40.759  33.903  38.534  1.00  0.00    -0.014 A 
ATOM     81  C   UNL A   1      40.018  33.594  39.688  1.00  0.00     0.010 A 
ATOM     82  C   UNL A   1      41.604  35.026  38.535  1.00  0.00     0.010 A 
ATOM     83  C   UNL A   1      40.096  34.414  40.816  1.00  0.00     0.020 A 
ATOM     84  C   UNL A   1      41.695  35.840  39.667  1.00  0.00     0.020 A 
ATOM     85  C   UNL A   1      40.928  35.537  40.795  1.00  0.00     0.054 A 
BRANCH  85  86
ATOM     86  S   UNL A   1      41.036  36.582  42.274  1.00  0.00     0.124 S 
ATOM     87  O   UNL A   1      41.783  35.730  43.194  1.00  0.00    -0.237 OA
ATOM     88  O   UNL A   1      41.749  37.763  41.792  1.00  0.00    -0.237 OA
ATOM     89  O   UNL A   1      39.637  36.814  42.632  1.00  0.00    -0.744 OA
ENDBRANCH  85  86
ENDBRANCH  59  80
ENDBRANCH  33  34
ENDBRANCH  26  28
ENDBRANCH  25  26
ENDBRANCH  24  25
ENDBRANCH   1  24
TORSDOF 19
ENDMDL
MODEL 3
REMARK VINA RESULT:      -9.7      1.913      8.558
REMARK SMILES CCC[NH2+][C@]1(C(=O)OCCOC(=O)c2ccc(-c3c4nc(c(-c5ccc(S(=O)(=O)[O-])cc5)c5ccc([nH]5)c(-c5ccc(S(=O)(=O)[O-])cc5)c5nc(c(-c6ccc(S(=O)(=O)[O-])cc6)c6ccc3[nH]6)C=C5)C=C4)cc2)CCC[C@H](Sc2nnc(C)o2)C1
REMARK SMILES IDX 9 1 8 2 6 3 7 4 5 5 74 6 85 7 75 8 77 9 76 10 4 11 3 14 2 15
REMARK SMILES IDX 1 16 78 17 79 18 80 19 84 20 81 21 82 22 83 23 10 24 11 25
REMARK SMILES IDX 12 26 13 27 14 28 15 29 73 30 16 31 72 32 17 33 18 34 19 35
REMARK SMILES IDX 66 36 20 37 71 38 65 39 67 40 21 41 70 42 64 43 63 44 22 46
REMARK SMILES IDX 52 47 33 48 51 49 34 50 37 51 50 52 68 53 35 54 36 55 49 57
REMARK SMILES IDX 69 58 38 59 23 60 24 61 32 62 25 63 31 64 26 65 27 66 28 67
REMARK SMILES IDX 29 68 30 69 53 70 54 71 62 72 55 73 61 74 56 75 57 76 58 77
REMARK SMILES IDX 59 78 60 79 39 80 40 81 48 82 41 83 47 84 42 85 43 86 44 87
REMARK SMILES IDX 45 88 46 89
REMARK H PARENT 4 12 4 13 67 45 37 56
REMARK Flexibility Score: inf
ROOT
ATOM      1  C   UNL A   1      33.934  29.620  27.063  1.00  0.00     0.274 C 
ENDROOT
BRANCH   1   2
ATOM      2  O   UNL A   1      33.571  28.235  27.240  1.00  0.00    -0.457 OA
BRANCH   2   3
ATOM      3  C   UNL A   1      32.266  27.901  27.034  1.00  0.00     0.368 C 
ATOM      4  O   UNL A   1      31.403  27.960  27.905  1.00  0.00    -0.245 OA
BRANCH   3   5
ATOM      5  C   UNL A   1      31.975  27.417  25.579  1.00  0.00     0.195 C 
ATOM      6  C   UNL A   1      31.176  28.539  24.880  1.00  0.00     0.081 C 
ATOM      7  C   UNL A   1      33.344  27.246  24.848  1.00  0.00     0.096 C 
ATOM      8  C   UNL A   1      31.050  28.346  23.371  1.00  0.00     0.008 C 
ATOM      9  C   UNL A   1      33.293  27.118  23.308  1.00  0.00     0.063 C 
ATOM     10  C   UNL A   1      32.423  28.234  22.716  1.00  0.00     0.015 C 
BRANCH   5  11
ATOM     11  N   UNL A   1      31.329  26.084  25.552  1.00  0.00    -0.332 N 
ATOM     12  H   UNL A   1      30.359  26.217  25.835  1.00  0.00     0.347 HD
ATOM     13  H   UNL A   1      31.487  25.755  24.600  1.00  0.00     0.347 HD
BRANCH  11  14
ATOM     14  C   UNL A   1      31.873  25.020  26.380  1.00  0.00     0.261 C 
BRANCH  14  15
ATOM     15  C   UNL A   1      31.315  23.664  25.927  1.00  0.00     0.058 C 
ATOM     16  C   UNL A   1      30.242  23.090  26.843  1.00  0.00     0.010 C 
ENDBRANCH  14  15
ENDBRANCH  11  14
ENDBRANCH   5  11
BRANCH   9  17
ATOM     17  S   UNL A   1      32.765  25.432  22.826  1.00  0.00    -0.062 SA
BRANCH  17  18
ATOM     18  C   UNL A   1      34.149  24.458  23.182  1.00  0.00     0.276 A 
ATOM     19  N   UNL A   1      34.617  23.469  22.449  1.00  0.00    -0.101 NA
ATOM     20  O   UNL A   1      34.877  24.643  24.328  1.00  0.00    -0.416 OA
ATOM     21  N   UNL A   1      35.702  22.949  23.129  1.00  0.00    -0.112 NA
ATOM     22  C   UNL A   1      35.827  23.670  24.221  1.00  0.00     0.214 A 
ATOM     23  C   UNL A   1      36.804  23.562  25.315  1.00  0.00     0.113 C 
ENDBRANCH  17  18
ENDBRANCH   9  17
ENDBRANCH   3   5
ENDBRANCH   2   3
ENDBRANCH   1   2
BRANCH   1  24
ATOM     24  C   UNL A   1      34.923  30.051  28.141  1.00  0.00     0.275 C 
BRANCH  24  25
ATOM     25  O   UNL A   1      36.217  29.493  27.854  1.00  0.00    -0.458 OA
BRANCH  25  26
ATOM     26  C   UNL A   1      36.989  29.248  28.934  1.00  0.00     0.338 C 
ATOM     27  O   UNL A   1      36.646  29.217  30.106  1.00  0.00    -0.246 OA
BRANCH  26  28
ATOM     28  C   UNL A   1      38.343  28.900  28.487  1.00  0.00     0.060 A 
ATOM     29  C   UNL A   1      39.204  28.319  29.413  1.00  0.00     0.016 A 
ATOM     30  C   UNL A   1      38.807  29.281  27.230  1.00  0.00     0.016 A 
ATOM     31  C   UNL A   1      40.565  28.233  29.136  1.00  0.00     0.010 A 
ATOM     32  C   UNL A   1      40.159  29.096  26.916  1.00  0.00     0.010 A 
ATOM     33  C   UNL A   1      41.065  28.620  27.884  1.00  0.00    -0.014 A 
BRANCH  33  34
ATOM     34  C   UNL A   1      42.534  28.598  27.625  1.00  0.00     0.031 A 
ATOM     35  C   UNL A   1      43.175  27.390  26.989  1.00  0.00     0.074 A 
ATOM     36  C   UNL A   1      43.299  29.672  27.909  1.00  0.00     0.049 A 
ATOM     37  N   UNL A   1      44.446  27.124  26.816  1.00  0.00    -0.248 NA
ATOM     38  C   UNL A   1      42.273  26.335  26.497  1.00  0.00     0.031 C 
ATOM     39  C   UNL A   1      42.822  30.932  28.485  1.00  0.00     0.029 A 
ATOM     40  N   UNL A   1      44.643  29.885  27.721  1.00  0.00    -0.354 N 
ATOM     41  C   UNL A   1      44.497  25.845  26.273  1.00  0.00     0.074 A 
ATOM     42  C   UNL A   1      43.130  25.393  26.127  1.00  0.00     0.031 C 
ATOM     43  C   UNL A   1      43.840  31.804  28.539  1.00  0.00     0.029 A 
ATOM     44  C   UNL A   1      45.057  31.147  28.075  1.00  0.00     0.049 A 
ATOM     45  H   UNL A   1      45.253  29.199  27.366  1.00  0.00     0.167 HD
ATOM     46  C   UNL A   1      45.582  25.108  25.933  1.00  0.00     0.031 A 
ATOM     47  C   UNL A   1      46.280  31.712  28.052  1.00  0.00     0.031 A 
ATOM     48  C   UNL A   1      46.941  25.576  26.007  1.00  0.00     0.049 A 
ATOM     49  C   UNL A   1      47.463  30.898  27.616  1.00  0.00     0.074 A 
ATOM     50  C   UNL A   1      48.109  24.892  25.711  1.00  0.00     0.029 A 
ATOM     51  N   UNL A   1      47.311  26.861  26.368  1.00  0.00    -0.354 N 
ATOM     52  N   UNL A   1      47.498  29.651  27.212  1.00  0.00    -0.248 NA
ATOM     53  C   UNL A   1      48.773  31.561  27.655  1.00  0.00     0.031 C 
ATOM     54  C   UNL A   1      49.187  25.765  25.901  1.00  0.00     0.029 A 
ATOM     55  C   UNL A   1      48.687  26.997  26.291  1.00  0.00     0.049 A 
ATOM     56  H   UNL A   1      46.688  27.573  26.641  1.00  0.00     0.167 HD
ATOM     57  C   UNL A   1      48.836  29.376  26.960  1.00  0.00     0.074 A 
ATOM     58  C   UNL A   1      49.575  30.595  27.226  1.00  0.00     0.031 C 
ATOM     59  C   UNL A   1      49.406  28.212  26.563  1.00  0.00     0.031 A 
BRANCH  46  60
ATOM     60  C   UNL A   1      45.338  23.691  25.495  1.00  0.00    -0.014 A 
ATOM     61  C   UNL A   1      45.344  22.626  26.412  1.00  0.00     0.010 A 
ATOM     62  C   UNL A   1      45.089  23.426  24.135  1.00  0.00     0.010 A 
ATOM     63  C   UNL A   1      45.148  21.314  25.969  1.00  0.00     0.020 A 
ATOM     64  C   UNL A   1      44.873  22.119  23.692  1.00  0.00     0.020 A 
ATOM     65  C   UNL A   1      44.925  21.068  24.610  1.00  0.00     0.054 A 
BRANCH  65  66
ATOM     66  S   UNL A   1      44.671  19.360  24.049  1.00  0.00     0.124 S 
ATOM     67  O   UNL A   1      44.525  19.538  22.608  1.00  0.00    -0.237 OA
ATOM     68  O   UNL A   1      45.896  18.689  24.477  1.00  0.00    -0.237 OA
ATOM     69  O   UNL A   1      43.460  18.945  24.754  1.00  0.00    -0.744 OA
ENDBRANCH  65  66
ENDBRANCH  46  60
BRANCH  47  70
ATOM     70  C   UNL A   1      46.446  33.124  28.485  1.00  0.00    -0.014 A 
ATOM     71  C   UNL A   1      46.729  33.426  29.828  1.00  0.00     0.010 A 
ATOM     72  C   UNL A   1      46.352  34.169  27.550  1.00  0.00     0.010 A 
ATOM     73  C   UNL A   1      46.915  34.752  30.230  1.00  0.00     0.020 A 
ATOM     74  C   UNL A   1      46.559  35.493  27.943  1.00  0.00     0.020 A 
ATOM     75  C   UNL A   1      46.832  35.777  29.283  1.00  0.00     0.054 A 
BRANCH  75  76
ATOM     76  S   UNL A   1      47.157  37.489  29.793  1.00  0.00     0.124 S 
ATOM     77  O   UNL A   1      47.606  38.096  28.545  1.00  0.00    -0.237 OA
ATOM     78  O   UNL A   1      45.856  37.937  30.282  1.00  0.00    -0.237 OA
ATOM     79  O   UNL A   1      48.181  37.339  30.825  1.00  0.00    -0.744 OA
ENDBRANCH  75  76
ENDBRANCH  47  70
BRANCH  59  80
ATOM     80  C   UNL A   1      50.897  28.210  26.388  1.00  0.00    -0.014 A 
ATOM     81  C   UNL A   1      51.473  28.560  25.154  1.00  0.00     0.010 A 
ATOM     82  C   UNL A   1      51.729  27.873  27.468  1.00  0.00     0.010 A 
ATOM     83  C   UNL A   1      52.861  28.542  24.994  1.00  0.00     0.020 A 
ATOM     84  C   UNL A   1      53.118  27.868  27.316  1.00  0.00     0.020 A 
ATOM     85  C   UNL A   1      53.674  28.187  26.074  1.00  0.00     0.054 A 
BRANCH  85  86
ATOM     86  S   UNL A   1      55.476  28.189  25.859  1.00  0.00     0.124 S 
ATOM     87  O   UNL A   1      55.810  26.786  26.089  1.00  0.00    -0.237 OA
ATOM     88  O   UNL A   1      55.643  28.657  24.486  1.00  0.00    -0.237 OA
ATOM     89  O   UNL A   1      55.942  29.119  26.886  1.00  0.00    -0.744 OA
ENDBRANCH  85  86
ENDBRANCH  59  80
ENDBRANCH  33  34
ENDBRANCH  26  28
ENDBRANCH  25  26
ENDBRANCH  24  25
ENDBRANCH   1  24
TORSDOF 19
ENDMDL
