MODEL 1
REMARK VINA RESULT:     -10.2      0.000      0.000
REMARK SMILES Cc1cc(N2CCCC[C@H]2C(=O)OCCOC(=O)c2ccc(-c3c4nc(c(-c5ccc(S(=O)(=O)[O-])cc5)c5ccc([nH]5)c(-c5ccc(S(=O)(=O)[O-])cc5)c5nc(c(-c6ccc(S(=O)(=O)[O-])cc6)c6ccc3[nH]6)C=C5)C=C4)cc2)ncc1[N+](=O)[O-]
REMARK SMILES IDX 15 1 14 2 13 3 11 4 12 5 10 6 5 7 6 8 7 9 9 10 8 11 4 12
REMARK SMILES IDX 1 13 2 14 3 15 81 16 80 17 79 18 82 19 83 20 84 21 16 22
REMARK SMILES IDX 17 23 18 24 19 25 20 26 78 27 21 28 77 29 22 30 23 31 24 32
REMARK SMILES IDX 71 33 25 34 76 35 70 36 72 37 26 38 75 39 69 40 68 41 27 43
REMARK SMILES IDX 57 44 38 45 56 46 39 47 42 48 55 49 73 50 40 51 41 52 54 54
REMARK SMILES IDX 74 55 43 56 28 57 29 58 37 59 30 60 36 61 31 62 32 63 33 64
REMARK SMILES IDX 34 65 35 66 58 67 59 68 67 69 60 70 66 71 61 72 62 73 63 74
REMARK SMILES IDX 64 75 65 76 44 77 45 78 53 79 46 80 52 81 47 82 48 83 49 84
REMARK SMILES IDX 50 85 51 86
REMARK H PARENT 72 42 42 53
REMARK Flexibility Score: inf
ROOT
ATOM      1  C   UNL A   1      36.471  30.071  31.187  1.00  0.00     0.275 C 
ENDROOT
BRANCH   1   2
ATOM      2  C   UNL A   1      37.218  29.870  32.507  1.00  0.00     0.274 C 
BRANCH   2   3
ATOM      3  O   UNL A   1      37.566  31.116  33.146  1.00  0.00    -0.461 OA
BRANCH   3   4
ATOM      4  C   UNL A   1      38.562  31.835  32.544  1.00  0.00     0.328 C 
ATOM      5  O   UNL A   1      39.679  31.387  32.306  1.00  0.00    -0.250 OA
BRANCH   4   6
ATOM      6  C   UNL A   1      38.101  33.277  32.229  1.00  0.00     0.193 C 
ATOM      7  N   UNL A   1      37.233  33.810  33.294  1.00  0.00    -0.343 N 
ATOM      8  C   UNL A   1      37.824  34.102  34.597  1.00  0.00     0.119 C 
ATOM      9  C   UNL A   1      39.020  35.041  34.457  1.00  0.00     0.022 C 
ATOM     10  C   UNL A   1      39.277  34.256  32.061  1.00  0.00     0.037 C 
ATOM     11  C   UNL A   1      39.992  34.560  33.384  1.00  0.00     0.005 C 
BRANCH   7  12
ATOM     12  C   UNL A   1      36.062  34.408  32.900  1.00  0.00     0.130 A 
ATOM     13  C   UNL A   1      33.763  34.412  29.894  1.00  0.00     0.052 C 
ATOM     14  C   UNL A   1      34.327  34.803  31.228  1.00  0.00     0.032 A 
ATOM     15  C   UNL A   1      35.490  34.141  31.655  1.00  0.00     0.057 A 
ATOM     16  C   UNL A   1      33.815  35.780  32.082  1.00  0.00     0.290 A 
ATOM     17  C   UNL A   1      34.397  35.958  33.329  1.00  0.00     0.199 A 
ATOM     18  N   UNL A   1      35.483  35.270  33.758  1.00  0.00    -0.232 NA
BRANCH  16  19
ATOM     19  N   UNL A   1      32.723  36.666  31.720  1.00  0.00     0.064 N 
ATOM     20  O   UNL A   1      33.007  37.691  31.085  1.00  0.00    -0.258 OA
ATOM     21  O   UNL A   1      31.573  36.327  32.030  1.00  0.00    -0.258 OA
ENDBRANCH  16  19
ENDBRANCH   7  12
ENDBRANCH   4   6
ENDBRANCH   3   4
ENDBRANCH   2   3
ENDBRANCH   1   2
BRANCH   1  22
ATOM     22  O   UNL A   1      36.831  29.048  30.244  1.00  0.00    -0.458 OA
BRANCH  22  23
ATOM     23  C   UNL A   1      36.990  29.456  28.967  1.00  0.00     0.338 C 
ATOM     24  O   UNL A   1      36.216  30.125  28.296  1.00  0.00    -0.246 OA
BRANCH  23  25
ATOM     25  C   UNL A   1      38.358  29.144  28.536  1.00  0.00     0.060 A 
ATOM     26  C   UNL A   1      39.207  28.616  29.504  1.00  0.00     0.016 A 
ATOM     27  C   UNL A   1      38.836  29.428  27.259  1.00  0.00     0.016 A 
ATOM     28  C   UNL A   1      40.541  28.361  29.219  1.00  0.00     0.010 A 
ATOM     29  C   UNL A   1      40.185  29.172  26.966  1.00  0.00     0.010 A 
ATOM     30  C   UNL A   1      41.046  28.646  27.949  1.00  0.00    -0.014 A 
BRANCH  30  31
ATOM     31  C   UNL A   1      42.500  28.487  27.710  1.00  0.00     0.031 A 
ATOM     32  C   UNL A   1      43.426  29.621  28.047  1.00  0.00     0.074 A 
ATOM     33  C   UNL A   1      43.002  27.312  27.286  1.00  0.00     0.049 A 
ATOM     34  N   UNL A   1      44.715  29.719  27.854  1.00  0.00    -0.248 NA
ATOM     35  C   UNL A   1      42.821  30.792  28.703  1.00  0.00     0.031 C 
ATOM     36  C   UNL A   1      42.225  26.097  27.039  1.00  0.00     0.029 A 
ATOM     37  N   UNL A   1      44.294  26.947  26.999  1.00  0.00    -0.354 N 
ATOM     38  C   UNL A   1      45.072  30.973  28.335  1.00  0.00     0.074 A 
ATOM     39  C   UNL A   1      43.867  31.595  28.838  1.00  0.00     0.031 C 
ATOM     40  C   UNL A   1      43.057  25.120  26.636  1.00  0.00     0.029 A 
ATOM     41  C   UNL A   1      44.413  25.656  26.541  1.00  0.00     0.049 A 
ATOM     42  H   UNL A   1      45.063  27.552  27.111  1.00  0.00     0.167 HD
ATOM     43  C   UNL A   1      46.293  31.556  28.342  1.00  0.00     0.031 A 
ATOM     44  C   UNL A   1      45.486  24.995  26.062  1.00  0.00     0.031 A 
ATOM     45  C   UNL A   1      47.490  30.938  27.842  1.00  0.00     0.049 A 
ATOM     46  C   UNL A   1      46.813  25.706  25.982  1.00  0.00     0.074 A 
ATOM     47  C   UNL A   1      48.769  31.464  27.779  1.00  0.00     0.029 A 
ATOM     48  N   UNL A   1      47.556  29.658  27.315  1.00  0.00    -0.354 N 
ATOM     49  N   UNL A   1      47.129  26.910  26.394  1.00  0.00    -0.248 NA
ATOM     50  C   UNL A   1      47.923  24.973  25.354  1.00  0.00     0.031 C 
ATOM     51  C   UNL A   1      49.600  30.518  27.170  1.00  0.00     0.029 A 
ATOM     52  C   UNL A   1      48.848  29.385  26.900  1.00  0.00     0.049 A 
ATOM     53  H   UNL A   1      46.798  29.035  27.246  1.00  0.00     0.167 HD
ATOM     54  C   UNL A   1      48.477  27.073  26.089  1.00  0.00     0.074 A 
ATOM     55  C   UNL A   1      48.920  25.838  25.476  1.00  0.00     0.031 C 
ATOM     56  C   UNL A   1      49.274  28.149  26.296  1.00  0.00     0.031 A 
BRANCH  43  57
ATOM     57  C   UNL A   1      46.375  32.969  28.846  1.00  0.00    -0.014 A 
ATOM     58  C   UNL A   1      46.009  34.060  28.039  1.00  0.00     0.010 A 
ATOM     59  C   UNL A   1      46.808  33.201  30.164  1.00  0.00     0.010 A 
ATOM     60  C   UNL A   1      46.107  35.364  28.533  1.00  0.00     0.020 A 
ATOM     61  C   UNL A   1      46.888  34.501  30.667  1.00  0.00     0.020 A 
ATOM     62  C   UNL A   1      46.552  35.576  29.842  1.00  0.00     0.054 A 
BRANCH  62  63
ATOM     63  S   UNL A   1      46.659  37.276  30.467  1.00  0.00     0.124 S 
ATOM     64  O   UNL A   1      46.733  37.060  31.910  1.00  0.00    -0.237 OA
ATOM     65  O   UNL A   1      47.883  37.773  29.843  1.00  0.00    -0.237 OA
ATOM     66  O   UNL A   1      45.425  37.897  29.993  1.00  0.00    -0.744 OA
ENDBRANCH  62  63
ENDBRANCH  43  57
BRANCH  44  67
ATOM     67  C   UNL A   1      45.343  23.607  25.543  1.00  0.00    -0.014 A 
ATOM     68  C   UNL A   1      44.945  23.368  24.217  1.00  0.00     0.010 A 
ATOM     69  C   UNL A   1      45.574  22.510  26.394  1.00  0.00     0.010 A 
ATOM     70  C   UNL A   1      44.757  22.060  23.758  1.00  0.00     0.020 A 
ATOM     71  C   UNL A   1      45.414  21.202  25.934  1.00  0.00     0.020 A 
ATOM     72  C   UNL A   1      44.989  20.985  24.622  1.00  0.00     0.054 A 
BRANCH  72  73
ATOM     73  S   UNL A   1      44.768  19.293  24.006  1.00  0.00     0.124 S 
ATOM     74  O   UNL A   1      44.376  19.525  22.621  1.00  0.00    -0.237 OA
ATOM     75  O   UNL A   1      46.093  18.707  24.200  1.00  0.00    -0.237 OA
ATOM     76  O   UNL A   1      43.724  18.750  24.873  1.00  0.00    -0.744 OA
ENDBRANCH  72  73
ENDBRANCH  44  67
BRANCH  56  77
ATOM     77  C   UNL A   1      50.717  28.034  25.882  1.00  0.00    -0.014 A 
ATOM     78  C   UNL A   1      51.684  27.511  26.759  1.00  0.00     0.010 A 
ATOM     79  C   UNL A   1      51.095  28.394  24.577  1.00  0.00     0.010 A 
ATOM     80  C   UNL A   1      53.011  27.375  26.344  1.00  0.00     0.020 A 
ATOM     81  C   UNL A   1      52.417  28.237  24.151  1.00  0.00     0.020 A 
ATOM     82  C   UNL A   1      53.370  27.739  25.042  1.00  0.00     0.054 A 
BRANCH  82  83
ATOM     83  S   UNL A   1      55.087  27.503  24.506  1.00  0.00     0.124 S 
ATOM     84  O   UNL A   1      54.961  26.392  23.567  1.00  0.00    -0.237 OA
ATOM     85  O   UNL A   1      55.421  28.794  23.911  1.00  0.00    -0.237 OA
ATOM     86  O   UNL A   1      55.796  27.194  25.746  1.00  0.00    -0.744 OA
ENDBRANCH  82  83
ENDBRANCH  56  77
ENDBRANCH  30  31
ENDBRANCH  23  25
ENDBRANCH  22  23
ENDBRANCH   1  22
TORSDOF 16
ENDMDL
MODEL 2
REMARK VINA RESULT:     -10.2      6.796     12.134
REMARK SMILES Cc1cc(N2CCCC[C@H]2C(=O)OCCOC(=O)c2ccc(-c3c4nc(c(-c5ccc(S(=O)(=O)[O-])cc5)c5ccc([nH]5)c(-c5ccc(S(=O)(=O)[O-])cc5)c5nc(c(-c6ccc(S(=O)(=O)[O-])cc6)c6ccc3[nH]6)C=C5)C=C4)cc2)ncc1[N+](=O)[O-]
REMARK SMILES IDX 15 1 14 2 13 3 11 4 12 5 10 6 5 7 6 8 7 9 9 10 8 11 4 12
REMARK SMILES IDX 1 13 2 14 3 15 81 16 80 17 79 18 82 19 83 20 84 21 16 22
REMARK SMILES IDX 17 23 18 24 19 25 20 26 78 27 21 28 77 29 22 30 23 31 24 32
REMARK SMILES IDX 71 33 25 34 76 35 70 36 72 37 26 38 75 39 69 40 68 41 27 43
REMARK SMILES IDX 57 44 38 45 56 46 39 47 42 48 55 49 73 50 40 51 41 52 54 54
REMARK SMILES IDX 74 55 43 56 28 57 29 58 37 59 30 60 36 61 31 62 32 63 33 64
REMARK SMILES IDX 34 65 35 66 58 67 59 68 67 69 60 70 66 71 61 72 62 73 63 74
REMARK SMILES IDX 64 75 65 76 44 77 45 78 53 79 46 80 52 81 47 82 48 83 49 84
REMARK SMILES IDX 50 85 51 86
REMARK H PARENT 72 42 42 53
REMARK Flexibility Score: inf
ROOT
ATOM      1  C   UNL A   1      32.456  30.240  26.901  1.00  0.00     0.275 C 
ENDROOT
BRANCH   1   2
ATOM      2  C   UNL A   1      31.749  28.889  27.019  1.00  0.00     0.274 C 
BRANCH   2   3
ATOM      3  O   UNL A   1      32.031  28.013  25.907  1.00  0.00    -0.461 OA
BRANCH   3   4
ATOM      4  C   UNL A   1      31.159  26.974  25.733  1.00  0.00     0.328 C 
ATOM      5  O   UNL A   1      31.135  25.976  26.446  1.00  0.00    -0.250 OA
BRANCH   4   6
ATOM      6  C   UNL A   1      30.235  27.215  24.517  1.00  0.00     0.193 C 
ATOM      7  N   UNL A   1      30.909  28.010  23.476  1.00  0.00    -0.343 N 
ATOM      8  C   UNL A   1      32.009  27.401  22.734  1.00  0.00     0.119 C 
ATOM      9  C   UNL A   1      31.576  26.079  22.103  1.00  0.00     0.022 C 
ATOM     10  C   UNL A   1      29.758  25.906  23.860  1.00  0.00     0.037 C 
ATOM     11  C   UNL A   1      30.881  25.173  23.114  1.00  0.00     0.005 C 
BRANCH   7  12
ATOM     12  C   UNL A   1      30.215  29.076  22.960  1.00  0.00     0.130 A 
ATOM     13  C   UNL A   1      27.265  31.251  23.905  1.00  0.00     0.052 C 
ATOM     14  C   UNL A   1      28.381  30.684  23.079  1.00  0.00     0.032 A 
ATOM     15  C   UNL A   1      29.131  29.636  23.638  1.00  0.00     0.057 A 
ATOM     16  C   UNL A   1      28.737  31.089  21.791  1.00  0.00     0.290 A 
ATOM     17  C   UNL A   1      29.859  30.530  21.195  1.00  0.00     0.199 A 
ATOM     18  N   UNL A   1      30.614  29.562  21.769  1.00  0.00    -0.232 NA
BRANCH  16  19
ATOM     19  N   UNL A   1      27.965  32.039  21.009  1.00  0.00     0.064 N 
ATOM     20  O   UNL A   1      27.922  33.208  21.415  1.00  0.00    -0.258 OA
ATOM     21  O   UNL A   1      27.431  31.635  19.968  1.00  0.00    -0.258 OA
ENDBRANCH  16  19
ENDBRANCH   7  12
ENDBRANCH   4   6
ENDBRANCH   3   4
ENDBRANCH   2   3
ENDBRANCH   1   2
BRANCH   1  22
ATOM     22  O   UNL A   1      33.806  30.146  27.385  1.00  0.00    -0.458 OA
BRANCH  22  23
ATOM     23  C   UNL A   1      34.382  31.312  27.747  1.00  0.00     0.338 C 
ATOM     24  O   UNL A   1      33.869  32.423  27.768  1.00  0.00    -0.246 OA
BRANCH  23  25
ATOM     25  C   UNL A   1      35.702  31.031  28.324  1.00  0.00     0.060 A 
ATOM     26  C   UNL A   1      35.868  29.779  28.908  1.00  0.00     0.016 A 
ATOM     27  C   UNL A   1      36.726  31.974  28.375  1.00  0.00     0.016 A 
ATOM     28  C   UNL A   1      37.052  29.444  29.550  1.00  0.00     0.010 A 
ATOM     29  C   UNL A   1      37.925  31.640  29.024  1.00  0.00     0.010 A 
ATOM     30  C   UNL A   1      38.090  30.375  29.623  1.00  0.00    -0.014 A 
BRANCH  30  31
ATOM     31  C   UNL A   1      39.290  30.040  30.425  1.00  0.00     0.031 A 
ATOM     32  C   UNL A   1      40.245  28.999  29.915  1.00  0.00     0.074 A 
ATOM     33  C   UNL A   1      39.577  30.723  31.550  1.00  0.00     0.049 A 
ATOM     34  N   UNL A   1      41.312  28.507  30.486  1.00  0.00    -0.248 NA
ATOM     35  C   UNL A   1      39.969  28.453  28.576  1.00  0.00     0.031 C 
ATOM     36  C   UNL A   1      38.797  31.838  32.089  1.00  0.00     0.029 A 
ATOM     37  N   UNL A   1      40.615  30.582  32.436  1.00  0.00    -0.354 N 
ATOM     38  C   UNL A   1      41.819  27.570  29.594  1.00  0.00     0.074 A 
ATOM     39  C   UNL A   1      40.948  27.571  28.438  1.00  0.00     0.031 C 
ATOM     40  C   UNL A   1      39.385  32.279  33.215  1.00  0.00     0.029 A 
ATOM     41  C   UNL A   1      40.546  31.442  33.507  1.00  0.00     0.049 A 
ATOM     42  H   UNL A   1      41.341  29.927  32.317  1.00  0.00     0.167 HD
ATOM     43  C   UNL A   1      42.903  26.774  29.733  1.00  0.00     0.031 A 
ATOM     44  C   UNL A   1      41.310  31.518  34.616  1.00  0.00     0.031 A 
ATOM     45  C   UNL A   1      43.767  26.774  30.881  1.00  0.00     0.049 A 
ATOM     46  C   UNL A   1      42.448  30.547  34.795  1.00  0.00     0.074 A 
ATOM     47  C   UNL A   1      44.874  25.979  31.126  1.00  0.00     0.029 A 
ATOM     48  N   UNL A   1      43.620  27.606  31.979  1.00  0.00    -0.354 N 
ATOM     49  N   UNL A   1      42.888  29.631  33.965  1.00  0.00    -0.248 NA
ATOM     50  C   UNL A   1      43.180  30.608  36.069  1.00  0.00     0.031 C 
ATOM     51  C   UNL A   1      45.369  26.300  32.394  1.00  0.00     0.029 A 
ATOM     52  C   UNL A   1      44.600  27.328  32.916  1.00  0.00     0.049 A 
ATOM     53  H   UNL A   1      42.924  28.294  32.078  1.00  0.00     0.167 HD
ATOM     54  C   UNL A   1      43.958  29.019  34.611  1.00  0.00     0.074 A 
ATOM     55  C   UNL A   1      44.109  29.679  35.891  1.00  0.00     0.031 C 
ATOM     56  C   UNL A   1      44.740  27.998  34.184  1.00  0.00     0.031 A 
BRANCH  43  57
ATOM     57  C   UNL A   1      43.170  25.781  28.638  1.00  0.00    -0.014 A 
ATOM     58  C   UNL A   1      42.570  24.509  28.636  1.00  0.00     0.010 A 
ATOM     59  C   UNL A   1      44.023  26.142  27.579  1.00  0.00     0.010 A 
ATOM     60  C   UNL A   1      42.847  23.603  27.608  1.00  0.00     0.020 A 
ATOM     61  C   UNL A   1      44.286  25.247  26.541  1.00  0.00     0.020 A 
ATOM     62  C   UNL A   1      43.709  23.976  26.570  1.00  0.00     0.054 A 
BRANCH  62  63
ATOM     63  S   UNL A   1      44.043  22.789  25.240  1.00  0.00     0.124 S 
ATOM     64  O   UNL A   1      44.555  23.659  24.184  1.00  0.00    -0.237 OA
ATOM     65  O   UNL A   1      45.025  21.893  25.846  1.00  0.00    -0.237 OA
ATOM     66  O   UNL A   1      42.737  22.189  24.974  1.00  0.00    -0.744 OA
ENDBRANCH  62  63
ENDBRANCH  43  57
BRANCH  44  67
ATOM     67  C   UNL A   1      40.981  32.499  35.688  1.00  0.00    -0.014 A 
ATOM     68  C   UNL A   1      39.949  32.246  36.606  1.00  0.00     0.010 A 
ATOM     69  C   UNL A   1      41.686  33.715  35.769  1.00  0.00     0.010 A 
ATOM     70  C   UNL A   1      39.610  33.202  37.572  1.00  0.00     0.020 A 
ATOM     71  C   UNL A   1      41.370  34.659  36.747  1.00  0.00     0.020 A 
ATOM     72  C   UNL A   1      40.322  34.404  37.633  1.00  0.00     0.054 A 
BRANCH  72  73
ATOM     73  S   UNL A   1      39.891  35.621  38.907  1.00  0.00     0.124 S 
ATOM     74  O   UNL A   1      38.834  34.932  39.639  1.00  0.00    -0.237 OA
ATOM     75  O   UNL A   1      41.152  35.791  39.625  1.00  0.00    -0.237 OA
ATOM     76  O   UNL A   1      39.463  36.785  38.133  1.00  0.00    -0.744 OA
ENDBRANCH  72  73
ENDBRANCH  44  67
BRANCH  56  77
ATOM     77  C   UNL A   1      45.852  27.548  35.093  1.00  0.00    -0.014 A 
ATOM     78  C   UNL A   1      47.117  28.161  35.051  1.00  0.00     0.010 A 
ATOM     79  C   UNL A   1      45.606  26.542  36.044  1.00  0.00     0.010 A 
ATOM     80  C   UNL A   1      48.125  27.757  35.931  1.00  0.00     0.020 A 
ATOM     81  C   UNL A   1      46.605  26.152  36.940  1.00  0.00     0.020 A 
ATOM     82  C   UNL A   1      47.863  26.755  36.870  1.00  0.00     0.054 A 
BRANCH  82  83
ATOM     83  S   UNL A   1      49.169  26.283  38.038  1.00  0.00     0.124 S 
ATOM     84  O   UNL A   1      50.365  26.799  37.379  1.00  0.00    -0.237 OA
ATOM     85  O   UNL A   1      48.776  26.978  39.261  1.00  0.00    -0.237 OA
ATOM     86  O   UNL A   1      49.068  24.826  38.098  1.00  0.00    -0.744 OA
ENDBRANCH  82  83
ENDBRANCH  56  77
ENDBRANCH  30  31
ENDBRANCH  23  25
ENDBRANCH  22  23
ENDBRANCH   1  22
TORSDOF 16
ENDMDL
MODEL 3
REMARK VINA RESULT:     -10.2      7.373     14.988
REMARK SMILES Cc1cc(N2CCCC[C@H]2C(=O)OCCOC(=O)c2ccc(-c3c4nc(c(-c5ccc(S(=O)(=O)[O-])cc5)c5ccc([nH]5)c(-c5ccc(S(=O)(=O)[O-])cc5)c5nc(c(-c6ccc(S(=O)(=O)[O-])cc6)c6ccc3[nH]6)C=C5)C=C4)cc2)ncc1[N+](=O)[O-]
REMARK SMILES IDX 15 1 14 2 13 3 11 4 12 5 10 6 5 7 6 8 7 9 9 10 8 11 4 12
REMARK SMILES IDX 1 13 2 14 3 15 81 16 80 17 79 18 82 19 83 20 84 21 16 22
REMARK SMILES IDX 17 23 18 24 19 25 20 26 78 27 21 28 77 29 22 30 23 31 24 32
REMARK SMILES IDX 71 33 25 34 76 35 70 36 72 37 26 38 75 39 69 40 68 41 27 43
REMARK SMILES IDX 57 44 38 45 56 46 39 47 42 48 55 49 73 50 40 51 41 52 54 54
REMARK SMILES IDX 74 55 43 56 28 57 29 58 37 59 30 60 36 61 31 62 32 63 33 64
REMARK SMILES IDX 34 65 35 66 58 67 59 68 67 69 60 70 66 71 61 72 62 73 63 74
REMARK SMILES IDX 64 75 65 76 44 77 45 78 53 79 46 80 52 81 47 82 48 83 49 84
REMARK SMILES IDX 50 85 51 86
REMARK H PARENT 72 42 42 53
REMARK Flexibility Score: inf
ROOT
ATOM      1  C   UNL A   1      38.273  24.103  25.897  1.00  0.00     0.275 C 
ENDROOT
BRANCH   1   2
ATOM      2  C   UNL A   1      36.798  23.708  25.979  1.00  0.00     0.274 C 
BRANCH   2   3
ATOM      3  O   UNL A   1      36.148  23.708  24.690  1.00  0.00    -0.461 OA
BRANCH   3   4
ATOM      4  C   UNL A   1      34.794  23.899  24.706  1.00  0.00     0.328 C 
ATOM      5  O   UNL A   1      34.243  24.828  25.287  1.00  0.00    -0.250 OA
BRANCH   4   6
ATOM      6  C   UNL A   1      34.061  22.787  23.921  1.00  0.00     0.193 C 
ATOM      7  N   UNL A   1      33.255  21.938  24.815  1.00  0.00    -0.343 N 
ATOM      8  C   UNL A   1      32.067  22.513  25.442  1.00  0.00     0.119 C 
ATOM      9  C   UNL A   1      31.130  23.108  24.394  1.00  0.00     0.022 C 
ATOM     10  C   UNL A   1      33.118  23.343  22.839  1.00  0.00     0.037 C 
ATOM     11  C   UNL A   1      31.874  24.023  23.427  1.00  0.00     0.005 C 
BRANCH   7  12
ATOM     12  C   UNL A   1      33.389  20.579  24.670  1.00  0.00     0.130 A 
ATOM     13  C   UNL A   1      36.119  17.969  24.904  1.00  0.00     0.052 C 
ATOM     14  C   UNL A   1      34.768  18.565  24.638  1.00  0.00     0.032 A 
ATOM     15  C   UNL A   1      34.619  19.945  24.850  1.00  0.00     0.057 A 
ATOM     16  C   UNL A   1      33.643  17.878  24.180  1.00  0.00     0.290 A 
ATOM     17  C   UNL A   1      32.436  18.555  24.076  1.00  0.00     0.199 A 
ATOM     18  N   UNL A   1      32.288  19.876  24.343  1.00  0.00    -0.232 NA
BRANCH  16  19
ATOM     19  N   UNL A   1      33.671  16.489  23.757  1.00  0.00     0.064 N 
ATOM     20  O   UNL A   1      34.085  16.251  22.614  1.00  0.00    -0.258 OA
ATOM     21  O   UNL A   1      33.320  15.626  24.572  1.00  0.00    -0.258 OA
ENDBRANCH  16  19
ENDBRANCH   7  12
ENDBRANCH   4   6
ENDBRANCH   3   4
ENDBRANCH   2   3
ENDBRANCH   1   2
BRANCH   1  22
ATOM     22  O   UNL A   1      38.729  24.610  27.162  1.00  0.00    -0.458 OA
BRANCH  22  23
ATOM     23  C   UNL A   1      39.751  25.490  27.108  1.00  0.00     0.338 C 
ATOM     24  O   UNL A   1      40.561  25.638  26.203  1.00  0.00    -0.246 OA
BRANCH  23  25
ATOM     25  C   UNL A   1      39.639  26.418  28.240  1.00  0.00     0.060 A 
ATOM     26  C   UNL A   1      40.431  27.561  28.183  1.00  0.00     0.016 A 
ATOM     27  C   UNL A   1      38.858  26.157  29.363  1.00  0.00     0.016 A 
ATOM     28  C   UNL A   1      40.458  28.462  29.238  1.00  0.00     0.010 A 
ATOM     29  C   UNL A   1      38.883  27.065  30.433  1.00  0.00     0.010 A 
ATOM     30  C   UNL A   1      39.691  28.218  30.379  1.00  0.00    -0.014 A 
BRANCH  30  31
ATOM     31  C   UNL A   1      39.837  29.126  31.541  1.00  0.00     0.031 A 
ATOM     32  C   UNL A   1      41.022  28.966  32.451  1.00  0.00     0.074 A 
ATOM     33  C   UNL A   1      38.975  30.143  31.732  1.00  0.00     0.049 A 
ATOM     34  N   UNL A   1      41.305  29.603  33.557  1.00  0.00    -0.248 NA
ATOM     35  C   UNL A   1      42.028  27.968  32.052  1.00  0.00     0.031 C 
ATOM     36  C   UNL A   1      37.854  30.480  30.854  1.00  0.00     0.029 A 
ATOM     37  N   UNL A   1      38.918  31.087  32.726  1.00  0.00    -0.354 N 
ATOM     38  C   UNL A   1      42.504  29.063  34.005  1.00  0.00     0.074 A 
ATOM     39  C   UNL A   1      42.901  28.054  33.045  1.00  0.00     0.031 C 
ATOM     40  C   UNL A   1      37.219  31.556  31.350  1.00  0.00     0.029 A 
ATOM     41  C   UNL A   1      37.851  31.947  32.608  1.00  0.00     0.049 A 
ATOM     42  H   UNL A   1      39.578  31.144  33.454  1.00  0.00     0.167 HD
ATOM     43  C   UNL A   1      43.203  29.372  35.121  1.00  0.00     0.031 A 
ATOM     44  C   UNL A   1      37.412  32.912  33.441  1.00  0.00     0.031 A 
ATOM     45  C   UNL A   1      42.809  30.373  36.073  1.00  0.00     0.049 A 
ATOM     46  C   UNL A   1      38.149  33.163  34.731  1.00  0.00     0.074 A 
ATOM     47  C   UNL A   1      43.437  30.735  37.253  1.00  0.00     0.029 A 
ATOM     48  N   UNL A   1      41.681  31.170  35.958  1.00  0.00    -0.354 N 
ATOM     49  N   UNL A   1      39.256  32.611  35.169  1.00  0.00    -0.248 NA
ATOM     50  C   UNL A   1      37.566  34.154  35.648  1.00  0.00     0.031 C 
ATOM     51  C   UNL A   1      42.663  31.720  37.874  1.00  0.00     0.029 A 
ATOM     52  C   UNL A   1      41.580  32.005  37.057  1.00  0.00     0.049 A 
ATOM     53  H   UNL A   1      41.047  31.147  35.207  1.00  0.00     0.167 HD
ATOM     54  C   UNL A   1      39.509  33.200  36.404  1.00  0.00     0.074 A 
ATOM     55  C   UNL A   1      38.451  34.161  36.635  1.00  0.00     0.031 C 
ATOM     56  C   UNL A   1      40.524  32.961  37.270  1.00  0.00     0.031 A 
BRANCH  43  57
ATOM     57  C   UNL A   1      44.433  28.558  35.408  1.00  0.00    -0.014 A 
ATOM     58  C   UNL A   1      45.704  28.962  34.962  1.00  0.00     0.010 A 
ATOM     59  C   UNL A   1      44.310  27.375  36.159  1.00  0.00     0.010 A 
ATOM     60  C   UNL A   1      46.827  28.177  35.236  1.00  0.00     0.020 A 
ATOM     61  C   UNL A   1      45.433  26.598  36.451  1.00  0.00     0.020 A 
ATOM     62  C   UNL A   1      46.684  26.996  35.973  1.00  0.00     0.054 A 
BRANCH  62  63
ATOM     63  S   UNL A   1      48.157  26.001  36.327  1.00  0.00     0.124 S 
ATOM     64  O   UNL A   1      47.689  24.652  36.016  1.00  0.00    -0.237 OA
ATOM     65  O   UNL A   1      49.148  26.550  35.405  1.00  0.00    -0.237 OA
ATOM     66  O   UNL A   1      48.418  26.258  37.742  1.00  0.00    -0.744 OA
ENDBRANCH  62  63
ENDBRANCH  43  57
BRANCH  44  67
ATOM     67  C   UNL A   1      36.167  33.666  33.126  1.00  0.00    -0.014 A 
ATOM     68  C   UNL A   1      36.223  34.941  32.540  1.00  0.00     0.010 A 
ATOM     69  C   UNL A   1      34.912  33.116  33.448  1.00  0.00     0.010 A 
ATOM     70  C   UNL A   1      35.047  35.664  32.303  1.00  0.00     0.020 A 
ATOM     71  C   UNL A   1      33.735  33.821  33.188  1.00  0.00     0.020 A 
ATOM     72  C   UNL A   1      33.811  35.099  32.633  1.00  0.00     0.054 A 
BRANCH  72  73
ATOM     73  S   UNL A   1      32.295  36.036  32.295  1.00  0.00     0.124 S 
ATOM     74  O   UNL A   1      32.450  36.362  30.881  1.00  0.00    -0.237 OA
ATOM     75  O   UNL A   1      31.246  35.069  32.610  1.00  0.00    -0.237 OA
ATOM     76  O   UNL A   1      32.383  37.168  33.215  1.00  0.00    -0.744 OA
ENDBRANCH  72  73
ENDBRANCH  44  67
BRANCH  56  77
ATOM     77  C   UNL A   1      40.560  33.773  38.538  1.00  0.00    -0.014 A 
ATOM     78  C   UNL A   1      41.111  35.065  38.557  1.00  0.00     0.010 A 
ATOM     79  C   UNL A   1      39.976  33.256  39.708  1.00  0.00     0.010 A 
ATOM     80  C   UNL A   1      41.099  35.820  39.733  1.00  0.00     0.020 A 
ATOM     81  C   UNL A   1      39.943  34.016  40.880  1.00  0.00     0.020 A 
ATOM     82  C   UNL A   1      40.515  35.290  40.888  1.00  0.00     0.054 A 
BRANCH  82  83
ATOM     83  S   UNL A   1      40.462  36.306  42.390  1.00  0.00     0.124 S 
ATOM     84  O   UNL A   1      39.026  36.428  42.624  1.00  0.00    -0.237 OA
ATOM     85  O   UNL A   1      41.189  35.490  43.359  1.00  0.00    -0.237 OA
ATOM     86  O   UNL A   1      41.138  37.541  41.995  1.00  0.00    -0.744 OA
ENDBRANCH  82  83
ENDBRANCH  56  77
ENDBRANCH  30  31
ENDBRANCH  23  25
ENDBRANCH  22  23
ENDBRANCH   1  22
TORSDOF 16
ENDMDL
