MODEL 1
REMARK VINA RESULT:     -10.6      0.000      0.000
REMARK SMILES O=C(OCCOC(=O)[C@@H]1CCCN(C(=O)/C=C/c2c(F)cccc2Cl)C1)c1ccc(-c2c3nc(c(-c4ccc(S(=O)(=O)[O-])cc4)c4ccc([nH]4)c(-c4ccc(S(=O)(=O)[O-])cc4)c4nc(c(-c5ccc(S(=O)(=O)[O-])cc5)c5ccc2[nH]5)C=C4)C=C3)cc1
REMARK SMILES IDX 4 1 3 2 2 3 1 4 27 5 28 6 86 7 29 8 85 9 30 10 31 11 32 12
REMARK SMILES IDX 79 13 33 14 84 15 78 16 80 17 34 18 83 19 77 20 76 21 35 23
REMARK SMILES IDX 65 24 46 25 64 26 47 27 50 28 63 29 81 30 48 31 49 32 62 34
REMARK SMILES IDX 82 35 51 36 36 37 37 38 45 39 38 40 44 41 39 42 40 43 41 44
REMARK SMILES IDX 42 45 43 46 66 47 67 48 75 49 68 50 74 51 69 52 70 53 71 54
REMARK SMILES IDX 72 55 73 56 52 57 53 58 61 59 54 60 60 61 55 62 56 63 57 64
REMARK SMILES IDX 58 65 59 66 5 67 6 68 7 69 8 70 9 71 10 72 26 73 11 74 13 75
REMARK SMILES IDX 12 76 14 77 15 78 16 79 17 80 18 81 19 82 24 83 20 84 21 85
REMARK SMILES IDX 23 86 25 87 22 88
REMARK H PARENT 80 22 50 33
REMARK Flexibility Score: inf
ROOT
ATOM      1  C   UNL A   1      36.783  23.240  24.863  1.00  0.00     0.275 C 
ENDROOT
BRANCH   1   2
ATOM      2  O   UNL A   1      37.839  22.411  25.407  1.00  0.00    -0.458 OA
BRANCH   2   3
ATOM      3  C   UNL A   1      38.948  22.691  26.139  1.00  0.00     0.338 C 
ATOM      4  O   UNL A   1      39.752  21.776  26.334  1.00  0.00    -0.246 OA
BRANCH   3   5
ATOM      5  C   UNL A   1      39.235  23.997  26.821  1.00  0.00     0.060 A 
ATOM      6  C   UNL A   1      38.830  24.342  28.104  1.00  0.00     0.016 A 
ATOM      7  C   UNL A   1      39.979  24.966  26.101  1.00  0.00     0.016 A 
ATOM      8  C   UNL A   1      39.297  25.524  28.707  1.00  0.00     0.010 A 
ATOM      9  C   UNL A   1      40.428  26.167  26.697  1.00  0.00     0.010 A 
ATOM     10  C   UNL A   1      40.143  26.429  28.039  1.00  0.00    -0.014 A 
BRANCH  10  11
ATOM     11  C   UNL A   1      40.529  27.681  28.767  1.00  0.00     0.031 A 
ATOM     12  C   UNL A   1      41.992  27.884  28.996  1.00  0.00     0.074 A 
ATOM     13  C   UNL A   1      39.672  28.674  29.099  1.00  0.00     0.049 A 
ATOM     14  N   UNL A   1      42.634  28.965  29.346  1.00  0.00    -0.248 NA
ATOM     15  C   UNL A   1      42.840  26.693  28.818  1.00  0.00     0.031 C 
ATOM     16  C   UNL A   1      38.226  28.586  29.044  1.00  0.00     0.029 A 
ATOM     17  N   UNL A   1      39.878  29.976  29.510  1.00  0.00    -0.354 N 
ATOM     18  C   UNL A   1      43.962  28.584  29.434  1.00  0.00     0.074 A 
ATOM     19  C   UNL A   1      44.038  27.182  29.085  1.00  0.00     0.031 C 
ATOM     20  C   UNL A   1      37.671  29.794  29.236  1.00  0.00     0.029 A 
ATOM     21  C   UNL A   1      38.727  30.749  29.535  1.00  0.00     0.049 A 
ATOM     22  H   UNL A   1      40.764  30.325  29.764  1.00  0.00     0.167 HD
ATOM     23  C   UNL A   1      45.024  29.324  29.822  1.00  0.00     0.031 A 
ATOM     24  C   UNL A   1      38.542  32.066  29.782  1.00  0.00     0.031 A 
ATOM     25  C   UNL A   1      44.929  30.675  30.292  1.00  0.00     0.049 A 
ATOM     26  C   UNL A   1      39.750  32.862  30.216  1.00  0.00     0.074 A 
ATOM     27  C   UNL A   1      45.928  31.477  30.810  1.00  0.00     0.029 A 
ATOM     28  N   UNL A   1      43.755  31.412  30.335  1.00  0.00    -0.354 N 
ATOM     29  N   UNL A   1      41.009  32.495  30.255  1.00  0.00    -0.248 NA
ATOM     30  C   UNL A   1      39.509  34.236  30.684  1.00  0.00     0.031 C 
ATOM     31  C   UNL A   1      45.347  32.681  31.220  1.00  0.00     0.029 A 
ATOM     32  C   UNL A   1      44.001  32.657  30.886  1.00  0.00     0.049 A 
ATOM     33  H   UNL A   1      42.877  31.097  30.020  1.00  0.00     0.167 HD
ATOM     34  C   UNL A   1      41.705  33.589  30.752  1.00  0.00     0.074 A 
ATOM     35  C   UNL A   1      40.740  34.650  30.944  1.00  0.00     0.031 C 
ATOM     36  C   UNL A   1      43.021  33.699  31.052  1.00  0.00     0.031 A 
BRANCH  23  37
ATOM     37  C   UNL A   1      46.336  28.603  29.873  1.00  0.00    -0.014 A 
ATOM     38  C   UNL A   1      47.212  28.606  28.773  1.00  0.00     0.010 A 
ATOM     39  C   UNL A   1      46.642  27.825  31.003  1.00  0.00     0.010 A 
ATOM     40  C   UNL A   1      48.347  27.793  28.780  1.00  0.00     0.020 A 
ATOM     41  C   UNL A   1      47.790  27.034  31.024  1.00  0.00     0.020 A 
ATOM     42  C   UNL A   1      48.621  27.004  29.902  1.00  0.00     0.054 A 
BRANCH  42  43
ATOM     43  S   UNL A   1      50.083  25.935  29.875  1.00  0.00     0.124 S 
ATOM     44  O   UNL A   1      49.875  25.172  28.647  1.00  0.00    -0.237 OA
ATOM     45  O   UNL A   1      51.182  26.896  29.840  1.00  0.00    -0.237 OA
ATOM     46  O   UNL A   1      49.972  25.166  31.112  1.00  0.00    -0.744 OA
ENDBRANCH  42  43
ENDBRANCH  23  37
BRANCH  24  47
ATOM     47  C   UNL A   1      37.204  32.746  29.686  1.00  0.00    -0.014 A 
ATOM     48  C   UNL A   1      36.781  33.314  28.464  1.00  0.00     0.010 A 
ATOM     49  C   UNL A   1      36.380  32.924  30.812  1.00  0.00     0.010 A 
ATOM     50  C   UNL A   1      35.599  34.065  28.381  1.00  0.00     0.020 A 
ATOM     51  C   UNL A   1      35.166  33.623  30.722  1.00  0.00     0.020 A 
ATOM     52  C   UNL A   1      34.790  34.205  29.509  1.00  0.00     0.054 A 
BRANCH  52  53
ATOM     53  S   UNL A   1      33.206  35.084  29.355  1.00  0.00     0.124 S 
ATOM     54  O   UNL A   1      32.530  34.313  28.315  1.00  0.00    -0.237 OA
ATOM     55  O   UNL A   1      32.636  34.961  30.695  1.00  0.00    -0.237 OA
ATOM     56  O   UNL A   1      33.604  36.437  28.973  1.00  0.00    -0.744 OA
ENDBRANCH  52  53
ENDBRANCH  24  47
BRANCH  36  57
ATOM     57  C   UNL A   1      43.501  35.026  31.574  1.00  0.00    -0.014 A 
ATOM     58  C   UNL A   1      43.810  36.089  30.707  1.00  0.00     0.010 A 
ATOM     59  C   UNL A   1      43.587  35.220  32.963  1.00  0.00     0.010 A 
ATOM     60  C   UNL A   1      44.232  37.316  31.224  1.00  0.00     0.020 A 
ATOM     61  C   UNL A   1      43.976  36.455  33.484  1.00  0.00     0.020 A 
ATOM     62  C   UNL A   1      44.310  37.491  32.610  1.00  0.00     0.054 A 
BRANCH  62  63
ATOM     63  S   UNL A   1      44.815  39.105  33.260  1.00  0.00     0.124 S 
ATOM     64  O   UNL A   1      44.925  38.834  34.691  1.00  0.00    -0.237 OA
ATOM     65  O   UNL A   1      46.078  39.349  32.566  1.00  0.00    -0.237 OA
ATOM     66  O   UNL A   1      43.718  39.991  32.877  1.00  0.00    -0.744 OA
ENDBRANCH  62  63
ENDBRANCH  36  57
ENDBRANCH  10  11
ENDBRANCH   3   5
ENDBRANCH   2   3
ENDBRANCH   1   2
BRANCH   1  67
ATOM     67  C   UNL A   1      35.432  23.055  25.543  1.00  0.00     0.274 C 
BRANCH  67  68
ATOM     68  O   UNL A   1      34.434  22.780  24.567  1.00  0.00    -0.462 OA
BRANCH  68  69
ATOM     69  C   UNL A   1      33.148  23.092  24.849  1.00  0.00     0.310 C 
ATOM     70  O   UNL A   1      32.757  23.574  25.909  1.00  0.00    -0.252 OA
BRANCH  69  71
ATOM     71  C   UNL A   1      32.253  22.863  23.651  1.00  0.00     0.119 C 
ATOM     72  C   UNL A   1      32.968  23.044  22.312  1.00  0.00     0.019 C 
ATOM     73  C   UNL A   1      31.017  23.743  23.651  1.00  0.00     0.135 C 
ATOM     74  C   UNL A   1      33.208  24.522  21.983  1.00  0.00     0.022 C 
ATOM     75  N   UNL A   1      31.281  25.150  23.363  1.00  0.00    -0.338 N 
ATOM     76  C   UNL A   1      31.942  25.375  22.085  1.00  0.00     0.120 C 
BRANCH  75  77
ATOM     77  C   UNL A   1      30.927  26.089  24.319  1.00  0.00     0.246 C 
ATOM     78  O   UNL A   1      29.816  26.123  24.851  1.00  0.00    -0.270 OA
BRANCH  77  79
ATOM     79  C   UNL A   1      31.902  27.045  24.885  1.00  0.00     0.072 C 
ATOM     80  C   UNL A   1      31.637  28.113  25.645  1.00  0.00     0.018 C 
BRANCH  80  81
ATOM     81  C   UNL A   1      32.653  28.990  26.275  1.00  0.00     0.029 A 
ATOM     82  C   UNL A   1      33.895  28.520  26.739  1.00  0.00     0.131 A 
ATOM     83  C   UNL A   1      32.374  30.351  26.496  1.00  0.00     0.051 A 
ATOM     84  F   UNL A   1      34.288  27.257  26.518  1.00  0.00    -0.206 F 
ATOM     85  C   UNL A   1      34.786  29.337  27.438  1.00  0.00     0.040 A 
ATOM     86  C   UNL A   1      33.238  31.163  27.247  1.00  0.00     0.021 A 
ATOM     87  Cl  UNL A   1      31.015  31.120  25.746  1.00  0.00    -0.084 Cl
ATOM     88  C   UNL A   1      34.442  30.652  27.726  1.00  0.00     0.005 A 
ENDBRANCH  80  81
ENDBRANCH  77  79
ENDBRANCH  75  77
ENDBRANCH  69  71
ENDBRANCH  68  69
ENDBRANCH  67  68
ENDBRANCH   1  67
TORSDOF 17
ENDMDL
MODEL 2
REMARK VINA RESULT:     -10.6      3.816      9.316
REMARK SMILES O=C(OCCOC(=O)[C@@H]1CCCN(C(=O)/C=C/c2c(F)cccc2Cl)C1)c1ccc(-c2c3nc(c(-c4ccc(S(=O)(=O)[O-])cc4)c4ccc([nH]4)c(-c4ccc(S(=O)(=O)[O-])cc4)c4nc(c(-c5ccc(S(=O)(=O)[O-])cc5)c5ccc2[nH]5)C=C4)C=C3)cc1
REMARK SMILES IDX 4 1 3 2 2 3 1 4 27 5 28 6 86 7 29 8 85 9 30 10 31 11 32 12
REMARK SMILES IDX 79 13 33 14 84 15 78 16 80 17 34 18 83 19 77 20 76 21 35 23
REMARK SMILES IDX 65 24 46 25 64 26 47 27 50 28 63 29 81 30 48 31 49 32 62 34
REMARK SMILES IDX 82 35 51 36 36 37 37 38 45 39 38 40 44 41 39 42 40 43 41 44
REMARK SMILES IDX 42 45 43 46 66 47 67 48 75 49 68 50 74 51 69 52 70 53 71 54
REMARK SMILES IDX 72 55 73 56 52 57 53 58 61 59 54 60 60 61 55 62 56 63 57 64
REMARK SMILES IDX 58 65 59 66 5 67 6 68 7 69 8 70 9 71 10 72 26 73 11 74 13 75
REMARK SMILES IDX 12 76 14 77 15 78 16 79 17 80 18 81 19 82 24 83 20 84 21 85
REMARK SMILES IDX 23 86 25 87 22 88
REMARK H PARENT 80 22 50 33
REMARK Flexibility Score: inf
ROOT
ATOM      1  C   UNL A   1      34.851  28.865  26.936  1.00  0.00     0.275 C 
ENDROOT
BRANCH   1   2
ATOM      2  O   UNL A   1      34.940  29.888  27.956  1.00  0.00    -0.458 OA
BRANCH   2   3
ATOM      3  C   UNL A   1      35.930  30.258  28.809  1.00  0.00     0.338 C 
ATOM      4  O   UNL A   1      35.653  31.077  29.689  1.00  0.00    -0.246 OA
BRANCH   3   5
ATOM      5  C   UNL A   1      37.366  29.832  28.713  1.00  0.00     0.060 A 
ATOM      6  C   UNL A   1      38.092  29.706  27.536  1.00  0.00     0.016 A 
ATOM      7  C   UNL A   1      38.044  29.530  29.921  1.00  0.00     0.016 A 
ATOM      8  C   UNL A   1      39.477  29.463  27.574  1.00  0.00     0.010 A 
ATOM      9  C   UNL A   1      39.432  29.260  29.959  1.00  0.00     0.010 A 
ATOM     10  C   UNL A   1      40.181  29.289  28.780  1.00  0.00    -0.014 A 
BRANCH  10  11
ATOM     11  C   UNL A   1      41.645  28.982  28.689  1.00  0.00     0.031 A 
ATOM     12  C   UNL A   1      42.000  27.610  28.213  1.00  0.00     0.074 A 
ATOM     13  C   UNL A   1      42.635  29.885  28.874  1.00  0.00     0.049 A 
ATOM     14  N   UNL A   1      43.144  27.152  27.784  1.00  0.00    -0.248 NA
ATOM     15  C   UNL A   1      40.910  26.620  28.241  1.00  0.00     0.031 C 
ATOM     16  C   UNL A   1      42.465  31.210  29.435  1.00  0.00     0.029 A 
ATOM     17  N   UNL A   1      43.982  29.856  28.573  1.00  0.00    -0.354 N 
ATOM     18  C   UNL A   1      42.914  25.817  27.496  1.00  0.00     0.074 A 
ATOM     19  C   UNL A   1      41.521  25.544  27.779  1.00  0.00     0.031 C 
ATOM     20  C   UNL A   1      43.590  31.931  29.295  1.00  0.00     0.029 A 
ATOM     21  C   UNL A   1      44.618  31.081  28.717  1.00  0.00     0.049 A 
ATOM     22  H   UNL A   1      44.450  29.040  28.282  1.00  0.00     0.167 HD
ATOM     23  C   UNL A   1      43.797  24.884  27.079  1.00  0.00     0.031 A 
ATOM     24  C   UNL A   1      45.882  31.468  28.430  1.00  0.00     0.031 A 
ATOM     25  C   UNL A   1      45.202  25.124  26.923  1.00  0.00     0.049 A 
ATOM     26  C   UNL A   1      46.843  30.398  27.969  1.00  0.00     0.074 A 
ATOM     27  C   UNL A   1      46.199  24.219  26.610  1.00  0.00     0.029 A 
ATOM     28  N   UNL A   1      45.814  26.355  27.107  1.00  0.00    -0.354 N 
ATOM     29  N   UNL A   1      46.598  29.147  27.662  1.00  0.00    -0.248 NA
ATOM     30  C   UNL A   1      48.260  30.779  27.860  1.00  0.00     0.031 C 
ATOM     31  C   UNL A   1      47.424  24.892  26.661  1.00  0.00     0.029 A 
ATOM     32  C   UNL A   1      47.180  26.231  26.929  1.00  0.00     0.049 A 
ATOM     33  H   UNL A   1      45.347  27.191  27.330  1.00  0.00     0.167 HD
ATOM     34  C   UNL A   1      47.828  28.593  27.327  1.00  0.00     0.074 A 
ATOM     35  C   UNL A   1      48.805  29.657  27.411  1.00  0.00     0.031 C 
ATOM     36  C   UNL A   1      48.128  27.312  27.007  1.00  0.00     0.031 A 
BRANCH  23  37
ATOM     37  C   UNL A   1      43.249  23.499  26.911  1.00  0.00    -0.014 A 
ATOM     38  C   UNL A   1      43.087  22.641  28.013  1.00  0.00     0.010 A 
ATOM     39  C   UNL A   1      42.994  23.021  25.614  1.00  0.00     0.010 A 
ATOM     40  C   UNL A   1      42.734  21.305  27.813  1.00  0.00     0.020 A 
ATOM     41  C   UNL A   1      42.615  21.694  25.414  1.00  0.00     0.020 A 
ATOM     42  C   UNL A   1      42.512  20.839  26.514  1.00  0.00     0.054 A 
BRANCH  42  43
ATOM     43  S   UNL A   1      42.086  19.094  26.278  1.00  0.00     0.124 S 
ATOM     44  O   UNL A   1      42.349  18.538  27.602  1.00  0.00    -0.237 OA
ATOM     45  O   UNL A   1      40.679  19.158  25.891  1.00  0.00    -0.237 OA
ATOM     46  O   UNL A   1      42.998  18.655  25.225  1.00  0.00    -0.744 OA
ENDBRANCH  42  43
ENDBRANCH  23  37
BRANCH  24  47
ATOM     47  C   UNL A   1      46.370  32.882  28.589  1.00  0.00    -0.014 A 
ATOM     48  C   UNL A   1      46.341  33.772  27.493  1.00  0.00     0.010 A 
ATOM     49  C   UNL A   1      46.953  33.335  29.786  1.00  0.00     0.010 A 
ATOM     50  C   UNL A   1      46.909  35.051  27.579  1.00  0.00     0.020 A 
ATOM     51  C   UNL A   1      47.470  34.636  29.897  1.00  0.00     0.020 A 
ATOM     52  C   UNL A   1      47.460  35.482  28.786  1.00  0.00     0.054 A 
BRANCH  52  53
ATOM     53  S   UNL A   1      48.087  37.184  28.912  1.00  0.00     0.124 S 
ATOM     54  O   UNL A   1      46.888  37.923  29.296  1.00  0.00    -0.237 OA
ATOM     55  O   UNL A   1      49.113  37.075  29.947  1.00  0.00    -0.237 OA
ATOM     56  O   UNL A   1      48.591  37.461  27.569  1.00  0.00    -0.744 OA
ENDBRANCH  52  53
ENDBRANCH  24  47
BRANCH  36  57
ATOM     57  C   UNL A   1      49.563  27.003  26.677  1.00  0.00    -0.014 A 
ATOM     58  C   UNL A   1      50.500  26.704  27.681  1.00  0.00     0.010 A 
ATOM     59  C   UNL A   1      49.957  26.956  25.329  1.00  0.00     0.010 A 
ATOM     60  C   UNL A   1      51.820  26.399  27.342  1.00  0.00     0.020 A 
ATOM     61  C   UNL A   1      51.266  26.619  24.984  1.00  0.00     0.020 A 
ATOM     62  C   UNL A   1      52.193  26.357  25.994  1.00  0.00     0.054 A 
BRANCH  62  63
ATOM     63  S   UNL A   1      53.899  25.913  25.572  1.00  0.00     0.124 S 
ATOM     64  O   UNL A   1      54.569  27.211  25.612  1.00  0.00    -0.237 OA
ATOM     65  O   UNL A   1      54.262  24.985  26.641  1.00  0.00    -0.237 OA
ATOM     66  O   UNL A   1      53.783  25.312  24.246  1.00  0.00    -0.744 OA
ENDBRANCH  62  63
ENDBRANCH  36  57
ENDBRANCH  10  11
ENDBRANCH   3   5
ENDBRANCH   2   3
ENDBRANCH   1   2
BRANCH   1  67
ATOM     67  C   UNL A   1      33.447  28.304  26.737  1.00  0.00     0.274 C 
BRANCH  67  68
ATOM     68  O   UNL A   1      32.793  29.004  25.685  1.00  0.00    -0.462 OA
BRANCH  68  69
ATOM     69  C   UNL A   1      32.996  28.596  24.411  1.00  0.00     0.310 C 
ATOM     70  O   UNL A   1      34.079  28.248  23.947  1.00  0.00    -0.252 OA
BRANCH  69  71
ATOM     71  C   UNL A   1      31.694  28.527  23.643  1.00  0.00     0.119 C 
ATOM     72  C   UNL A   1      30.514  28.042  24.485  1.00  0.00     0.019 C 
ATOM     73  C   UNL A   1      31.778  27.659  22.401  1.00  0.00     0.135 C 
ATOM     74  C   UNL A   1      30.569  26.531  24.737  1.00  0.00     0.022 C 
ATOM     75  N   UNL A   1      31.858  26.227  22.673  1.00  0.00    -0.338 N 
ATOM     76  C   UNL A   1      30.742  25.713  23.454  1.00  0.00     0.120 C 
BRANCH  75  77
ATOM     77  C   UNL A   1      32.968  25.536  22.213  1.00  0.00     0.246 C 
ATOM     78  O   UNL A   1      33.447  25.702  21.089  1.00  0.00    -0.270 OA
BRANCH  77  79
ATOM     79  C   UNL A   1      33.757  24.640  23.084  1.00  0.00     0.072 C 
ATOM     80  C   UNL A   1      34.067  23.359  22.856  1.00  0.00     0.018 C 
BRANCH  80  81
ATOM     81  C   UNL A   1      34.947  22.526  23.709  1.00  0.00     0.029 A 
ATOM     82  C   UNL A   1      36.351  22.567  23.641  1.00  0.00     0.131 A 
ATOM     83  C   UNL A   1      34.388  21.589  24.599  1.00  0.00     0.051 A 
ATOM     84  F   UNL A   1      36.985  23.470  22.878  1.00  0.00    -0.206 F 
ATOM     85  C   UNL A   1      37.158  21.687  24.365  1.00  0.00     0.040 A 
ATOM     86  C   UNL A   1      35.189  20.664  25.286  1.00  0.00     0.021 A 
ATOM     87  Cl  UNL A   1      32.699  21.615  24.982  1.00  0.00    -0.084 Cl
ATOM     88  C   UNL A   1      36.577  20.709  25.163  1.00  0.00     0.005 A 
ENDBRANCH  80  81
ENDBRANCH  77  79
ENDBRANCH  75  77
ENDBRANCH  69  71
ENDBRANCH  68  69
ENDBRANCH  67  68
ENDBRANCH   1  67
TORSDOF 17
ENDMDL
MODEL 3
REMARK VINA RESULT:     -10.5      2.913      8.192
REMARK SMILES O=C(OCCOC(=O)[C@@H]1CCCN(C(=O)/C=C/c2c(F)cccc2Cl)C1)c1ccc(-c2c3nc(c(-c4ccc(S(=O)(=O)[O-])cc4)c4ccc([nH]4)c(-c4ccc(S(=O)(=O)[O-])cc4)c4nc(c(-c5ccc(S(=O)(=O)[O-])cc5)c5ccc2[nH]5)C=C4)C=C3)cc1
REMARK SMILES IDX 4 1 3 2 2 3 1 4 27 5 28 6 86 7 29 8 85 9 30 10 31 11 32 12
REMARK SMILES IDX 79 13 33 14 84 15 78 16 80 17 34 18 83 19 77 20 76 21 35 23
REMARK SMILES IDX 65 24 46 25 64 26 47 27 50 28 63 29 81 30 48 31 49 32 62 34
REMARK SMILES IDX 82 35 51 36 36 37 37 38 45 39 38 40 44 41 39 42 40 43 41 44
REMARK SMILES IDX 42 45 43 46 66 47 67 48 75 49 68 50 74 51 69 52 70 53 71 54
REMARK SMILES IDX 72 55 73 56 52 57 53 58 61 59 54 60 60 61 55 62 56 63 57 64
REMARK SMILES IDX 58 65 59 66 5 67 6 68 7 69 8 70 9 71 10 72 26 73 11 74 13 75
REMARK SMILES IDX 12 76 14 77 15 78 16 79 17 80 18 81 19 82 24 83 20 84 21 85
REMARK SMILES IDX 23 86 25 87 22 88
REMARK H PARENT 80 22 50 33
REMARK Flexibility Score: inf
ROOT
ATOM      1  C   UNL A   1      32.767  28.891  27.584  1.00  0.00     0.275 C 
ENDROOT
BRANCH   1   2
ATOM      2  O   UNL A   1      34.011  29.564  27.270  1.00  0.00    -0.458 OA
BRANCH   2   3
ATOM      3  C   UNL A   1      34.907  30.248  28.028  1.00  0.00     0.338 C 
ATOM      4  O   UNL A   1      34.543  31.319  28.519  1.00  0.00    -0.246 OA
BRANCH   3   5
ATOM      5  C   UNL A   1      36.342  29.863  28.240  1.00  0.00     0.060 A 
ATOM      6  C   UNL A   1      37.337  29.898  27.271  1.00  0.00     0.016 A 
ATOM      7  C   UNL A   1      36.721  29.424  29.534  1.00  0.00     0.016 A 
ATOM      8  C   UNL A   1      38.682  29.677  27.621  1.00  0.00     0.010 A 
ATOM      9  C   UNL A   1      38.069  29.177  29.881  1.00  0.00     0.010 A 
ATOM     10  C   UNL A   1      39.080  29.366  28.935  1.00  0.00    -0.014 A 
BRANCH  10  11
ATOM     11  C   UNL A   1      40.535  29.099  29.172  1.00  0.00     0.031 A 
ATOM     12  C   UNL A   1      41.047  27.779  28.693  1.00  0.00     0.074 A 
ATOM     13  C   UNL A   1      41.416  30.005  29.654  1.00  0.00     0.049 A 
ATOM     14  N   UNL A   1      42.277  27.382  28.517  1.00  0.00    -0.248 NA
ATOM     15  C   UNL A   1      40.022  26.766  28.387  1.00  0.00     0.031 C 
ATOM     16  C   UNL A   1      41.066  31.276  30.257  1.00  0.00     0.029 A 
ATOM     17  N   UNL A   1      42.796  30.030  29.682  1.00  0.00    -0.354 N 
ATOM     18  C   UNL A   1      42.176  26.070  28.083  1.00  0.00     0.074 A 
ATOM     19  C   UNL A   1      40.768  25.745  28.005  1.00  0.00     0.031 C 
ATOM     20  C   UNL A   1      42.161  32.029  30.443  1.00  0.00     0.029 A 
ATOM     21  C   UNL A   1      43.331  31.252  30.064  1.00  0.00     0.049 A 
ATOM     22  H   UNL A   1      43.352  29.250  29.451  1.00  0.00     0.167 HD
ATOM     23  C   UNL A   1      43.170  25.194  27.820  1.00  0.00     0.031 A 
ATOM     24  C   UNL A   1      44.610  31.688  30.116  1.00  0.00     0.031 A 
ATOM     25  C   UNL A   1      44.560  25.476  28.021  1.00  0.00     0.049 A 
ATOM     26  C   UNL A   1      45.695  30.681  29.818  1.00  0.00     0.074 A 
ATOM     27  C   UNL A   1      45.639  24.622  27.888  1.00  0.00     0.029 A 
ATOM     28  N   UNL A   1      45.062  26.701  28.437  1.00  0.00    -0.354 N 
ATOM     29  N   UNL A   1      45.580  29.454  29.369  1.00  0.00    -0.248 NA
ATOM     30  C   UNL A   1      47.081  31.099  30.079  1.00  0.00     0.031 C 
ATOM     31  C   UNL A   1      46.789  25.314  28.279  1.00  0.00     0.029 A 
ATOM     32  C   UNL A   1      46.435  26.621  28.581  1.00  0.00     0.049 A 
ATOM     33  H   UNL A   1      44.522  27.506  28.604  1.00  0.00     0.167 HD
ATOM     34  C   UNL A   1      46.875  28.956  29.296  1.00  0.00     0.074 A 
ATOM     35  C   UNL A   1      47.761  30.030  29.690  1.00  0.00     0.031 C 
ATOM     36  C   UNL A   1      47.294  27.713  28.962  1.00  0.00     0.031 A 
BRANCH  23  37
ATOM     37  C   UNL A   1      42.733  23.816  27.423  1.00  0.00    -0.014 A 
ATOM     38  C   UNL A   1      42.459  22.832  28.389  1.00  0.00     0.010 A 
ATOM     39  C   UNL A   1      42.700  23.479  26.059  1.00  0.00     0.010 A 
ATOM     40  C   UNL A   1      42.218  21.515  27.997  1.00  0.00     0.020 A 
ATOM     41  C   UNL A   1      42.431  22.170  25.663  1.00  0.00     0.020 A 
ATOM     42  C   UNL A   1      42.216  21.191  26.636  1.00  0.00     0.054 A 
BRANCH  42  43
ATOM     43  S   UNL A   1      41.931  19.469  26.153  1.00  0.00     0.124 S 
ATOM     44  O   UNL A   1      42.339  18.747  27.356  1.00  0.00    -0.237 OA
ATOM     45  O   UNL A   1      40.500  19.451  25.865  1.00  0.00    -0.237 OA
ATOM     46  O   UNL A   1      42.799  19.286  24.993  1.00  0.00    -0.744 OA
ENDBRANCH  42  43
ENDBRANCH  23  37
BRANCH  24  47
ATOM     47  C   UNL A   1      44.990  33.095  30.492  1.00  0.00    -0.014 A 
ATOM     48  C   UNL A   1      44.952  33.506  31.842  1.00  0.00     0.010 A 
ATOM     49  C   UNL A   1      45.298  34.064  29.519  1.00  0.00     0.010 A 
ATOM     50  C   UNL A   1      45.174  34.843  32.202  1.00  0.00     0.020 A 
ATOM     51  C   UNL A   1      45.581  35.391  29.879  1.00  0.00     0.020 A 
ATOM     52  C   UNL A   1      45.501  35.777  31.218  1.00  0.00     0.054 A 
BRANCH  52  53
ATOM     53  S   UNL A   1      45.899  37.480  31.717  1.00  0.00     0.124 S 
ATOM     54  O   UNL A   1      46.809  37.903  30.656  1.00  0.00    -0.237 OA
ATOM     55  O   UNL A   1      44.591  38.131  31.717  1.00  0.00    -0.237 OA
ATOM     56  O   UNL A   1      46.508  37.315  33.035  1.00  0.00    -0.744 OA
ENDBRANCH  52  53
ENDBRANCH  24  47
BRANCH  36  57
ATOM     57  C   UNL A   1      48.777  27.462  28.962  1.00  0.00    -0.014 A 
ATOM     58  C   UNL A   1      49.569  27.733  27.833  1.00  0.00     0.010 A 
ATOM     59  C   UNL A   1      49.389  26.999  30.139  1.00  0.00     0.010 A 
ATOM     60  C   UNL A   1      50.947  27.510  27.871  1.00  0.00     0.020 A 
ATOM     61  C   UNL A   1      50.770  26.806  30.192  1.00  0.00     0.020 A 
ATOM     62  C   UNL A   1      51.539  27.050  29.053  1.00  0.00     0.054 A 
BRANCH  62  63
ATOM     63  S   UNL A   1      53.335  26.811  29.096  1.00  0.00     0.124 S 
ATOM     64  O   UNL A   1      53.554  25.948  27.939  1.00  0.00    -0.237 OA
ATOM     65  O   UNL A   1      53.842  28.176  28.970  1.00  0.00    -0.237 OA
ATOM     66  O   UNL A   1      53.569  26.184  30.395  1.00  0.00    -0.744 OA
ENDBRANCH  62  63
ENDBRANCH  36  57
ENDBRANCH  10  11
ENDBRANCH   3   5
ENDBRANCH   2   3
ENDBRANCH   1   2
BRANCH   1  67
ATOM     67  C   UNL A   1      32.304  27.908  26.514  1.00  0.00     0.274 C 
BRANCH  67  68
ATOM     68  O   UNL A   1      33.133  26.752  26.530  1.00  0.00    -0.462 OA
BRANCH  68  69
ATOM     69  C   UNL A   1      33.788  26.409  25.397  1.00  0.00     0.310 C 
ATOM     70  O   UNL A   1      34.159  27.198  24.532  1.00  0.00    -0.252 OA
BRANCH  69  71
ATOM     71  C   UNL A   1      34.101  24.929  25.371  1.00  0.00     0.119 C 
ATOM     72  C   UNL A   1      34.394  24.392  23.970  1.00  0.00     0.019 C 
ATOM     73  C   UNL A   1      33.007  24.076  25.987  1.00  0.00     0.135 C 
ATOM     74  C   UNL A   1      33.118  24.245  23.133  1.00  0.00     0.022 C 
ATOM     75  N   UNL A   1      31.795  23.978  25.179  1.00  0.00    -0.338 N 
ATOM     76  C   UNL A   1      32.020  23.449  23.842  1.00  0.00     0.120 C 
BRANCH  75  77
ATOM     77  C   UNL A   1      30.605  24.422  25.733  1.00  0.00     0.246 C 
ATOM     78  O   UNL A   1      30.088  23.902  26.725  1.00  0.00    -0.270 OA
BRANCH  77  79
ATOM     79  C   UNL A   1      29.924  25.647  25.265  1.00  0.00     0.072 C 
ATOM     80  C   UNL A   1      30.012  26.206  24.053  1.00  0.00     0.018 C 
BRANCH  80  81
ATOM     81  C   UNL A   1      29.233  27.381  23.593  1.00  0.00     0.029 A 
ATOM     82  C   UNL A   1      27.836  27.479  23.724  1.00  0.00     0.131 A 
ATOM     83  C   UNL A   1      29.879  28.442  22.932  1.00  0.00     0.051 A 
ATOM     84  F   UNL A   1      27.134  26.556  24.399  1.00  0.00    -0.206 F 
ATOM     85  C   UNL A   1      27.110  28.538  23.176  1.00  0.00     0.040 A 
ATOM     86  C   UNL A   1      29.150  29.479  22.329  1.00  0.00     0.021 A 
ATOM     87  Cl  UNL A   1      31.605  28.584  22.938  1.00  0.00    -0.084 Cl
ATOM     88  C   UNL A   1      27.762  29.523  22.444  1.00  0.00     0.005 A 
ENDBRANCH  80  81
ENDBRANCH  77  79
ENDBRANCH  75  77
ENDBRANCH  69  71
ENDBRANCH  68  69
ENDBRANCH  67  68
ENDBRANCH   1  67
TORSDOF 17
ENDMDL
