MODEL 1
REMARK VINA RESULT:     -10.1      0.000      0.000
REMARK SMILES C[NH2+][C@]1(C(=O)OCCOC(=O)c2ccc(-c3c4nc(c(-c5ccc(S(=O)(=O)[O-])cc5)c5ccc([nH]5)c(-c5ccc(S(=O)(=O)[O-])cc5)c5nc(c(-c6ccc(S(=O)(=O)[O-])cc6)c6ccc3[nH]6)C=C5)C=C4)cc2)CCC[C@@H](Sc2nccs2)C1
REMARK SMILES IDX 8 1 7 2 6 3 4 4 5 5 3 6 72 7 82 8 73 9 75 10 74 11 2 12 1 13
REMARK SMILES IDX 76 16 77 17 78 18 81 19 79 20 80 21 9 22 10 23 11 24 12 25
REMARK SMILES IDX 13 26 71 27 14 28 70 29 15 30 16 31 17 32 64 33 18 34 69 35
REMARK SMILES IDX 63 36 65 37 19 38 68 39 62 40 61 41 20 43 50 44 31 45 49 46
REMARK SMILES IDX 32 47 35 48 48 49 66 50 33 51 34 52 47 54 67 55 36 56 21 57
REMARK SMILES IDX 22 58 30 59 23 60 29 61 24 62 25 63 26 64 27 65 28 66 51 67
REMARK SMILES IDX 52 68 60 69 53 70 59 71 54 72 55 73 56 74 57 75 58 76 37 77
REMARK SMILES IDX 38 78 46 79 39 80 45 81 40 82 41 83 42 84 43 85 44 86
REMARK H PARENT 2 14 2 15 65 42 35 53
REMARK Flexibility Score: inf
ROOT
ATOM      1  C   UNL A   1      38.966  19.898  25.663  1.00  0.00     0.275 C 
ENDROOT
BRANCH   1   2
ATOM      2  C   UNL A   1      38.249  21.190  25.278  1.00  0.00     0.274 C 
BRANCH   2   3
ATOM      3  O   UNL A   1      36.819  21.016  25.343  1.00  0.00    -0.457 OA
BRANCH   3   4
ATOM      4  C   UNL A   1      36.101  22.110  25.722  1.00  0.00     0.368 C 
ATOM      5  O   UNL A   1      36.596  23.172  26.091  1.00  0.00    -0.245 OA
BRANCH   4   6
ATOM      6  C   UNL A   1      34.554  21.871  25.661  1.00  0.00     0.195 C 
ATOM      7  C   UNL A   1      33.825  23.183  25.268  1.00  0.00     0.081 C 
ATOM      8  C   UNL A   1      34.329  20.802  24.570  1.00  0.00     0.096 C 
ATOM      9  C   UNL A   1      32.361  23.014  24.855  1.00  0.00     0.008 C 
ATOM     10  C   UNL A   1      32.839  20.589  24.285  1.00  0.00     0.061 C 
ATOM     11  C   UNL A   1      32.164  21.891  23.839  1.00  0.00     0.015 C 
BRANCH   6  12
ATOM     12  N   UNL A   1      34.158  21.222  26.947  1.00  0.00    -0.335 N 
ATOM     13  C   UNL A   1      33.533  22.005  27.991  1.00  0.00     0.331 C 
ATOM     14  H   UNL A   1      33.508  20.473  26.711  1.00  0.00     0.347 HD
ATOM     15  H   UNL A   1      35.053  20.954  27.358  1.00  0.00     0.347 HD
ENDBRANCH   6  12
BRANCH  10  16
ATOM     16  S   UNL A   1      32.537  19.208  23.118  1.00  0.00    -0.092 SA
BRANCH  16  17
ATOM     17  C   UNL A   1      32.848  17.802  24.103  1.00  0.00     0.150 A 
ATOM     18  N   UNL A   1      32.147  17.538  25.182  1.00  0.00    -0.238 NA
ATOM     19  S   UNL A   1      34.082  16.672  23.723  1.00  0.00    -0.116 S 
ATOM     20  C   UNL A   1      32.624  16.388  25.776  1.00  0.00     0.124 A 
ATOM     21  C   UNL A   1      33.679  15.781  25.130  1.00  0.00     0.087 A 
ENDBRANCH  16  17
ENDBRANCH  10  16
ENDBRANCH   4   6
ENDBRANCH   3   4
ENDBRANCH   2   3
ENDBRANCH   1   2
BRANCH   1  22
ATOM     22  O   UNL A   1      39.991  20.191  26.626  1.00  0.00    -0.458 OA
BRANCH  22  23
ATOM     23  C   UNL A   1      41.264  19.978  26.227  1.00  0.00     0.338 C 
ATOM     24  O   UNL A   1      41.729  18.963  25.733  1.00  0.00    -0.246 OA
BRANCH  23  25
ATOM     25  C   UNL A   1      42.053  21.196  26.473  1.00  0.00     0.060 A 
ATOM     26  C   UNL A   1      42.498  21.481  27.765  1.00  0.00     0.016 A 
ATOM     27  C   UNL A   1      42.275  22.104  25.440  1.00  0.00     0.016 A 
ATOM     28  C   UNL A   1      43.121  22.695  28.041  1.00  0.00     0.010 A 
ATOM     29  C   UNL A   1      42.961  23.293  25.705  1.00  0.00     0.010 A 
ATOM     30  C   UNL A   1      43.366  23.614  27.013  1.00  0.00    -0.014 A 
BRANCH  30  31
ATOM     31  C   UNL A   1      43.985  24.932  27.316  1.00  0.00     0.031 A 
ATOM     32  C   UNL A   1      43.130  26.057  27.835  1.00  0.00     0.074 A 
ATOM     33  C   UNL A   1      45.308  25.125  27.145  1.00  0.00     0.049 A 
ATOM     34  N   UNL A   1      43.432  27.320  27.992  1.00  0.00    -0.248 NA
ATOM     35  C   UNL A   1      41.749  25.717  28.217  1.00  0.00     0.031 C 
ATOM     36  C   UNL A   1      46.267  24.109  26.708  1.00  0.00     0.029 A 
ATOM     37  N   UNL A   1      46.076  26.248  27.330  1.00  0.00    -0.354 N 
ATOM     38  C   UNL A   1      42.266  27.936  28.432  1.00  0.00     0.074 A 
ATOM     39  C   UNL A   1      41.253  26.906  28.525  1.00  0.00     0.031 C 
ATOM     40  C   UNL A   1      47.497  24.647  26.684  1.00  0.00     0.029 A 
ATOM     41  C   UNL A   1      47.405  26.061  27.031  1.00  0.00     0.049 A 
ATOM     42  H   UNL A   1      45.710  27.106  27.644  1.00  0.00     0.167 HD
ATOM     43  C   UNL A   1      42.057  29.242  28.724  1.00  0.00     0.031 A 
ATOM     44  C   UNL A   1      48.430  26.935  27.002  1.00  0.00     0.031 A 
ATOM     45  C   UNL A   1      43.074  30.257  28.668  1.00  0.00     0.049 A 
ATOM     46  C   UNL A   1      48.172  28.383  27.313  1.00  0.00     0.074 A 
ATOM     47  C   UNL A   1      42.957  31.610  28.933  1.00  0.00     0.029 A 
ATOM     48  N   UNL A   1      44.401  30.027  28.342  1.00  0.00    -0.354 N 
ATOM     49  N   UNL A   1      47.046  28.963  27.651  1.00  0.00    -0.248 NA
ATOM     50  C   UNL A   1      49.320  29.296  27.218  1.00  0.00     0.031 C 
ATOM     51  C   UNL A   1      44.211  32.203  28.743  1.00  0.00     0.029 A 
ATOM     52  C   UNL A   1      45.115  31.212  28.396  1.00  0.00     0.049 A 
ATOM     53  H   UNL A   1      44.781  29.148  28.107  1.00  0.00     0.167 HD
ATOM     54  C   UNL A   1      47.349  30.310  27.812  1.00  0.00     0.074 A 
ATOM     55  C   UNL A   1      48.768  30.454  27.557  1.00  0.00     0.031 C 
ATOM     56  C   UNL A   1      46.525  31.336  28.134  1.00  0.00     0.031 A 
BRANCH  43  57
ATOM     57  C   UNL A   1      40.654  29.652  29.082  1.00  0.00    -0.014 A 
ATOM     58  C   UNL A   1      40.312  30.028  30.393  1.00  0.00     0.010 A 
ATOM     59  C   UNL A   1      39.667  29.673  28.081  1.00  0.00     0.010 A 
ATOM     60  C   UNL A   1      38.995  30.378  30.703  1.00  0.00     0.020 A 
ATOM     61  C   UNL A   1      38.354  30.043  28.384  1.00  0.00     0.020 A 
ATOM     62  C   UNL A   1      38.022  30.374  29.698  1.00  0.00     0.054 A 
BRANCH  62  63
ATOM     63  S   UNL A   1      36.319  30.836  30.121  1.00  0.00     0.124 S 
ATOM     64  O   UNL A   1      36.493  32.196  30.626  1.00  0.00    -0.237 OA
ATOM     65  O   UNL A   1      35.626  30.728  28.840  1.00  0.00    -0.237 OA
ATOM     66  O   UNL A   1      35.930  29.844  31.121  1.00  0.00    -0.744 OA
ENDBRANCH  62  63
ENDBRANCH  43  57
BRANCH  44  67
ATOM     67  C   UNL A   1      49.787  26.467  26.611  1.00  0.00    -0.014 A 
ATOM     68  C   UNL A   1      50.709  26.056  27.589  1.00  0.00     0.010 A 
ATOM     69  C   UNL A   1      50.151  26.406  25.254  1.00  0.00     0.010 A 
ATOM     70  C   UNL A   1      51.975  25.593  27.216  1.00  0.00     0.020 A 
ATOM     71  C   UNL A   1      51.406  25.921  24.877  1.00  0.00     0.020 A 
ATOM     72  C   UNL A   1      52.313  25.526  25.862  1.00  0.00     0.054 A 
BRANCH  72  73
ATOM     73  S   UNL A   1      53.931  24.851  25.388  1.00  0.00     0.124 S 
ATOM     74  O   UNL A   1      53.584  23.496  24.974  1.00  0.00    -0.237 OA
ATOM     75  O   UNL A   1      54.354  25.752  24.318  1.00  0.00    -0.237 OA
ATOM     76  O   UNL A   1      54.713  24.953  26.619  1.00  0.00    -0.744 OA
ENDBRANCH  72  73
ENDBRANCH  44  67
BRANCH  56  77
ATOM     77  C   UNL A   1      47.142  32.702  28.245  1.00  0.00    -0.014 A 
ATOM     78  C   UNL A   1      47.686  33.150  29.461  1.00  0.00     0.010 A 
ATOM     79  C   UNL A   1      47.218  33.527  27.109  1.00  0.00     0.010 A 
ATOM     80  C   UNL A   1      48.274  34.415  29.545  1.00  0.00     0.020 A 
ATOM     81  C   UNL A   1      47.822  34.785  27.185  1.00  0.00     0.020 A 
ATOM     82  C   UNL A   1      48.334  35.226  28.407  1.00  0.00     0.054 A 
BRANCH  82  83
ATOM     83  S   UNL A   1      49.136  36.848  28.527  1.00  0.00     0.124 S 
ATOM     84  O   UNL A   1      49.049  37.126  29.957  1.00  0.00    -0.237 OA
ATOM     85  O   UNL A   1      50.480  36.584  28.019  1.00  0.00    -0.237 OA
ATOM     86  O   UNL A   1      48.313  37.704  27.674  1.00  0.00    -0.744 OA
ENDBRANCH  82  83
ENDBRANCH  56  77
ENDBRANCH  30  31
ENDBRANCH  23  25
ENDBRANCH  22  23
ENDBRANCH   1  22
TORSDOF 17
ENDMDL
MODEL 2
REMARK VINA RESULT:     -10.1      2.712      8.658
REMARK SMILES C[NH2+][C@]1(C(=O)OCCOC(=O)c2ccc(-c3c4nc(c(-c5ccc(S(=O)(=O)[O-])cc5)c5ccc([nH]5)c(-c5ccc(S(=O)(=O)[O-])cc5)c5nc(c(-c6ccc(S(=O)(=O)[O-])cc6)c6ccc3[nH]6)C=C5)C=C4)cc2)CCC[C@@H](Sc2nccs2)C1
REMARK SMILES IDX 8 1 7 2 6 3 4 4 5 5 3 6 72 7 82 8 73 9 75 10 74 11 2 12 1 13
REMARK SMILES IDX 76 16 77 17 78 18 81 19 79 20 80 21 9 22 10 23 11 24 12 25
REMARK SMILES IDX 13 26 71 27 14 28 70 29 15 30 16 31 17 32 64 33 18 34 69 35
REMARK SMILES IDX 63 36 65 37 19 38 68 39 62 40 61 41 20 43 50 44 31 45 49 46
REMARK SMILES IDX 32 47 35 48 48 49 66 50 33 51 34 52 47 54 67 55 36 56 21 57
REMARK SMILES IDX 22 58 30 59 23 60 29 61 24 62 25 63 26 64 27 65 28 66 51 67
REMARK SMILES IDX 52 68 60 69 53 70 59 71 54 72 55 73 56 74 57 75 58 76 37 77
REMARK SMILES IDX 38 78 46 79 39 80 45 81 40 82 41 83 42 84 43 85 44 86
REMARK H PARENT 2 14 2 15 65 42 35 53
REMARK Flexibility Score: inf
ROOT
ATOM      1  C   UNL A   1      34.760  31.518  27.631  1.00  0.00     0.275 C 
ENDROOT
BRANCH   1   2
ATOM      2  C   UNL A   1      33.252  31.282  27.575  1.00  0.00     0.274 C 
BRANCH   2   3
ATOM      3  O   UNL A   1      32.956  30.044  26.898  1.00  0.00    -0.457 OA
BRANCH   3   4
ATOM      4  C   UNL A   1      32.033  30.116  25.897  1.00  0.00     0.368 C 
ATOM      5  O   UNL A   1      31.240  31.042  25.751  1.00  0.00    -0.245 OA
BRANCH   4   6
ATOM      6  C   UNL A   1      32.068  28.871  24.948  1.00  0.00     0.195 C 
ATOM      7  C   UNL A   1      33.297  28.952  24.006  1.00  0.00     0.081 C 
ATOM      8  C   UNL A   1      32.197  27.636  25.868  1.00  0.00     0.096 C 
ATOM      9  C   UNL A   1      33.634  27.656  23.264  1.00  0.00     0.008 C 
ATOM     10  C   UNL A   1      32.410  26.351  25.062  1.00  0.00     0.061 C 
ATOM     11  C   UNL A   1      33.668  26.442  24.189  1.00  0.00     0.015 C 
BRANCH   6  12
ATOM     12  N   UNL A   1      30.720  28.762  24.315  1.00  0.00    -0.335 N 
ATOM     13  C   UNL A   1      30.554  29.060  22.909  1.00  0.00     0.331 C 
ATOM     14  H   UNL A   1      30.408  27.801  24.451  1.00  0.00     0.347 HD
ATOM     15  H   UNL A   1      30.185  29.498  24.776  1.00  0.00     0.347 HD
ENDBRANCH   6  12
BRANCH  10  16
ATOM     16  S   UNL A   1      32.396  24.851  26.116  1.00  0.00    -0.092 SA
BRANCH  16  17
ATOM     17  C   UNL A   1      32.477  23.561  24.943  1.00  0.00     0.150 A 
ATOM     18  N   UNL A   1      33.388  22.617  25.007  1.00  0.00    -0.238 NA
ATOM     19  S   UNL A   1      31.370  23.439  23.638  1.00  0.00    -0.116 S 
ATOM     20  C   UNL A   1      33.234  21.750  23.945  1.00  0.00     0.124 A 
ATOM     21  C   UNL A   1      32.194  22.041  23.089  1.00  0.00     0.087 A 
ENDBRANCH  16  17
ENDBRANCH  10  16
ENDBRANCH   4   6
ENDBRANCH   3   4
ENDBRANCH   2   3
ENDBRANCH   1   2
BRANCH   1  22
ATOM     22  O   UNL A   1      35.397  30.377  28.227  1.00  0.00    -0.458 OA
BRANCH  22  23
ATOM     23  C   UNL A   1      36.188  30.625  29.294  1.00  0.00     0.338 C 
ATOM     24  O   UNL A   1      35.898  31.243  30.307  1.00  0.00    -0.246 OA
BRANCH  23  25
ATOM     25  C   UNL A   1      37.508  30.015  29.064  1.00  0.00     0.060 A 
ATOM     26  C   UNL A   1      38.317  29.690  30.153  1.00  0.00     0.016 A 
ATOM     27  C   UNL A   1      37.981  29.849  27.765  1.00  0.00     0.016 A 
ATOM     28  C   UNL A   1      39.621  29.245  29.951  1.00  0.00     0.010 A 
ATOM     29  C   UNL A   1      39.267  29.338  27.562  1.00  0.00     0.010 A 
ATOM     30  C   UNL A   1      40.111  29.058  28.652  1.00  0.00    -0.014 A 
BRANCH  30  31
ATOM     31  C   UNL A   1      41.519  28.633  28.434  1.00  0.00     0.031 A 
ATOM     32  C   UNL A   1      42.632  29.637  28.567  1.00  0.00     0.074 A 
ATOM     33  C   UNL A   1      41.811  27.351  28.135  1.00  0.00     0.049 A 
ATOM     34  N   UNL A   1      43.895  29.519  28.251  1.00  0.00    -0.248 NA
ATOM     35  C   UNL A   1      42.272  30.954  29.120  1.00  0.00     0.031 C 
ATOM     36  C   UNL A   1      40.842  26.258  28.034  1.00  0.00     0.029 A 
ATOM     37  N   UNL A   1      43.016  26.751  27.867  1.00  0.00    -0.354 N 
ATOM     38  C   UNL A   1      44.468  30.759  28.507  1.00  0.00     0.074 A 
ATOM     39  C   UNL A   1      43.416  31.614  29.014  1.00  0.00     0.031 C 
ATOM     40  C   UNL A   1      41.493  25.118  27.754  1.00  0.00     0.029 A 
ATOM     41  C   UNL A   1      42.912  25.410  27.583  1.00  0.00     0.049 A 
ATOM     42  H   UNL A   1      43.874  27.235  27.877  1.00  0.00     0.167 HD
ATOM     43  C   UNL A   1      45.752  31.151  28.329  1.00  0.00     0.031 A 
ATOM     44  C   UNL A   1      43.845  24.520  27.190  1.00  0.00     0.031 A 
ATOM     45  C   UNL A   1      46.805  30.290  27.862  1.00  0.00     0.049 A 
ATOM     46  C   UNL A   1      45.260  24.982  26.982  1.00  0.00     0.074 A 
ATOM     47  C   UNL A   1      48.135  30.597  27.636  1.00  0.00     0.029 A 
ATOM     48  N   UNL A   1      46.650  28.944  27.567  1.00  0.00    -0.354 N 
ATOM     49  N   UNL A   1      45.769  26.178  27.154  1.00  0.00    -0.248 NA
ATOM     50  C   UNL A   1      46.222  23.976  26.508  1.00  0.00     0.031 C 
ATOM     51  C   UNL A   1      48.781  29.442  27.181  1.00  0.00     0.029 A 
ATOM     52  C   UNL A   1      47.859  28.407  27.159  1.00  0.00     0.049 A 
ATOM     53  H   UNL A   1      45.805  28.444  27.637  1.00  0.00     0.167 HD
ATOM     54  C   UNL A   1      47.112  26.069  26.811  1.00  0.00     0.074 A 
ATOM     55  C   UNL A   1      47.341  24.686  26.444  1.00  0.00     0.031 C 
ATOM     56  C   UNL A   1      48.066  27.030  26.793  1.00  0.00     0.031 A 
BRANCH  43  57
ATOM     57  C   UNL A   1      46.074  32.596  28.594  1.00  0.00    -0.014 A 
ATOM     58  C   UNL A   1      45.917  33.578  27.600  1.00  0.00     0.010 A 
ATOM     59  C   UNL A   1      46.531  32.977  29.869  1.00  0.00     0.010 A 
ATOM     60  C   UNL A   1      46.250  34.909  27.866  1.00  0.00     0.020 A 
ATOM     61  C   UNL A   1      46.845  34.310  30.145  1.00  0.00     0.020 A 
ATOM     62  C   UNL A   1      46.721  35.265  29.134  1.00  0.00     0.054 A 
BRANCH  62  63
ATOM     63  S   UNL A   1      47.144  36.999  29.460  1.00  0.00     0.124 S 
ATOM     64  O   UNL A   1      45.878  37.674  29.186  1.00  0.00    -0.237 OA
ATOM     65  O   UNL A   1      47.551  36.975  30.863  1.00  0.00    -0.237 OA
ATOM     66  O   UNL A   1      48.218  37.277  28.510  1.00  0.00    -0.744 OA
ENDBRANCH  62  63
ENDBRANCH  43  57
BRANCH  44  67
ATOM     67  C   UNL A   1      43.452  23.112  26.917  1.00  0.00    -0.014 A 
ATOM     68  C   UNL A   1      43.642  22.551  25.642  1.00  0.00     0.010 A 
ATOM     69  C   UNL A   1      42.910  22.317  27.943  1.00  0.00     0.010 A 
ATOM     70  C   UNL A   1      43.295  21.219  25.398  1.00  0.00     0.020 A 
ATOM     71  C   UNL A   1      42.585  20.979  27.708  1.00  0.00     0.020 A 
ATOM     72  C   UNL A   1      42.771  20.441  26.434  1.00  0.00     0.054 A 
BRANCH  72  73
ATOM     73  S   UNL A   1      42.396  18.691  26.123  1.00  0.00     0.124 S 
ATOM     74  O   UNL A   1      42.688  18.085  27.418  1.00  0.00    -0.237 OA
ATOM     75  O   UNL A   1      40.986  18.728  25.744  1.00  0.00    -0.237 OA
ATOM     76  O   UNL A   1      43.313  18.337  25.041  1.00  0.00    -0.744 OA
ENDBRANCH  72  73
ENDBRANCH  44  67
BRANCH  56  77
ATOM     77  C   UNL A   1      49.450  26.614  26.379  1.00  0.00    -0.014 A 
ATOM     78  C   UNL A   1      50.343  26.053  27.310  1.00  0.00     0.010 A 
ATOM     79  C   UNL A   1      49.845  26.744  25.037  1.00  0.00     0.010 A 
ATOM     80  C   UNL A   1      51.619  25.653  26.907  1.00  0.00     0.020 A 
ATOM     81  C   UNL A   1      51.114  26.328  24.627  1.00  0.00     0.020 A 
ATOM     82  C   UNL A   1      51.999  25.797  25.569  1.00  0.00     0.054 A 
BRANCH  82  83
ATOM     83  S   UNL A   1      53.646  25.236  25.058  1.00  0.00     0.124 S 
ATOM     84  O   UNL A   1      53.710  25.700  23.676  1.00  0.00    -0.237 OA
ATOM     85  O   UNL A   1      54.529  25.926  25.994  1.00  0.00    -0.237 OA
ATOM     86  O   UNL A   1      53.583  23.785  25.227  1.00  0.00    -0.744 OA
ENDBRANCH  82  83
ENDBRANCH  56  77
ENDBRANCH  30  31
ENDBRANCH  23  25
ENDBRANCH  22  23
ENDBRANCH   1  22
TORSDOF 17
ENDMDL
MODEL 3
REMARK VINA RESULT:      -9.9      4.468     10.715
REMARK SMILES C[NH2+][C@]1(C(=O)OCCOC(=O)c2ccc(-c3c4nc(c(-c5ccc(S(=O)(=O)[O-])cc5)c5ccc([nH]5)c(-c5ccc(S(=O)(=O)[O-])cc5)c5nc(c(-c6ccc(S(=O)(=O)[O-])cc6)c6ccc3[nH]6)C=C5)C=C4)cc2)CCC[C@@H](Sc2nccs2)C1
REMARK SMILES IDX 8 1 7 2 6 3 4 4 5 5 3 6 72 7 82 8 73 9 75 10 74 11 2 12 1 13
REMARK SMILES IDX 76 16 77 17 78 18 81 19 79 20 80 21 9 22 10 23 11 24 12 25
REMARK SMILES IDX 13 26 71 27 14 28 70 29 15 30 16 31 17 32 64 33 18 34 69 35
REMARK SMILES IDX 63 36 65 37 19 38 68 39 62 40 61 41 20 43 50 44 31 45 49 46
REMARK SMILES IDX 32 47 35 48 48 49 66 50 33 51 34 52 47 54 67 55 36 56 21 57
REMARK SMILES IDX 22 58 30 59 23 60 29 61 24 62 25 63 26 64 27 65 28 66 51 67
REMARK SMILES IDX 52 68 60 69 53 70 59 71 54 72 55 73 56 74 57 75 58 76 37 77
REMARK SMILES IDX 38 78 46 79 39 80 45 81 40 82 41 83 42 84 43 85 44 86
REMARK H PARENT 2 14 2 15 65 42 35 53
REMARK Flexibility Score: inf
ROOT
ATOM      1  C   UNL A   1      34.885  30.483  27.317  1.00  0.00     0.275 C 
ENDROOT
BRANCH   1   2
ATOM      2  C   UNL A   1      33.788  31.479  27.686  1.00  0.00     0.274 C 
BRANCH   2   3
ATOM      3  O   UNL A   1      34.326  32.812  27.794  1.00  0.00    -0.457 OA
BRANCH   3   4
ATOM      4  C   UNL A   1      33.438  33.790  28.131  1.00  0.00     0.368 C 
ATOM      5  O   UNL A   1      32.331  33.928  27.618  1.00  0.00    -0.245 OA
BRANCH   4   6
ATOM      6  C   UNL A   1      33.986  34.749  29.241  1.00  0.00     0.195 C 
ATOM      7  C   UNL A   1      33.035  35.962  29.417  1.00  0.00     0.081 C 
ATOM      8  C   UNL A   1      34.019  33.921  30.544  1.00  0.00     0.096 C 
ATOM      9  C   UNL A   1      33.270  36.796  30.678  1.00  0.00     0.008 C 
ATOM     10  C   UNL A   1      34.381  34.786  31.755  1.00  0.00     0.061 C 
ATOM     11  C   UNL A   1      33.385  35.938  31.936  1.00  0.00     0.015 C 
BRANCH   6  12
ATOM     12  N   UNL A   1      35.414  35.036  28.910  1.00  0.00    -0.335 N 
ATOM     13  C   UNL A   1      36.445  34.086  29.268  1.00  0.00     0.331 C 
ATOM     14  H   UNL A   1      35.463  35.157  27.899  1.00  0.00     0.347 HD
ATOM     15  H   UNL A   1      35.630  35.846  29.490  1.00  0.00     0.347 HD
ENDBRANCH   6  12
BRANCH  10  16
ATOM     16  S   UNL A   1      34.594  33.799  33.286  1.00  0.00    -0.092 SA
BRANCH  16  17
ATOM     17  C   UNL A   1      36.325  33.815  33.511  1.00  0.00     0.150 A 
ATOM     18  N   UNL A   1      37.066  34.835  33.141  1.00  0.00    -0.238 NA
ATOM     19  S   UNL A   1      37.166  32.508  34.235  1.00  0.00    -0.116 S 
ATOM     20  C   UNL A   1      38.391  34.568  33.412  1.00  0.00     0.124 A 
ATOM     21  C   UNL A   1      38.642  33.347  34.001  1.00  0.00     0.087 A 
ENDBRANCH  16  17
ENDBRANCH  10  16
ENDBRANCH   4   6
ENDBRANCH   3   4
ENDBRANCH   2   3
ENDBRANCH   1   2
BRANCH   1  22
ATOM     22  O   UNL A   1      35.206  29.683  28.466  1.00  0.00    -0.458 OA
BRANCH  22  23
ATOM     23  C   UNL A   1      36.091  30.215  29.337  1.00  0.00     0.338 C 
ATOM     24  O   UNL A   1      35.867  31.028  30.221  1.00  0.00    -0.246 OA
BRANCH  23  25
ATOM     25  C   UNL A   1      37.424  29.654  29.068  1.00  0.00     0.060 A 
ATOM     26  C   UNL A   1      38.137  29.044  30.101  1.00  0.00     0.016 A 
ATOM     27  C   UNL A   1      38.007  29.811  27.813  1.00  0.00     0.016 A 
ATOM     28  C   UNL A   1      39.453  28.635  29.899  1.00  0.00     0.010 A 
ATOM     29  C   UNL A   1      39.304  29.339  27.593  1.00  0.00     0.010 A 
ATOM     30  C   UNL A   1      40.052  28.772  28.641  1.00  0.00    -0.014 A 
BRANCH  30  31
ATOM     31  C   UNL A   1      41.473  28.384  28.438  1.00  0.00     0.031 A 
ATOM     32  C   UNL A   1      42.559  29.413  28.599  1.00  0.00     0.074 A 
ATOM     33  C   UNL A   1      41.800  27.114  28.128  1.00  0.00     0.049 A 
ATOM     34  N   UNL A   1      43.829  29.329  28.299  1.00  0.00    -0.248 NA
ATOM     35  C   UNL A   1      42.159  30.714  29.162  1.00  0.00     0.031 C 
ATOM     36  C   UNL A   1      40.859  25.999  28.000  1.00  0.00     0.029 A 
ATOM     37  N   UNL A   1      43.023  26.545  27.870  1.00  0.00    -0.354 N 
ATOM     38  C   UNL A   1      44.368  30.579  28.579  1.00  0.00     0.074 A 
ATOM     39  C   UNL A   1      43.289  31.402  29.080  1.00  0.00     0.031 C 
ATOM     40  C   UNL A   1      41.542  24.878  27.716  1.00  0.00     0.029 A 
ATOM     41  C   UNL A   1      42.956  25.206  27.568  1.00  0.00     0.049 A 
ATOM     42  H   UNL A   1      43.868  27.049  27.898  1.00  0.00     0.167 HD
ATOM     43  C   UNL A   1      45.644  31.005  28.423  1.00  0.00     0.031 A 
ATOM     44  C   UNL A   1      43.914  24.344  27.178  1.00  0.00     0.031 A 
ATOM     45  C   UNL A   1      46.725  30.174  27.961  1.00  0.00     0.049 A 
ATOM     46  C   UNL A   1      45.322  24.842  26.995  1.00  0.00     0.074 A 
ATOM     47  C   UNL A   1      48.050  30.516  27.758  1.00  0.00     0.029 A 
ATOM     48  N   UNL A   1      46.607  28.829  27.648  1.00  0.00    -0.354 N 
ATOM     49  N   UNL A   1      45.799  26.047  27.189  1.00  0.00    -0.248 NA
ATOM     50  C   UNL A   1      46.313  23.866  26.523  1.00  0.00     0.031 C 
ATOM     51  C   UNL A   1      48.729  29.383  27.298  1.00  0.00     0.029 A 
ATOM     52  C   UNL A   1      47.834  28.326  27.251  1.00  0.00     0.049 A 
ATOM     53  H   UNL A   1      45.772  28.308  27.700  1.00  0.00     0.167 HD
ATOM     54  C   UNL A   1      47.148  25.975  26.864  1.00  0.00     0.074 A 
ATOM     55  C   UNL A   1      47.415  24.603  26.484  1.00  0.00     0.031 C 
ATOM     56  C   UNL A   1      48.079  26.959  26.871  1.00  0.00     0.031 A 
BRANCH  43  57
ATOM     57  C   UNL A   1      45.928  32.454  28.710  1.00  0.00    -0.014 A 
ATOM     58  C   UNL A   1      46.323  32.884  29.989  1.00  0.00     0.010 A 
ATOM     59  C   UNL A   1      45.808  33.397  27.674  1.00  0.00     0.010 A 
ATOM     60  C   UNL A   1      46.553  34.241  30.235  1.00  0.00     0.020 A 
ATOM     61  C   UNL A   1      46.058  34.751  27.911  1.00  0.00     0.020 A 
ATOM     62  C   UNL A   1      46.410  35.167  29.196  1.00  0.00     0.054 A 
BRANCH  62  63
ATOM     63  S   UNL A   1      46.717  36.922  29.535  1.00  0.00     0.124 S 
ATOM     64  O   UNL A   1      45.670  37.568  28.747  1.00  0.00    -0.237 OA
ATOM     65  O   UNL A   1      46.552  37.007  30.985  1.00  0.00    -0.237 OA
ATOM     66  O   UNL A   1      48.080  37.134  29.055  1.00  0.00    -0.744 OA
ENDBRANCH  62  63
ENDBRANCH  43  57
BRANCH  44  67
ATOM     67  C   UNL A   1      43.560  22.930  26.883  1.00  0.00    -0.014 A 
ATOM     68  C   UNL A   1      43.921  22.343  25.657  1.00  0.00     0.010 A 
ATOM     69  C   UNL A   1      42.881  22.156  27.841  1.00  0.00     0.010 A 
ATOM     70  C   UNL A   1      43.608  21.006  25.395  1.00  0.00     0.020 A 
ATOM     71  C   UNL A   1      42.588  20.813  27.592  1.00  0.00     0.020 A 
ATOM     72  C   UNL A   1      42.946  20.249  26.366  1.00  0.00     0.054 A 
BRANCH  72  73
ATOM     73  S   UNL A   1      42.613  18.493  26.042  1.00  0.00     0.124 S 
ATOM     74  O   UNL A   1      43.489  18.224  24.907  1.00  0.00    -0.237 OA
ATOM     75  O   UNL A   1      42.994  17.857  27.300  1.00  0.00    -0.237 OA
ATOM     76  O   UNL A   1      41.180  18.469  25.752  1.00  0.00    -0.744 OA
ENDBRANCH  72  73
ENDBRANCH  44  67
BRANCH  56  77
ATOM     77  C   UNL A   1      49.478  26.582  26.473  1.00  0.00    -0.014 A 
ATOM     78  C   UNL A   1      49.930  26.776  25.155  1.00  0.00     0.010 A 
ATOM     79  C   UNL A   1      50.364  26.071  27.437  1.00  0.00     0.010 A 
ATOM     80  C   UNL A   1      51.240  26.440  24.804  1.00  0.00     0.020 A 
ATOM     81  C   UNL A   1      51.680  25.750  27.093  1.00  0.00     0.020 A 
ATOM     82  C   UNL A   1      52.105  25.924  25.774  1.00  0.00     0.054 A 
BRANCH  82  83
ATOM     83  S   UNL A   1      53.812  25.529  25.307  1.00  0.00     0.124 S 
ATOM     84  O   UNL A   1      54.479  25.483  26.604  1.00  0.00    -0.237 OA
ATOM     85  O   UNL A   1      53.674  24.245  24.625  1.00  0.00    -0.237 OA
ATOM     86  O   UNL A   1      54.201  26.644  24.445  1.00  0.00    -0.744 OA
ENDBRANCH  82  83
ENDBRANCH  56  77
ENDBRANCH  30  31
ENDBRANCH  23  25
ENDBRANCH  22  23
ENDBRANCH   1  22
TORSDOF 17
ENDMDL
