MODEL 1
REMARK VINA RESULT:     -10.9      0.000      0.000
REMARK SMILES CC1=C2C(=O)N(C[C@H]3CCCO3)C(=O)N=C2S[C@@H]1C(=O)OCCOC(=O)c1ccc(-c2c3nc(c(-c4ccc(S(=O)(=O)[O-])cc4)c4ccc([nH]4)c(-c4ccc(S(=O)(=O)[O-])cc4)c4nc(c(-c5ccc(S(=O)(=O)[O-])cc5)c5ccc2[nH]5)C=C4)C=C3)cc1
REMARK SMILES IDX 23 1 22 2 21 3 19 4 20 5 18 6 1 7 2 8 3 9 4 10 16 11 17 12
REMARK SMILES IDX 5 13 6 14 15 15 13 16 14 17 7 18 8 19 9 20 12 21 10 22 11 23
REMARK SMILES IDX 24 24 25 25 26 26 27 27 28 28 86 29 29 30 85 31 30 32 31 33
REMARK SMILES IDX 32 34 79 35 33 36 84 37 78 38 80 39 34 40 83 41 77 42 76 43
REMARK SMILES IDX 35 45 65 46 46 47 64 48 47 49 50 50 63 51 81 52 48 53 49 54
REMARK SMILES IDX 62 56 82 57 51 58 36 59 37 60 45 61 38 62 44 63 39 64 40 65
REMARK SMILES IDX 41 66 42 67 43 68 66 69 67 70 75 71 68 72 74 73 69 74 70 75
REMARK SMILES IDX 71 76 72 77 73 78 52 79 53 80 61 81 54 82 60 83 55 84 56 85
REMARK SMILES IDX 57 86 58 87 59 88
REMARK H PARENT 80 44 50 55
REMARK Flexibility Score: inf
ROOT
ATOM      1  C   UNL A   1      32.327  29.925  27.024  1.00  0.00     0.275 C 
ENDROOT
BRANCH   1   2
ATOM      2  C   UNL A   1      31.753  30.186  25.625  1.00  0.00     0.274 C 
BRANCH   2   3
ATOM      3  O   UNL A   1      30.920  29.100  25.186  1.00  0.00    -0.461 OA
BRANCH   3   4
ATOM      4  C   UNL A   1      31.147  28.659  23.925  1.00  0.00     0.323 C 
ATOM      5  O   UNL A   1      30.783  29.258  22.916  1.00  0.00    -0.251 OA
BRANCH   4   6
ATOM      6  C   UNL A   1      31.895  27.335  23.837  1.00  0.00     0.189 C 
ATOM      7  C   UNL A   1      29.870  26.039  24.831  1.00  0.00     0.042 C 
ATOM      8  C   UNL A   1      31.344  26.313  24.796  1.00  0.00    -0.033 C 
ATOM      9  C   UNL A   1      32.270  25.631  25.480  1.00  0.00     0.073 C 
ATOM     10  C   UNL A   1      32.112  24.545  26.427  1.00  0.00     0.264 C 
ATOM     11  C   UNL A   1      33.629  25.927  25.090  1.00  0.00     0.116 C 
ATOM     12  S   UNL A   1      33.693  27.408  24.193  1.00  0.00    -0.086 SA
ATOM     13  O   UNL A   1      31.249  24.572  27.293  1.00  0.00    -0.268 OA
ATOM     14  N   UNL A   1      33.073  23.582  26.238  1.00  0.00    -0.256 N 
ATOM     15  N   UNL A   1      34.636  25.173  25.335  1.00  0.00    -0.186 NA
ATOM     16  C   UNL A   1      34.385  23.930  25.882  1.00  0.00     0.351 C 
ATOM     17  O   UNL A   1      35.308  23.133  26.035  1.00  0.00    -0.246 OA
BRANCH  14  18
ATOM     18  C   UNL A   1      32.717  22.164  26.331  1.00  0.00     0.163 C 
BRANCH  18  19
ATOM     19  C   UNL A   1      31.705  21.574  25.331  1.00  0.00     0.138 C 
ATOM     20  C   UNL A   1      31.690  22.199  23.938  1.00  0.00     0.036 C 
ATOM     21  O   UNL A   1      32.079  20.188  25.118  1.00  0.00    -0.376 OA
ATOM     22  C   UNL A   1      32.658  21.365  23.148  1.00  0.00     0.031 C 
ATOM     23  C   UNL A   1      32.461  19.998  23.749  1.00  0.00     0.160 C 
ENDBRANCH  18  19
ENDBRANCH  14  18
ENDBRANCH   4   6
ENDBRANCH   3   4
ENDBRANCH   2   3
ENDBRANCH   1   2
BRANCH   1  24
ATOM     24  O   UNL A   1      33.753  29.697  27.013  1.00  0.00    -0.458 OA
BRANCH  24  25
ATOM     25  C   UNL A   1      34.477  30.545  27.780  1.00  0.00     0.338 C 
ATOM     26  O   UNL A   1      34.082  31.569  28.314  1.00  0.00    -0.246 OA
BRANCH  25  27
ATOM     27  C   UNL A   1      35.822  30.003  28.034  1.00  0.00     0.060 A 
ATOM     28  C   UNL A   1      36.087  29.491  29.306  1.00  0.00     0.016 A 
ATOM     29  C   UNL A   1      36.842  30.105  27.088  1.00  0.00     0.016 A 
ATOM     30  C   UNL A   1      37.375  29.098  29.652  1.00  0.00     0.010 A 
ATOM     31  C   UNL A   1      38.136  29.695  27.430  1.00  0.00     0.010 A 
ATOM     32  C   UNL A   1      38.413  29.202  28.719  1.00  0.00    -0.014 A 
BRANCH  32  33
ATOM     33  C   UNL A   1      39.791  28.826  29.120  1.00  0.00     0.031 A 
ATOM     34  C   UNL A   1      40.643  29.794  29.891  1.00  0.00     0.074 A 
ATOM     35  C   UNL A   1      40.258  27.599  28.823  1.00  0.00     0.049 A 
ATOM     36  N   UNL A   1      41.889  29.673  30.272  1.00  0.00    -0.248 NA
ATOM     37  C   UNL A   1      40.012  31.063  30.285  1.00  0.00     0.031 C 
ATOM     38  C   UNL A   1      39.506  26.552  28.129  1.00  0.00     0.029 A 
ATOM     39  N   UNL A   1      41.478  27.022  29.074  1.00  0.00    -0.354 N 
ATOM     40  C   UNL A   1      42.202  30.858  30.927  1.00  0.00     0.074 A 
ATOM     41  C   UNL A   1      41.018  31.689  30.883  1.00  0.00     0.031 C 
ATOM     42  C   UNL A   1      40.275  25.457  28.019  1.00  0.00     0.029 A 
ATOM     43  C   UNL A   1      41.591  25.743  28.584  1.00  0.00     0.049 A 
ATOM     44  H   UNL A   1      42.201  27.481  29.559  1.00  0.00     0.167 HD
ATOM     45  C   UNL A   1      43.371  31.220  31.508  1.00  0.00     0.031 A 
ATOM     46  C   UNL A   1      42.644  24.904  28.565  1.00  0.00     0.031 A 
ATOM     47  C   UNL A   1      44.544  30.387  31.552  1.00  0.00     0.049 A 
ATOM     48  C   UNL A   1      43.948  25.352  29.164  1.00  0.00     0.074 A 
ATOM     49  C   UNL A   1      45.776  30.663  32.119  1.00  0.00     0.029 A 
ATOM     50  N   UNL A   1      44.632  29.115  31.007  1.00  0.00    -0.354 N 
ATOM     51  N   UNL A   1      44.233  26.484  29.762  1.00  0.00    -0.248 NA
ATOM     52  C   UNL A   1      45.073  24.410  29.082  1.00  0.00     0.031 C 
ATOM     53  C   UNL A   1      46.622  29.574  31.879  1.00  0.00     0.029 A 
ATOM     54  C   UNL A   1      45.901  28.600  31.207  1.00  0.00     0.049 A 
ATOM     55  H   UNL A   1      43.898  28.645  30.547  1.00  0.00     0.167 HD
ATOM     56  C   UNL A   1      45.566  26.385  30.139  1.00  0.00     0.074 A 
ATOM     57  C   UNL A   1      46.026  25.077  29.720  1.00  0.00     0.031 C 
ATOM     58  C   UNL A   1      46.343  27.298  30.776  1.00  0.00     0.031 A 
BRANCH  45  59
ATOM     59  C   UNL A   1      43.450  32.599  32.107  1.00  0.00    -0.014 A 
ATOM     60  C   UNL A   1      42.967  32.866  33.399  1.00  0.00     0.010 A 
ATOM     61  C   UNL A   1      44.048  33.639  31.370  1.00  0.00     0.010 A 
ATOM     62  C   UNL A   1      43.043  34.159  33.929  1.00  0.00     0.020 A 
ATOM     63  C   UNL A   1      44.148  34.926  31.905  1.00  0.00     0.020 A 
ATOM     64  C   UNL A   1      43.628  35.182  33.176  1.00  0.00     0.054 A 
BRANCH  64  65
ATOM     65  S   UNL A   1      43.727  36.846  33.889  1.00  0.00     0.124 S 
ATOM     66  O   UNL A   1      42.510  36.899  34.697  1.00  0.00    -0.237 OA
ATOM     67  O   UNL A   1      44.978  36.800  34.641  1.00  0.00    -0.237 OA
ATOM     68  O   UNL A   1      43.737  37.724  32.722  1.00  0.00    -0.744 OA
ENDBRANCH  64  65
ENDBRANCH  45  59
BRANCH  46  69
ATOM     69  C   UNL A   1      42.513  23.569  27.922  1.00  0.00    -0.014 A 
ATOM     70  C   UNL A   1      43.018  23.341  26.631  1.00  0.00     0.010 A 
ATOM     71  C   UNL A   1      41.894  22.510  28.612  1.00  0.00     0.010 A 
ATOM     72  C   UNL A   1      42.903  22.081  26.039  1.00  0.00     0.020 A 
ATOM     73  C   UNL A   1      41.800  21.241  28.034  1.00  0.00     0.020 A 
ATOM     74  C   UNL A   1      42.297  21.038  26.745  1.00  0.00     0.054 A 
BRANCH  74  75
ATOM     75  S   UNL A   1      42.216  19.391  25.986  1.00  0.00     0.124 S 
ATOM     76  O   UNL A   1      43.045  19.564  24.799  1.00  0.00    -0.237 OA
ATOM     77  O   UNL A   1      42.773  18.534  27.030  1.00  0.00    -0.237 OA
ATOM     78  O   UNL A   1      40.789  19.202  25.735  1.00  0.00    -0.744 OA
ENDBRANCH  74  75
ENDBRANCH  46  69
BRANCH  58  79
ATOM     79  C   UNL A   1      47.762  26.900  31.077  1.00  0.00    -0.014 A 
ATOM     80  C   UNL A   1      48.103  26.296  32.300  1.00  0.00     0.010 A 
ATOM     81  C   UNL A   1      48.760  27.098  30.106  1.00  0.00     0.010 A 
ATOM     82  C   UNL A   1      49.425  25.928  32.560  1.00  0.00     0.020 A 
ATOM     83  C   UNL A   1      50.078  26.709  30.353  1.00  0.00     0.020 A 
ATOM     84  C   UNL A   1      50.405  26.140  31.586  1.00  0.00     0.054 A 
BRANCH  84  85
ATOM     85  S   UNL A   1      52.110  25.624  31.931  1.00  0.00     0.124 S 
ATOM     86  O   UNL A   1      51.953  24.191  32.160  1.00  0.00    -0.237 OA
ATOM     87  O   UNL A   1      52.814  25.992  30.704  1.00  0.00    -0.237 OA
ATOM     88  O   UNL A   1      52.476  26.408  33.109  1.00  0.00    -0.744 OA
ENDBRANCH  84  85
ENDBRANCH  58  79
ENDBRANCH  32  33
ENDBRANCH  25  27
ENDBRANCH  24  25
ENDBRANCH   1  24
TORSDOF 16
ENDMDL
MODEL 2
REMARK VINA RESULT:     -10.9      4.254     10.428
REMARK SMILES CC1=C2C(=O)N(C[C@H]3CCCO3)C(=O)N=C2S[C@@H]1C(=O)OCCOC(=O)c1ccc(-c2c3nc(c(-c4ccc(S(=O)(=O)[O-])cc4)c4ccc([nH]4)c(-c4ccc(S(=O)(=O)[O-])cc4)c4nc(c(-c5ccc(S(=O)(=O)[O-])cc5)c5ccc2[nH]5)C=C4)C=C3)cc1
REMARK SMILES IDX 23 1 22 2 21 3 19 4 20 5 18 6 1 7 2 8 3 9 4 10 16 11 17 12
REMARK SMILES IDX 5 13 6 14 15 15 13 16 14 17 7 18 8 19 9 20 12 21 10 22 11 23
REMARK SMILES IDX 24 24 25 25 26 26 27 27 28 28 86 29 29 30 85 31 30 32 31 33
REMARK SMILES IDX 32 34 79 35 33 36 84 37 78 38 80 39 34 40 83 41 77 42 76 43
REMARK SMILES IDX 35 45 65 46 46 47 64 48 47 49 50 50 63 51 81 52 48 53 49 54
REMARK SMILES IDX 62 56 82 57 51 58 36 59 37 60 45 61 38 62 44 63 39 64 40 65
REMARK SMILES IDX 41 66 42 67 43 68 66 69 67 70 75 71 68 72 74 73 69 74 70 75
REMARK SMILES IDX 71 76 72 77 73 78 52 79 53 80 61 81 54 82 60 83 55 84 56 85
REMARK SMILES IDX 57 86 58 87 59 88
REMARK H PARENT 80 44 50 55
REMARK Flexibility Score: inf
ROOT
ATOM      1  C   UNL A   1      39.609  22.744  26.858  1.00  0.00     0.275 C 
ENDROOT
BRANCH   1   2
ATOM      2  C   UNL A   1      38.844  21.779  25.943  1.00  0.00     0.274 C 
BRANCH   2   3
ATOM      3  O   UNL A   1      37.425  21.997  26.013  1.00  0.00    -0.461 OA
BRANCH   3   4
ATOM      4  C   UNL A   1      36.669  21.198  25.223  1.00  0.00     0.323 C 
ATOM      5  O   UNL A   1      37.124  20.279  24.546  1.00  0.00    -0.251 OA
BRANCH   4   6
ATOM      6  C   UNL A   1      35.181  21.526  25.220  1.00  0.00     0.189 C 
ATOM      7  C   UNL A   1      35.470  23.167  23.223  1.00  0.00     0.042 C 
ATOM      8  C   UNL A   1      34.900  22.857  24.574  1.00  0.00    -0.033 C 
ATOM      9  C   UNL A   1      34.038  23.631  25.243  1.00  0.00     0.073 C 
ATOM     10  C   UNL A   1      33.493  24.929  24.895  1.00  0.00     0.264 C 
ATOM     11  C   UNL A   1      33.453  22.999  26.403  1.00  0.00     0.116 C 
ATOM     12  S   UNL A   1      34.379  21.611  26.868  1.00  0.00    -0.086 SA
ATOM     13  O   UNL A   1      34.198  25.817  24.439  1.00  0.00    -0.268 OA
ATOM     14  N   UNL A   1      32.157  25.003  25.206  1.00  0.00    -0.256 N 
ATOM     15  N   UNL A   1      32.375  23.388  26.977  1.00  0.00    -0.186 NA
ATOM     16  C   UNL A   1      31.648  24.389  26.361  1.00  0.00     0.351 C 
ATOM     17  O   UNL A   1      30.555  24.718  26.817  1.00  0.00    -0.246 OA
BRANCH  14  18
ATOM     18  C   UNL A   1      31.226  25.664  24.288  1.00  0.00     0.163 C 
BRANCH  18  19
ATOM     19  C   UNL A   1      30.611  27.020  24.685  1.00  0.00     0.138 C 
ATOM     20  C   UNL A   1      31.557  28.023  25.341  1.00  0.00     0.036 C 
ATOM     21  O   UNL A   1      30.175  27.662  23.459  1.00  0.00    -0.376 OA
ATOM     22  C   UNL A   1      32.099  28.827  24.194  1.00  0.00     0.031 C 
ATOM     23  C   UNL A   1      30.923  28.868  23.254  1.00  0.00     0.160 C 
ENDBRANCH  18  19
ENDBRANCH  14  18
ENDBRANCH   4   6
ENDBRANCH   3   4
ENDBRANCH   2   3
ENDBRANCH   1   2
BRANCH   1  24
ATOM     24  O   UNL A   1      39.607  24.102  26.370  1.00  0.00    -0.458 OA
BRANCH  24  25
ATOM     25  C   UNL A   1      40.738  24.804  26.614  1.00  0.00     0.338 C 
ATOM     26  O   UNL A   1      41.806  24.698  26.031  1.00  0.00    -0.246 OA
BRANCH  25  27
ATOM     27  C   UNL A   1      40.496  25.861  27.609  1.00  0.00     0.060 A 
ATOM     28  C   UNL A   1      41.356  26.962  27.610  1.00  0.00     0.016 A 
ATOM     29  C   UNL A   1      39.526  25.723  28.601  1.00  0.00     0.016 A 
ATOM     30  C   UNL A   1      41.269  27.921  28.614  1.00  0.00     0.010 A 
ATOM     31  C   UNL A   1      39.428  26.696  29.603  1.00  0.00     0.010 A 
ATOM     32  C   UNL A   1      40.308  27.794  29.623  1.00  0.00    -0.014 A 
BRANCH  32  33
ATOM     33  C   UNL A   1      40.261  28.798  30.713  1.00  0.00     0.031 A 
ATOM     34  C   UNL A   1      41.221  28.705  31.866  1.00  0.00     0.074 A 
ATOM     35  C   UNL A   1      39.382  29.816  30.643  1.00  0.00     0.049 A 
ATOM     36  N   UNL A   1      41.291  29.447  32.941  1.00  0.00    -0.248 NA
ATOM     37  C   UNL A   1      42.232  27.639  31.801  1.00  0.00     0.031 C 
ATOM     38  C   UNL A   1      38.440  30.046  29.547  1.00  0.00     0.029 A 
ATOM     39  N   UNL A   1      39.143  30.851  31.511  1.00  0.00    -0.354 N 
ATOM     40  C   UNL A   1      42.335  28.924  33.695  1.00  0.00     0.074 A 
ATOM     41  C   UNL A   1      42.863  27.795  32.959  1.00  0.00     0.031 C 
ATOM     42  C   UNL A   1      37.733  31.157  29.801  1.00  0.00     0.029 A 
ATOM     43  C   UNL A   1      38.131  31.687  31.102  1.00  0.00     0.049 A 
ATOM     44  H   UNL A   1      39.648  30.982  32.345  1.00  0.00     0.167 HD
ATOM     45  C   UNL A   1      42.807  29.345  34.893  1.00  0.00     0.031 A 
ATOM     46  C   UNL A   1      37.567  32.743  31.718  1.00  0.00     0.031 A 
ATOM     47  C   UNL A   1      42.280  30.470  35.619  1.00  0.00     0.049 A 
ATOM     48  C   UNL A   1      38.069  33.154  33.074  1.00  0.00     0.074 A 
ATOM     49  C   UNL A   1      42.691  30.977  36.840  1.00  0.00     0.029 A 
ATOM     50  N   UNL A   1      41.227  31.265  35.192  1.00  0.00    -0.354 N 
ATOM     51  N   UNL A   1      39.044  32.636  33.782  1.00  0.00    -0.248 NA
ATOM     52  C   UNL A   1      37.392  34.290  33.715  1.00  0.00     0.031 C 
ATOM     53  C   UNL A   1      41.858  32.052  37.171  1.00  0.00     0.029 A 
ATOM     54  C   UNL A   1      40.961  32.245  36.132  1.00  0.00     0.049 A 
ATOM     55  H   UNL A   1      40.740  31.151  34.343  1.00  0.00     0.167 HD
ATOM     56  C   UNL A   1      39.106  33.391  34.947  1.00  0.00     0.074 A 
ATOM     57  C   UNL A   1      38.084  34.413  34.839  1.00  0.00     0.031 C 
ATOM     58  C   UNL A   1      39.935  33.250  36.012  1.00  0.00     0.031 A 
BRANCH  45  59
ATOM     59  C   UNL A   1      43.925  28.552  35.515  1.00  0.00    -0.014 A 
ATOM     60  C   UNL A   1      45.272  28.899  35.311  1.00  0.00     0.010 A 
ATOM     61  C   UNL A   1      43.618  27.457  36.345  1.00  0.00     0.010 A 
ATOM     62  C   UNL A   1      46.293  28.141  35.892  1.00  0.00     0.020 A 
ATOM     63  C   UNL A   1      44.635  26.711  36.947  1.00  0.00     0.020 A 
ATOM     64  C   UNL A   1      45.969  27.048  36.702  1.00  0.00     0.054 A 
BRANCH  64  65
ATOM     65  S   UNL A   1      47.310  26.087  37.454  1.00  0.00     0.124 S 
ATOM     66  O   UNL A   1      48.092  25.695  36.284  1.00  0.00    -0.237 OA
ATOM     67  O   UNL A   1      47.947  27.061  38.337  1.00  0.00    -0.237 OA
ATOM     68  O   UNL A   1      46.617  24.996  38.134  1.00  0.00    -0.744 OA
ENDBRANCH  64  65
ENDBRANCH  45  59
BRANCH  46  69
ATOM     69  C   UNL A   1      36.437  33.460  31.068  1.00  0.00    -0.014 A 
ATOM     70  C   UNL A   1      35.253  33.723  31.775  1.00  0.00     0.010 A 
ATOM     71  C   UNL A   1      36.553  33.900  29.736  1.00  0.00     0.010 A 
ATOM     72  C   UNL A   1      34.200  34.409  31.161  1.00  0.00     0.020 A 
ATOM     73  C   UNL A   1      35.514  34.609  29.128  1.00  0.00     0.020 A 
ATOM     74  C   UNL A   1      34.339  34.850  29.842  1.00  0.00     0.054 A 
BRANCH  74  75
ATOM     75  S   UNL A   1      32.989  35.797  29.085  1.00  0.00     0.124 S 
ATOM     76  O   UNL A   1      32.373  34.802  28.214  1.00  0.00    -0.237 OA
ATOM     77  O   UNL A   1      32.197  36.203  30.244  1.00  0.00    -0.237 OA
ATOM     78  O   UNL A   1      33.680  36.888  28.402  1.00  0.00    -0.744 OA
ENDBRANCH  74  75
ENDBRANCH  46  69
BRANCH  58  79
ATOM     79  C   UNL A   1      39.784  34.241  37.134  1.00  0.00    -0.014 A 
ATOM     80  C   UNL A   1      40.396  35.506  37.073  1.00  0.00     0.010 A 
ATOM     81  C   UNL A   1      38.987  33.916  38.246  1.00  0.00     0.010 A 
ATOM     82  C   UNL A   1      40.240  36.416  38.122  1.00  0.00     0.020 A 
ATOM     83  C   UNL A   1      38.809  34.832  39.285  1.00  0.00     0.020 A 
ATOM     84  C   UNL A   1      39.450  36.071  39.223  1.00  0.00     0.054 A 
BRANCH  84  85
ATOM     85  S   UNL A   1      39.234  37.279  40.558  1.00  0.00     0.124 S 
ATOM     86  O   UNL A   1      38.706  36.449  41.637  1.00  0.00    -0.237 OA
ATOM     87  O   UNL A   1      40.591  37.784  40.760  1.00  0.00    -0.237 OA
ATOM     88  O   UNL A   1      38.295  38.248  39.998  1.00  0.00    -0.744 OA
ENDBRANCH  84  85
ENDBRANCH  58  79
ENDBRANCH  32  33
ENDBRANCH  25  27
ENDBRANCH  24  25
ENDBRANCH   1  24
TORSDOF 16
ENDMDL
MODEL 3
REMARK VINA RESULT:     -10.9      1.232      2.112
REMARK SMILES CC1=C2C(=O)N(C[C@H]3CCCO3)C(=O)N=C2S[C@@H]1C(=O)OCCOC(=O)c1ccc(-c2c3nc(c(-c4ccc(S(=O)(=O)[O-])cc4)c4ccc([nH]4)c(-c4ccc(S(=O)(=O)[O-])cc4)c4nc(c(-c5ccc(S(=O)(=O)[O-])cc5)c5ccc2[nH]5)C=C4)C=C3)cc1
REMARK SMILES IDX 23 1 22 2 21 3 19 4 20 5 18 6 1 7 2 8 3 9 4 10 16 11 17 12
REMARK SMILES IDX 5 13 6 14 15 15 13 16 14 17 7 18 8 19 9 20 12 21 10 22 11 23
REMARK SMILES IDX 24 24 25 25 26 26 27 27 28 28 86 29 29 30 85 31 30 32 31 33
REMARK SMILES IDX 32 34 79 35 33 36 84 37 78 38 80 39 34 40 83 41 77 42 76 43
REMARK SMILES IDX 35 45 65 46 46 47 64 48 47 49 50 50 63 51 81 52 48 53 49 54
REMARK SMILES IDX 62 56 82 57 51 58 36 59 37 60 45 61 38 62 44 63 39 64 40 65
REMARK SMILES IDX 41 66 42 67 43 68 66 69 67 70 75 71 68 72 74 73 69 74 70 75
REMARK SMILES IDX 71 76 72 77 73 78 52 79 53 80 61 81 54 82 60 83 55 84 56 85
REMARK SMILES IDX 57 86 58 87 59 88
REMARK H PARENT 80 44 50 55
REMARK Flexibility Score: inf
ROOT
ATOM      1  C   UNL A   1      32.365  30.122  26.798  1.00  0.00     0.275 C 
ENDROOT
BRANCH   1   2
ATOM      2  C   UNL A   1      32.391  29.812  25.296  1.00  0.00     0.274 C 
BRANCH   2   3
ATOM      3  O   UNL A   1      31.064  29.647  24.768  1.00  0.00    -0.461 OA
BRANCH   3   4
ATOM      4  C   UNL A   1      30.863  28.535  24.021  1.00  0.00     0.323 C 
ATOM      5  O   UNL A   1      30.268  28.533  22.945  1.00  0.00    -0.251 OA
BRANCH   4   6
ATOM      6  C   UNL A   1      31.429  27.253  24.618  1.00  0.00     0.189 C 
ATOM      7  C   UNL A   1      33.463  27.307  22.996  1.00  0.00     0.042 C 
ATOM      8  C   UNL A   1      32.354  26.548  23.661  1.00  0.00    -0.033 C 
ATOM      9  C   UNL A   1      32.164  25.226  23.573  1.00  0.00     0.073 C 
ATOM     10  C   UNL A   1      32.898  24.232  22.814  1.00  0.00     0.264 C 
ATOM     11  C   UNL A   1      31.181  24.707  24.495  1.00  0.00     0.116 C 
ATOM     12  S   UNL A   1      30.194  25.990  25.113  1.00  0.00    -0.086 SA
ATOM     13  O   UNL A   1      33.234  24.432  21.656  1.00  0.00    -0.268 OA
ATOM     14  N   UNL A   1      33.078  23.085  23.548  1.00  0.00    -0.256 N 
ATOM     15  N   UNL A   1      31.085  23.477  24.840  1.00  0.00    -0.186 NA
ATOM     16  C   UNL A   1      32.077  22.615  24.412  1.00  0.00     0.351 C 
ATOM     17  O   UNL A   1      32.085  21.450  24.806  1.00  0.00    -0.246 OA
BRANCH  14  18
ATOM     18  C   UNL A   1      34.358  22.375  23.496  1.00  0.00     0.163 C 
BRANCH  18  19
ATOM     19  C   UNL A   1      35.668  23.171  23.650  1.00  0.00     0.138 C 
ATOM     20  C   UNL A   1      35.791  24.032  24.906  1.00  0.00     0.036 C 
ATOM     21  O   UNL A   1      36.743  22.202  23.753  1.00  0.00    -0.376 OA
ATOM     22  C   UNL A   1      36.451  23.131  25.910  1.00  0.00     0.031 C 
ATOM     23  C   UNL A   1      37.364  22.306  25.041  1.00  0.00     0.160 C 
ENDBRANCH  18  19
ENDBRANCH  14  18
ENDBRANCH   4   6
ENDBRANCH   3   4
ENDBRANCH   2   3
ENDBRANCH   1   2
BRANCH   1  24
ATOM     24  O   UNL A   1      33.529  29.628  27.494  1.00  0.00    -0.458 OA
BRANCH  24  25
ATOM     25  C   UNL A   1      34.337  30.581  28.015  1.00  0.00     0.338 C 
ATOM     26  O   UNL A   1      34.005  31.689  28.405  1.00  0.00    -0.246 OA
BRANCH  25  27
ATOM     27  C   UNL A   1      35.702  30.065  28.204  1.00  0.00     0.060 A 
ATOM     28  C   UNL A   1      36.069  29.651  29.487  1.00  0.00     0.016 A 
ATOM     29  C   UNL A   1      36.646  30.100  27.178  1.00  0.00     0.016 A 
ATOM     30  C   UNL A   1      37.383  29.290  29.761  1.00  0.00     0.010 A 
ATOM     31  C   UNL A   1      37.966  29.722  27.449  1.00  0.00     0.010 A 
ATOM     32  C   UNL A   1      38.346  29.328  28.746  1.00  0.00    -0.014 A 
BRANCH  32  33
ATOM     33  C   UNL A   1      39.754  28.988  29.066  1.00  0.00     0.031 A 
ATOM     34  C   UNL A   1      40.635  29.994  29.752  1.00  0.00     0.074 A 
ATOM     35  C   UNL A   1      40.225  27.761  28.775  1.00  0.00     0.049 A 
ATOM     36  N   UNL A   1      41.904  29.906  30.054  1.00  0.00    -0.248 NA
ATOM     37  C   UNL A   1      40.006  31.263  30.150  1.00  0.00     0.031 C 
ATOM     38  C   UNL A   1      39.450  26.681  28.162  1.00  0.00     0.029 A 
ATOM     39  N   UNL A   1      41.469  27.213  28.962  1.00  0.00    -0.354 N 
ATOM     40  C   UNL A   1      42.236  31.116  30.654  1.00  0.00     0.074 A 
ATOM     41  C   UNL A   1      41.036  31.924  30.663  1.00  0.00     0.031 C 
ATOM     42  C   UNL A   1      40.231  25.597  28.034  1.00  0.00     0.029 A 
ATOM     43  C   UNL A   1      41.575  25.922  28.503  1.00  0.00     0.049 A 
ATOM     44  H   UNL A   1      42.213  27.699  29.385  1.00  0.00     0.167 HD
ATOM     45  C   UNL A   1      43.433  31.515  31.146  1.00  0.00     0.031 A 
ATOM     46  C   UNL A   1      42.641  25.102  28.439  1.00  0.00     0.031 A 
ATOM     47  C   UNL A   1      44.622  30.705  31.137  1.00  0.00     0.049 A 
ATOM     48  C   UNL A   1      43.972  25.590  28.939  1.00  0.00     0.074 A 
ATOM     49  C   UNL A   1      45.883  31.020  31.614  1.00  0.00     0.029 A 
ATOM     50  N   UNL A   1      44.700  29.418  30.624  1.00  0.00    -0.354 N 
ATOM     51  N   UNL A   1      44.273  26.745  29.483  1.00  0.00    -0.248 NA
ATOM     52  C   UNL A   1      45.108  24.667  28.810  1.00  0.00     0.031 C 
ATOM     53  C   UNL A   1      46.733  29.939  31.351  1.00  0.00     0.029 A 
ATOM     54  C   UNL A   1      45.989  28.933  30.755  1.00  0.00     0.049 A 
ATOM     55  H   UNL A   1      43.948  28.922  30.227  1.00  0.00     0.167 HD
ATOM     56  C   UNL A   1      45.630  26.681  29.776  1.00  0.00     0.074 A 
ATOM     57  C   UNL A   1      46.086  25.369  29.365  1.00  0.00     0.031 C 
ATOM     58  C   UNL A   1      46.428  27.626  30.334  1.00  0.00     0.031 A 
BRANCH  45  59
ATOM     59  C   UNL A   1      43.524  32.913  31.699  1.00  0.00    -0.014 A 
ATOM     60  C   UNL A   1      43.789  34.014  30.867  1.00  0.00     0.010 A 
ATOM     61  C   UNL A   1      43.309  33.128  33.073  1.00  0.00     0.010 A 
ATOM     62  C   UNL A   1      43.878  35.301  31.406  1.00  0.00     0.020 A 
ATOM     63  C   UNL A   1      43.374  34.415  33.612  1.00  0.00     0.020 A 
ATOM     64  C   UNL A   1      43.676  35.493  32.777  1.00  0.00     0.054 A 
BRANCH  64  65
ATOM     65  S   UNL A   1      43.784  37.173  33.451  1.00  0.00     0.124 S 
ATOM     66  O   UNL A   1      43.788  37.985  32.235  1.00  0.00    -0.237 OA
ATOM     67  O   UNL A   1      42.577  37.272  34.267  1.00  0.00    -0.237 OA
ATOM     68  O   UNL A   1      45.039  37.167  34.199  1.00  0.00    -0.744 OA
ENDBRANCH  64  65
ENDBRANCH  45  59
BRANCH  46  69
ATOM     69  C   UNL A   1      42.495  23.746  27.845  1.00  0.00    -0.014 A 
ATOM     70  C   UNL A   1      42.658  23.547  26.464  1.00  0.00     0.010 A 
ATOM     71  C   UNL A   1      42.208  22.641  28.667  1.00  0.00     0.010 A 
ATOM     72  C   UNL A   1      42.531  22.268  25.914  1.00  0.00     0.020 A 
ATOM     73  C   UNL A   1      42.107  21.357  28.126  1.00  0.00     0.020 A 
ATOM     74  C   UNL A   1      42.260  21.180  26.749  1.00  0.00     0.054 A 
BRANCH  74  75
ATOM     75  S   UNL A   1      42.166  19.519  26.027  1.00  0.00     0.124 S 
ATOM     76  O   UNL A   1      43.080  19.628  24.896  1.00  0.00    -0.237 OA
ATOM     77  O   UNL A   1      42.616  18.669  27.127  1.00  0.00    -0.237 OA
ATOM     78  O   UNL A   1      40.752  19.377  25.681  1.00  0.00    -0.744 OA
ENDBRANCH  74  75
ENDBRANCH  46  69
BRANCH  58  79
ATOM     79  C   UNL A   1      47.871  27.262  30.553  1.00  0.00    -0.014 A 
ATOM     80  C   UNL A   1      48.853  27.583  29.599  1.00  0.00     0.010 A 
ATOM     81  C   UNL A   1      48.254  26.627  31.748  1.00  0.00     0.010 A 
ATOM     82  C   UNL A   1      50.190  27.242  29.822  1.00  0.00     0.020 A 
ATOM     83  C   UNL A   1      49.592  26.307  31.985  1.00  0.00     0.020 A 
ATOM     84  C   UNL A   1      50.550  26.603  31.012  1.00  0.00     0.054 A 
BRANCH  84  85
ATOM     85  S   UNL A   1      52.295  26.200  31.297  1.00  0.00     0.124 S 
ATOM     86  O   UNL A   1      52.722  27.292  32.167  1.00  0.00    -0.237 OA
ATOM     87  O   UNL A   1      52.224  24.884  31.929  1.00  0.00    -0.237 OA
ATOM     88  O   UNL A   1      52.875  26.208  29.955  1.00  0.00    -0.744 OA
ENDBRANCH  84  85
ENDBRANCH  58  79
ENDBRANCH  32  33
ENDBRANCH  25  27
ENDBRANCH  24  25
ENDBRANCH   1  24
TORSDOF 16
ENDMDL
