MODEL 1
REMARK VINA RESULT:     -11.6      0.000      0.000
REMARK SMILES COC(=O)c1ccc(C)c2c1[C@H]1C=CC[C@H]1[C@@H](c1ccc(C(=O)OCCOC(=O)c3ccc(-c4c5nc(c(-c6ccc(S(=O)(=O)[O-])cc6)c6ccc([nH]6)c(-c6ccc(S(=O)(=O)[O-])cc6)c6nc(c(-c7ccc(S(=O)(=O)[O-])cc7)c7ccc4[nH]7)C=C6)C=C5)cc3)cc1)N2
REMARK SMILES IDX 25 1 24 2 22 3 23 4 21 5 18 6 19 7 91 8 20 9 90 10 17 11
REMARK SMILES IDX 5 12 6 13 11 14 7 15 10 16 12 17 8 18 92 19 13 20 16 21 9 22
REMARK SMILES IDX 14 24 15 25 3 26 4 27 2 28 1 29 26 30 27 31 28 32 29 33
REMARK SMILES IDX 30 34 31 35 89 36 32 37 88 38 33 39 34 40 35 41 82 42 36 43
REMARK SMILES IDX 87 44 81 45 83 46 37 47 86 48 80 49 79 50 38 52 68 53 49 54
REMARK SMILES IDX 67 55 50 56 53 57 66 58 84 59 51 60 52 61 65 63 85 64 54 65
REMARK SMILES IDX 39 66 40 67 48 68 41 69 47 70 42 71 43 72 44 73 45 74 46 75
REMARK SMILES IDX 69 76 70 77 78 78 71 79 77 80 72 81 73 82 74 83 75 84 76 85
REMARK SMILES IDX 55 86 56 87 64 88 57 89 63 90 58 91 59 92 60 93 61 94 62 95
REMARK H PARENT 92 23 83 51 53 62
REMARK Flexibility Score: inf
ROOT
ATOM      1  C   UNL A   1      34.010  31.670  27.972  1.00  0.00     0.275 C 
ENDROOT
BRANCH   1   2
ATOM      2  O   UNL A   1      33.561  30.352  27.606  1.00  0.00    -0.458 OA
BRANCH   2   3
ATOM      3  C   UNL A   1      32.501  30.289  26.759  1.00  0.00     0.338 C 
ATOM      4  O   UNL A   1      31.689  31.168  26.541  1.00  0.00    -0.246 OA
BRANCH   3   5
ATOM      5  C   UNL A   1      32.572  29.021  25.994  1.00  0.00     0.060 A 
ATOM      6  C   UNL A   1      33.232  26.867  24.298  1.00  0.00    -0.025 A 
ATOM      7  C   UNL A   1      32.523  27.983  23.818  1.00  0.00     0.007 A 
ATOM      8  C   UNL A   1      33.394  26.769  25.691  1.00  0.00     0.007 A 
ATOM      9  C   UNL A   1      32.179  29.044  24.658  1.00  0.00     0.016 A 
ATOM     10  C   UNL A   1      33.112  27.852  26.530  1.00  0.00     0.016 A 
BRANCH   6  11
ATOM     11  C   UNL A   1      33.894  25.832  23.368  1.00  0.00     0.114 C 
ATOM     12  C   UNL A   1      32.990  22.286  25.578  1.00  0.00     0.065 A 
ATOM     13  C   UNL A   1      33.856  21.841  26.572  1.00  0.00     0.016 A 
ATOM     14  C   UNL A   1      33.334  23.365  24.732  1.00  0.00    -0.003 A 
ATOM     15  C   UNL A   1      35.096  22.454  26.712  1.00  0.00     0.006 A 
ATOM     16  C   UNL A   1      34.598  23.987  24.875  1.00  0.00     0.042 A 
ATOM     17  C   UNL A   1      32.413  23.764  23.607  1.00  0.00     0.050 C 
ATOM     18  C   UNL A   1      35.492  23.504  25.859  1.00  0.00    -0.028 A 
ATOM     19  N   UNL A   1      34.932  25.075  24.068  1.00  0.00    -0.377 N 
ATOM     20  C   UNL A   1      31.109  24.430  23.961  1.00  0.00    -0.023 C 
ATOM     21  C   UNL A   1      32.996  24.795  22.626  1.00  0.00     0.031 C 
ATOM     22  C   UNL A   1      36.874  24.059  26.087  1.00  0.00     0.046 C 
ATOM     23  H   UNL A   1      35.876  25.334  23.966  1.00  0.00     0.161 HD
ATOM     24  C   UNL A   1      30.715  25.264  22.990  1.00  0.00    -0.030 C 
ATOM     25  C   UNL A   1      31.748  25.335  21.911  1.00  0.00     0.034 C 
BRANCH  12  26
ATOM     26  C   UNL A   1      31.766  21.502  25.326  1.00  0.00     0.338 C 
ATOM     27  O   UNL A   1      30.750  21.619  25.987  1.00  0.00    -0.246 OA
BRANCH  26  28
ATOM     28  O   UNL A   1      32.007  20.601  24.346  1.00  0.00    -0.465 OA
ATOM     29  C   UNL A   1      32.509  19.348  24.817  1.00  0.00     0.282 C 
ENDBRANCH  26  28
ENDBRANCH  12  26
ENDBRANCH   6  11
ENDBRANCH   3   5
ENDBRANCH   2   3
ENDBRANCH   1   2
BRANCH   1  30
ATOM     30  C   UNL A   1      35.379  31.594  28.650  1.00  0.00     0.275 C 
BRANCH  30  31
ATOM     31  O   UNL A   1      35.814  30.225  28.771  1.00  0.00    -0.458 OA
BRANCH  31  32
ATOM     32  C   UNL A   1      36.506  29.926  29.895  1.00  0.00     0.338 C 
ATOM     33  O   UNL A   1      36.060  29.749  31.015  1.00  0.00    -0.246 OA
BRANCH  32  34
ATOM     34  C   UNL A   1      37.935  29.791  29.565  1.00  0.00     0.060 A 
ATOM     35  C   UNL A   1      38.291  29.569  28.235  1.00  0.00     0.016 A 
ATOM     36  C   UNL A   1      38.906  29.785  30.569  1.00  0.00     0.016 A 
ATOM     37  C   UNL A   1      39.624  29.335  27.897  1.00  0.00     0.010 A 
ATOM     38  C   UNL A   1      40.244  29.545  30.230  1.00  0.00     0.010 A 
ATOM     39  C   UNL A   1      40.608  29.299  28.895  1.00  0.00    -0.014 A 
BRANCH  39  40
ATOM     40  C   UNL A   1      42.004  28.954  28.531  1.00  0.00     0.031 A 
ATOM     41  C   UNL A   1      42.379  27.531  28.236  1.00  0.00     0.074 A 
ATOM     42  C   UNL A   1      42.927  29.923  28.406  1.00  0.00     0.049 A 
ATOM     43  N   UNL A   1      43.466  27.057  27.686  1.00  0.00    -0.248 NA
ATOM     44  C   UNL A   1      41.383  26.507  28.561  1.00  0.00     0.031 C 
ATOM     45  C   UNL A   1      42.694  31.349  28.630  1.00  0.00     0.029 A 
ATOM     46  N   UNL A   1      44.253  29.844  28.067  1.00  0.00    -0.354 N 
ATOM     47  C   UNL A   1      43.241  25.694  27.521  1.00  0.00     0.074 A 
ATOM     48  C   UNL A   1      41.929  25.410  28.054  1.00  0.00     0.031 C 
ATOM     49  C   UNL A   1      43.848  32.011  28.443  1.00  0.00     0.029 A 
ATOM     50  C   UNL A   1      44.900  31.054  28.103  1.00  0.00     0.049 A 
ATOM     51  H   UNL A   1      44.698  29.002  27.822  1.00  0.00     0.167 HD
ATOM     52  C   UNL A   1      44.060  24.760  26.987  1.00  0.00     0.031 A 
ATOM     53  C   UNL A   1      46.198  31.353  27.904  1.00  0.00     0.031 A 
ATOM     54  C   UNL A   1      45.431  25.008  26.636  1.00  0.00     0.049 A 
ATOM     55  C   UNL A   1      47.159  30.259  27.531  1.00  0.00     0.074 A 
ATOM     56  C   UNL A   1      46.371  24.115  26.151  1.00  0.00     0.029 A 
ATOM     57  N   UNL A   1      46.079  26.222  26.806  1.00  0.00    -0.354 N 
ATOM     58  N   UNL A   1      46.906  28.996  27.282  1.00  0.00    -0.248 NA
ATOM     59  C   UNL A   1      48.576  30.626  27.414  1.00  0.00     0.031 C 
ATOM     60  C   UNL A   1      47.606  24.770  26.109  1.00  0.00     0.029 A 
ATOM     61  C   UNL A   1      47.421  26.086  26.505  1.00  0.00     0.049 A 
ATOM     62  H   UNL A   1      45.646  27.057  27.100  1.00  0.00     0.167 HD
ATOM     63  C   UNL A   1      48.131  28.419  26.964  1.00  0.00     0.074 A 
ATOM     64  C   UNL A   1      49.124  29.471  27.053  1.00  0.00     0.031 C 
ATOM     65  C   UNL A   1      48.401  27.137  26.621  1.00  0.00     0.031 A 
BRANCH  52  66
ATOM     66  C   UNL A   1      43.517  23.371  26.814  1.00  0.00    -0.014 A 
ATOM     67  C   UNL A   1      43.385  22.812  25.530  1.00  0.00     0.010 A 
ATOM     68  C   UNL A   1      43.192  22.595  27.940  1.00  0.00     0.010 A 
ATOM     69  C   UNL A   1      42.937  21.496  25.375  1.00  0.00     0.020 A 
ATOM     70  C   UNL A   1      42.752  21.275  27.788  1.00  0.00     0.020 A 
ATOM     71  C   UNL A   1      42.631  20.734  26.507  1.00  0.00     0.054 A 
BRANCH  71  72
ATOM     72  S   UNL A   1      42.089  19.016  26.278  1.00  0.00     0.124 S 
ATOM     73  O   UNL A   1      42.253  18.454  27.615  1.00  0.00    -0.237 OA
ATOM     74  O   UNL A   1      40.709  19.180  25.829  1.00  0.00    -0.237 OA
ATOM     75  O   UNL A   1      43.012  18.492  25.273  1.00  0.00    -0.744 OA
ENDBRANCH  71  72
ENDBRANCH  52  66
BRANCH  53  76
ATOM     76  C   UNL A   1      46.652  32.753  28.098  1.00  0.00    -0.014 A 
ATOM     77  C   UNL A   1      47.107  33.197  29.350  1.00  0.00     0.010 A 
ATOM     78  C   UNL A   1      46.693  33.632  26.998  1.00  0.00     0.010 A 
ATOM     79  C   UNL A   1      47.614  34.493  29.494  1.00  0.00     0.020 A 
ATOM     80  C   UNL A   1      47.214  34.921  27.136  1.00  0.00     0.020 A 
ATOM     81  C   UNL A   1      47.677  35.341  28.384  1.00  0.00     0.054 A 
BRANCH  81  82
ATOM     82  S   UNL A   1      48.416  36.986  28.585  1.00  0.00     0.124 S 
ATOM     83  O   UNL A   1      48.006  37.659  27.357  1.00  0.00    -0.237 OA
ATOM     84  O   UNL A   1      47.780  37.462  29.811  1.00  0.00    -0.237 OA
ATOM     85  O   UNL A   1      49.846  36.710  28.699  1.00  0.00    -0.744 OA
ENDBRANCH  81  82
ENDBRANCH  53  76
BRANCH  65  86
ATOM     86  C   UNL A   1      49.827  26.775  26.313  1.00  0.00    -0.014 A 
ATOM     87  C   UNL A   1      50.654  26.206  27.297  1.00  0.00     0.010 A 
ATOM     88  C   UNL A   1      50.303  26.891  24.994  1.00  0.00     0.010 A 
ATOM     89  C   UNL A   1      51.935  25.757  26.965  1.00  0.00     0.020 A 
ATOM     90  C   UNL A   1      51.576  26.426  24.655  1.00  0.00     0.020 A 
ATOM     91  C   UNL A   1      52.383  25.859  25.644  1.00  0.00     0.054 A 
BRANCH  91  92
ATOM     92  S   UNL A   1      54.021  25.198  25.230  1.00  0.00     0.124 S 
ATOM     93  O   UNL A   1      54.740  25.345  26.493  1.00  0.00    -0.237 OA
ATOM     94  O   UNL A   1      53.715  23.825  24.837  1.00  0.00    -0.237 OA
ATOM     95  O   UNL A   1      54.483  26.064  24.148  1.00  0.00    -0.744 OA
ENDBRANCH  91  92
ENDBRANCH  65  86
ENDBRANCH  39  40
ENDBRANCH  32  34
ENDBRANCH  31  32
ENDBRANCH  30  31
ENDBRANCH   1  30
TORSDOF 17
ENDMDL
MODEL 2
REMARK VINA RESULT:     -11.4      2.195      8.567
REMARK SMILES COC(=O)c1ccc(C)c2c1[C@H]1C=CC[C@H]1[C@@H](c1ccc(C(=O)OCCOC(=O)c3ccc(-c4c5nc(c(-c6ccc(S(=O)(=O)[O-])cc6)c6ccc([nH]6)c(-c6ccc(S(=O)(=O)[O-])cc6)c6nc(c(-c7ccc(S(=O)(=O)[O-])cc7)c7ccc4[nH]7)C=C6)C=C5)cc3)cc1)N2
REMARK SMILES IDX 25 1 24 2 22 3 23 4 21 5 18 6 19 7 91 8 20 9 90 10 17 11
REMARK SMILES IDX 5 12 6 13 11 14 7 15 10 16 12 17 8 18 92 19 13 20 16 21 9 22
REMARK SMILES IDX 14 24 15 25 3 26 4 27 2 28 1 29 26 30 27 31 28 32 29 33
REMARK SMILES IDX 30 34 31 35 89 36 32 37 88 38 33 39 34 40 35 41 82 42 36 43
REMARK SMILES IDX 87 44 81 45 83 46 37 47 86 48 80 49 79 50 38 52 68 53 49 54
REMARK SMILES IDX 67 55 50 56 53 57 66 58 84 59 51 60 52 61 65 63 85 64 54 65
REMARK SMILES IDX 39 66 40 67 48 68 41 69 47 70 42 71 43 72 44 73 45 74 46 75
REMARK SMILES IDX 69 76 70 77 78 78 71 79 77 80 72 81 73 82 74 83 75 84 76 85
REMARK SMILES IDX 55 86 56 87 64 88 57 89 63 90 58 91 59 92 60 93 61 94 62 95
REMARK H PARENT 92 23 83 51 53 62
REMARK Flexibility Score: inf
ROOT
ATOM      1  C   UNL A   1      39.113  21.773  26.226  1.00  0.00     0.275 C 
ENDROOT
BRANCH   1   2
ATOM      2  O   UNL A   1      37.879  22.216  25.633  1.00  0.00    -0.458 OA
BRANCH   2   3
ATOM      3  C   UNL A   1      37.555  23.522  25.815  1.00  0.00     0.338 C 
ATOM      4  O   UNL A   1      38.328  24.457  25.922  1.00  0.00    -0.246 OA
BRANCH   3   5
ATOM      5  C   UNL A   1      36.085  23.674  25.695  1.00  0.00     0.060 A 
ATOM      6  C   UNL A   1      33.316  24.019  26.095  1.00  0.00    -0.025 A 
ATOM      7  C   UNL A   1      33.921  22.756  26.231  1.00  0.00     0.007 A 
ATOM      8  C   UNL A   1      34.099  25.042  25.535  1.00  0.00     0.007 A 
ATOM      9  C   UNL A   1      35.289  22.578  26.017  1.00  0.00     0.016 A 
ATOM     10  C   UNL A   1      35.481  24.891  25.379  1.00  0.00     0.016 A 
BRANCH   6  11
ATOM     11  C   UNL A   1      31.896  24.326  26.611  1.00  0.00     0.114 C 
ATOM     12  C   UNL A   1      30.980  27.646  24.078  1.00  0.00     0.065 A 
ATOM     13  C   UNL A   1      31.325  28.938  24.466  1.00  0.00     0.016 A 
ATOM     14  C   UNL A   1      31.134  26.550  24.957  1.00  0.00    -0.003 A 
ATOM     15  C   UNL A   1      31.799  29.153  25.754  1.00  0.00     0.006 A 
ATOM     16  C   UNL A   1      31.617  26.771  26.269  1.00  0.00     0.042 A 
ATOM     17  C   UNL A   1      30.668  25.178  24.539  1.00  0.00     0.050 C 
ATOM     18  C   UNL A   1      31.925  28.091  26.673  1.00  0.00    -0.028 A 
ATOM     19  N   UNL A   1      31.803  25.690  27.132  1.00  0.00    -0.377 N 
ATOM     20  C   UNL A   1      31.450  24.459  23.472  1.00  0.00    -0.023 C 
ATOM     21  C   UNL A   1      30.681  24.121  25.656  1.00  0.00     0.031 C 
ATOM     22  C   UNL A   1      32.414  28.459  28.050  1.00  0.00     0.046 C 
ATOM     23  H   UNL A   1      31.872  25.847  28.102  1.00  0.00     0.161 HD
ATOM     24  C   UNL A   1      31.376  23.131  23.632  1.00  0.00    -0.030 C 
ATOM     25  C   UNL A   1      30.619  22.797  24.877  1.00  0.00     0.034 C 
BRANCH  12  26
ATOM     26  C   UNL A   1      30.305  27.471  22.779  1.00  0.00     0.338 C 
ATOM     27  O   UNL A   1      30.903  27.323  21.728  1.00  0.00    -0.246 OA
BRANCH  26  28
ATOM     28  O   UNL A   1      28.970  27.608  22.949  1.00  0.00    -0.465 OA
ATOM     29  C   UNL A   1      28.451  28.865  22.504  1.00  0.00     0.282 C 
ENDBRANCH  26  28
ENDBRANCH  12  26
ENDBRANCH   6  11
ENDBRANCH   3   5
ENDBRANCH   2   3
ENDBRANCH   1   2
BRANCH   1  30
ATOM     30  C   UNL A   1      39.518  20.413  25.654  1.00  0.00     0.275 C 
BRANCH  30  31
ATOM     31  O   UNL A   1      40.443  19.744  26.534  1.00  0.00    -0.458 OA
BRANCH  31  32
ATOM     32  C   UNL A   1      41.722  19.676  26.099  1.00  0.00     0.338 C 
ATOM     33  O   UNL A   1      42.264  18.745  25.531  1.00  0.00    -0.246 OA
BRANCH  32  34
ATOM     34  C   UNL A   1      42.398  20.955  26.375  1.00  0.00     0.060 A 
ATOM     35  C   UNL A   1      42.476  21.393  27.697  1.00  0.00     0.016 A 
ATOM     36  C   UNL A   1      42.863  21.762  25.333  1.00  0.00     0.016 A 
ATOM     37  C   UNL A   1      43.017  22.645  27.989  1.00  0.00     0.010 A 
ATOM     38  C   UNL A   1      43.403  23.021  25.626  1.00  0.00     0.010 A 
ATOM     39  C   UNL A   1      43.464  23.478  26.954  1.00  0.00    -0.014 A 
BRANCH  39  40
ATOM     40  C   UNL A   1      43.948  24.844  27.274  1.00  0.00     0.031 A 
ATOM     41  C   UNL A   1      45.409  25.171  27.176  1.00  0.00     0.074 A 
ATOM     42  C   UNL A   1      43.071  25.810  27.596  1.00  0.00     0.049 A 
ATOM     43  N   UNL A   1      46.001  26.337  27.187  1.00  0.00    -0.248 NA
ATOM     44  C   UNL A   1      46.326  24.043  26.996  1.00  0.00     0.031 C 
ATOM     45  C   UNL A   1      41.623  25.641  27.696  1.00  0.00     0.029 A 
ATOM     46  N   UNL A   1      43.282  27.129  27.907  1.00  0.00    -0.354 N 
ATOM     47  C   UNL A   1      47.343  26.081  26.927  1.00  0.00     0.074 A 
ATOM     48  C   UNL A   1      47.486  24.650  26.792  1.00  0.00     0.031 C 
ATOM     49  C   UNL A   1      41.075  26.810  28.068  1.00  0.00     0.029 A 
ATOM     50  C   UNL A   1      42.135  27.802  28.246  1.00  0.00     0.049 A 
ATOM     51  H   UNL A   1      44.171  27.552  27.889  1.00  0.00     0.167 HD
ATOM     52  C   UNL A   1      48.367  26.958  26.826  1.00  0.00     0.031 A 
ATOM     53  C   UNL A   1      41.963  29.068  28.671  1.00  0.00     0.031 A 
ATOM     54  C   UNL A   1      48.258  28.354  27.149  1.00  0.00     0.049 A 
ATOM     55  C   UNL A   1      43.152  29.981  28.777  1.00  0.00     0.074 A 
ATOM     56  C   UNL A   1      49.250  29.318  27.148  1.00  0.00     0.029 A 
ATOM     57  N   UNL A   1      47.101  28.966  27.608  1.00  0.00    -0.354 N 
ATOM     58  N   UNL A   1      44.396  29.748  28.431  1.00  0.00    -0.248 NA
ATOM     59  C   UNL A   1      42.919  31.321  29.330  1.00  0.00     0.031 C 
ATOM     60  C   UNL A   1      48.710  30.492  27.685  1.00  0.00     0.029 A 
ATOM     61  C   UNL A   1      47.369  30.275  27.960  1.00  0.00     0.049 A 
ATOM     62  H   UNL A   1      46.220  28.530  27.674  1.00  0.00     0.167 HD
ATOM     63  C   UNL A   1      45.093  30.918  28.711  1.00  0.00     0.074 A 
ATOM     64  C   UNL A   1      44.132  31.857  29.255  1.00  0.00     0.031 C 
ATOM     65  C   UNL A   1      46.407  31.190  28.522  1.00  0.00     0.031 A 
BRANCH  52  66
ATOM     66  C   UNL A   1      49.708  26.423  26.412  1.00  0.00    -0.014 A 
ATOM     67  C   UNL A   1      50.096  26.441  25.060  1.00  0.00     0.010 A 
ATOM     68  C   UNL A   1      50.610  25.953  27.382  1.00  0.00     0.010 A 
ATOM     69  C   UNL A   1      51.369  25.999  24.685  1.00  0.00     0.020 A 
ATOM     70  C   UNL A   1      51.887  25.519  27.010  1.00  0.00     0.020 A 
ATOM     71  C   UNL A   1      52.259  25.548  25.664  1.00  0.00     0.054 A 
BRANCH  71  72
ATOM     72  S   UNL A   1      53.918  25.017  25.154  1.00  0.00     0.124 S 
ATOM     73  O   UNL A   1      53.743  23.581  24.958  1.00  0.00    -0.237 OA
ATOM     74  O   UNL A   1      54.137  25.796  23.937  1.00  0.00    -0.237 OA
ATOM     75  O   UNL A   1      54.765  25.384  26.288  1.00  0.00    -0.744 OA
ENDBRANCH  71  72
ENDBRANCH  52  66
BRANCH  53  76
ATOM     76  C   UNL A   1      40.602  29.516  29.062  1.00  0.00    -0.014 A 
ATOM     77  C   UNL A   1      39.614  29.752  28.093  1.00  0.00     0.010 A 
ATOM     78  C   UNL A   1      40.274  29.642  30.426  1.00  0.00     0.010 A 
ATOM     79  C   UNL A   1      38.313  30.087  28.483  1.00  0.00     0.020 A 
ATOM     80  C   UNL A   1      38.972  29.960  30.819  1.00  0.00     0.020 A 
ATOM     81  C   UNL A   1      37.997  30.176  29.843  1.00  0.00     0.054 A 
BRANCH  81  82
ATOM     82  S   UNL A   1      36.283  30.531  30.317  1.00  0.00     0.124 S 
ATOM     83  O   UNL A   1      35.546  30.146  29.117  1.00  0.00    -0.237 OA
ATOM     84  O   UNL A   1      36.098  29.665  31.478  1.00  0.00    -0.237 OA
ATOM     85  O   UNL A   1      36.294  31.962  30.610  1.00  0.00    -0.744 OA
ENDBRANCH  81  82
ENDBRANCH  53  76
BRANCH  65  86
ATOM     86  C   UNL A   1      46.907  32.554  28.906  1.00  0.00    -0.014 A 
ATOM     87  C   UNL A   1      46.833  33.629  28.004  1.00  0.00     0.010 A 
ATOM     88  C   UNL A   1      47.342  32.788  30.224  1.00  0.00     0.010 A 
ATOM     89  C   UNL A   1      47.182  34.917  28.415  1.00  0.00     0.020 A 
ATOM     90  C   UNL A   1      47.675  34.078  30.643  1.00  0.00     0.020 A 
ATOM     91  C   UNL A   1      47.590  35.136  29.735  1.00  0.00     0.054 A 
BRANCH  91  92
ATOM     92  S   UNL A   1      47.965  36.832  30.258  1.00  0.00     0.124 S 
ATOM     93  O   UNL A   1      48.405  36.638  31.638  1.00  0.00    -0.237 OA
ATOM     94  O   UNL A   1      49.008  37.227  29.315  1.00  0.00    -0.237 OA
ATOM     95  O   UNL A   1      46.693  37.534  30.105  1.00  0.00    -0.744 OA
ENDBRANCH  91  92
ENDBRANCH  65  86
ENDBRANCH  39  40
ENDBRANCH  32  34
ENDBRANCH  31  32
ENDBRANCH  30  31
ENDBRANCH   1  30
TORSDOF 17
ENDMDL
MODEL 3
REMARK VINA RESULT:     -11.3      2.187      8.659
REMARK SMILES COC(=O)c1ccc(C)c2c1[C@H]1C=CC[C@H]1[C@@H](c1ccc(C(=O)OCCOC(=O)c3ccc(-c4c5nc(c(-c6ccc(S(=O)(=O)[O-])cc6)c6ccc([nH]6)c(-c6ccc(S(=O)(=O)[O-])cc6)c6nc(c(-c7ccc(S(=O)(=O)[O-])cc7)c7ccc4[nH]7)C=C6)C=C5)cc3)cc1)N2
REMARK SMILES IDX 25 1 24 2 22 3 23 4 21 5 18 6 19 7 91 8 20 9 90 10 17 11
REMARK SMILES IDX 5 12 6 13 11 14 7 15 10 16 12 17 8 18 92 19 13 20 16 21 9 22
REMARK SMILES IDX 14 24 15 25 3 26 4 27 2 28 1 29 26 30 27 31 28 32 29 33
REMARK SMILES IDX 30 34 31 35 89 36 32 37 88 38 33 39 34 40 35 41 82 42 36 43
REMARK SMILES IDX 87 44 81 45 83 46 37 47 86 48 80 49 79 50 38 52 68 53 49 54
REMARK SMILES IDX 67 55 50 56 53 57 66 58 84 59 51 60 52 61 65 63 85 64 54 65
REMARK SMILES IDX 39 66 40 67 48 68 41 69 47 70 42 71 43 72 44 73 45 74 46 75
REMARK SMILES IDX 69 76 70 77 78 78 71 79 77 80 72 81 73 82 74 83 75 84 76 85
REMARK SMILES IDX 55 86 56 87 64 88 57 89 63 90 58 91 59 92 60 93 61 94 62 95
REMARK H PARENT 92 23 83 51 53 62
REMARK Flexibility Score: inf
ROOT
ATOM      1  C   UNL A   1      38.446  20.255  24.853  1.00  0.00     0.275 C 
ENDROOT
BRANCH   1   2
ATOM      2  O   UNL A   1      37.422  20.875  25.652  1.00  0.00    -0.458 OA
BRANCH   2   3
ATOM      3  C   UNL A   1      37.512  22.220  25.814  1.00  0.00     0.338 C 
ATOM      4  O   UNL A   1      38.532  22.878  25.901  1.00  0.00    -0.246 OA
BRANCH   3   5
ATOM      5  C   UNL A   1      36.156  22.809  25.698  1.00  0.00     0.060 A 
ATOM      6  C   UNL A   1      33.666  24.075  26.086  1.00  0.00    -0.025 A 
ATOM      7  C   UNL A   1      33.860  22.725  26.431  1.00  0.00     0.007 A 
ATOM      8  C   UNL A   1      34.684  24.692  25.337  1.00  0.00     0.007 A 
ATOM      9  C   UNL A   1      35.086  22.090  26.225  1.00  0.00     0.016 A 
ATOM     10  C   UNL A   1      35.936  24.087  25.183  1.00  0.00     0.016 A 
BRANCH   6  11
ATOM     11  C   UNL A   1      32.454  24.896  26.567  1.00  0.00     0.114 C 
ATOM     12  C   UNL A   1      32.078  27.534  23.223  1.00  0.00     0.065 A 
ATOM     13  C   UNL A   1      32.788  28.731  23.193  1.00  0.00     0.016 A 
ATOM     14  C   UNL A   1      32.065  26.716  24.376  1.00  0.00    -0.003 A 
ATOM     15  C   UNL A   1      33.471  29.142  24.333  1.00  0.00     0.006 A 
ATOM     16  C   UNL A   1      32.761  27.136  25.536  1.00  0.00     0.042 A 
ATOM     17  C   UNL A   1      31.215  25.472  24.408  1.00  0.00     0.050 C 
ATOM     18  C   UNL A   1      33.445  28.374  25.515  1.00  0.00    -0.028 A 
ATOM     19  N   UNL A   1      32.782  26.319  26.667  1.00  0.00    -0.377 N 
ATOM     20  C   UNL A   1      31.638  24.303  23.558  1.00  0.00    -0.023 C 
ATOM     21  C   UNL A   1      31.109  24.793  25.784  1.00  0.00     0.031 C 
ATOM     22  C   UNL A   1      34.192  28.944  26.693  1.00  0.00     0.046 C 
ATOM     23  H   UNL A   1      33.017  26.704  27.542  1.00  0.00     0.161 HD
ATOM     24  C   UNL A   1      31.251  23.144  24.106  1.00  0.00    -0.030 C 
ATOM     25  C   UNL A   1      30.609  23.383  25.435  1.00  0.00     0.034 C 
BRANCH  12  26
ATOM     26  C   UNL A   1      31.212  27.216  22.073  1.00  0.00     0.338 C 
ATOM     27  O   UNL A   1      31.440  26.306  21.296  1.00  0.00    -0.246 OA
BRANCH  26  28
ATOM     28  O   UNL A   1      30.228  28.140  21.986  1.00  0.00    -0.465 OA
ATOM     29  C   UNL A   1      29.191  27.982  22.958  1.00  0.00     0.282 C 
ENDBRANCH  26  28
ENDBRANCH  12  26
ENDBRANCH   6  11
ENDBRANCH   3   5
ENDBRANCH   2   3
ENDBRANCH   1   2
BRANCH   1  30
ATOM     30  C   UNL A   1      39.126  19.133  25.639  1.00  0.00     0.275 C 
BRANCH  30  31
ATOM     31  O   UNL A   1      40.000  19.673  26.649  1.00  0.00    -0.458 OA
BRANCH  31  32
ATOM     32  C   UNL A   1      41.300  19.797  26.296  1.00  0.00     0.338 C 
ATOM     33  O   UNL A   1      42.012  18.953  25.780  1.00  0.00    -0.246 OA
BRANCH  32  34
ATOM     34  C   UNL A   1      41.755  21.167  26.589  1.00  0.00     0.060 A 
ATOM     35  C   UNL A   1      41.924  22.052  25.525  1.00  0.00     0.016 A 
ATOM     36  C   UNL A   1      42.106  21.545  27.887  1.00  0.00     0.016 A 
ATOM     37  C   UNL A   1      42.450  23.325  25.749  1.00  0.00     0.010 A 
ATOM     38  C   UNL A   1      42.638  22.821  28.112  1.00  0.00     0.010 A 
ATOM     39  C   UNL A   1      42.831  23.711  27.042  1.00  0.00    -0.014 A 
BRANCH  39  40
ATOM     40  C   UNL A   1      43.477  25.030  27.248  1.00  0.00     0.031 A 
ATOM     41  C   UNL A   1      42.664  26.208  27.700  1.00  0.00     0.074 A 
ATOM     42  C   UNL A   1      44.805  25.163  27.087  1.00  0.00     0.049 A 
ATOM     43  N   UNL A   1      43.064  27.367  28.153  1.00  0.00    -0.248 NA
ATOM     44  C   UNL A   1      41.208  26.048  27.686  1.00  0.00     0.031 C 
ATOM     45  C   UNL A   1      45.720  24.097  26.682  1.00  0.00     0.029 A 
ATOM     46  N   UNL A   1      45.610  26.263  27.238  1.00  0.00    -0.354 N 
ATOM     47  C   UNL A   1      41.911  28.033  28.557  1.00  0.00     0.074 A 
ATOM     48  C   UNL A   1      40.794  27.163  28.270  1.00  0.00     0.031 C 
ATOM     49  C   UNL A   1      46.962  24.602  26.596  1.00  0.00     0.029 A 
ATOM     50  C   UNL A   1      46.924  26.027  26.923  1.00  0.00     0.049 A 
ATOM     51  H   UNL A   1      45.276  27.138  27.542  1.00  0.00     0.167 HD
ATOM     52  C   UNL A   1      41.792  29.264  29.103  1.00  0.00     0.031 A 
ATOM     53  C   UNL A   1      47.974  26.870  26.882  1.00  0.00     0.031 A 
ATOM     54  C   UNL A   1      42.879  30.198  29.209  1.00  0.00     0.049 A 
ATOM     55  C   UNL A   1      47.783  28.308  27.275  1.00  0.00     0.074 A 
ATOM     56  C   UNL A   1      42.853  31.498  29.683  1.00  0.00     0.029 A 
ATOM     57  N   UNL A   1      44.169  29.957  28.762  1.00  0.00    -0.354 N 
ATOM     58  N   UNL A   1      46.707  28.891  27.750  1.00  0.00    -0.248 NA
ATOM     59  C   UNL A   1      48.939  29.201  27.127  1.00  0.00     0.031 C 
ATOM     60  C   UNL A   1      44.108  32.068  29.445  1.00  0.00     0.029 A 
ATOM     61  C   UNL A   1      44.931  31.104  28.881  1.00  0.00     0.049 A 
ATOM     62  H   UNL A   1      44.493  29.096  28.409  1.00  0.00     0.167 HD
ATOM     63  C   UNL A   1      47.062  30.217  27.971  1.00  0.00     0.074 A 
ATOM     64  C   UNL A   1      48.450  30.350  27.578  1.00  0.00     0.031 C 
ATOM     65  C   UNL A   1      46.305  31.227  28.465  1.00  0.00     0.031 A 
BRANCH  52  66
ATOM     66  C   UNL A   1      40.430  29.695  29.565  1.00  0.00    -0.014 A 
ATOM     67  C   UNL A   1      40.109  29.698  30.935  1.00  0.00     0.010 A 
ATOM     68  C   UNL A   1      39.483  30.156  28.635  1.00  0.00     0.010 A 
ATOM     69  C   UNL A   1      38.862  30.159  31.367  1.00  0.00     0.020 A 
ATOM     70  C   UNL A   1      38.237  30.626  29.065  1.00  0.00     0.020 A 
ATOM     71  C   UNL A   1      37.936  30.627  30.429  1.00  0.00     0.054 A 
BRANCH  71  72
ATOM     72  S   UNL A   1      36.339  31.255  31.021  1.00  0.00     0.124 S 
ATOM     73  O   UNL A   1      35.524  31.235  29.810  1.00  0.00    -0.237 OA
ATOM     74  O   UNL A   1      35.975  30.274  32.041  1.00  0.00    -0.237 OA
ATOM     75  O   UNL A   1      36.657  32.589  31.528  1.00  0.00    -0.744 OA
ENDBRANCH  71  72
ENDBRANCH  52  66
BRANCH  53  76
ATOM     76  C   UNL A   1      49.287  26.361  26.411  1.00  0.00    -0.014 A 
ATOM     77  C   UNL A   1      49.709  26.568  25.088  1.00  0.00     0.010 A 
ATOM     78  C   UNL A   1      50.154  25.721  27.319  1.00  0.00     0.010 A 
ATOM     79  C   UNL A   1      50.984  26.161  24.685  1.00  0.00     0.020 A 
ATOM     80  C   UNL A   1      51.434  25.328  26.923  1.00  0.00     0.020 A 
ATOM     81  C   UNL A   1      51.844  25.556  25.608  1.00  0.00     0.054 A 
BRANCH  81  82
ATOM     82  S   UNL A   1      53.521  25.115  25.077  1.00  0.00     0.124 S 
ATOM     83  O   UNL A   1      53.512  23.661  25.208  1.00  0.00    -0.237 OA
ATOM     84  O   UNL A   1      53.557  25.627  23.710  1.00  0.00    -0.237 OA
ATOM     85  O   UNL A   1      54.381  25.821  26.024  1.00  0.00    -0.744 OA
ENDBRANCH  81  82
ENDBRANCH  53  76
BRANCH  65  86
ATOM     86  C   UNL A   1      46.944  32.580  28.614  1.00  0.00    -0.014 A 
ATOM     87  C   UNL A   1      46.836  33.543  27.596  1.00  0.00     0.010 A 
ATOM     88  C   UNL A   1      47.550  32.929  29.835  1.00  0.00     0.010 A 
ATOM     89  C   UNL A   1      47.323  34.836  27.799  1.00  0.00     0.020 A 
ATOM     90  C   UNL A   1      48.021  34.227  30.047  1.00  0.00     0.020 A 
ATOM     91  C   UNL A   1      47.902  35.173  29.027  1.00  0.00     0.054 A 
BRANCH  91  92
ATOM     92  S   UNL A   1      48.456  36.882  29.285  1.00  0.00     0.124 S 
ATOM     93  O   UNL A   1      49.333  37.097  28.136  1.00  0.00    -0.237 OA
ATOM     94  O   UNL A   1      47.200  37.626  29.265  1.00  0.00    -0.237 OA
ATOM     95  O   UNL A   1      49.130  36.838  30.581  1.00  0.00    -0.744 OA
ENDBRANCH  91  92
ENDBRANCH  65  86
ENDBRANCH  39  40
ENDBRANCH  32  34
ENDBRANCH  31  32
ENDBRANCH  30  31
ENDBRANCH   1  30
TORSDOF 17
ENDMDL
