MODEL 1
REMARK VINA RESULT:     -10.0      0.000      0.000
REMARK SMILES C[C@@H](NC(=O)N1CC[N@@H+]2CCCC[C@H]2C1)C(=O)OCCOC(=O)c1ccc(-c2c3nc(c(-c4ccc(S(=O)(=O)[O-])cc4)c4ccc([nH]4)c(-c4ccc(S(=O)(=O)[O-])cc4)c4nc(c(-c5ccc(S(=O)(=O)[O-])cc5)c5ccc2[nH]5)C=C4)C=C3)cc1
REMARK SMILES IDX 20 1 19 2 18 3 16 4 17 5 2 6 1 7 3 8 4 9 5 11 6 12 7 13
REMARK SMILES IDX 15 14 8 15 14 16 9 17 13 18 10 19 12 21 11 22 21 23 22 24
REMARK SMILES IDX 23 25 24 26 25 27 83 28 26 29 82 30 27 31 28 32 29 33 76 34
REMARK SMILES IDX 30 35 81 36 75 37 77 38 31 39 80 40 74 41 73 42 32 44 62 45
REMARK SMILES IDX 43 46 61 47 44 48 47 49 60 50 78 51 45 52 46 53 59 55 79 56
REMARK SMILES IDX 48 57 33 58 34 59 42 60 35 61 41 62 36 63 37 64 38 65 39 66
REMARK SMILES IDX 40 67 63 68 64 69 72 70 65 71 71 72 66 73 67 74 68 75 69 76
REMARK SMILES IDX 70 77 49 78 50 79 58 80 51 81 57 82 52 83 53 84 54 85 55 86
REMARK SMILES IDX 56 87
REMARK H PARENT 3 10 9 20 77 43 47 54
REMARK Flexibility Score: inf
ROOT
ATOM      1  C   UNL A   1      40.831  20.585  26.427  1.00  0.00     0.275 C 
ENDROOT
BRANCH   1   2
ATOM      2  C   UNL A   1      42.278  20.088  26.472  1.00  0.00     0.274 C 
BRANCH   2   3
ATOM      3  O   UNL A   1      43.001  20.098  25.226  1.00  0.00    -0.461 OA
BRANCH   3   4
ATOM      4  C   UNL A   1      44.108  19.300  25.168  1.00  0.00     0.328 C 
ATOM      5  O   UNL A   1      44.072  18.079  25.078  1.00  0.00    -0.250 OA
BRANCH   4   6
ATOM      6  C   UNL A   1      45.424  20.082  25.264  1.00  0.00     0.190 C 
ATOM      7  C   UNL A   1      46.647  19.173  25.372  1.00  0.00     0.043 C 
BRANCH   6   8
ATOM      8  N   UNL A   1      45.669  21.214  24.353  1.00  0.00    -0.325 N 
ATOM      9  C   UNL A   1      45.661  22.558  24.507  1.00  0.00     0.318 C 
ATOM     10  H   UNL A   1      45.885  20.931  23.436  1.00  0.00     0.166 HD
ATOM     11  O   UNL A   1      45.633  23.264  23.500  1.00  0.00    -0.249 OA
BRANCH   9  12
ATOM     12  N   UNL A   1      45.613  23.078  25.767  1.00  0.00    -0.313 N 
ATOM     13  C   UNL A   1      46.570  24.122  26.150  1.00  0.00     0.183 C 
ATOM     14  C   UNL A   1      44.292  23.343  26.314  1.00  0.00     0.186 C 
ATOM     15  C   UNL A   1      46.606  24.368  27.683  1.00  0.00     0.284 C 
ATOM     16  C   UNL A   1      44.380  23.328  27.845  1.00  0.00     0.203 C 
ATOM     17  N   UNL A   1      45.289  24.370  28.377  1.00  0.00    -0.330 N 
ATOM     18  C   UNL A   1      43.000  23.486  28.484  1.00  0.00     0.067 C 
ATOM     19  C   UNL A   1      45.476  24.205  29.831  1.00  0.00     0.262 C 
ATOM     20  H   UNL A   1      44.849  25.273  28.202  1.00  0.00     0.348 HD
ATOM     21  C   UNL A   1      43.117  23.249  29.986  1.00  0.00     0.012 C 
ATOM     22  C   UNL A   1      44.151  24.187  30.602  1.00  0.00     0.062 C 
ENDBRANCH   9  12
ENDBRANCH   6   8
ENDBRANCH   4   6
ENDBRANCH   3   4
ENDBRANCH   2   3
ENDBRANCH   1   2
BRANCH   1  23
ATOM     23  O   UNL A   1      40.678  21.867  27.052  1.00  0.00    -0.458 OA
BRANCH  23  24
ATOM     24  C   UNL A   1      39.581  22.538  26.632  1.00  0.00     0.338 C 
ATOM     25  O   UNL A   1      38.606  22.051  26.081  1.00  0.00    -0.246 OA
BRANCH  24  26
ATOM     26  C   UNL A   1      39.618  23.947  27.063  1.00  0.00     0.060 A 
ATOM     27  C   UNL A   1      40.037  24.879  26.106  1.00  0.00     0.016 A 
ATOM     28  C   UNL A   1      39.349  24.344  28.375  1.00  0.00     0.016 A 
ATOM     29  C   UNL A   1      40.276  26.195  26.473  1.00  0.00     0.010 A 
ATOM     30  C   UNL A   1      39.602  25.667  28.748  1.00  0.00     0.010 A 
ATOM     31  C   UNL A   1      40.120  26.575  27.809  1.00  0.00    -0.014 A 
BRANCH  31  32
ATOM     32  C   UNL A   1      40.736  27.845  28.248  1.00  0.00     0.031 A 
ATOM     33  C   UNL A   1      42.224  28.001  28.084  1.00  0.00     0.074 A 
ATOM     34  C   UNL A   1      39.977  28.856  28.701  1.00  0.00     0.049 A 
ATOM     35  N   UNL A   1      42.989  29.014  28.388  1.00  0.00    -0.248 NA
ATOM     36  C   UNL A   1      42.945  26.857  27.493  1.00  0.00     0.031 C 
ATOM     37  C   UNL A   1      38.521  28.826  28.832  1.00  0.00     0.029 A 
ATOM     38  N   UNL A   1      40.332  30.109  29.128  1.00  0.00    -0.354 N 
ATOM     39  C   UNL A   1      44.279  28.629  28.037  1.00  0.00     0.074 A 
ATOM     40  C   UNL A   1      44.199  27.283  27.516  1.00  0.00     0.031 C 
ATOM     41  C   UNL A   1      38.105  30.010  29.318  1.00  0.00     0.029 A 
ATOM     42  C   UNL A   1      39.267  30.863  29.556  1.00  0.00     0.049 A 
ATOM     43  H   UNL A   1      41.260  30.435  29.127  1.00  0.00     0.167 HD
ATOM     44  C   UNL A   1      45.429  29.335  28.143  1.00  0.00     0.031 A 
ATOM     45  C   UNL A   1      39.242  32.097  30.095  1.00  0.00     0.031 A 
ATOM     46  C   UNL A   1      45.495  30.668  28.675  1.00  0.00     0.049 A 
ATOM     47  C   UNL A   1      40.540  32.844  30.254  1.00  0.00     0.074 A 
ATOM     48  C   UNL A   1      46.604  31.477  28.841  1.00  0.00     0.029 A 
ATOM     49  N   UNL A   1      44.399  31.387  29.130  1.00  0.00    -0.354 N 
ATOM     50  N   UNL A   1      41.754  32.465  29.926  1.00  0.00    -0.248 NA
ATOM     51  C   UNL A   1      40.466  34.185  30.849  1.00  0.00     0.031 C 
ATOM     52  C   UNL A   1      46.183  32.671  29.438  1.00  0.00     0.029 A 
ATOM     53  C   UNL A   1      44.807  32.624  29.595  1.00  0.00     0.049 A 
ATOM     54  H   UNL A   1      43.469  31.064  29.123  1.00  0.00     0.167 HD
ATOM     55  C   UNL A   1      42.586  33.528  30.258  1.00  0.00     0.074 A 
ATOM     56  C   UNL A   1      41.735  34.570  30.798  1.00  0.00     0.031 C 
ATOM     57  C   UNL A   1      43.932  33.637  30.130  1.00  0.00     0.031 A 
BRANCH  44  58
ATOM     58  C   UNL A   1      46.700  28.655  27.715  1.00  0.00    -0.014 A 
ATOM     59  C   UNL A   1      47.493  27.942  28.634  1.00  0.00     0.010 A 
ATOM     60  C   UNL A   1      47.106  28.723  26.370  1.00  0.00     0.010 A 
ATOM     61  C   UNL A   1      48.688  27.344  28.222  1.00  0.00     0.020 A 
ATOM     62  C   UNL A   1      48.287  28.106  25.950  1.00  0.00     0.020 A 
ATOM     63  C   UNL A   1      49.081  27.434  26.883  1.00  0.00     0.054 A 
BRANCH  63  64
ATOM     64  S   UNL A   1      50.629  26.640  26.370  1.00  0.00     0.124 S 
ATOM     65  O   UNL A   1      51.586  27.737  26.495  1.00  0.00    -0.237 OA
ATOM     66  O   UNL A   1      50.778  25.564  27.346  1.00  0.00    -0.237 OA
ATOM     67  O   UNL A   1      50.357  26.203  25.003  1.00  0.00    -0.744 OA
ENDBRANCH  63  64
ENDBRANCH  44  58
BRANCH  45  68
ATOM     68  C   UNL A   1      37.951  32.683  30.543  1.00  0.00    -0.014 A 
ATOM     69  C   UNL A   1      37.529  32.568  31.878  1.00  0.00     0.010 A 
ATOM     70  C   UNL A   1      37.145  33.389  29.630  1.00  0.00     0.010 A 
ATOM     71  C   UNL A   1      36.320  33.139  32.291  1.00  0.00     0.020 A 
ATOM     72  C   UNL A   1      35.949  33.982  30.043  1.00  0.00     0.020 A 
ATOM     73  C   UNL A   1      35.539  33.846  31.371  1.00  0.00     0.054 A 
BRANCH  73  74
ATOM     74  S   UNL A   1      34.009  34.637  31.940  1.00  0.00     0.124 S 
ATOM     75  O   UNL A   1      33.267  34.796  30.693  1.00  0.00    -0.237 OA
ATOM     76  O   UNL A   1      33.472  33.653  32.875  1.00  0.00    -0.237 OA
ATOM     77  O   UNL A   1      34.475  35.878  32.554  1.00  0.00    -0.744 OA
ENDBRANCH  73  74
ENDBRANCH  45  68
BRANCH  57  78
ATOM     78  C   UNL A   1      44.559  34.934  30.558  1.00  0.00    -0.014 A 
ATOM     79  C   UNL A   1      45.066  35.100  31.859  1.00  0.00     0.010 A 
ATOM     80  C   UNL A   1      44.694  35.979  29.626  1.00  0.00     0.010 A 
ATOM     81  C   UNL A   1      45.670  36.302  32.230  1.00  0.00     0.020 A 
ATOM     82  C   UNL A   1      45.320  37.174  29.988  1.00  0.00     0.020 A 
ATOM     83  C   UNL A   1      45.790  37.333  31.292  1.00  0.00     0.054 A 
BRANCH  83  84
ATOM     84  S   UNL A   1      46.616  38.871  31.784  1.00  0.00     0.124 S 
ATOM     85  O   UNL A   1      47.200  39.317  30.522  1.00  0.00    -0.237 OA
ATOM     86  O   UNL A   1      45.512  39.685  32.287  1.00  0.00    -0.237 OA
ATOM     87  O   UNL A   1      47.575  38.440  32.798  1.00  0.00    -0.744 OA
ENDBRANCH  83  84
ENDBRANCH  57  78
ENDBRANCH  31  32
ENDBRANCH  24  26
ENDBRANCH  23  24
ENDBRANCH   1  23
TORSDOF 16
ENDMDL
MODEL 2
REMARK VINA RESULT:      -9.8      4.928     11.167
REMARK SMILES C[C@@H](NC(=O)N1CC[N@@H+]2CCCC[C@H]2C1)C(=O)OCCOC(=O)c1ccc(-c2c3nc(c(-c4ccc(S(=O)(=O)[O-])cc4)c4ccc([nH]4)c(-c4ccc(S(=O)(=O)[O-])cc4)c4nc(c(-c5ccc(S(=O)(=O)[O-])cc5)c5ccc2[nH]5)C=C4)C=C3)cc1
REMARK SMILES IDX 20 1 19 2 18 3 16 4 17 5 2 6 1 7 3 8 4 9 5 11 6 12 7 13
REMARK SMILES IDX 15 14 8 15 14 16 9 17 13 18 10 19 12 21 11 22 21 23 22 24
REMARK SMILES IDX 23 25 24 26 25 27 83 28 26 29 82 30 27 31 28 32 29 33 76 34
REMARK SMILES IDX 30 35 81 36 75 37 77 38 31 39 80 40 74 41 73 42 32 44 62 45
REMARK SMILES IDX 43 46 61 47 44 48 47 49 60 50 78 51 45 52 46 53 59 55 79 56
REMARK SMILES IDX 48 57 33 58 34 59 42 60 35 61 41 62 36 63 37 64 38 65 39 66
REMARK SMILES IDX 40 67 63 68 64 69 72 70 65 71 71 72 66 73 67 74 68 75 69 76
REMARK SMILES IDX 70 77 49 78 50 79 58 80 51 81 57 82 52 83 53 84 54 85 55 86
REMARK SMILES IDX 56 87
REMARK H PARENT 3 10 9 20 77 43 47 54
REMARK Flexibility Score: inf
ROOT
ATOM      1  C   UNL A   1      32.358  30.555  27.121  1.00  0.00     0.275 C 
ENDROOT
BRANCH   1   2
ATOM      2  C   UNL A   1      31.729  30.520  25.726  1.00  0.00     0.274 C 
BRANCH   2   3
ATOM      3  O   UNL A   1      31.445  29.217  25.181  1.00  0.00    -0.461 OA
BRANCH   3   4
ATOM      4  C   UNL A   1      32.142  28.870  24.058  1.00  0.00     0.328 C 
ATOM      5  O   UNL A   1      33.284  29.241  23.815  1.00  0.00    -0.250 OA
BRANCH   4   6
ATOM      6  C   UNL A   1      31.339  27.989  23.094  1.00  0.00     0.190 C 
ATOM      7  C   UNL A   1      30.138  28.715  22.488  1.00  0.00     0.043 C 
BRANCH   6   8
ATOM      8  N   UNL A   1      32.043  27.175  22.089  1.00  0.00    -0.325 N 
ATOM      9  C   UNL A   1      32.637  25.960  22.116  1.00  0.00     0.318 C 
ATOM     10  H   UNL A   1      32.092  27.608  21.207  1.00  0.00     0.166 HD
ATOM     11  O   UNL A   1      33.388  25.651  21.192  1.00  0.00    -0.249 OA
BRANCH   9  12
ATOM     12  N   UNL A   1      32.438  25.152  23.197  1.00  0.00    -0.313 N 
ATOM     13  C   UNL A   1      31.149  24.469  23.356  1.00  0.00     0.183 C 
ATOM     14  C   UNL A   1      33.544  24.293  23.583  1.00  0.00     0.186 C 
ATOM     15  C   UNL A   1      30.961  23.867  24.776  1.00  0.00     0.284 C 
ATOM     16  C   UNL A   1      33.404  23.944  25.070  1.00  0.00     0.203 C 
ATOM     17  N   UNL A   1      32.154  23.206  25.371  1.00  0.00    -0.330 N 
ATOM     18  C   UNL A   1      34.601  23.134  25.569  1.00  0.00     0.067 C 
ATOM     19  C   UNL A   1      31.981  23.048  26.827  1.00  0.00     0.262 C 
ATOM     20  H   UNL A   1      32.239  22.283  24.946  1.00  0.00     0.348 HD
ATOM     21  C   UNL A   1      34.517  23.002  27.086  1.00  0.00     0.012 C 
ATOM     22  C   UNL A   1      33.186  22.382  27.500  1.00  0.00     0.062 C 
ENDBRANCH   9  12
ENDBRANCH   6   8
ENDBRANCH   4   6
ENDBRANCH   3   4
ENDBRANCH   2   3
ENDBRANCH   1   2
BRANCH   1  23
ATOM     23  O   UNL A   1      33.791  30.532  27.071  1.00  0.00    -0.458 OA
BRANCH  23  24
ATOM     24  C   UNL A   1      34.318  29.340  27.433  1.00  0.00     0.338 C 
ATOM     25  O   UNL A   1      33.809  28.243  27.256  1.00  0.00    -0.246 OA
BRANCH  24  26
ATOM     26  C   UNL A   1      35.691  29.494  27.946  1.00  0.00     0.060 A 
ATOM     27  C   UNL A   1      36.684  29.759  26.993  1.00  0.00     0.016 A 
ATOM     28  C   UNL A   1      36.025  29.296  29.287  1.00  0.00     0.016 A 
ATOM     29  C   UNL A   1      38.021  29.738  27.358  1.00  0.00     0.010 A 
ATOM     30  C   UNL A   1      37.374  29.262  29.653  1.00  0.00     0.010 A 
ATOM     31  C   UNL A   1      38.370  29.425  28.675  1.00  0.00    -0.014 A 
BRANCH  31  32
ATOM     32  C   UNL A   1      39.769  29.033  28.950  1.00  0.00     0.031 A 
ATOM     33  C   UNL A   1      40.661  30.038  29.627  1.00  0.00     0.074 A 
ATOM     34  C   UNL A   1      40.200  27.791  28.679  1.00  0.00     0.049 A 
ATOM     35  N   UNL A   1      41.914  29.930  29.977  1.00  0.00    -0.248 NA
ATOM     36  C   UNL A   1      40.054  31.341  29.960  1.00  0.00     0.031 C 
ATOM     37  C   UNL A   1      39.392  26.726  28.087  1.00  0.00     0.029 A 
ATOM     38  N   UNL A   1      41.429  27.217  28.876  1.00  0.00    -0.354 N 
ATOM     39  C   UNL A   1      42.250  31.150  30.557  1.00  0.00     0.074 A 
ATOM     40  C   UNL A   1      41.076  31.990  30.496  1.00  0.00     0.031 C 
ATOM     41  C   UNL A   1      40.153  25.624  27.960  1.00  0.00     0.029 A 
ATOM     42  C   UNL A   1      41.503  25.919  28.435  1.00  0.00     0.049 A 
ATOM     43  H   UNL A   1      42.184  27.690  29.293  1.00  0.00     0.167 HD
ATOM     44  C   UNL A   1      43.432  31.533  31.090  1.00  0.00     0.031 A 
ATOM     45  C   UNL A   1      42.551  25.073  28.405  1.00  0.00     0.031 A 
ATOM     46  C   UNL A   1      44.595  30.690  31.132  1.00  0.00     0.049 A 
ATOM     47  C   UNL A   1      43.873  25.540  28.955  1.00  0.00     0.074 A 
ATOM     48  C   UNL A   1      45.851  30.975  31.636  1.00  0.00     0.029 A 
ATOM     49  N   UNL A   1      44.641  29.392  30.644  1.00  0.00    -0.354 N 
ATOM     50  N   UNL A   1      44.179  26.699  29.492  1.00  0.00    -0.248 NA
ATOM     51  C   UNL A   1      44.989  24.587  28.899  1.00  0.00     0.031 C 
ATOM     52  C   UNL A   1      46.669  29.862  31.415  1.00  0.00     0.029 A 
ATOM     53  C   UNL A   1      45.909  28.867  30.819  1.00  0.00     0.049 A 
ATOM     54  H   UNL A   1      43.884  28.915  30.234  1.00  0.00     0.167 HD
ATOM     55  C   UNL A   1      45.518  26.607  29.856  1.00  0.00     0.074 A 
ATOM     56  C   UNL A   1      45.958  25.275  29.490  1.00  0.00     0.031 C 
ATOM     57  C   UNL A   1      46.314  27.537  30.439  1.00  0.00     0.031 A 
BRANCH  44  58
ATOM     58  C   UNL A   1      43.528  32.936  31.624  1.00  0.00    -0.014 A 
ATOM     59  C   UNL A   1      43.907  34.010  30.797  1.00  0.00     0.010 A 
ATOM     60  C   UNL A   1      43.226  33.187  32.974  1.00  0.00     0.010 A 
ATOM     61  C   UNL A   1      44.020  35.301  31.320  1.00  0.00     0.020 A 
ATOM     62  C   UNL A   1      43.315  34.481  33.496  1.00  0.00     0.020 A 
ATOM     63  C   UNL A   1      43.729  35.528  32.670  1.00  0.00     0.054 A 
BRANCH  63  64
ATOM     64  S   UNL A   1      43.871  37.213  33.323  1.00  0.00     0.124 S 
ATOM     65  O   UNL A   1      45.160  37.162  34.010  1.00  0.00    -0.237 OA
ATOM     66  O   UNL A   1      43.837  38.032  32.114  1.00  0.00    -0.237 OA
ATOM     67  O   UNL A   1      42.706  37.346  34.195  1.00  0.00    -0.744 OA
ENDBRANCH  63  64
ENDBRANCH  44  58
BRANCH  45  68
ATOM     68  C   UNL A   1      42.394  23.719  27.813  1.00  0.00    -0.014 A 
ATOM     69  C   UNL A   1      42.665  23.487  26.454  1.00  0.00     0.010 A 
ATOM     70  C   UNL A   1      41.991  22.640  28.623  1.00  0.00     0.010 A 
ATOM     71  C   UNL A   1      42.529  22.204  25.913  1.00  0.00     0.020 A 
ATOM     72  C   UNL A   1      41.878  21.352  28.093  1.00  0.00     0.020 A 
ATOM     73  C   UNL A   1      42.140  21.143  26.737  1.00  0.00     0.054 A 
BRANCH  73  74
ATOM     74  S   UNL A   1      42.035  19.474  26.033  1.00  0.00     0.124 S 
ATOM     75  O   UNL A   1      42.894  19.585  24.859  1.00  0.00    -0.237 OA
ATOM     76  O   UNL A   1      42.548  18.640  27.116  1.00  0.00    -0.237 OA
ATOM     77  O   UNL A   1      40.610  19.312  25.754  1.00  0.00    -0.744 OA
ENDBRANCH  73  74
ENDBRANCH  45  68
BRANCH  57  78
ATOM     78  C   UNL A   1      47.731  27.136  30.738  1.00  0.00    -0.014 A 
ATOM     79  C   UNL A   1      48.767  27.397  29.824  1.00  0.00     0.010 A 
ATOM     80  C   UNL A   1      48.036  26.543  31.977  1.00  0.00     0.010 A 
ATOM     81  C   UNL A   1      50.082  27.042  30.132  1.00  0.00     0.020 A 
ATOM     82  C   UNL A   1      49.354  26.209  32.297  1.00  0.00     0.020 A 
ATOM     83  C   UNL A   1      50.366  26.447  31.365  1.00  0.00     0.054 A 
BRANCH  83  84
ATOM     84  S   UNL A   1      52.087  26.033  31.761  1.00  0.00     0.124 S 
ATOM     85  O   UNL A   1      52.402  27.009  32.800  1.00  0.00    -0.237 OA
ATOM     86  O   UNL A   1      51.991  24.645  32.209  1.00  0.00    -0.237 OA
ATOM     87  O   UNL A   1      52.788  26.222  30.493  1.00  0.00    -0.744 OA
ENDBRANCH  83  84
ENDBRANCH  57  78
ENDBRANCH  31  32
ENDBRANCH  24  26
ENDBRANCH  23  24
ENDBRANCH   1  23
TORSDOF 16
ENDMDL
MODEL 3
REMARK VINA RESULT:      -9.8      5.238      6.863
REMARK SMILES C[C@@H](NC(=O)N1CC[N@@H+]2CCCC[C@H]2C1)C(=O)OCCOC(=O)c1ccc(-c2c3nc(c(-c4ccc(S(=O)(=O)[O-])cc4)c4ccc([nH]4)c(-c4ccc(S(=O)(=O)[O-])cc4)c4nc(c(-c5ccc(S(=O)(=O)[O-])cc5)c5ccc2[nH]5)C=C4)C=C3)cc1
REMARK SMILES IDX 20 1 19 2 18 3 16 4 17 5 2 6 1 7 3 8 4 9 5 11 6 12 7 13
REMARK SMILES IDX 15 14 8 15 14 16 9 17 13 18 10 19 12 21 11 22 21 23 22 24
REMARK SMILES IDX 23 25 24 26 25 27 83 28 26 29 82 30 27 31 28 32 29 33 76 34
REMARK SMILES IDX 30 35 81 36 75 37 77 38 31 39 80 40 74 41 73 42 32 44 62 45
REMARK SMILES IDX 43 46 61 47 44 48 47 49 60 50 78 51 45 52 46 53 59 55 79 56
REMARK SMILES IDX 48 57 33 58 34 59 42 60 35 61 41 62 36 63 37 64 38 65 39 66
REMARK SMILES IDX 40 67 63 68 64 69 72 70 65 71 71 72 66 73 67 74 68 75 69 76
REMARK SMILES IDX 70 77 49 78 50 79 58 80 51 81 57 82 52 83 53 84 54 85 55 86
REMARK SMILES IDX 56 87
REMARK H PARENT 3 10 9 20 77 43 47 54
REMARK Flexibility Score: inf
ROOT
ATOM      1  C   UNL A   1      42.807  25.902  25.370  1.00  0.00     0.275 C 
ENDROOT
BRANCH   1   2
ATOM      2  C   UNL A   1      43.793  25.197  26.304  1.00  0.00     0.274 C 
BRANCH   2   3
ATOM      3  O   UNL A   1      44.018  25.812  27.587  1.00  0.00    -0.461 OA
BRANCH   3   4
ATOM      4  C   UNL A   1      43.293  25.309  28.630  1.00  0.00     0.328 C 
ATOM      5  O   UNL A   1      42.967  25.957  29.618  1.00  0.00    -0.250 OA
BRANCH   4   6
ATOM      6  C   UNL A   1      42.948  23.824  28.468  1.00  0.00     0.190 C 
ATOM      7  C   UNL A   1      43.622  22.940  29.517  1.00  0.00     0.043 C 
BRANCH   6   8
ATOM      8  N   UNL A   1      41.551  23.419  28.235  1.00  0.00    -0.325 N 
ATOM      9  C   UNL A   1      40.964  22.495  27.440  1.00  0.00     0.318 C 
ATOM     10  H   UNL A   1      40.906  23.931  28.773  1.00  0.00     0.166 HD
ATOM     11  O   UNL A   1      39.751  22.569  27.251  1.00  0.00    -0.249 OA
BRANCH   9  12
ATOM     12  N   UNL A   1      41.744  21.562  26.824  1.00  0.00    -0.313 N 
ATOM     13  C   UNL A   1      41.179  20.243  26.514  1.00  0.00     0.183 C 
ATOM     14  C   UNL A   1      42.604  22.035  25.752  1.00  0.00     0.186 C 
ATOM     15  C   UNL A   1      42.265  19.202  26.127  1.00  0.00     0.284 C 
ATOM     16  C   UNL A   1      43.785  21.067  25.602  1.00  0.00     0.203 C 
ATOM     17  N   UNL A   1      43.358  19.693  25.245  1.00  0.00    -0.330 N 
ATOM     18  C   UNL A   1      44.791  21.570  24.567  1.00  0.00     0.067 C 
ATOM     19  C   UNL A   1      44.504  18.766  25.284  1.00  0.00     0.262 C 
ATOM     20  H   UNL A   1      42.995  19.729  24.293  1.00  0.00     0.348 HD
ATOM     21  C   UNL A   1      46.037  20.691  24.614  1.00  0.00     0.012 C 
ATOM     22  C   UNL A   1      45.671  19.225  24.402  1.00  0.00     0.062 C 
ENDBRANCH   9  12
ENDBRANCH   6   8
ENDBRANCH   4   6
ENDBRANCH   3   4
ENDBRANCH   2   3
ENDBRANCH   1   2
BRANCH   1  23
ATOM     23  O   UNL A   1      42.042  26.907  26.049  1.00  0.00    -0.458 OA
BRANCH  23  24
ATOM     24  C   UNL A   1      40.825  26.472  26.450  1.00  0.00     0.338 C 
ATOM     25  O   UNL A   1      40.249  25.474  26.047  1.00  0.00    -0.246 OA
BRANCH  24  26
ATOM     26  C   UNL A   1      40.315  27.272  27.577  1.00  0.00     0.060 A 
ATOM     27  C   UNL A   1      40.666  28.628  27.587  1.00  0.00     0.016 A 
ATOM     28  C   UNL A   1      39.601  26.713  28.640  1.00  0.00     0.016 A 
ATOM     29  C   UNL A   1      40.386  29.412  28.696  1.00  0.00     0.010 A 
ATOM     30  C   UNL A   1      39.331  27.499  29.763  1.00  0.00     0.010 A 
ATOM     31  C   UNL A   1      39.776  28.832  29.811  1.00  0.00    -0.014 A 
BRANCH  31  32
ATOM     32  C   UNL A   1      39.836  29.561  31.096  1.00  0.00     0.031 A 
ATOM     33  C   UNL A   1      40.991  29.272  32.017  1.00  0.00     0.074 A 
ATOM     34  C   UNL A   1      38.932  30.509  31.391  1.00  0.00     0.049 A 
ATOM     35  N   UNL A   1      41.265  29.782  33.187  1.00  0.00    -0.248 NA
ATOM     36  C   UNL A   1      41.973  28.275  31.550  1.00  0.00     0.031 C 
ATOM     37  C   UNL A   1      37.816  30.909  30.534  1.00  0.00     0.029 A 
ATOM     38  N   UNL A   1      38.818  31.313  32.495  1.00  0.00    -0.354 N 
ATOM     39  C   UNL A   1      42.439  29.162  33.602  1.00  0.00     0.074 A 
ATOM     40  C   UNL A   1      42.817  28.225  32.569  1.00  0.00     0.031 C 
ATOM     41  C   UNL A   1      37.123  31.882  31.151  1.00  0.00     0.029 A 
ATOM     42  C   UNL A   1      37.729  32.149  32.453  1.00  0.00     0.049 A 
ATOM     43  H   UNL A   1      39.455  31.292  33.244  1.00  0.00     0.167 HD
ATOM     44  C   UNL A   1      43.138  29.357  34.744  1.00  0.00     0.031 A 
ATOM     45  C   UNL A   1      37.269  33.017  33.374  1.00  0.00     0.031 A 
ATOM     46  C   UNL A   1      42.742  30.284  35.768  1.00  0.00     0.049 A 
ATOM     47  C   UNL A   1      38.033  33.179  34.662  1.00  0.00     0.074 A 
ATOM     48  C   UNL A   1      43.365  30.557  36.972  1.00  0.00     0.029 A 
ATOM     49  N   UNL A   1      41.614  31.089  35.705  1.00  0.00    -0.354 N 
ATOM     50  N   UNL A   1      39.138  32.580  35.045  1.00  0.00    -0.248 NA
ATOM     51  C   UNL A   1      37.494  34.134  35.638  1.00  0.00     0.031 C 
ATOM     52  C   UNL A   1      42.588  31.499  37.657  1.00  0.00     0.029 A 
ATOM     53  C   UNL A   1      41.511  31.848  36.857  1.00  0.00     0.049 A 
ATOM     54  H   UNL A   1      40.981  31.116  34.952  1.00  0.00     0.167 HD
ATOM     55  C   UNL A   1      39.436  33.100  36.300  1.00  0.00     0.074 A 
ATOM     56  C   UNL A   1      38.404  34.072  36.603  1.00  0.00     0.031 C 
ATOM     57  C   UNL A   1      40.467  32.804  37.128  1.00  0.00     0.031 A 
BRANCH  44  58
ATOM     58  C   UNL A   1      44.368  28.517  34.954  1.00  0.00    -0.014 A 
ATOM     59  C   UNL A   1      45.648  28.998  34.621  1.00  0.00     0.010 A 
ATOM     60  C   UNL A   1      44.243  27.228  35.501  1.00  0.00     0.010 A 
ATOM     61  C   UNL A   1      46.775  28.190  34.796  1.00  0.00     0.020 A 
ATOM     62  C   UNL A   1      45.370  26.426  35.699  1.00  0.00     0.020 A 
ATOM     63  C   UNL A   1      46.628  26.905  35.328  1.00  0.00     0.054 A 
BRANCH  63  64
ATOM     64  S   UNL A   1      48.106  25.879  35.556  1.00  0.00     0.124 S 
ATOM     65  O   UNL A   1      47.552  24.691  36.203  1.00  0.00    -0.237 OA
ATOM     66  O   UNL A   1      48.578  25.684  34.187  1.00  0.00    -0.237 OA
ATOM     67  O   UNL A   1      48.971  26.700  36.399  1.00  0.00    -0.744 OA
ENDBRANCH  63  64
ENDBRANCH  44  58
BRANCH  45  68
ATOM     68  C   UNL A   1      36.016  33.774  33.117  1.00  0.00    -0.014 A 
ATOM     69  C   UNL A   1      36.053  35.107  32.674  1.00  0.00     0.010 A 
ATOM     70  C   UNL A   1      34.767  33.147  33.293  1.00  0.00     0.010 A 
ATOM     71  C   UNL A   1      34.866  35.802  32.420  1.00  0.00     0.020 A 
ATOM     72  C   UNL A   1      33.580  33.829  33.016  1.00  0.00     0.020 A 
ATOM     73  C   UNL A   1      33.636  35.157  32.588  1.00  0.00     0.054 A 
BRANCH  73  74
ATOM     74  S   UNL A   1      32.110  36.054  32.189  1.00  0.00     0.124 S 
ATOM     75  O   UNL A   1      32.190  37.203  33.084  1.00  0.00    -0.237 OA
ATOM     76  O   UNL A   1      32.276  36.345  30.767  1.00  0.00    -0.237 OA
ATOM     77  O   UNL A   1      31.058  35.089  32.499  1.00  0.00    -0.744 OA
ENDBRANCH  73  74
ENDBRANCH  45  68
BRANCH  57  78
ATOM     78  C   UNL A   1      40.542  33.557  38.427  1.00  0.00    -0.014 A 
ATOM     79  C   UNL A   1      39.905  33.073  39.583  1.00  0.00     0.010 A 
ATOM     80  C   UNL A   1      41.309  34.733  38.502  1.00  0.00     0.010 A 
ATOM     81  C   UNL A   1      40.008  33.771  40.787  1.00  0.00     0.020 A 
ATOM     82  C   UNL A   1      41.434  35.421  39.712  1.00  0.00     0.020 A 
ATOM     83  C   UNL A   1      40.770  34.943  40.843  1.00  0.00     0.054 A 
BRANCH  83  84
ATOM     84  S   UNL A   1      40.925  35.812  42.427  1.00  0.00     0.124 S 
ATOM     85  O   UNL A   1      40.472  37.156  42.081  1.00  0.00    -0.237 OA
ATOM     86  O   UNL A   1      40.033  35.053  43.301  1.00  0.00    -0.237 OA
ATOM     87  O   UNL A   1      42.346  35.694  42.748  1.00  0.00    -0.744 OA
ENDBRANCH  83  84
ENDBRANCH  57  78
ENDBRANCH  31  32
ENDBRANCH  24  26
ENDBRANCH  23  24
ENDBRANCH   1  23
TORSDOF 16
ENDMDL
