MODEL 1
REMARK VINA RESULT:      -8.8      0.000      0.000
REMARK SMILES O=C(OCCOC(=O)[C@@H]1CSCN1C(=O)c1cccc(Cl)c1)c1ccc(-c2c3nc(c(-c4ccc(S(=O)(=O)[O-])cc4)c4ccc([nH]4)c(-c4ccc(S(=O)(=O)[O-])cc4)c4nc(c(-c5ccc(S(=O)(=O)[O-])cc5)c5ccc2[nH]5)C=C4)C=C3)cc1
REMARK SMILES IDX 4 1 3 2 2 3 1 4 23 5 24 6 82 7 25 8 81 9 26 10 27 11 28 12
REMARK SMILES IDX 75 13 29 14 80 15 74 16 76 17 30 18 79 19 73 20 72 21 31 23
REMARK SMILES IDX 61 24 42 25 60 26 43 27 46 28 59 29 77 30 44 31 45 32 58 34
REMARK SMILES IDX 78 35 47 36 32 37 33 38 41 39 34 40 40 41 35 42 36 43 37 44
REMARK SMILES IDX 38 45 39 46 62 47 63 48 71 49 64 50 70 51 65 52 66 53 67 54
REMARK SMILES IDX 68 55 69 56 48 57 49 58 57 59 50 60 56 61 51 62 52 63 53 64
REMARK SMILES IDX 54 65 55 66 5 67 6 68 7 69 8 70 9 71 10 72 13 73 11 74 12 75
REMARK SMILES IDX 14 76 15 77 16 78 17 79 22 80 18 81 20 82 19 83 21 84
REMARK H PARENT 76 22 46 33
REMARK Flexibility Score: inf
ROOT
ATOM      1  C   UNL A   1      41.625  21.780  26.392  1.00  0.00     0.275 C 
ENDROOT
BRANCH   1   2
ATOM      2  O   UNL A   1      40.237  21.896  26.013  1.00  0.00    -0.458 OA
BRANCH   2   3
ATOM      3  C   UNL A   1      39.340  22.891  26.217  1.00  0.00     0.338 C 
ATOM      4  O   UNL A   1      38.218  22.767  25.728  1.00  0.00    -0.246 OA
BRANCH   3   5
ATOM      5  C   UNL A   1      39.654  24.199  26.882  1.00  0.00     0.060 A 
ATOM      6  C   UNL A   1      40.287  25.292  26.289  1.00  0.00     0.016 A 
ATOM      7  C   UNL A   1      39.249  24.331  28.226  1.00  0.00     0.016 A 
ATOM      8  C   UNL A   1      40.434  26.499  26.976  1.00  0.00     0.010 A 
ATOM      9  C   UNL A   1      39.380  25.543  28.917  1.00  0.00     0.010 A 
ATOM     10  C   UNL A   1      39.985  26.636  28.292  1.00  0.00    -0.014 A 
BRANCH  10  11
ATOM     11  C   UNL A   1      40.337  27.869  29.033  1.00  0.00     0.031 A 
ATOM     12  C   UNL A   1      41.734  27.994  29.567  1.00  0.00     0.074 A 
ATOM     13  C   UNL A   1      39.472  28.900  29.105  1.00  0.00     0.049 A 
ATOM     14  N   UNL A   1      42.328  29.035  30.086  1.00  0.00    -0.248 NA
ATOM     15  C   UNL A   1      42.583  26.792  29.488  1.00  0.00     0.031 C 
ATOM     16  C   UNL A   1      38.104  28.889  28.589  1.00  0.00     0.029 A 
ATOM     17  N   UNL A   1      39.624  30.168  29.609  1.00  0.00    -0.354 N 
ATOM     18  C   UNL A   1      43.626  28.624  30.360  1.00  0.00     0.074 A 
ATOM     19  C   UNL A   1      43.715  27.222  30.022  1.00  0.00     0.031 C 
ATOM     20  C   UNL A   1      37.547  30.097  28.782  1.00  0.00     0.029 A 
ATOM     21  C   UNL A   1      38.514  30.967  29.444  1.00  0.00     0.049 A 
ATOM     22  H   UNL A   1      40.450  30.476  30.048  1.00  0.00     0.167 HD
ATOM     23  C   UNL A   1      44.666  29.357  30.816  1.00  0.00     0.031 A 
ATOM     24  C   UNL A   1      38.315  32.258  29.777  1.00  0.00     0.031 A 
ATOM     25  C   UNL A   1      44.560  30.739  31.187  1.00  0.00     0.049 A 
ATOM     26  C   UNL A   1      39.466  33.029  30.376  1.00  0.00     0.074 A 
ATOM     27  C   UNL A   1      45.531  31.568  31.717  1.00  0.00     0.029 A 
ATOM     28  N   UNL A   1      43.403  31.495  31.067  1.00  0.00    -0.354 N 
ATOM     29  N   UNL A   1      40.697  32.628  30.604  1.00  0.00    -0.248 NA
ATOM     30  C   UNL A   1      39.213  34.428  30.743  1.00  0.00     0.031 C 
ATOM     31  C   UNL A   1      44.946  32.815  31.960  1.00  0.00     0.029 A 
ATOM     32  C   UNL A   1      43.629  32.779  31.526  1.00  0.00     0.049 A 
ATOM     33  H   UNL A   1      42.547  31.166  30.708  1.00  0.00     0.167 HD
ATOM     34  C   UNL A   1      41.368  33.733  31.115  1.00  0.00     0.074 A 
ATOM     35  C   UNL A   1      40.415  34.825  31.139  1.00  0.00     0.031 C 
ATOM     36  C   UNL A   1      42.656  33.842  31.530  1.00  0.00     0.031 A 
BRANCH  23  37
ATOM     37  C   UNL A   1      45.986  28.650  30.948  1.00  0.00    -0.014 A 
ATOM     38  C   UNL A   1      46.341  28.011  32.151  1.00  0.00     0.010 A 
ATOM     39  C   UNL A   1      46.894  28.647  29.876  1.00  0.00     0.010 A 
ATOM     40  C   UNL A   1      47.598  27.421  32.294  1.00  0.00     0.020 A 
ATOM     41  C   UNL A   1      48.144  28.034  30.007  1.00  0.00     0.020 A 
ATOM     42  C   UNL A   1      48.494  27.441  31.222  1.00  0.00     0.054 A 
BRANCH  42  43
ATOM     43  S   UNL A   1      50.119  26.665  31.436  1.00  0.00     0.124 S 
ATOM     44  O   UNL A   1      49.921  25.885  32.655  1.00  0.00    -0.237 OA
ATOM     45  O   UNL A   1      50.266  25.886  30.210  1.00  0.00    -0.237 OA
ATOM     46  O   UNL A   1      51.031  27.799  31.565  1.00  0.00    -0.744 OA
ENDBRANCH  42  43
ENDBRANCH  23  37
BRANCH  24  47
ATOM     47  C   UNL A   1      36.983  32.905  29.572  1.00  0.00    -0.014 A 
ATOM     48  C   UNL A   1      36.589  33.394  28.313  1.00  0.00     0.010 A 
ATOM     49  C   UNL A   1      36.114  33.080  30.666  1.00  0.00     0.010 A 
ATOM     50  C   UNL A   1      35.379  34.085  28.163  1.00  0.00     0.020 A 
ATOM     51  C   UNL A   1      34.891  33.741  30.515  1.00  0.00     0.020 A 
ATOM     52  C   UNL A   1      34.541  34.261  29.268  1.00  0.00     0.054 A 
BRANCH  52  53
ATOM     53  S   UNL A   1      32.983  35.169  29.060  1.00  0.00     0.124 S 
ATOM     54  O   UNL A   1      33.451  36.476  28.610  1.00  0.00    -0.237 OA
ATOM     55  O   UNL A   1      32.281  34.370  28.059  1.00  0.00    -0.237 OA
ATOM     56  O   UNL A   1      32.391  35.144  30.396  1.00  0.00    -0.744 OA
ENDBRANCH  52  53
ENDBRANCH  24  47
BRANCH  36  57
ATOM     57  C   UNL A   1      43.112  35.191  32.015  1.00  0.00    -0.014 A 
ATOM     58  C   UNL A   1      43.712  36.116  31.141  1.00  0.00     0.010 A 
ATOM     59  C   UNL A   1      42.878  35.562  33.352  1.00  0.00     0.010 A 
ATOM     60  C   UNL A   1      44.103  37.372  31.605  1.00  0.00     0.020 A 
ATOM     61  C   UNL A   1      43.241  36.829  33.812  1.00  0.00     0.020 A 
ATOM     62  C   UNL A   1      43.866  37.721  32.938  1.00  0.00     0.054 A 
BRANCH  62  63
ATOM     63  S   UNL A   1      44.345  39.374  33.507  1.00  0.00     0.124 S 
ATOM     64  O   UNL A   1      43.049  40.023  33.677  1.00  0.00    -0.237 OA
ATOM     65  O   UNL A   1      45.074  39.090  34.741  1.00  0.00    -0.237 OA
ATOM     66  O   UNL A   1      45.164  39.893  32.414  1.00  0.00    -0.744 OA
ENDBRANCH  62  63
ENDBRANCH  36  57
ENDBRANCH  10  11
ENDBRANCH   3   5
ENDBRANCH   2   3
ENDBRANCH   1   2
BRANCH   1  67
ATOM     67  C   UNL A   1      42.598  22.381  25.379  1.00  0.00     0.274 C 
BRANCH  67  68
ATOM     68  O   UNL A   1      43.507  23.281  26.018  1.00  0.00    -0.461 OA
BRANCH  68  69
ATOM     69  C   UNL A   1      43.860  24.408  25.339  1.00  0.00     0.329 C 
ATOM     70  O   UNL A   1      43.087  25.128  24.717  1.00  0.00    -0.250 OA
BRANCH  69  71
ATOM     71  C   UNL A   1      45.365  24.662  25.484  1.00  0.00     0.206 C 
ATOM     72  C   UNL A   1      46.020  23.531  26.270  1.00  0.00     0.108 C 
ATOM     73  N   UNL A   1      45.631  25.916  26.171  1.00  0.00    -0.315 N 
ATOM     74  S   UNL A   1      46.274  24.126  27.965  1.00  0.00    -0.138 SA
ATOM     75  C   UNL A   1      45.693  25.793  27.610  1.00  0.00     0.191 C 
BRANCH  73  76
ATOM     76  C   UNL A   1      45.530  27.095  25.455  1.00  0.00     0.255 C 
ATOM     77  O   UNL A   1      45.987  27.223  24.325  1.00  0.00    -0.269 OA
BRANCH  76  78
ATOM     78  C   UNL A   1      44.828  28.234  26.070  1.00  0.00     0.041 A 
ATOM     79  C   UNL A   1      43.429  28.286  26.081  1.00  0.00     0.014 A 
ATOM     80  C   UNL A   1      45.587  29.249  26.655  1.00  0.00     0.034 A 
ATOM     81  C   UNL A   1      42.785  29.400  26.614  1.00  0.00     0.002 A 
ATOM     82  C   UNL A   1      44.934  30.356  27.184  1.00  0.00     0.041 A 
ATOM     83  C   UNL A   1      43.540  30.442  27.156  1.00  0.00     0.020 A 
ATOM     84  Cl  UNL A   1      45.857  31.652  27.839  1.00  0.00    -0.084 Cl
ENDBRANCH  76  78
ENDBRANCH  73  76
ENDBRANCH  69  71
ENDBRANCH  68  69
ENDBRANCH  67  68
ENDBRANCH   1  67
TORSDOF 16
ENDMDL
MODEL 2
REMARK VINA RESULT:      -8.5      4.407     11.157
REMARK SMILES O=C(OCCOC(=O)[C@@H]1CSCN1C(=O)c1cccc(Cl)c1)c1ccc(-c2c3nc(c(-c4ccc(S(=O)(=O)[O-])cc4)c4ccc([nH]4)c(-c4ccc(S(=O)(=O)[O-])cc4)c4nc(c(-c5ccc(S(=O)(=O)[O-])cc5)c5ccc2[nH]5)C=C4)C=C3)cc1
REMARK SMILES IDX 4 1 3 2 2 3 1 4 23 5 24 6 82 7 25 8 81 9 26 10 27 11 28 12
REMARK SMILES IDX 75 13 29 14 80 15 74 16 76 17 30 18 79 19 73 20 72 21 31 23
REMARK SMILES IDX 61 24 42 25 60 26 43 27 46 28 59 29 77 30 44 31 45 32 58 34
REMARK SMILES IDX 78 35 47 36 32 37 33 38 41 39 34 40 40 41 35 42 36 43 37 44
REMARK SMILES IDX 38 45 39 46 62 47 63 48 71 49 64 50 70 51 65 52 66 53 67 54
REMARK SMILES IDX 68 55 69 56 48 57 49 58 57 59 50 60 56 61 51 62 52 63 53 64
REMARK SMILES IDX 54 65 55 66 5 67 6 68 7 69 8 70 9 71 10 72 13 73 11 74 12 75
REMARK SMILES IDX 14 76 15 77 16 78 17 79 22 80 18 81 20 82 19 83 21 84
REMARK H PARENT 76 22 46 33
REMARK Flexibility Score: inf
ROOT
ATOM      1  C   UNL A   1      33.570  29.262  26.222  1.00  0.00     0.275 C 
ENDROOT
BRANCH   1   2
ATOM      2  O   UNL A   1      33.426  30.115  27.377  1.00  0.00    -0.458 OA
BRANCH   2   3
ATOM      3  C   UNL A   1      34.348  30.791  28.104  1.00  0.00     0.338 C 
ATOM      4  O   UNL A   1      34.086  31.945  28.441  1.00  0.00    -0.246 OA
BRANCH   3   5
ATOM      5  C   UNL A   1      35.725  30.285  28.415  1.00  0.00     0.060 A 
ATOM      6  C   UNL A   1      36.130  29.681  29.607  1.00  0.00     0.016 A 
ATOM      7  C   UNL A   1      36.689  30.421  27.394  1.00  0.00     0.016 A 
ATOM      8  C   UNL A   1      37.416  29.153  29.746  1.00  0.00     0.010 A 
ATOM      9  C   UNL A   1      37.975  29.881  27.521  1.00  0.00     0.010 A 
ATOM     10  C   UNL A   1      38.348  29.249  28.709  1.00  0.00    -0.014 A 
BRANCH  10  11
ATOM     11  C   UNL A   1      39.748  28.846  28.980  1.00  0.00     0.031 A 
ATOM     12  C   UNL A   1      40.610  29.786  29.770  1.00  0.00     0.074 A 
ATOM     13  C   UNL A   1      40.188  27.617  28.645  1.00  0.00     0.049 A 
ATOM     14  N   UNL A   1      41.795  29.585  30.282  1.00  0.00    -0.248 NA
ATOM     15  C   UNL A   1      40.056  31.125  30.038  1.00  0.00     0.031 C 
ATOM     16  C   UNL A   1      39.416  26.619  27.906  1.00  0.00     0.029 A 
ATOM     17  N   UNL A   1      41.376  26.984  28.911  1.00  0.00    -0.354 N 
ATOM     18  C   UNL A   1      42.110  30.756  30.960  1.00  0.00     0.074 A 
ATOM     19  C   UNL A   1      41.030  31.689  30.734  1.00  0.00     0.031 C 
ATOM     20  C   UNL A   1      40.140  25.492  27.794  1.00  0.00     0.029 A 
ATOM     21  C   UNL A   1      41.431  25.688  28.447  1.00  0.00     0.049 A 
ATOM     22  H   UNL A   1      42.120  27.417  29.389  1.00  0.00     0.167 HD
ATOM     23  C   UNL A   1      43.185  31.020  31.735  1.00  0.00     0.031 A 
ATOM     24  C   UNL A   1      42.409  24.766  28.553  1.00  0.00     0.031 A 
ATOM     25  C   UNL A   1      44.272  30.103  31.922  1.00  0.00     0.049 A 
ATOM     26  C   UNL A   1      43.644  25.122  29.344  1.00  0.00     0.074 A 
ATOM     27  C   UNL A   1      45.442  30.283  32.637  1.00  0.00     0.029 A 
ATOM     28  N   UNL A   1      44.321  28.826  31.381  1.00  0.00    -0.354 N 
ATOM     29  N   UNL A   1      43.913  26.228  30.001  1.00  0.00    -0.248 NA
ATOM     30  C   UNL A   1      44.699  24.103  29.429  1.00  0.00     0.031 C 
ATOM     31  C   UNL A   1      46.218  29.130  32.490  1.00  0.00     0.029 A 
ATOM     32  C   UNL A   1      45.507  28.210  31.734  1.00  0.00     0.049 A 
ATOM     33  H   UNL A   1      43.615  28.418  30.828  1.00  0.00     0.167 HD
ATOM     34  C   UNL A   1      45.152  26.025  30.598  1.00  0.00     0.074 A 
ATOM     35  C   UNL A   1      45.569  24.682  30.244  1.00  0.00     0.031 C 
ATOM     36  C   UNL A   1      45.886  26.868  31.367  1.00  0.00     0.031 A 
BRANCH  23  37
ATOM     37  C   UNL A   1      43.220  32.364  32.408  1.00  0.00    -0.014 A 
ATOM     38  C   UNL A   1      42.721  32.524  33.715  1.00  0.00     0.010 A 
ATOM     39  C   UNL A   1      43.727  33.482  31.725  1.00  0.00     0.010 A 
ATOM     40  C   UNL A   1      42.686  33.788  34.308  1.00  0.00     0.020 A 
ATOM     41  C   UNL A   1      43.717  34.744  32.325  1.00  0.00     0.020 A 
ATOM     42  C   UNL A   1      43.180  34.891  33.606  1.00  0.00     0.054 A 
BRANCH  42  43
ATOM     43  S   UNL A   1      43.123  36.520  34.402  1.00  0.00     0.124 S 
ATOM     44  O   UNL A   1      44.153  36.388  35.430  1.00  0.00    -0.237 OA
ATOM     45  O   UNL A   1      43.447  37.424  33.302  1.00  0.00    -0.237 OA
ATOM     46  O   UNL A   1      41.754  36.615  34.902  1.00  0.00    -0.744 OA
ENDBRANCH  42  43
ENDBRANCH  23  37
BRANCH  24  47
ATOM     47  C   UNL A   1      42.279  23.432  27.892  1.00  0.00    -0.014 A 
ATOM     48  C   UNL A   1      41.794  22.310  28.589  1.00  0.00     0.010 A 
ATOM     49  C   UNL A   1      42.695  23.270  26.556  1.00  0.00     0.010 A 
ATOM     50  C   UNL A   1      41.773  21.048  27.980  1.00  0.00     0.020 A 
ATOM     51  C   UNL A   1      42.646  22.018  25.935  1.00  0.00     0.020 A 
ATOM     52  C   UNL A   1      42.207  20.909  26.659  1.00  0.00     0.054 A 
BRANCH  52  53
ATOM     53  S   UNL A   1      42.185  19.264  25.890  1.00  0.00     0.124 S 
ATOM     54  O   UNL A   1      40.769  19.092  25.582  1.00  0.00    -0.237 OA
ATOM     55  O   UNL A   1      43.066  19.440  24.739  1.00  0.00    -0.237 OA
ATOM     56  O   UNL A   1      42.706  18.389  26.939  1.00  0.00    -0.744 OA
ENDBRANCH  52  53
ENDBRANCH  24  47
BRANCH  36  57
ATOM     57  C   UNL A   1      47.195  26.352  31.900  1.00  0.00    -0.014 A 
ATOM     58  C   UNL A   1      47.248  25.564  33.064  1.00  0.00     0.010 A 
ATOM     59  C   UNL A   1      48.381  26.610  31.189  1.00  0.00     0.010 A 
ATOM     60  C   UNL A   1      48.470  25.073  33.526  1.00  0.00     0.020 A 
ATOM     61  C   UNL A   1      49.601  26.095  31.632  1.00  0.00     0.020 A 
ATOM     62  C   UNL A   1      49.639  25.342  32.807  1.00  0.00     0.054 A 
BRANCH  62  63
ATOM     63  S   UNL A   1      51.208  24.658  33.405  1.00  0.00     0.124 S 
ATOM     64  O   UNL A   1      51.875  25.844  33.933  1.00  0.00    -0.237 OA
ATOM     65  O   UNL A   1      50.773  23.683  34.403  1.00  0.00    -0.237 OA
ATOM     66  O   UNL A   1      51.814  24.083  32.207  1.00  0.00    -0.744 OA
ENDBRANCH  62  63
ENDBRANCH  36  57
ENDBRANCH  10  11
ENDBRANCH   3   5
ENDBRANCH   2   3
ENDBRANCH   1   2
BRANCH   1  67
ATOM     67  C   UNL A   1      32.526  29.509  25.134  1.00  0.00     0.274 C 
BRANCH  67  68
ATOM     68  O   UNL A   1      32.231  28.301  24.428  1.00  0.00    -0.461 OA
BRANCH  68  69
ATOM     69  C   UNL A   1      32.700  28.185  23.154  1.00  0.00     0.329 C 
ATOM     70  O   UNL A   1      33.771  28.628  22.755  1.00  0.00    -0.250 OA
BRANCH  69  71
ATOM     71  C   UNL A   1      31.704  27.398  22.294  1.00  0.00     0.206 C 
ATOM     72  C   UNL A   1      30.283  27.894  22.541  1.00  0.00     0.108 C 
ATOM     73  N   UNL A   1      31.753  25.974  22.589  1.00  0.00    -0.315 N 
ATOM     74  S   UNL A   1      29.480  26.707  23.652  1.00  0.00    -0.138 SA
ATOM     75  C   UNL A   1      30.876  25.568  23.663  1.00  0.00     0.191 C 
BRANCH  73  76
ATOM     76  C   UNL A   1      32.777  25.223  22.041  1.00  0.00     0.255 C 
ATOM     77  O   UNL A   1      33.203  25.412  20.908  1.00  0.00    -0.269 OA
BRANCH  76  78
ATOM     78  C   UNL A   1      33.391  24.165  22.862  1.00  0.00     0.041 A 
ATOM     79  C   UNL A   1      32.912  22.851  22.802  1.00  0.00     0.014 A 
ATOM     80  C   UNL A   1      34.466  24.499  23.686  1.00  0.00     0.034 A 
ATOM     81  C   UNL A   1      33.465  21.878  23.631  1.00  0.00     0.002 A 
ATOM     82  C   UNL A   1      35.011  23.521  24.509  1.00  0.00     0.041 A 
ATOM     83  C   UNL A   1      34.509  22.217  24.494  1.00  0.00     0.020 A 
ATOM     84  Cl  UNL A   1      36.286  23.934  25.588  1.00  0.00    -0.084 Cl
ENDBRANCH  76  78
ENDBRANCH  73  76
ENDBRANCH  69  71
ENDBRANCH  68  69
ENDBRANCH  67  68
ENDBRANCH   1  67
TORSDOF 16
ENDMDL
MODEL 3
REMARK VINA RESULT:      -8.4      4.667      7.258
REMARK SMILES O=C(OCCOC(=O)[C@@H]1CSCN1C(=O)c1cccc(Cl)c1)c1ccc(-c2c3nc(c(-c4ccc(S(=O)(=O)[O-])cc4)c4ccc([nH]4)c(-c4ccc(S(=O)(=O)[O-])cc4)c4nc(c(-c5ccc(S(=O)(=O)[O-])cc5)c5ccc2[nH]5)C=C4)C=C3)cc1
REMARK SMILES IDX 4 1 3 2 2 3 1 4 23 5 24 6 82 7 25 8 81 9 26 10 27 11 28 12
REMARK SMILES IDX 75 13 29 14 80 15 74 16 76 17 30 18 79 19 73 20 72 21 31 23
REMARK SMILES IDX 61 24 42 25 60 26 43 27 46 28 59 29 77 30 44 31 45 32 58 34
REMARK SMILES IDX 78 35 47 36 32 37 33 38 41 39 34 40 40 41 35 42 36 43 37 44
REMARK SMILES IDX 38 45 39 46 62 47 63 48 71 49 64 50 70 51 65 52 66 53 67 54
REMARK SMILES IDX 68 55 69 56 48 57 49 58 57 59 50 60 56 61 51 62 52 63 53 64
REMARK SMILES IDX 54 65 55 66 5 67 6 68 7 69 8 70 9 71 10 72 13 73 11 74 12 75
REMARK SMILES IDX 14 76 15 77 16 78 17 79 22 80 18 81 20 82 19 83 21 84
REMARK H PARENT 76 22 46 33
REMARK Flexibility Score: inf
ROOT
ATOM      1  C   UNL A   1      37.440  21.226  24.752  1.00  0.00     0.275 C 
ENDROOT
BRANCH   1   2
ATOM      2  O   UNL A   1      38.050  21.883  25.883  1.00  0.00    -0.458 OA
BRANCH   2   3
ATOM      3  C   UNL A   1      39.342  21.948  26.283  1.00  0.00     0.338 C 
ATOM      4  O   UNL A   1      40.002  20.909  26.277  1.00  0.00    -0.246 OA
BRANCH   3   5
ATOM      5  C   UNL A   1      39.996  23.168  26.860  1.00  0.00     0.060 A 
ATOM      6  C   UNL A   1      40.794  23.210  28.004  1.00  0.00     0.016 A 
ATOM      7  C   UNL A   1      39.793  24.377  26.163  1.00  0.00     0.016 A 
ATOM      8  C   UNL A   1      41.437  24.389  28.391  1.00  0.00     0.010 A 
ATOM      9  C   UNL A   1      40.445  25.559  26.537  1.00  0.00     0.010 A 
ATOM     10  C   UNL A   1      41.269  25.570  27.665  1.00  0.00    -0.014 A 
BRANCH  10  11
ATOM     11  C   UNL A   1      41.817  26.827  28.226  1.00  0.00     0.031 A 
ATOM     12  C   UNL A   1      43.297  27.053  28.130  1.00  0.00     0.074 A 
ATOM     13  C   UNL A   1      40.996  27.792  28.685  1.00  0.00     0.049 A 
ATOM     14  N   UNL A   1      43.984  28.135  28.382  1.00  0.00    -0.248 NA
ATOM     15  C   UNL A   1      44.112  25.916  27.666  1.00  0.00     0.031 C 
ATOM     16  C   UNL A   1      39.542  27.682  28.789  1.00  0.00     0.029 A 
ATOM     17  N   UNL A   1      41.261  29.068  29.117  1.00  0.00    -0.354 N 
ATOM     18  C   UNL A   1      45.301  27.819  28.075  1.00  0.00     0.074 A 
ATOM     19  C   UNL A   1      45.332  26.427  27.690  1.00  0.00     0.031 C 
ATOM     20  C   UNL A   1      39.039  28.846  29.234  1.00  0.00     0.029 A 
ATOM     21  C   UNL A   1      40.135  29.785  29.455  1.00  0.00     0.049 A 
ATOM     22  H   UNL A   1      42.172  29.436  29.178  1.00  0.00     0.167 HD
ATOM     23  C   UNL A   1      46.386  28.626  28.076  1.00  0.00     0.031 A 
ATOM     24  C   UNL A   1      40.009  31.058  29.879  1.00  0.00     0.031 A 
ATOM     25  C   UNL A   1      46.354  29.997  28.498  1.00  0.00     0.049 A 
ATOM     26  C   UNL A   1      41.251  31.911  29.964  1.00  0.00     0.074 A 
ATOM     27  C   UNL A   1      47.400  30.894  28.597  1.00  0.00     0.029 A 
ATOM     28  N   UNL A   1      45.206  30.667  28.896  1.00  0.00    -0.354 N 
ATOM     29  N   UNL A   1      42.488  31.600  29.643  1.00  0.00    -0.248 NA
ATOM     30  C   UNL A   1      41.084  33.288  30.445  1.00  0.00     0.031 C 
ATOM     31  C   UNL A   1      46.890  32.096  29.100  1.00  0.00     0.029 A 
ATOM     32  C   UNL A   1      45.519  31.964  29.256  1.00  0.00     0.049 A 
ATOM     33  H   UNL A   1      44.302  30.276  28.919  1.00  0.00     0.167 HD
ATOM     34  C   UNL A   1      43.237  32.752  29.858  1.00  0.00     0.074 A 
ATOM     35  C   UNL A   1      42.312  33.771  30.312  1.00  0.00     0.031 C 
ATOM     36  C   UNL A   1      44.569  32.954  29.700  1.00  0.00     0.031 A 
BRANCH  23  37
ATOM     37  C   UNL A   1      47.682  28.016  27.621  1.00  0.00    -0.014 A 
ATOM     38  C   UNL A   1      48.460  27.243  28.504  1.00  0.00     0.010 A 
ATOM     39  C   UNL A   1      48.147  28.240  26.314  1.00  0.00     0.010 A 
ATOM     40  C   UNL A   1      49.699  26.741  28.101  1.00  0.00     0.020 A 
ATOM     41  C   UNL A   1      49.375  27.719  25.899  1.00  0.00     0.020 A 
ATOM     42  C   UNL A   1      50.151  26.988  26.802  1.00  0.00     0.054 A 
BRANCH  42  43
ATOM     43  S   UNL A   1      51.764  26.323  26.306  1.00  0.00     0.124 S 
ATOM     44  O   UNL A   1      51.779  26.610  24.873  1.00  0.00    -0.237 OA
ATOM     45  O   UNL A   1      52.695  27.108  27.112  1.00  0.00    -0.237 OA
ATOM     46  O   UNL A   1      51.679  24.908  26.655  1.00  0.00    -0.744 OA
ENDBRANCH  42  43
ENDBRANCH  23  37
BRANCH  24  47
ATOM     47  C   UNL A   1      38.674  31.607  30.270  1.00  0.00    -0.014 A 
ATOM     48  C   UNL A   1      37.836  32.239  29.334  1.00  0.00     0.010 A 
ATOM     49  C   UNL A   1      38.256  31.540  31.613  1.00  0.00     0.010 A 
ATOM     50  C   UNL A   1      36.634  32.834  29.741  1.00  0.00     0.020 A 
ATOM     51  C   UNL A   1      37.042  32.104  32.018  1.00  0.00     0.020 A 
ATOM     52  C   UNL A   1      36.249  32.769  31.082  1.00  0.00     0.054 A 
BRANCH  52  53
ATOM     53  S   UNL A   1      34.694  33.555  31.595  1.00  0.00     0.124 S 
ATOM     54  O   UNL A   1      34.011  33.738  30.318  1.00  0.00    -0.237 OA
ATOM     55  O   UNL A   1      34.112  32.554  32.486  1.00  0.00    -0.237 OA
ATOM     56  O   UNL A   1      35.133  34.785  32.250  1.00  0.00    -0.744 OA
ENDBRANCH  52  53
ENDBRANCH  24  47
BRANCH  36  57
ATOM     57  C   UNL A   1      45.097  34.333  29.988  1.00  0.00    -0.014 A 
ATOM     58  C   UNL A   1      45.582  34.676  31.263  1.00  0.00     0.010 A 
ATOM     59  C   UNL A   1      45.165  35.279  28.949  1.00  0.00     0.010 A 
ATOM     60  C   UNL A   1      46.092  35.953  31.502  1.00  0.00     0.020 A 
ATOM     61  C   UNL A   1      45.702  36.547  29.177  1.00  0.00     0.020 A 
ATOM     62  C   UNL A   1      46.148  36.881  30.457  1.00  0.00     0.054 A 
BRANCH  62  63
ATOM     63  S   UNL A   1      46.854  38.519  30.782  1.00  0.00     0.124 S 
ATOM     64  O   UNL A   1      46.794  39.142  29.463  1.00  0.00    -0.237 OA
ATOM     65  O   UNL A   1      45.940  39.069  31.781  1.00  0.00    -0.237 OA
ATOM     66  O   UNL A   1      48.199  38.226  31.272  1.00  0.00    -0.744 OA
ENDBRANCH  62  63
ENDBRANCH  36  57
ENDBRANCH  10  11
ENDBRANCH   3   5
ENDBRANCH   2   3
ENDBRANCH   1   2
BRANCH   1  67
ATOM     67  C   UNL A   1      36.048  20.665  25.036  1.00  0.00     0.274 C 
BRANCH  67  68
ATOM     68  O   UNL A   1      35.292  21.566  25.850  1.00  0.00    -0.461 OA
BRANCH  68  69
ATOM     69  C   UNL A   1      34.760  22.666  25.247  1.00  0.00     0.329 C 
ATOM     70  O   UNL A   1      34.861  23.815  25.661  1.00  0.00    -0.250 OA
BRANCH  69  71
ATOM     71  C   UNL A   1      34.034  22.262  23.959  1.00  0.00     0.206 C 
ATOM     72  C   UNL A   1      34.287  23.292  22.862  1.00  0.00     0.108 C 
ATOM     73  N   UNL A   1      32.598  22.152  24.166  1.00  0.00    -0.315 N 
ATOM     74  S   UNL A   1      32.813  24.344  22.757  1.00  0.00    -0.138 SA
ATOM     75  C   UNL A   1      31.882  23.392  23.971  1.00  0.00     0.191 C 
BRANCH  73  76
ATOM     76  C   UNL A   1      32.105  21.009  24.769  1.00  0.00     0.255 C 
ATOM     77  O   UNL A   1      31.365  21.044  25.745  1.00  0.00    -0.269 OA
BRANCH  76  78
ATOM     78  C   UNL A   1      32.472  19.700  24.202  1.00  0.00     0.041 A 
ATOM     79  C   UNL A   1      32.204  19.408  22.859  1.00  0.00     0.014 A 
ATOM     80  C   UNL A   1      33.104  18.768  25.025  1.00  0.00     0.034 A 
ATOM     81  C   UNL A   1      32.503  18.143  22.356  1.00  0.00     0.002 A 
ATOM     82  C   UNL A   1      33.398  17.510  24.515  1.00  0.00     0.041 A 
ATOM     83  C   UNL A   1      33.091  17.189  23.190  1.00  0.00     0.020 A 
ATOM     84  Cl  UNL A   1      34.107  16.323  25.539  1.00  0.00    -0.084 Cl
ENDBRANCH  76  78
ENDBRANCH  73  76
ENDBRANCH  69  71
ENDBRANCH  68  69
ENDBRANCH  67  68
ENDBRANCH   1  67
TORSDOF 16
ENDMDL
