MODEL 1
REMARK VINA RESULT:     -12.6      0.000      0.000
REMARK SMILES Cc1cccc(-n2c(C)cc(/C=N\c3ccc(O)c(C(=O)OCCOC(=O)c4ccc(-c5c6nc(c(-c7ccc(S(=O)(=O)[O-])cc7)c7ccc([nH]7)c(-c7ccc(S(=O)(=O)[O-])cc7)c7nc(c(-c8ccc(S(=O)(=O)[O-])cc8)c8ccc5[nH]8)C=C7)C=C6)cc4)c3)c2C)c1
REMARK SMILES IDX 23 1 22 2 20 3 21 4 19 5 14 6 15 7 88 8 16 9 17 10 13 11
REMARK SMILES IDX 12 12 11 13 7 14 8 15 89 16 9 17 10 18 90 19 6 20 1 21 2 22
REMARK SMILES IDX 3 23 91 24 4 25 5 26 18 27 24 29 25 30 26 31 27 32 28 33
REMARK SMILES IDX 29 34 87 35 30 36 86 37 31 38 32 39 33 40 80 41 34 42 85 43
REMARK SMILES IDX 79 44 81 45 35 46 84 47 78 48 77 49 36 51 66 52 47 53 65 54
REMARK SMILES IDX 48 55 51 56 64 57 82 58 49 59 50 60 63 62 83 63 52 64 37 65
REMARK SMILES IDX 38 66 46 67 39 68 45 69 40 70 41 71 42 72 43 73 44 74 67 75
REMARK SMILES IDX 68 76 76 77 69 78 75 79 70 80 71 81 72 82 73 83 74 84 53 85
REMARK SMILES IDX 54 86 62 87 55 88 61 89 56 90 57 91 58 92 59 93 60 94
REMARK H PARENT 18 28 81 50 51 61
REMARK Flexibility Score: inf
ROOT
ATOM      1  C   UNL A   1      44.915  23.608  28.539  1.00  0.00     0.275 C 
ENDROOT
BRANCH   1   2
ATOM      2  O   UNL A   1      44.749  24.507  29.659  1.00  0.00    -0.458 OA
BRANCH   2   3
ATOM      3  C   UNL A   1      44.258  23.897  30.953  1.00  0.00     0.342 C 
ATOM      4  O   UNL A   1      43.545  22.966  30.474  1.00  0.00    -0.246 OA
BRANCH   3   5
ATOM      5  C   UNL A   1      44.733  24.488  32.973  1.00  0.00     0.103 A 
ATOM      6  C   UNL A   1      45.282  23.795  35.596  1.00  0.00     0.064 A 
ATOM      7  C   UNL A   1      45.878  24.988  35.880  1.00  0.00     0.032 A 
ATOM      8  C   UNL A   1      44.841  23.571  34.258  1.00  0.00     0.048 A 
ATOM      9  C   UNL A   1      45.764  25.995  34.940  1.00  0.00     0.049 A 
ATOM     10  C   UNL A   1      45.143  25.803  33.649  1.00  0.00     0.130 A 
BRANCH   6  11
ATOM     11  N   UNL A   1      45.196  22.758  36.529  1.00  0.00    -0.256 NA
ATOM     12  C   UNL A   1      45.957  21.703  36.592  1.00  0.00     0.121 C 
BRANCH  12  13
ATOM     13  C   UNL A   1      47.063  21.211  35.768  1.00  0.00     0.014 A 
ATOM     14  N   UNL A   1      49.033  20.815  34.726  1.00  0.00    -0.318 N 
ATOM     15  C   UNL A   1      48.080  20.087  34.042  1.00  0.00     0.021 A 
ATOM     16  C   UNL A   1      48.438  21.419  35.831  1.00  0.00     0.029 A 
ATOM     17  C   UNL A   1      48.405  19.219  32.876  1.00  0.00     0.065 C 
ATOM     18  C   UNL A   1      46.874  20.292  34.682  1.00  0.00     0.033 A 
ATOM     19  C   UNL A   1      49.244  22.211  36.794  1.00  0.00     0.065 C 
BRANCH  14  20
ATOM     20  C   UNL A   1      50.359  21.078  34.300  1.00  0.00     0.046 A 
ATOM     21  C   UNL A   1      53.509  19.037  33.704  1.00  0.00     0.044 C 
ATOM     22  C   UNL A   1      52.493  20.139  33.666  1.00  0.00    -0.049 A 
ATOM     23  C   UNL A   1      52.710  21.250  32.836  1.00  0.00     0.003 A 
ATOM     24  C   UNL A   1      51.307  20.054  34.406  1.00  0.00     0.030 A 
ATOM     25  C   UNL A   1      51.789  22.296  32.790  1.00  0.00     0.002 A 
ATOM     26  C   UNL A   1      50.620  22.223  33.541  1.00  0.00     0.026 A 
ENDBRANCH  14  20
ENDBRANCH  12  13
ENDBRANCH   6  11
BRANCH  10  27
ATOM     27  O   UNL A   1      44.858  27.089  33.158  1.00  0.00    -0.507 OA
ATOM     28  H   UNL A   1      44.219  27.623  33.586  1.00  0.00     0.293 HD
ENDBRANCH  10  27
ENDBRANCH   3   5
ENDBRANCH   2   3
ENDBRANCH   1   2
BRANCH   1  29
ATOM     29  C   UNL A   1      44.062  24.106  27.357  1.00  0.00     0.275 C 
BRANCH  29  30
ATOM     30  O   UNL A   1      42.754  24.571  27.769  1.00  0.00    -0.458 OA
BRANCH  30  31
ATOM     31  C   UNL A   1      41.685  23.939  27.214  1.00  0.00     0.338 C 
ATOM     32  O   UNL A   1      41.387  22.762  27.360  1.00  0.00    -0.246 OA
BRANCH  31  33
ATOM     33  C   UNL A   1      40.655  24.977  26.957  1.00  0.00     0.060 A 
ATOM     34  C   UNL A   1      41.072  26.437  25.973  1.00  0.00     0.016 A 
ATOM     35  C   UNL A   1      39.683  25.161  28.462  1.00  0.00     0.016 A 
ATOM     36  C   UNL A   1      40.557  28.126  26.550  1.00  0.00     0.010 A 
ATOM     37  C   UNL A   1      39.205  26.837  29.045  1.00  0.00     0.010 A 
ATOM     38  C   UNL A   1      39.658  28.300  28.099  1.00  0.00    -0.014 A 
BRANCH  38  39
ATOM     39  C   UNL A   1      39.876  29.457  28.970  1.00  0.00     0.031 A 
ATOM     40  C   UNL A   1      38.824  30.491  29.016  1.00  0.00     0.074 A 
ATOM     41  C   UNL A   1      40.923  29.442  29.839  1.00  0.00     0.049 A 
ATOM     42  N   UNL A   1      39.028  31.682  29.447  1.00  0.00    -0.248 NA
ATOM     43  C   UNL A   1      37.449  30.304  28.547  1.00  0.00     0.031 C 
ATOM     44  C   UNL A   1      41.207  30.336  30.960  1.00  0.00     0.029 A 
ATOM     45  N   UNL A   1      42.071  28.657  29.823  1.00  0.00    -0.354 N 
ATOM     46  C   UNL A   1      37.805  32.291  29.614  1.00  0.00     0.074 A 
ATOM     47  C   UNL A   1      36.857  31.427  28.964  1.00  0.00     0.031 C 
ATOM     48  C   UNL A   1      42.526  30.268  31.243  1.00  0.00     0.029 A 
ATOM     49  C   UNL A   1      43.151  29.416  30.241  1.00  0.00     0.049 A 
ATOM     50  H   UNL A   1      42.110  27.709  29.557  1.00  0.00     0.167 HD
ATOM     51  C   UNL A   1      37.746  33.399  30.402  1.00  0.00     0.031 A 
ATOM     52  C   UNL A   1      44.134  29.766  29.355  1.00  0.00     0.031 A 
ATOM     53  C   UNL A   1      39.094  33.774  30.842  1.00  0.00     0.049 A 
ATOM     54  C   UNL A   1      44.053  31.265  29.046  1.00  0.00     0.074 A 
ATOM     55  C   UNL A   1      39.813  33.584  32.009  1.00  0.00     0.029 A 
ATOM     56  N   UNL A   1      40.034  34.056  29.863  1.00  0.00    -0.354 N 
ATOM     57  N   UNL A   1      43.105  32.047  29.501  1.00  0.00    -0.248 NA
ATOM     58  C   UNL A   1      44.987  32.011  28.204  1.00  0.00     0.031 C 
ATOM     59  C   UNL A   1      41.204  33.724  31.697  1.00  0.00     0.029 A 
ATOM     60  C   UNL A   1      41.325  34.037  30.354  1.00  0.00     0.049 A 
ATOM     61  H   UNL A   1      39.807  34.249  28.925  1.00  0.00     0.167 HD
ATOM     62  C   UNL A   1      43.269  33.333  29.069  1.00  0.00     0.074 A 
ATOM     63  C   UNL A   1      44.451  33.249  28.224  1.00  0.00     0.031 C 
ATOM     64  C   UNL A   1      42.421  34.347  29.435  1.00  0.00     0.031 A 
BRANCH  51  65
ATOM     65  C   UNL A   1      36.474  34.004  30.947  1.00  0.00    -0.014 A 
ATOM     66  C   UNL A   1      35.347  34.085  30.104  1.00  0.00     0.010 A 
ATOM     67  C   UNL A   1      36.317  34.533  32.245  1.00  0.00     0.010 A 
ATOM     68  C   UNL A   1      34.156  34.708  30.504  1.00  0.00     0.020 A 
ATOM     69  C   UNL A   1      35.136  35.180  32.653  1.00  0.00     0.020 A 
ATOM     70  C   UNL A   1      34.061  35.265  31.776  1.00  0.00     0.054 A 
BRANCH  70  71
ATOM     71  S   UNL A   1      32.515  36.077  32.262  1.00  0.00     0.124 S 
ATOM     72  O   UNL A   1      32.130  36.778  31.040  1.00  0.00    -0.237 OA
ATOM     73  O   UNL A   1      31.671  34.945  32.633  1.00  0.00    -0.237 OA
ATOM     74  O   UNL A   1      32.913  36.944  33.371  1.00  0.00    -0.744 OA
ENDBRANCH  70  71
ENDBRANCH  51  65
BRANCH  52  75
ATOM     75  C   UNL A   1      44.615  28.627  28.478  1.00  0.00    -0.014 A 
ATOM     76  C   UNL A   1      44.067  28.565  27.168  1.00  0.00     0.010 A 
ATOM     77  C   UNL A   1      45.748  27.831  28.722  1.00  0.00     0.010 A 
ATOM     78  C   UNL A   1      44.704  27.889  26.113  1.00  0.00     0.020 A 
ATOM     79  C   UNL A   1      46.392  27.134  27.660  1.00  0.00     0.020 A 
ATOM     80  C   UNL A   1      45.886  27.200  26.355  1.00  0.00     0.054 A 
BRANCH  80  81
ATOM     81  S   UNL A   1      46.818  26.549  24.917  1.00  0.00     0.124 S 
ATOM     82  O   UNL A   1      46.631  27.594  23.916  1.00  0.00    -0.237 OA
ATOM     83  O   UNL A   1      48.178  26.419  25.435  1.00  0.00    -0.237 OA
ATOM     84  O   UNL A   1      46.155  25.279  24.629  1.00  0.00    -0.744 OA
ENDBRANCH  80  81
ENDBRANCH  52  75
BRANCH  64  85
ATOM     85  C   UNL A   1      42.513  35.771  28.928  1.00  0.00    -0.014 A 
ATOM     86  C   UNL A   1      41.820  36.236  27.804  1.00  0.00     0.010 A 
ATOM     87  C   UNL A   1      43.404  36.685  29.544  1.00  0.00     0.010 A 
ATOM     88  C   UNL A   1      41.921  37.575  27.398  1.00  0.00     0.020 A 
ATOM     89  C   UNL A   1      43.533  38.010  29.139  1.00  0.00     0.020 A 
ATOM     90  C   UNL A   1      42.761  38.458  28.082  1.00  0.00     0.054 A 
BRANCH  90  91
ATOM     91  S   UNL A   1      42.863  40.182  27.561  1.00  0.00     0.124 S 
ATOM     92  O   UNL A   1      41.472  40.495  27.241  1.00  0.00    -0.237 OA
ATOM     93  O   UNL A   1      43.394  40.827  28.758  1.00  0.00    -0.237 OA
ATOM     94  O   UNL A   1      43.771  40.151  26.416  1.00  0.00    -0.744 OA
ENDBRANCH  90  91
ENDBRANCH  64  85
ENDBRANCH  38  39
ENDBRANCH  31  33
ENDBRANCH  30  31
ENDBRANCH  29  30
ENDBRANCH   1  29
TORSDOF 18
ENDMDL
MODEL 2
REMARK VINA RESULT:     -11.7      3.544      6.850
REMARK SMILES Cc1cccc(-n2c(C)cc(/C=N\c3ccc(O)c(C(=O)OCCOC(=O)c4ccc(-c5c6nc(c(-c7ccc(S(=O)(=O)[O-])cc7)c7ccc([nH]7)c(-c7ccc(S(=O)(=O)[O-])cc7)c7nc(c(-c8ccc(S(=O)(=O)[O-])cc8)c8ccc5[nH]8)C=C7)C=C6)cc4)c3)c2C)c1
REMARK SMILES IDX 23 1 22 2 20 3 21 4 19 5 14 6 15 7 88 8 16 9 17 10 13 11
REMARK SMILES IDX 12 12 11 13 7 14 8 15 89 16 9 17 10 18 90 19 6 20 1 21 2 22
REMARK SMILES IDX 3 23 91 24 4 25 5 26 18 27 24 29 25 30 26 31 27 32 28 33
REMARK SMILES IDX 29 34 87 35 30 36 86 37 31 38 32 39 33 40 80 41 34 42 85 43
REMARK SMILES IDX 79 44 81 45 35 46 84 47 78 48 77 49 36 51 66 52 47 53 65 54
REMARK SMILES IDX 48 55 51 56 64 57 82 58 49 59 50 60 63 62 83 63 52 64 37 65
REMARK SMILES IDX 38 66 46 67 39 68 45 69 40 70 41 71 42 72 43 73 44 74 67 75
REMARK SMILES IDX 68 76 76 77 69 78 75 79 70 80 71 81 72 82 73 83 74 84 53 85
REMARK SMILES IDX 54 86 62 87 55 88 61 89 56 90 57 91 58 92 59 93 60 94
REMARK H PARENT 18 28 81 50 51 61
REMARK Flexibility Score: inf
ROOT
ATOM      1  C   UNL A   1      44.810  24.383  29.602  1.00  0.00     0.275 C 
ENDROOT
BRANCH   1   2
ATOM      2  O   UNL A   1      44.090  24.588  30.839  1.00  0.00    -0.458 OA
BRANCH   2   3
ATOM      3  C   UNL A   1      44.677  25.588  31.810  1.00  0.00     0.342 C 
ATOM      4  O   UNL A   1      45.892  25.512  31.460  1.00  0.00    -0.246 OA
BRANCH   3   5
ATOM      5  C   UNL A   1      43.649  26.777  33.288  1.00  0.00     0.103 A 
ATOM      6  C   UNL A   1      41.356  28.079  34.130  1.00  0.00     0.064 A 
ATOM      7  C   UNL A   1      41.741  28.099  35.438  1.00  0.00     0.032 A 
ATOM      8  C   UNL A   1      42.203  27.412  33.196  1.00  0.00     0.048 A 
ATOM      9  C   UNL A   1      43.042  27.727  35.724  1.00  0.00     0.049 A 
ATOM     10  C   UNL A   1      43.956  27.223  34.724  1.00  0.00     0.130 A 
BRANCH   6  11
ATOM     11  N   UNL A   1      40.124  28.580  33.702  1.00  0.00    -0.256 NA
ATOM     12  C   UNL A   1      39.652  29.774  33.919  1.00  0.00     0.121 C 
BRANCH  12  13
ATOM     13  C   UNL A   1      40.155  30.934  34.658  1.00  0.00     0.014 A 
ATOM     14  N   UNL A   1      40.444  32.805  35.899  1.00  0.00    -0.318 N 
ATOM     15  C   UNL A   1      41.656  32.555  35.289  1.00  0.00     0.021 A 
ATOM     16  C   UNL A   1      39.560  31.772  35.598  1.00  0.00     0.029 A 
ATOM     17  C   UNL A   1      42.862  33.403  35.503  1.00  0.00     0.065 C 
ATOM     18  C   UNL A   1      41.508  31.398  34.550  1.00  0.00     0.033 A 
ATOM     19  C   UNL A   1      38.195  31.740  36.181  1.00  0.00     0.065 C 
BRANCH  14  20
ATOM     20  C   UNL A   1      40.067  33.996  36.571  1.00  0.00     0.046 A 
ATOM     21  C   UNL A   1      40.297  35.336  40.119  1.00  0.00     0.044 C 
ATOM     22  C   UNL A   1      40.155  35.259  38.629  1.00  0.00    -0.049 A 
ATOM     23  C   UNL A   1      40.080  36.443  37.879  1.00  0.00     0.003 A 
ATOM     24  C   UNL A   1      40.146  34.024  37.968  1.00  0.00     0.030 A 
ATOM     25  C   UNL A   1      39.935  36.400  36.493  1.00  0.00     0.002 A 
ATOM     26  C   UNL A   1      39.905  35.174  35.837  1.00  0.00     0.026 A 
ENDBRANCH  14  20
ENDBRANCH  12  13
ENDBRANCH   6  11
BRANCH  10  27
ATOM     27  O   UNL A   1      45.243  27.335  35.280  1.00  0.00    -0.507 OA
ATOM     28  H   UNL A   1      45.375  27.841  36.056  1.00  0.00     0.293 HD
ENDBRANCH  10  27
ENDBRANCH   3   5
ENDBRANCH   2   3
ENDBRANCH   1   2
BRANCH   1  29
ATOM     29  C   UNL A   1      43.893  24.737  28.416  1.00  0.00     0.275 C 
BRANCH  29  30
ATOM     30  O   UNL A   1      42.505  24.409  28.665  1.00  0.00    -0.458 OA
BRANCH  30  31
ATOM     31  C   UNL A   1      41.791  23.952  27.601  1.00  0.00     0.338 C 
ATOM     32  O   UNL A   1      41.583  22.780  27.321  1.00  0.00    -0.246 OA
BRANCH  31  33
ATOM     33  C   UNL A   1      40.830  25.023  27.234  1.00  0.00     0.060 A 
ATOM     34  C   UNL A   1      41.384  26.433  26.248  1.00  0.00     0.016 A 
ATOM     35  C   UNL A   1      39.753  25.292  28.653  1.00  0.00     0.016 A 
ATOM     36  C   UNL A   1      40.899  28.159  26.735  1.00  0.00     0.010 A 
ATOM     37  C   UNL A   1      39.304  27.004  29.150  1.00  0.00     0.010 A 
ATOM     38  C   UNL A   1      39.890  28.417  28.203  1.00  0.00    -0.014 A 
BRANCH  38  39
ATOM     39  C   UNL A   1      40.090  29.591  29.056  1.00  0.00     0.031 A 
ATOM     40  C   UNL A   1      39.014  30.601  29.098  1.00  0.00     0.074 A 
ATOM     41  C   UNL A   1      41.145  29.612  29.915  1.00  0.00     0.049 A 
ATOM     42  N   UNL A   1      39.195  31.801  29.512  1.00  0.00    -0.248 NA
ATOM     43  C   UNL A   1      37.640  30.375  28.645  1.00  0.00     0.031 C 
ATOM     44  C   UNL A   1      41.419  30.528  31.022  1.00  0.00     0.029 A 
ATOM     45  N   UNL A   1      42.311  28.853  29.899  1.00  0.00    -0.354 N 
ATOM     46  C   UNL A   1      37.960  32.385  29.682  1.00  0.00     0.074 A 
ATOM     47  C   UNL A   1      37.026  31.490  29.053  1.00  0.00     0.031 C 
ATOM     48  C   UNL A   1      42.741  30.494  31.293  1.00  0.00     0.029 A 
ATOM     49  C   UNL A   1      43.376  29.643  30.296  1.00  0.00     0.049 A 
ATOM     50  H   UNL A   1      42.369  27.903  29.645  1.00  0.00     0.167 HD
ATOM     51  C   UNL A   1      37.882  33.501  30.456  1.00  0.00     0.031 A 
ATOM     52  C   UNL A   1      44.343  30.003  29.396  1.00  0.00     0.031 A 
ATOM     53  C   UNL A   1      39.225  33.914  30.878  1.00  0.00     0.049 A 
ATOM     54  C   UNL A   1      44.224  31.496  29.068  1.00  0.00     0.074 A 
ATOM     55  C   UNL A   1      39.960  33.756  32.041  1.00  0.00     0.029 A 
ATOM     56  N   UNL A   1      40.149  34.204  29.887  1.00  0.00    -0.354 N 
ATOM     57  N   UNL A   1      43.262  32.262  29.521  1.00  0.00    -0.248 NA
ATOM     58  C   UNL A   1      45.133  32.252  28.207  1.00  0.00     0.031 C 
ATOM     59  C   UNL A   1      41.344  33.924  31.713  1.00  0.00     0.029 A 
ATOM     60  C   UNL A   1      41.445  34.221  30.365  1.00  0.00     0.049 A 
ATOM     61  H   UNL A   1      39.909  34.379  28.948  1.00  0.00     0.167 HD
ATOM     62  C   UNL A   1      43.392  33.545  29.071  1.00  0.00     0.074 A 
ATOM     63  C   UNL A   1      44.568  33.478  28.215  1.00  0.00     0.031 C 
ATOM     64  C   UNL A   1      42.524  34.544  29.432  1.00  0.00     0.031 A 
BRANCH  51  65
ATOM     65  C   UNL A   1      36.602  34.084  31.005  1.00  0.00    -0.014 A 
ATOM     66  C   UNL A   1      35.452  34.081  30.189  1.00  0.00     0.010 A 
ATOM     67  C   UNL A   1      36.456  34.670  32.280  1.00  0.00     0.010 A 
ATOM     68  C   UNL A   1      34.248  34.678  30.591  1.00  0.00     0.020 A 
ATOM     69  C   UNL A   1      35.262  35.291  32.688  1.00  0.00     0.020 A 
ATOM     70  C   UNL A   1      34.163  35.293  31.837  1.00  0.00     0.054 A 
BRANCH  70  71
ATOM     71  S   UNL A   1      32.599  36.068  32.325  1.00  0.00     0.124 S 
ATOM     72  O   UNL A   1      32.987  36.849  33.497  1.00  0.00    -0.237 OA
ATOM     73  O   UNL A   1      32.251  36.844  31.138  1.00  0.00    -0.237 OA
ATOM     74  O   UNL A   1      31.721  34.934  32.604  1.00  0.00    -0.744 OA
ENDBRANCH  70  71
ENDBRANCH  51  65
BRANCH  52  75
ATOM     75  C   UNL A   1      44.842  28.865  28.530  1.00  0.00    -0.014 A 
ATOM     76  C   UNL A   1      44.465  28.902  27.160  1.00  0.00     0.010 A 
ATOM     77  C   UNL A   1      45.867  27.966  28.873  1.00  0.00     0.010 A 
ATOM     78  C   UNL A   1      45.178  28.218  26.161  1.00  0.00     0.020 A 
ATOM     79  C   UNL A   1      46.586  27.260  27.867  1.00  0.00     0.020 A 
ATOM     80  C   UNL A   1      46.260  27.421  26.513  1.00  0.00     0.054 A 
BRANCH  80  81
ATOM     81  S   UNL A   1      47.316  26.752  25.173  1.00  0.00     0.124 S 
ATOM     82  O   UNL A   1      47.722  27.956  24.455  1.00  0.00    -0.237 OA
ATOM     83  O   UNL A   1      48.385  26.072  25.901  1.00  0.00    -0.237 OA
ATOM     84  O   UNL A   1      46.417  25.861  24.444  1.00  0.00    -0.744 OA
ENDBRANCH  80  81
ENDBRANCH  52  75
BRANCH  64  85
ATOM     85  C   UNL A   1      42.578  35.963  28.904  1.00  0.00    -0.014 A 
ATOM     86  C   UNL A   1      42.020  36.354  27.683  1.00  0.00     0.010 A 
ATOM     87  C   UNL A   1      43.299  36.955  29.616  1.00  0.00     0.010 A 
ATOM     88  C   UNL A   1      42.075  37.690  27.258  1.00  0.00     0.020 A 
ATOM     89  C   UNL A   1      43.383  38.279  29.198  1.00  0.00     0.020 A 
ATOM     90  C   UNL A   1      42.738  38.647  28.031  1.00  0.00     0.054 A 
BRANCH  90  91
ATOM     91  S   UNL A   1      42.781  40.366  27.484  1.00  0.00     0.124 S 
ATOM     92  O   UNL A   1      44.196  40.561  27.176  1.00  0.00    -0.237 OA
ATOM     93  O   UNL A   1      41.885  40.337  26.332  1.00  0.00    -0.237 OA
ATOM     94  O   UNL A   1      42.289  41.117  28.637  1.00  0.00    -0.744 OA
ENDBRANCH  90  91
ENDBRANCH  64  85
ENDBRANCH  38  39
ENDBRANCH  31  33
ENDBRANCH  30  31
ENDBRANCH  29  30
ENDBRANCH   1  29
TORSDOF 18
ENDMDL
MODEL 3
REMARK VINA RESULT:     -11.6      1.296      2.581
REMARK SMILES Cc1cccc(-n2c(C)cc(/C=N\c3ccc(O)c(C(=O)OCCOC(=O)c4ccc(-c5c6nc(c(-c7ccc(S(=O)(=O)[O-])cc7)c7ccc([nH]7)c(-c7ccc(S(=O)(=O)[O-])cc7)c7nc(c(-c8ccc(S(=O)(=O)[O-])cc8)c8ccc5[nH]8)C=C7)C=C6)cc4)c3)c2C)c1
REMARK SMILES IDX 23 1 22 2 20 3 21 4 19 5 14 6 15 7 88 8 16 9 17 10 13 11
REMARK SMILES IDX 12 12 11 13 7 14 8 15 89 16 9 17 10 18 90 19 6 20 1 21 2 22
REMARK SMILES IDX 3 23 91 24 4 25 5 26 18 27 24 29 25 30 26 31 27 32 28 33
REMARK SMILES IDX 29 34 87 35 30 36 86 37 31 38 32 39 33 40 80 41 34 42 85 43
REMARK SMILES IDX 79 44 81 45 35 46 84 47 78 48 77 49 36 51 66 52 47 53 65 54
REMARK SMILES IDX 48 55 51 56 64 57 82 58 49 59 50 60 63 62 83 63 52 64 37 65
REMARK SMILES IDX 38 66 46 67 39 68 45 69 40 70 41 71 42 72 43 73 44 74 67 75
REMARK SMILES IDX 68 76 76 77 69 78 75 79 70 80 71 81 72 82 73 83 74 84 53 85
REMARK SMILES IDX 54 86 62 87 55 88 61 89 56 90 57 91 58 92 59 93 60 94
REMARK H PARENT 18 28 81 50 51 61
REMARK Flexibility Score: inf
ROOT
ATOM      1  C   UNL A   1      44.720  24.383  28.864  1.00  0.00     0.275 C 
ENDROOT
BRANCH   1   2
ATOM      2  O   UNL A   1      44.340  23.374  29.827  1.00  0.00    -0.458 OA
BRANCH   2   3
ATOM      3  C   UNL A   1      44.221  23.819  31.268  1.00  0.00     0.342 C 
ATOM      4  O   UNL A   1      43.431  22.923  31.687  1.00  0.00    -0.246 OA
BRANCH   3   5
ATOM      5  C   UNL A   1      45.194  25.484  32.236  1.00  0.00     0.103 A 
ATOM      6  C   UNL A   1      47.485  26.627  33.288  1.00  0.00     0.064 A 
ATOM      7  C   UNL A   1      46.994  27.897  33.210  1.00  0.00     0.032 A 
ATOM      8  C   UNL A   1      46.679  25.568  32.774  1.00  0.00     0.048 A 
ATOM      9  C   UNL A   1      45.654  28.043  32.904  1.00  0.00     0.049 A 
ATOM     10  C   UNL A   1      44.797  26.930  32.563  1.00  0.00     0.130 A 
BRANCH   6  11
ATOM     11  N   UNL A   1      48.777  26.349  33.740  1.00  0.00    -0.256 NA
ATOM     12  C   UNL A   1      49.124  25.411  34.575  1.00  0.00     0.121 C 
BRANCH  12  13
ATOM     13  C   UNL A   1      48.370  24.408  35.330  1.00  0.00     0.014 A 
ATOM     14  N   UNL A   1      47.408  22.537  36.167  1.00  0.00    -0.318 N 
ATOM     15  C   UNL A   1      46.769  23.603  36.768  1.00  0.00     0.021 A 
ATOM     16  C   UNL A   1      48.444  23.019  35.370  1.00  0.00     0.029 A 
ATOM     17  C   UNL A   1      45.689  23.434  37.780  1.00  0.00     0.065 C 
ATOM     18  C   UNL A   1      47.363  24.755  36.293  1.00  0.00     0.033 A 
ATOM     19  C   UNL A   1      49.352  22.087  34.655  1.00  0.00     0.065 C 
BRANCH  14  20
ATOM     20  C   UNL A   1      46.990  21.183  36.187  1.00  0.00     0.046 A 
ATOM     21  C   UNL A   1      46.502  18.497  38.830  1.00  0.00     0.044 C 
ATOM     22  C   UNL A   1      46.414  19.274  37.551  1.00  0.00    -0.049 A 
ATOM     23  C   UNL A   1      45.550  18.836  36.535  1.00  0.00     0.003 A 
ATOM     24  C   UNL A   1      47.142  20.457  37.374  1.00  0.00     0.030 A 
ATOM     25  C   UNL A   1      45.458  19.532  35.330  1.00  0.00     0.002 A 
ATOM     26  C   UNL A   1      46.196  20.697  35.144  1.00  0.00     0.026 A 
ENDBRANCH  14  20
ENDBRANCH  12  13
ENDBRANCH   6  11
BRANCH  10  27
ATOM     27  O   UNL A   1      43.477  27.394  32.711  1.00  0.00    -0.507 OA
ATOM     28  H   UNL A   1      42.783  26.990  32.230  1.00  0.00     0.293 HD
ENDBRANCH  10  27
ENDBRANCH   3   5
ENDBRANCH   2   3
ENDBRANCH   1   2
BRANCH   1  29
ATOM     29  C   UNL A   1      43.456  25.100  28.354  1.00  0.00     0.275 C 
BRANCH  29  30
ATOM     30  O   UNL A   1      42.275  24.265  28.421  1.00  0.00    -0.458 OA
BRANCH  30  31
ATOM     31  C   UNL A   1      41.702  23.932  27.233  1.00  0.00     0.338 C 
ATOM     32  O   UNL A   1      41.615  22.806  26.764  1.00  0.00    -0.246 OA
BRANCH  31  33
ATOM     33  C   UNL A   1      40.697  24.981  26.929  1.00  0.00     0.060 A 
ATOM     34  C   UNL A   1      41.167  26.421  25.941  1.00  0.00     0.016 A 
ATOM     35  C   UNL A   1      39.680  25.200  28.399  1.00  0.00     0.016 A 
ATOM     36  C   UNL A   1      40.660  28.125  26.478  1.00  0.00     0.010 A 
ATOM     37  C   UNL A   1      39.209  26.890  28.945  1.00  0.00     0.010 A 
ATOM     38  C   UNL A   1      39.713  28.334  27.995  1.00  0.00    -0.014 A 
BRANCH  38  39
ATOM     39  C   UNL A   1      39.920  29.499  28.857  1.00  0.00     0.031 A 
ATOM     40  C   UNL A   1      38.854  30.518  28.904  1.00  0.00     0.074 A 
ATOM     41  C   UNL A   1      40.974  29.505  29.719  1.00  0.00     0.049 A 
ATOM     42  N   UNL A   1      39.044  31.714  29.327  1.00  0.00    -0.248 NA
ATOM     43  C   UNL A   1      37.479  30.308  28.446  1.00  0.00     0.031 C 
ATOM     44  C   UNL A   1      41.253  30.410  30.833  1.00  0.00     0.029 A 
ATOM     45  N   UNL A   1      42.133  28.736  29.699  1.00  0.00    -0.354 N 
ATOM     46  C   UNL A   1      37.813  32.306  29.499  1.00  0.00     0.074 A 
ATOM     47  C   UNL A   1      36.873  31.425  28.861  1.00  0.00     0.031 C 
ATOM     48  C   UNL A   1      42.574  30.363  31.107  1.00  0.00     0.029 A 
ATOM     49  C   UNL A   1      43.204  29.514  30.105  1.00  0.00     0.049 A 
ATOM     50  H   UNL A   1      42.184  27.788  29.438  1.00  0.00     0.167 HD
ATOM     51  C   UNL A   1      37.743  33.418  30.281  1.00  0.00     0.031 A 
ATOM     52  C   UNL A   1      44.177  29.872  29.210  1.00  0.00     0.031 A 
ATOM     53  C   UNL A   1      39.089  33.816  30.709  1.00  0.00     0.049 A 
ATOM     54  C   UNL A   1      44.071  31.368  28.892  1.00  0.00     0.074 A 
ATOM     55  C   UNL A   1      39.819  33.643  31.873  1.00  0.00     0.029 A 
ATOM     56  N   UNL A   1      40.017  34.105  29.722  1.00  0.00    -0.354 N 
ATOM     57  N   UNL A   1      43.115  32.139  29.349  1.00  0.00    -0.248 NA
ATOM     58  C   UNL A   1      44.988  32.123  28.040  1.00  0.00     0.031 C 
ATOM     59  C   UNL A   1      41.205  33.801  31.549  1.00  0.00     0.029 A 
ATOM     60  C   UNL A   1      41.312  34.108  30.203  1.00  0.00     0.049 A 
ATOM     61  H   UNL A   1      39.781  34.290  28.784  1.00  0.00     0.167 HD
ATOM     62  C   UNL A   1      43.257  33.424  28.909  1.00  0.00     0.074 A 
ATOM     63  C   UNL A   1      44.434  33.353  28.056  1.00  0.00     0.031 C 
ATOM     64  C   UNL A   1      42.397  34.428  29.275  1.00  0.00     0.031 A 
BRANCH  51  65
ATOM     65  C   UNL A   1      36.467  34.007  30.831  1.00  0.00    -0.014 A 
ATOM     66  C   UNL A   1      35.404  34.273  29.943  1.00  0.00     0.010 A 
ATOM     67  C   UNL A   1      36.246  34.352  32.181  1.00  0.00     0.010 A 
ATOM     68  C   UNL A   1      34.219  34.896  30.358  1.00  0.00     0.020 A 
ATOM     69  C   UNL A   1      35.071  34.997  32.609  1.00  0.00     0.020 A 
ATOM     70  C   UNL A   1      34.063  35.268  31.690  1.00  0.00     0.054 A 
BRANCH  70  71
ATOM     71  S   UNL A   1      32.527  36.086  32.197  1.00  0.00     0.124 S 
ATOM     72  O   UNL A   1      32.979  36.965  33.272  1.00  0.00    -0.237 OA
ATOM     73  O   UNL A   1      32.110  36.755  30.969  1.00  0.00    -0.237 OA
ATOM     74  O   UNL A   1      31.670  34.981  32.623  1.00  0.00    -0.744 OA
ENDBRANCH  70  71
ENDBRANCH  51  65
BRANCH  52  75
ATOM     75  C   UNL A   1      44.668  28.736  28.336  1.00  0.00    -0.014 A 
ATOM     76  C   UNL A   1      44.126  28.669  27.024  1.00  0.00     0.010 A 
ATOM     77  C   UNL A   1      45.804  27.947  28.586  1.00  0.00     0.010 A 
ATOM     78  C   UNL A   1      44.771  27.996  25.973  1.00  0.00     0.020 A 
ATOM     79  C   UNL A   1      46.457  27.252  27.528  1.00  0.00     0.020 A 
ATOM     80  C   UNL A   1      45.956  27.314  26.220  1.00  0.00     0.054 A 
BRANCH  80  81
ATOM     81  S   UNL A   1      46.898  26.667  24.787  1.00  0.00     0.124 S 
ATOM     82  O   UNL A   1      46.691  27.699  23.777  1.00  0.00    -0.237 OA
ATOM     83  O   UNL A   1      48.260  26.566  25.304  1.00  0.00    -0.237 OA
ATOM     84  O   UNL A   1      46.257  25.383  24.511  1.00  0.00    -0.744 OA
ENDBRANCH  80  81
ENDBRANCH  52  75
BRANCH  64  85
ATOM     85  C   UNL A   1      42.464  35.850  28.759  1.00  0.00    -0.014 A 
ATOM     86  C   UNL A   1      41.925  36.252  27.531  1.00  0.00     0.010 A 
ATOM     87  C   UNL A   1      43.178  36.835  29.488  1.00  0.00     0.010 A 
ATOM     88  C   UNL A   1      41.993  37.591  27.117  1.00  0.00     0.020 A 
ATOM     89  C   UNL A   1      43.273  38.162  29.080  1.00  0.00     0.020 A 
ATOM     90  C   UNL A   1      42.647  38.540  27.907  1.00  0.00     0.054 A 
BRANCH  90  91
ATOM     91  S   UNL A   1      42.705  40.263  27.372  1.00  0.00     0.124 S 
ATOM     92  O   UNL A   1      43.263  40.936  28.543  1.00  0.00    -0.237 OA
ATOM     93  O   UNL A   1      43.587  40.187  26.210  1.00  0.00    -0.237 OA
ATOM     94  O   UNL A   1      41.311  40.587  27.076  1.00  0.00    -0.744 OA
ENDBRANCH  90  91
ENDBRANCH  64  85
ENDBRANCH  38  39
ENDBRANCH  31  33
ENDBRANCH  30  31
ENDBRANCH  29  30
ENDBRANCH   1  29
TORSDOF 18
ENDMDL
