MODEL 1
REMARK VINA RESULT:     -11.3      0.000      0.000
REMARK SMILES NC(=O)c1ccc(NC(=O)Cc2ccccc2C(=O)OCCOC(=O)c2ccc(-c3c4nc(c(-c5ccc(S(=O)(=O)[O-])cc5)c5ccc([nH]5)c(-c5ccc(S(=O)(=O)[O-])cc5)c5nc(c(-c6ccc(S(=O)(=O)[O-])cc6)c6ccc3[nH]6)C=C5)C=C4)cc2)cc1
REMARK SMILES IDX 21 1 20 2 18 3 19 4 17 5 12 6 13 7 14 8 16 9 15 10 11 11
REMARK SMILES IDX 9 12 8 13 10 15 7 16 4 17 5 18 87 19 6 20 86 21 2 22 1 23
REMARK SMILES IDX 3 26 22 27 23 28 24 29 25 30 26 31 27 32 85 33 28 34 84 35
REMARK SMILES IDX 29 36 30 37 31 38 78 39 32 40 83 41 77 42 79 43 33 44 82 45
REMARK SMILES IDX 76 46 75 47 34 49 64 50 45 51 63 52 46 53 49 54 62 55 80 56
REMARK SMILES IDX 47 57 48 58 61 60 81 61 50 62 35 63 36 64 44 65 37 66 43 67
REMARK SMILES IDX 38 68 39 69 40 70 41 71 42 72 65 73 66 74 74 75 67 76 73 77
REMARK SMILES IDX 68 78 69 79 70 80 71 81 72 82 51 83 52 84 60 85 53 86 59 87
REMARK SMILES IDX 54 88 55 89 56 90 57 91 58 92
REMARK H PARENT 8 14 1 24 1 25 79 48 49 59
REMARK Flexibility Score: inf
ROOT
ATOM      1  C   UNL A   1      36.314  21.616  25.665  1.00  0.00     0.275 C 
ENDROOT
BRANCH   1   2
ATOM      2  O   UNL A   1      35.229  20.693  25.409  1.00  0.00    -0.458 OA
BRANCH   2   3
ATOM      3  C   UNL A   1      34.031  21.132  25.862  1.00  0.00     0.338 C 
ATOM      4  O   UNL A   1      33.691  21.117  27.036  1.00  0.00    -0.246 OA
BRANCH   3   5
ATOM      5  C   UNL A   1      33.074  21.562  24.822  1.00  0.00     0.063 A 
ATOM      6  C   UNL A   1      32.599  22.882  24.713  1.00  0.00    -0.024 A 
ATOM      7  C   UNL A   1      31.828  23.212  23.577  1.00  0.00     0.005 A 
ATOM      8  C   UNL A   1      31.605  22.289  22.550  1.00  0.00     0.000 A 
ATOM      9  C   UNL A   1      32.829  20.640  23.789  1.00  0.00     0.016 A 
ATOM     10  C   UNL A   1      32.112  21.002  22.652  1.00  0.00     0.001 A 
BRANCH   6  11
ATOM     11  C   UNL A   1      32.860  23.950  25.754  1.00  0.00     0.136 C 
BRANCH  11  12
ATOM     12  C   UNL A   1      31.717  24.190  26.729  1.00  0.00     0.228 C 
ATOM     13  N   UNL A   1      30.776  25.169  26.580  1.00  0.00    -0.326 N 
ATOM     14  H   UNL A   1      30.057  25.118  27.251  1.00  0.00     0.169 HD
ATOM     15  O   UNL A   1      31.580  23.430  27.698  1.00  0.00    -0.274 OA
BRANCH  13  16
ATOM     16  C   UNL A   1      30.612  26.231  25.676  1.00  0.00     0.041 A 
ATOM     17  C   UNL A   1      30.380  28.114  23.608  1.00  0.00     0.039 A 
ATOM     18  C   UNL A   1      31.246  28.340  24.670  1.00  0.00     0.016 A 
ATOM     19  C   UNL A   1      29.523  27.017  23.635  1.00  0.00     0.016 A 
ATOM     20  C   UNL A   1      31.345  27.408  25.709  1.00  0.00     0.027 A 
ATOM     21  C   UNL A   1      29.634  26.087  24.679  1.00  0.00     0.027 A 
BRANCH  17  22
ATOM     22  C   UNL A   1      30.487  28.984  22.424  1.00  0.00     0.248 C 
ATOM     23  N   UNL A   1      31.732  29.445  22.123  1.00  0.00    -0.366 N 
ATOM     24  H   UNL A   1      31.864  30.030  21.342  1.00  0.00     0.159 HD
ATOM     25  H   UNL A   1      32.500  29.191  22.684  1.00  0.00     0.159 HD
ATOM     26  O   UNL A   1      29.506  29.242  21.743  1.00  0.00    -0.270 OA
ENDBRANCH  17  22
ENDBRANCH  13  16
ENDBRANCH  11  12
ENDBRANCH   6  11
ENDBRANCH   3   5
ENDBRANCH   2   3
ENDBRANCH   1   2
BRANCH   1  27
ATOM     27  C   UNL A   1      37.710  21.077  25.334  1.00  0.00     0.275 C 
BRANCH  27  28
ATOM     28  O   UNL A   1      38.717  22.103  25.352  1.00  0.00    -0.458 OA
BRANCH  28  29
ATOM     29  C   UNL A   1      39.614  21.980  26.357  1.00  0.00     0.338 C 
ATOM     30  O   UNL A   1      40.185  20.962  26.708  1.00  0.00    -0.246 OA
BRANCH  29  31
ATOM     31  C   UNL A   1      39.877  23.274  27.005  1.00  0.00     0.060 A 
ATOM     32  C   UNL A   1      39.369  24.433  26.426  1.00  0.00     0.016 A 
ATOM     33  C   UNL A   1      40.824  23.361  28.021  1.00  0.00     0.016 A 
ATOM     34  C   UNL A   1      39.900  25.671  26.744  1.00  0.00     0.010 A 
ATOM     35  C   UNL A   1      41.271  24.622  28.431  1.00  0.00     0.010 A 
ATOM     36  C   UNL A   1      40.850  25.784  27.759  1.00  0.00    -0.014 A 
BRANCH  36  37
ATOM     37  C   UNL A   1      41.444  27.109  28.060  1.00  0.00     0.031 A 
ATOM     38  C   UNL A   1      42.913  27.327  27.835  1.00  0.00     0.074 A 
ATOM     39  C   UNL A   1      40.662  28.116  28.498  1.00  0.00     0.049 A 
ATOM     40  N   UNL A   1      43.673  28.314  28.231  1.00  0.00    -0.248 NA
ATOM     41  C   UNL A   1      43.630  26.286  27.076  1.00  0.00     0.031 C 
ATOM     42  C   UNL A   1      39.205  28.059  28.656  1.00  0.00     0.029 A 
ATOM     43  N   UNL A   1      40.983  29.392  28.885  1.00  0.00    -0.354 N 
ATOM     44  C   UNL A   1      44.964  27.979  27.836  1.00  0.00     0.074 A 
ATOM     45  C   UNL A   1      44.885  26.699  27.167  1.00  0.00     0.031 C 
ATOM     46  C   UNL A   1      38.758  29.252  29.073  1.00  0.00     0.029 A 
ATOM     47  C   UNL A   1      39.901  30.119  29.321  1.00  0.00     0.049 A 
ATOM     48  H   UNL A   1      41.898  29.753  28.851  1.00  0.00     0.167 HD
ATOM     49  C   UNL A   1      46.107  28.678  28.027  1.00  0.00     0.031 A 
ATOM     50  C   UNL A   1      39.839  31.325  29.915  1.00  0.00     0.031 A 
ATOM     51  C   UNL A   1      46.148  29.967  28.670  1.00  0.00     0.049 A 
ATOM     52  C   UNL A   1      41.125  32.051  30.182  1.00  0.00     0.074 A 
ATOM     53  C   UNL A   1      47.244  30.770  28.927  1.00  0.00     0.029 A 
ATOM     54  N   UNL A   1      45.033  30.647  29.141  1.00  0.00    -0.354 N 
ATOM     55  N   UNL A   1      42.351  31.693  29.878  1.00  0.00    -0.248 NA
ATOM     56  C   UNL A   1      41.024  33.335  30.886  1.00  0.00     0.031 C 
ATOM     57  C   UNL A   1      46.797  31.911  29.602  1.00  0.00     0.029 A 
ATOM     58  C   UNL A   1      45.415  31.850  29.706  1.00  0.00     0.049 A 
ATOM     59  H   UNL A   1      44.106  30.321  29.082  1.00  0.00     0.167 HD
ATOM     60  C   UNL A   1      43.169  32.717  30.337  1.00  0.00     0.074 A 
ATOM     61  C   UNL A   1      42.294  33.716  30.922  1.00  0.00     0.031 C 
ATOM     62  C   UNL A   1      44.519  32.824  30.282  1.00  0.00     0.031 A 
BRANCH  49  63
ATOM     63  C   UNL A   1      47.402  28.032  27.602  1.00  0.00    -0.014 A 
ATOM     64  C   UNL A   1      48.113  27.163  28.448  1.00  0.00     0.010 A 
ATOM     65  C   UNL A   1      47.915  28.303  26.319  1.00  0.00     0.010 A 
ATOM     66  C   UNL A   1      49.335  26.619  28.040  1.00  0.00     0.020 A 
ATOM     67  C   UNL A   1      49.120  27.736  25.895  1.00  0.00     0.020 A 
ATOM     68  C   UNL A   1      49.834  26.914  26.767  1.00  0.00     0.054 A 
BRANCH  68  69
ATOM     69  S   UNL A   1      51.421  26.193  26.260  1.00  0.00     0.124 S 
ATOM     70  O   UNL A   1      51.341  26.280  24.804  1.00  0.00    -0.237 OA
ATOM     71  O   UNL A   1      52.393  27.083  26.889  1.00  0.00    -0.237 OA
ATOM     72  O   UNL A   1      51.377  24.838  26.804  1.00  0.00    -0.744 OA
ENDBRANCH  68  69
ENDBRANCH  49  63
BRANCH  50  73
ATOM     73  C   UNL A   1      38.523  31.873  30.346  1.00  0.00    -0.014 A 
ATOM     74  C   UNL A   1      38.074  31.705  31.666  1.00  0.00     0.010 A 
ATOM     75  C   UNL A   1      37.729  32.609  29.445  1.00  0.00     0.010 A 
ATOM     76  C   UNL A   1      36.856  32.256  32.076  1.00  0.00     0.020 A 
ATOM     77  C   UNL A   1      36.526  33.189  29.859  1.00  0.00     0.020 A 
ATOM     78  C   UNL A   1      36.093  33.000  31.171  1.00  0.00     0.054 A 
BRANCH  78  79
ATOM     79  S   UNL A   1      34.547  33.759  31.744  1.00  0.00     0.124 S 
ATOM     80  O   UNL A   1      33.916  32.659  32.465  1.00  0.00    -0.237 OA
ATOM     81  O   UNL A   1      35.025  34.866  32.569  1.00  0.00    -0.237 OA
ATOM     82  O   UNL A   1      33.881  34.160  30.506  1.00  0.00    -0.744 OA
ENDBRANCH  78  79
ENDBRANCH  50  73
BRANCH  62  83
ATOM     83  C   UNL A   1      45.126  34.085  30.833  1.00  0.00    -0.014 A 
ATOM     84  C   UNL A   1      45.599  34.153  32.154  1.00  0.00     0.010 A 
ATOM     85  C   UNL A   1      45.264  35.205  29.992  1.00  0.00     0.010 A 
ATOM     86  C   UNL A   1      46.173  35.331  32.637  1.00  0.00     0.020 A 
ATOM     87  C   UNL A   1      45.864  36.375  30.461  1.00  0.00     0.020 A 
ATOM     88  C   UNL A   1      46.301  36.434  31.786  1.00  0.00     0.054 A 
BRANCH  88  89
ATOM     89  S   UNL A   1      47.091  37.937  32.422  1.00  0.00     0.124 S 
ATOM     90  O   UNL A   1      48.055  37.394  33.374  1.00  0.00    -0.237 OA
ATOM     91  O   UNL A   1      47.664  38.532  31.217  1.00  0.00    -0.237 OA
ATOM     92  O   UNL A   1      45.985  38.687  33.013  1.00  0.00    -0.744 OA
ENDBRANCH  88  89
ENDBRANCH  62  83
ENDBRANCH  36  37
ENDBRANCH  29  31
ENDBRANCH  28  29
ENDBRANCH  27  28
ENDBRANCH   1  27
TORSDOF 18
ENDMDL
MODEL 2
REMARK VINA RESULT:     -11.1      3.153      3.966
REMARK SMILES NC(=O)c1ccc(NC(=O)Cc2ccccc2C(=O)OCCOC(=O)c2ccc(-c3c4nc(c(-c5ccc(S(=O)(=O)[O-])cc5)c5ccc([nH]5)c(-c5ccc(S(=O)(=O)[O-])cc5)c5nc(c(-c6ccc(S(=O)(=O)[O-])cc6)c6ccc3[nH]6)C=C5)C=C4)cc2)cc1
REMARK SMILES IDX 21 1 20 2 18 3 19 4 17 5 12 6 13 7 14 8 16 9 15 10 11 11
REMARK SMILES IDX 9 12 8 13 10 15 7 16 4 17 5 18 87 19 6 20 86 21 2 22 1 23
REMARK SMILES IDX 3 26 22 27 23 28 24 29 25 30 26 31 27 32 85 33 28 34 84 35
REMARK SMILES IDX 29 36 30 37 31 38 78 39 32 40 83 41 77 42 79 43 33 44 82 45
REMARK SMILES IDX 76 46 75 47 34 49 64 50 45 51 63 52 46 53 49 54 62 55 80 56
REMARK SMILES IDX 47 57 48 58 61 60 81 61 50 62 35 63 36 64 44 65 37 66 43 67
REMARK SMILES IDX 38 68 39 69 40 70 41 71 42 72 65 73 66 74 74 75 67 76 73 77
REMARK SMILES IDX 68 78 69 79 70 80 71 81 72 82 51 83 52 84 60 85 53 86 59 87
REMARK SMILES IDX 54 88 55 89 56 90 57 91 58 92
REMARK H PARENT 8 14 1 24 1 25 79 48 49 59
REMARK Flexibility Score: inf
ROOT
ATOM      1  C   UNL A   1      35.610  23.583  23.651  1.00  0.00     0.275 C 
ENDROOT
BRANCH   1   2
ATOM      2  O   UNL A   1      34.593  23.020  24.514  1.00  0.00    -0.458 OA
BRANCH   2   3
ATOM      3  C   UNL A   1      34.543  23.597  25.737  1.00  0.00     0.338 C 
ATOM      4  O   UNL A   1      35.086  23.145  26.734  1.00  0.00    -0.246 OA
BRANCH   3   5
ATOM      5  C   UNL A   1      33.691  24.799  25.841  1.00  0.00     0.063 A 
ATOM      6  C   UNL A   1      32.500  24.836  26.589  1.00  0.00    -0.024 A 
ATOM      7  C   UNL A   1      31.866  26.087  26.756  1.00  0.00     0.005 A 
ATOM      8  C   UNL A   1      32.435  27.267  26.268  1.00  0.00     0.000 A 
ATOM      9  C   UNL A   1      34.245  25.993  25.343  1.00  0.00     0.016 A 
ATOM     10  C   UNL A   1      33.631  27.222  25.566  1.00  0.00     0.001 A 
BRANCH   6  11
ATOM     11  C   UNL A   1      31.864  23.607  27.202  1.00  0.00     0.136 C 
BRANCH  11  12
ATOM     12  C   UNL A   1      30.421  23.355  26.788  1.00  0.00     0.228 C 
ATOM     13  N   UNL A   1      29.942  23.547  25.523  1.00  0.00    -0.326 N 
ATOM     14  H   UNL A   1      29.012  23.243  25.412  1.00  0.00     0.169 HD
ATOM     15  O   UNL A   1      29.625  22.897  27.620  1.00  0.00    -0.274 OA
BRANCH  13  16
ATOM     16  C   UNL A   1      30.491  24.083  24.347  1.00  0.00     0.041 A 
ATOM     17  C   UNL A   1      31.916  25.088  22.147  1.00  0.00     0.039 A 
ATOM     18  C   UNL A   1      31.005  25.891  22.821  1.00  0.00     0.016 A 
ATOM     19  C   UNL A   1      32.026  23.740  22.476  1.00  0.00     0.016 A 
ATOM     20  C   UNL A   1      30.281  25.381  23.905  1.00  0.00     0.027 A 
ATOM     21  C   UNL A   1      31.300  23.240  23.567  1.00  0.00     0.027 A 
BRANCH  17  22
ATOM     22  C   UNL A   1      32.828  25.727  21.184  1.00  0.00     0.248 C 
ATOM     23  N   UNL A   1      32.513  25.587  19.867  1.00  0.00    -0.366 N 
ATOM     24  H   UNL A   1      33.087  25.994  19.178  1.00  0.00     0.159 HD
ATOM     25  H   UNL A   1      31.710  25.082  19.604  1.00  0.00     0.159 HD
ATOM     26  O   UNL A   1      33.795  26.371  21.565  1.00  0.00    -0.270 OA
ENDBRANCH  17  22
ENDBRANCH  13  16
ENDBRANCH  11  12
ENDBRANCH   6  11
ENDBRANCH   3   5
ENDBRANCH   2   3
ENDBRANCH   1   2
BRANCH   1  27
ATOM     27  C   UNL A   1      37.038  23.116  23.949  1.00  0.00     0.275 C 
BRANCH  27  28
ATOM     28  O   UNL A   1      37.712  23.969  24.891  1.00  0.00    -0.458 OA
BRANCH  28  29
ATOM     29  C   UNL A   1      38.459  23.304  25.803  1.00  0.00     0.338 C 
ATOM     30  O   UNL A   1      38.519  22.097  25.959  1.00  0.00    -0.246 OA
BRANCH  29  31
ATOM     31  C   UNL A   1      39.265  24.229  26.615  1.00  0.00     0.060 A 
ATOM     32  C   UNL A   1      39.048  24.286  27.988  1.00  0.00     0.016 A 
ATOM     33  C   UNL A   1      40.037  25.205  25.991  1.00  0.00     0.016 A 
ATOM     34  C   UNL A   1      39.467  25.380  28.723  1.00  0.00     0.010 A 
ATOM     35  C   UNL A   1      40.568  26.248  26.758  1.00  0.00     0.010 A 
ATOM     36  C   UNL A   1      40.242  26.371  28.122  1.00  0.00    -0.014 A 
BRANCH  36  37
ATOM     37  C   UNL A   1      40.648  27.560  28.909  1.00  0.00     0.031 A 
ATOM     38  C   UNL A   1      41.992  27.575  29.582  1.00  0.00     0.074 A 
ATOM     39  C   UNL A   1      39.832  28.630  28.987  1.00  0.00     0.049 A 
ATOM     40  N   UNL A   1      42.454  28.398  30.486  1.00  0.00    -0.248 NA
ATOM     41  C   UNL A   1      42.937  26.510  29.200  1.00  0.00     0.031 C 
ATOM     42  C   UNL A   1      38.548  28.777  28.293  1.00  0.00     0.029 A 
ATOM     43  N   UNL A   1      39.963  29.804  29.684  1.00  0.00    -0.354 N 
ATOM     44  C   UNL A   1      43.710  27.910  30.832  1.00  0.00     0.074 A 
ATOM     45  C   UNL A   1      43.938  26.721  30.042  1.00  0.00     0.031 C 
ATOM     46  C   UNL A   1      38.030  29.982  28.571  1.00  0.00     0.029 A 
ATOM     47  C   UNL A   1      38.882  30.642  29.550  1.00  0.00     0.049 A 
ATOM     48  H   UNL A   1      40.755  30.025  30.226  1.00  0.00     0.167 HD
ATOM     49  C   UNL A   1      44.583  28.411  31.739  1.00  0.00     0.031 A 
ATOM     50  C   UNL A   1      38.578  31.786  30.189  1.00  0.00     0.031 A 
ATOM     51  C   UNL A   1      44.340  29.617  32.488  1.00  0.00     0.049 A 
ATOM     52  C   UNL A   1      39.525  32.285  31.241  1.00  0.00     0.074 A 
ATOM     53  C   UNL A   1      45.143  30.220  33.438  1.00  0.00     0.029 A 
ATOM     54  N   UNL A   1      43.208  30.411  32.356  1.00  0.00    -0.354 N 
ATOM     55  N   UNL A   1      40.673  31.776  31.622  1.00  0.00    -0.248 NA
ATOM     56  C   UNL A   1      39.131  33.502  31.961  1.00  0.00     0.031 C 
ATOM     57  C   UNL A   1      44.473  31.351  33.919  1.00  0.00     0.029 A 
ATOM     58  C   UNL A   1      43.282  31.488  33.221  1.00  0.00     0.049 A 
ATOM     59  H   UNL A   1      42.463  30.234  31.738  1.00  0.00     0.167 HD
ATOM     60  C   UNL A   1      41.150  32.621  32.615  1.00  0.00     0.074 A 
ATOM     61  C   UNL A   1      40.172  33.684  32.761  1.00  0.00     0.031 C 
ATOM     62  C   UNL A   1      42.291  32.530  33.343  1.00  0.00     0.031 A 
BRANCH  49  63
ATOM     63  C   UNL A   1      45.836  27.619  32.014  1.00  0.00    -0.014 A 
ATOM     64  C   UNL A   1      45.827  26.468  32.822  1.00  0.00     0.010 A 
ATOM     65  C   UNL A   1      47.053  28.040  31.444  1.00  0.00     0.010 A 
ATOM     66  C   UNL A   1      47.017  25.785  33.096  1.00  0.00     0.020 A 
ATOM     67  C   UNL A   1      48.239  27.342  31.689  1.00  0.00     0.020 A 
ATOM     68  C   UNL A   1      48.217  26.230  32.532  1.00  0.00     0.054 A 
BRANCH  68  69
ATOM     69  S   UNL A   1      49.746  25.324  32.900  1.00  0.00     0.124 S 
ATOM     70  O   UNL A   1      49.320  24.442  33.984  1.00  0.00    -0.237 OA
ATOM     71  O   UNL A   1      50.039  24.662  31.632  1.00  0.00    -0.237 OA
ATOM     72  O   UNL A   1      50.687  26.372  33.285  1.00  0.00    -0.744 OA
ENDBRANCH  68  69
ENDBRANCH  49  63
BRANCH  50  73
ATOM     73  C   UNL A   1      37.296  32.485  29.892  1.00  0.00    -0.014 A 
ATOM     74  C   UNL A   1      36.136  32.202  30.632  1.00  0.00     0.010 A 
ATOM     75  C   UNL A   1      37.240  33.474  28.890  1.00  0.00     0.010 A 
ATOM     76  C   UNL A   1      34.946  32.889  30.374  1.00  0.00     0.020 A 
ATOM     77  C   UNL A   1      36.062  34.186  28.651  1.00  0.00     0.020 A 
ATOM     78  C   UNL A   1      34.918  33.881  29.389  1.00  0.00     0.054 A 
BRANCH  78  79
ATOM     79  S   UNL A   1      33.379  34.804  29.117  1.00  0.00     0.124 S 
ATOM     80  O   UNL A   1      32.697  33.973  28.131  1.00  0.00    -0.237 OA
ATOM     81  O   UNL A   1      32.782  34.824  30.451  1.00  0.00    -0.237 OA
ATOM     82  O   UNL A   1      33.838  36.104  28.630  1.00  0.00    -0.744 OA
ENDBRANCH  78  79
ENDBRANCH  50  73
BRANCH  62  83
ATOM     83  C   UNL A   1      42.560  33.632  34.330  1.00  0.00    -0.014 A 
ATOM     84  C   UNL A   1      42.161  33.525  35.673  1.00  0.00     0.010 A 
ATOM     85  C   UNL A   1      43.267  34.774  33.909  1.00  0.00     0.010 A 
ATOM     86  C   UNL A   1      42.437  34.555  36.573  1.00  0.00     0.020 A 
ATOM     87  C   UNL A   1      43.571  35.793  34.813  1.00  0.00     0.020 A 
ATOM     88  C   UNL A   1      43.141  35.683  36.137  1.00  0.00     0.054 A 
BRANCH  88  89
ATOM     89  S   UNL A   1      43.527  36.987  37.335  1.00  0.00     0.124 S 
ATOM     90  O   UNL A   1      42.227  37.220  37.959  1.00  0.00    -0.237 OA
ATOM     91  O   UNL A   1      44.528  36.352  38.189  1.00  0.00    -0.237 OA
ATOM     92  O   UNL A   1      44.027  38.082  36.508  1.00  0.00    -0.744 OA
ENDBRANCH  88  89
ENDBRANCH  62  83
ENDBRANCH  36  37
ENDBRANCH  29  31
ENDBRANCH  28  29
ENDBRANCH  27  28
ENDBRANCH   1  27
TORSDOF 18
ENDMDL
MODEL 3
REMARK VINA RESULT:     -11.1      2.602      9.094
REMARK SMILES NC(=O)c1ccc(NC(=O)Cc2ccccc2C(=O)OCCOC(=O)c2ccc(-c3c4nc(c(-c5ccc(S(=O)(=O)[O-])cc5)c5ccc([nH]5)c(-c5ccc(S(=O)(=O)[O-])cc5)c5nc(c(-c6ccc(S(=O)(=O)[O-])cc6)c6ccc3[nH]6)C=C5)C=C4)cc2)cc1
REMARK SMILES IDX 21 1 20 2 18 3 19 4 17 5 12 6 13 7 14 8 16 9 15 10 11 11
REMARK SMILES IDX 9 12 8 13 10 15 7 16 4 17 5 18 87 19 6 20 86 21 2 22 1 23
REMARK SMILES IDX 3 26 22 27 23 28 24 29 25 30 26 31 27 32 85 33 28 34 84 35
REMARK SMILES IDX 29 36 30 37 31 38 78 39 32 40 83 41 77 42 79 43 33 44 82 45
REMARK SMILES IDX 76 46 75 47 34 49 64 50 45 51 63 52 46 53 49 54 62 55 80 56
REMARK SMILES IDX 47 57 48 58 61 60 81 61 50 62 35 63 36 64 44 65 37 66 43 67
REMARK SMILES IDX 38 68 39 69 40 70 41 71 42 72 65 73 66 74 74 75 67 76 73 77
REMARK SMILES IDX 68 78 69 79 70 80 71 81 72 82 51 83 52 84 60 85 53 86 59 87
REMARK SMILES IDX 54 88 55 89 56 90 57 91 58 92
REMARK H PARENT 8 14 1 24 1 25 79 48 49 59
REMARK Flexibility Score: inf
ROOT
ATOM      1  C   UNL A   1      33.850  28.270  27.023  1.00  0.00     0.275 C 
ENDROOT
BRANCH   1   2
ATOM      2  O   UNL A   1      33.159  27.560  25.968  1.00  0.00    -0.458 OA
BRANCH   2   3
ATOM      3  C   UNL A   1      33.391  28.068  24.735  1.00  0.00     0.338 C 
ATOM      4  O   UNL A   1      34.464  28.530  24.371  1.00  0.00    -0.246 OA
BRANCH   3   5
ATOM      5  C   UNL A   1      32.220  28.128  23.838  1.00  0.00     0.063 A 
ATOM      6  C   UNL A   1      32.142  27.418  22.625  1.00  0.00    -0.024 A 
ATOM      7  C   UNL A   1      30.906  27.416  21.942  1.00  0.00     0.005 A 
ATOM      8  C   UNL A   1      29.770  28.029  22.481  1.00  0.00     0.000 A 
ATOM      9  C   UNL A   1      31.073  28.753  24.361  1.00  0.00     0.016 A 
ATOM     10  C   UNL A   1      29.851  28.693  23.697  1.00  0.00     0.001 A 
BRANCH   6  11
ATOM     11  C   UNL A   1      33.313  26.677  22.017  1.00  0.00     0.136 C 
BRANCH  11  12
ATOM     12  C   UNL A   1      32.937  25.527  21.093  1.00  0.00     0.228 C 
ATOM     13  N   UNL A   1      32.458  24.323  21.524  1.00  0.00    -0.326 N 
ATOM     14  H   UNL A   1      32.176  23.734  20.787  1.00  0.00     0.169 HD
ATOM     15  O   UNL A   1      33.013  25.689  19.867  1.00  0.00    -0.274 OA
BRANCH  13  16
ATOM     16  C   UNL A   1      32.279  23.745  22.792  1.00  0.00     0.041 A 
ATOM     17  C   UNL A   1      31.878  22.933  25.448  1.00  0.00     0.039 A 
ATOM     18  C   UNL A   1      33.046  22.594  24.778  1.00  0.00     0.016 A 
ATOM     19  C   UNL A   1      30.843  23.561  24.760  1.00  0.00     0.016 A 
ATOM     20  C   UNL A   1      33.234  22.984  23.447  1.00  0.00     0.027 A 
ATOM     21  C   UNL A   1      31.044  23.952  23.428  1.00  0.00     0.027 A 
BRANCH  17  22
ATOM     22  C   UNL A   1      31.824  22.724  26.905  1.00  0.00     0.248 C 
ATOM     23  N   UNL A   1      32.712  21.832  27.421  1.00  0.00    -0.366 N 
ATOM     24  H   UNL A   1      32.723  21.652  28.389  1.00  0.00     0.159 HD
ATOM     25  H   UNL A   1      33.345  21.367  26.827  1.00  0.00     0.159 HD
ATOM     26  O   UNL A   1      31.040  23.351  27.602  1.00  0.00    -0.270 OA
ENDBRANCH  17  22
ENDBRANCH  13  16
ENDBRANCH  11  12
ENDBRANCH   6  11
ENDBRANCH   3   5
ENDBRANCH   2   3
ENDBRANCH   1   2
BRANCH   1  27
ATOM     27  C   UNL A   1      33.175  29.569  27.476  1.00  0.00     0.275 C 
BRANCH  27  28
ATOM     28  O   UNL A   1      34.036  30.713  27.343  1.00  0.00    -0.458 OA
BRANCH  28  29
ATOM     29  C   UNL A   1      34.763  30.989  28.450  1.00  0.00     0.338 C 
ATOM     30  O   UNL A   1      34.460  31.746  29.356  1.00  0.00    -0.246 OA
BRANCH  29  31
ATOM     31  C   UNL A   1      36.016  30.218  28.475  1.00  0.00     0.060 A 
ATOM     32  C   UNL A   1      36.483  29.729  29.691  1.00  0.00     0.016 A 
ATOM     33  C   UNL A   1      36.844  30.205  27.356  1.00  0.00     0.016 A 
ATOM     34  C   UNL A   1      37.809  29.362  29.841  1.00  0.00     0.010 A 
ATOM     35  C   UNL A   1      38.149  29.716  27.478  1.00  0.00     0.010 A 
ATOM     36  C   UNL A   1      38.658  29.340  28.735  1.00  0.00    -0.014 A 
BRANCH  36  37
ATOM     37  C   UNL A   1      40.086  28.988  28.916  1.00  0.00     0.031 A 
ATOM     38  C   UNL A   1      41.039  30.022  29.446  1.00  0.00     0.074 A 
ATOM     39  C   UNL A   1      40.515  27.740  28.642  1.00  0.00     0.049 A 
ATOM     40  N   UNL A   1      42.346  30.005  29.474  1.00  0.00    -0.248 NA
ATOM     41  C   UNL A   1      40.443  31.249  30.004  1.00  0.00     0.031 C 
ATOM     42  C   UNL A   1      39.668  26.619  28.221  1.00  0.00     0.029 A 
ATOM     43  N   UNL A   1      41.775  27.200  28.682  1.00  0.00    -0.354 N 
ATOM     44  C   UNL A   1      42.728  31.242  29.983  1.00  0.00     0.074 A 
ATOM     45  C   UNL A   1      41.516  31.985  30.251  1.00  0.00     0.031 C 
ATOM     46  C   UNL A   1      40.424  25.522  28.075  1.00  0.00     0.029 A 
ATOM     47  C   UNL A   1      41.819  25.886  28.279  1.00  0.00     0.049 A 
ATOM     48  H   UNL A   1      42.570  27.703  28.972  1.00  0.00     0.167 HD
ATOM     49  C   UNL A   1      43.981  31.711  30.193  1.00  0.00     0.031 A 
ATOM     50  C   UNL A   1      42.869  25.080  28.037  1.00  0.00     0.031 A 
ATOM     51  C   UNL A   1      45.168  30.934  29.946  1.00  0.00     0.049 A 
ATOM     52  C   UNL A   1      44.250  25.643  28.208  1.00  0.00     0.074 A 
ATOM     53  C   UNL A   1      46.491  31.299  30.114  1.00  0.00     0.029 A 
ATOM     54  N   UNL A   1      45.169  29.621  29.491  1.00  0.00    -0.354 N 
ATOM     55  N   UNL A   1      44.607  26.839  28.611  1.00  0.00    -0.248 NA
ATOM     56  C   UNL A   1      45.371  24.754  27.876  1.00  0.00     0.031 C 
ATOM     57  C   UNL A   1      47.293  30.227  29.710  1.00  0.00     0.029 A 
ATOM     58  C   UNL A   1      46.469  29.169  29.353  1.00  0.00     0.049 A 
ATOM     59  H   UNL A   1      44.363  29.091  29.295  1.00  0.00     0.167 HD
ATOM     60  C   UNL A   1      45.995  26.844  28.601  1.00  0.00     0.074 A 
ATOM     61  C   UNL A   1      46.411  25.523  28.168  1.00  0.00     0.031 C 
ATOM     62  C   UNL A   1      46.851  27.847  28.919  1.00  0.00     0.031 A 
BRANCH  49  63
ATOM     63  C   UNL A   1      44.125  33.143  30.645  1.00  0.00    -0.014 A 
ATOM     64  C   UNL A   1      44.336  33.481  31.993  1.00  0.00     0.010 A 
ATOM     65  C   UNL A   1      44.050  34.174  29.689  1.00  0.00     0.010 A 
ATOM     66  C   UNL A   1      44.418  34.822  32.383  1.00  0.00     0.020 A 
ATOM     67  C   UNL A   1      44.163  35.514  30.070  1.00  0.00     0.020 A 
ATOM     68  C   UNL A   1      44.325  35.831  31.419  1.00  0.00     0.054 A 
BRANCH  68  69
ATOM     69  S   UNL A   1      44.437  37.562  31.951  1.00  0.00     0.124 S 
ATOM     70  O   UNL A   1      43.831  38.265  30.823  1.00  0.00    -0.237 OA
ATOM     71  O   UNL A   1      43.656  37.568  33.186  1.00  0.00    -0.237 OA
ATOM     72  O   UNL A   1      45.870  37.782  32.123  1.00  0.00    -0.744 OA
ENDBRANCH  68  69
ENDBRANCH  49  63
BRANCH  50  73
ATOM     73  C   UNL A   1      42.642  23.691  27.548  1.00  0.00    -0.014 A 
ATOM     74  C   UNL A   1      42.516  23.425  26.175  1.00  0.00     0.010 A 
ATOM     75  C   UNL A   1      42.594  22.616  28.458  1.00  0.00     0.010 A 
ATOM     76  C   UNL A   1      42.343  22.114  25.720  1.00  0.00     0.020 A 
ATOM     77  C   UNL A   1      42.453  21.301  28.006  1.00  0.00     0.020 A 
ATOM     78  C   UNL A   1      42.318  21.060  26.638  1.00  0.00     0.054 A 
BRANCH  78  79
ATOM     79  S   UNL A   1      42.156  19.362  26.019  1.00  0.00     0.124 S 
ATOM     80  O   UNL A   1      40.733  19.285  25.709  1.00  0.00    -0.237 OA
ATOM     81  O   UNL A   1      43.057  19.357  24.868  1.00  0.00    -0.237 OA
ATOM     82  O   UNL A   1      42.597  18.541  27.146  1.00  0.00    -0.744 OA
ENDBRANCH  78  79
ENDBRANCH  50  73
BRANCH  62  83
ATOM     83  C   UNL A   1      48.320  27.536  28.849  1.00  0.00    -0.014 A 
ATOM     84  C   UNL A   1      49.089  27.883  27.725  1.00  0.00     0.010 A 
ATOM     85  C   UNL A   1      48.947  26.927  29.953  1.00  0.00     0.010 A 
ATOM     86  C   UNL A   1      50.456  27.598  27.693  1.00  0.00     0.020 A 
ATOM     87  C   UNL A   1      50.318  26.668  29.936  1.00  0.00     0.020 A 
ATOM     88  C   UNL A   1      51.061  26.992  28.799  1.00  0.00     0.054 A 
BRANCH  88  89
ATOM     89  S   UNL A   1      52.845  26.673  28.751  1.00  0.00     0.124 S 
ATOM     90  O   UNL A   1      52.943  25.657  27.707  1.00  0.00    -0.237 OA
ATOM     91  O   UNL A   1      53.395  27.983  28.407  1.00  0.00    -0.237 OA
ATOM     92  O   UNL A   1      53.152  26.211  30.103  1.00  0.00    -0.744 OA
ENDBRANCH  88  89
ENDBRANCH  62  83
ENDBRANCH  36  37
ENDBRANCH  29  31
ENDBRANCH  28  29
ENDBRANCH  27  28
ENDBRANCH   1  27
TORSDOF 18
ENDMDL
