MODEL 1
REMARK VINA RESULT:     -10.9      0.000      0.000
REMARK SMILES O=C(CCc1nc(-c2ccccc2)c(-c2ccccc2)o1)OCCOC(=O)c1ccc(-c2c3nc(c(-c4ccc(S(=O)(=O)[O-])cc4)c4ccc([nH]4)c(-c4ccc(S(=O)(=O)[O-])cc4)c4nc(c(-c5ccc(S(=O)(=O)[O-])cc5)c5ccc2[nH]5)C=C4)C=C3)cc1
REMARK SMILES IDX 23 1 22 2 2 3 1 4 3 5 4 6 5 7 6 8 21 9 7 10 14 11 8 12 9 13
REMARK SMILES IDX 13 14 10 15 12 16 11 17 15 18 16 19 20 20 17 21 19 22 18 23
REMARK SMILES IDX 24 24 25 25 26 26 27 27 28 28 29 29 87 30 30 31 86 32 31 33
REMARK SMILES IDX 32 34 33 35 80 36 34 37 85 38 79 39 81 40 35 41 84 42 78 43
REMARK SMILES IDX 77 44 36 46 66 47 47 48 65 49 48 50 51 51 64 52 82 53 49 54
REMARK SMILES IDX 50 55 63 57 83 58 52 59 37 60 38 61 46 62 39 63 45 64 40 65
REMARK SMILES IDX 41 66 42 67 43 68 44 69 67 70 68 71 76 72 69 73 75 74 70 75
REMARK SMILES IDX 71 76 72 77 73 78 74 79 53 80 54 81 62 82 55 83 61 84 56 85
REMARK SMILES IDX 57 86 58 87 59 88 60 89
REMARK H PARENT 81 45 51 56
REMARK Flexibility Score: inf
ROOT
ATOM      1  C   UNL A   1      36.060  21.415  24.732  1.00  0.00     0.274 C 
ENDROOT
BRANCH   1   2
ATOM      2  O   UNL A   1      35.333  22.647  24.596  1.00  0.00    -0.462 OA
BRANCH   2   3
ATOM      3  C   UNL A   1      34.411  22.693  23.598  1.00  0.00     0.306 C 
ATOM      4  O   UNL A   1      34.640  23.262  22.537  1.00  0.00    -0.252 OA
BRANCH   3   5
ATOM      5  C   UNL A   1      33.041  22.165  23.966  1.00  0.00     0.132 C 
BRANCH   5   6
ATOM      6  C   UNL A   1      31.954  22.687  23.038  1.00  0.00     0.109 C 
BRANCH   6   7
ATOM      7  C   UNL A   1      31.368  23.955  23.551  1.00  0.00     0.196 A 
ATOM      8  N   UNL A   1      30.262  24.568  23.172  1.00  0.00    -0.213 NA
ATOM      9  O   UNL A   1      32.108  24.636  24.475  1.00  0.00    -0.440 OA
ATOM     10  C   UNL A   1      30.329  25.781  23.815  1.00  0.00     0.117 A 
ATOM     11  C   UNL A   1      31.420  25.804  24.660  1.00  0.00     0.162 A 
BRANCH  10  12
ATOM     12  C   UNL A   1      29.451  26.897  23.529  1.00  0.00     0.004 A 
ATOM     13  C   UNL A   1      28.089  26.822  23.862  1.00  0.00     0.010 A 
ATOM     14  C   UNL A   1      29.944  28.067  22.946  1.00  0.00     0.010 A 
ATOM     15  C   UNL A   1      27.226  27.882  23.580  1.00  0.00     0.001 A 
ATOM     16  C   UNL A   1      29.078  29.126  22.658  1.00  0.00     0.001 A 
ATOM     17  C   UNL A   1      27.721  29.030  22.968  1.00  0.00     0.000 A 
ENDBRANCH  10  12
BRANCH  11  18
ATOM     18  C   UNL A   1      31.975  26.742  25.614  1.00  0.00     0.020 A 
ATOM     19  C   UNL A   1      33.326  27.101  25.559  1.00  0.00     0.012 A 
ATOM     20  C   UNL A   1      31.149  27.327  26.583  1.00  0.00     0.012 A 
ATOM     21  C   UNL A   1      33.840  28.040  26.455  1.00  0.00     0.001 A 
ATOM     22  C   UNL A   1      31.666  28.257  27.484  1.00  0.00     0.001 A 
ATOM     23  C   UNL A   1      33.011  28.616  27.417  1.00  0.00     0.000 A 
ENDBRANCH  11  18
ENDBRANCH   6   7
ENDBRANCH   5   6
ENDBRANCH   3   5
ENDBRANCH   2   3
ENDBRANCH   1   2
BRANCH   1  24
ATOM     24  C   UNL A   1      37.568  21.599  24.947  1.00  0.00     0.275 C 
BRANCH  24  25
ATOM     25  O   UNL A   1      37.866  22.470  26.044  1.00  0.00    -0.458 OA
BRANCH  25  26
ATOM     26  C   UNL A   1      39.185  22.528  26.355  1.00  0.00     0.338 C 
ATOM     27  O   UNL A   1      40.024  21.668  26.139  1.00  0.00    -0.246 OA
BRANCH  26  28
ATOM     28  C   UNL A   1      39.512  23.888  26.829  1.00  0.00     0.060 A 
ATOM     29  C   UNL A   1      40.186  24.740  25.946  1.00  0.00     0.016 A 
ATOM     30  C   UNL A   1      39.177  24.322  28.115  1.00  0.00     0.016 A 
ATOM     31  C   UNL A   1      40.577  26.010  26.366  1.00  0.00     0.010 A 
ATOM     32  C   UNL A   1      39.573  25.596  28.535  1.00  0.00     0.010 A 
ATOM     33  C   UNL A   1      40.308  26.430  27.676  1.00  0.00    -0.014 A 
BRANCH  33  34
ATOM     34  C   UNL A   1      40.943  27.666  28.194  1.00  0.00     0.031 A 
ATOM     35  C   UNL A   1      42.442  27.792  28.122  1.00  0.00     0.074 A 
ATOM     36  C   UNL A   1      40.205  28.677  28.686  1.00  0.00     0.049 A 
ATOM     37  N   UNL A   1      43.207  28.790  28.480  1.00  0.00    -0.248 NA
ATOM     38  C   UNL A   1      43.174  26.638  27.574  1.00  0.00     0.031 C 
ATOM     39  C   UNL A   1      38.746  28.693  28.783  1.00  0.00     0.029 A 
ATOM     40  N   UNL A   1      40.590  29.891  29.199  1.00  0.00    -0.354 N 
ATOM     41  C   UNL A   1      44.506  28.392  28.192  1.00  0.00     0.074 A 
ATOM     42  C   UNL A   1      44.431  27.045  27.668  1.00  0.00     0.031 C 
ATOM     43  C   UNL A   1      38.359  29.864  29.321  1.00  0.00     0.029 A 
ATOM     44  C   UNL A   1      39.542  30.669  29.626  1.00  0.00     0.049 A 
ATOM     45  H   UNL A   1      41.531  30.177  29.255  1.00  0.00     0.167 HD
ATOM     46  C   UNL A   1      45.660  29.086  28.334  1.00  0.00     0.031 A 
ATOM     47  C   UNL A   1      39.536  31.888  30.199  1.00  0.00     0.031 A 
ATOM     48  C   UNL A   1      45.744  30.415  28.876  1.00  0.00     0.049 A 
ATOM     49  C   UNL A   1      40.840  32.611  30.424  1.00  0.00     0.074 A 
ATOM     50  C   UNL A   1      46.867  31.203  29.054  1.00  0.00     0.029 A 
ATOM     51  N   UNL A   1      44.663  31.149  29.338  1.00  0.00    -0.354 N 
ATOM     52  N   UNL A   1      42.057  32.234  30.109  1.00  0.00    -0.248 NA
ATOM     53  C   UNL A   1      40.767  33.929  31.071  1.00  0.00     0.031 C 
ATOM     54  C   UNL A   1      46.471  32.395  29.669  1.00  0.00     0.029 A 
ATOM     55  C   UNL A   1      45.095  32.371  29.825  1.00  0.00     0.049 A 
ATOM     56  H   UNL A   1      43.725  30.847  29.323  1.00  0.00     0.167 HD
ATOM     57  C   UNL A   1      42.889  33.282  30.491  1.00  0.00     0.074 A 
ATOM     58  C   UNL A   1      42.038  34.310  31.053  1.00  0.00     0.031 C 
ATOM     59  C   UNL A   1      44.237  33.387  30.381  1.00  0.00     0.031 A 
BRANCH  46  60
ATOM     60  C   UNL A   1      46.932  28.400  27.916  1.00  0.00    -0.014 A 
ATOM     61  C   UNL A   1      47.647  27.590  28.816  1.00  0.00     0.010 A 
ATOM     62  C   UNL A   1      47.405  28.548  26.599  1.00  0.00     0.010 A 
ATOM     63  C   UNL A   1      48.833  26.969  28.419  1.00  0.00     0.020 A 
ATOM     64  C   UNL A   1      48.578  27.909  26.191  1.00  0.00     0.020 A 
ATOM     65  C   UNL A   1      49.295  27.138  27.109  1.00  0.00     0.054 A 
BRANCH  65  66
ATOM     66  S   UNL A   1      50.831  26.310  26.614  1.00  0.00     0.124 S 
ATOM     67  O   UNL A   1      51.845  27.183  27.202  1.00  0.00    -0.237 OA
ATOM     68  O   UNL A   1      50.701  24.993  27.233  1.00  0.00    -0.237 OA
ATOM     69  O   UNL A   1      50.773  26.317  25.155  1.00  0.00    -0.744 OA
ENDBRANCH  65  66
ENDBRANCH  46  60
BRANCH  47  70
ATOM     70  C   UNL A   1      38.249  32.514  30.608  1.00  0.00    -0.014 A 
ATOM     71  C   UNL A   1      37.483  33.248  29.685  1.00  0.00     0.010 A 
ATOM     72  C   UNL A   1      37.789  32.387  31.931  1.00  0.00     0.010 A 
ATOM     73  C   UNL A   1      36.291  33.859  30.081  1.00  0.00     0.020 A 
ATOM     74  C   UNL A   1      36.584  32.976  32.325  1.00  0.00     0.020 A 
ATOM     75  C   UNL A   1      35.848  33.719  31.400  1.00  0.00     0.054 A 
BRANCH  75  76
ATOM     76  S   UNL A   1      34.275  34.483  31.883  1.00  0.00     0.124 S 
ATOM     77  O   UNL A   1      33.729  33.494  32.807  1.00  0.00    -0.237 OA
ATOM     78  O   UNL A   1      34.706  35.743  32.485  1.00  0.00    -0.237 OA
ATOM     79  O   UNL A   1      33.559  34.621  30.617  1.00  0.00    -0.744 OA
ENDBRANCH  75  76
ENDBRANCH  47  70
BRANCH  59  80
ATOM     80  C   UNL A   1      44.880  34.667  30.845  1.00  0.00    -0.014 A 
ATOM     81  C   UNL A   1      45.006  35.773  29.988  1.00  0.00     0.010 A 
ATOM     82  C   UNL A   1      45.303  34.783  32.182  1.00  0.00     0.010 A 
ATOM     83  C   UNL A   1      45.570  36.966  30.452  1.00  0.00     0.020 A 
ATOM     84  C   UNL A   1      45.844  35.982  32.657  1.00  0.00     0.020 A 
ATOM     85  C   UNL A   1      45.985  37.063  31.784  1.00  0.00     0.054 A 
BRANCH  85  86
ATOM     86  S   UNL A   1      46.667  38.636  32.376  1.00  0.00     0.124 S 
ATOM     87  O   UNL A   1      45.464  39.450  32.529  1.00  0.00    -0.237 OA
ATOM     88  O   UNL A   1      47.329  38.253  33.620  1.00  0.00    -0.237 OA
ATOM     89  O   UNL A   1      47.566  39.051  31.301  1.00  0.00    -0.744 OA
ENDBRANCH  85  86
ENDBRANCH  59  80
ENDBRANCH  33  34
ENDBRANCH  26  28
ENDBRANCH  25  26
ENDBRANCH  24  25
ENDBRANCH   1  24
TORSDOF 18
ENDMDL
MODEL 2
REMARK VINA RESULT:     -10.9      5.360      7.426
REMARK SMILES O=C(CCc1nc(-c2ccccc2)c(-c2ccccc2)o1)OCCOC(=O)c1ccc(-c2c3nc(c(-c4ccc(S(=O)(=O)[O-])cc4)c4ccc([nH]4)c(-c4ccc(S(=O)(=O)[O-])cc4)c4nc(c(-c5ccc(S(=O)(=O)[O-])cc5)c5ccc2[nH]5)C=C4)C=C3)cc1
REMARK SMILES IDX 23 1 22 2 2 3 1 4 3 5 4 6 5 7 6 8 21 9 7 10 14 11 8 12 9 13
REMARK SMILES IDX 13 14 10 15 12 16 11 17 15 18 16 19 20 20 17 21 19 22 18 23
REMARK SMILES IDX 24 24 25 25 26 26 27 27 28 28 29 29 87 30 30 31 86 32 31 33
REMARK SMILES IDX 32 34 33 35 80 36 34 37 85 38 79 39 81 40 35 41 84 42 78 43
REMARK SMILES IDX 77 44 36 46 66 47 47 48 65 49 48 50 51 51 64 52 82 53 49 54
REMARK SMILES IDX 50 55 63 57 83 58 52 59 37 60 38 61 46 62 39 63 45 64 40 65
REMARK SMILES IDX 41 66 42 67 43 68 44 69 67 70 68 71 76 72 69 73 75 74 70 75
REMARK SMILES IDX 71 76 72 77 73 78 74 79 53 80 54 81 62 82 55 83 61 84 56 85
REMARK SMILES IDX 57 86 58 87 59 88 60 89
REMARK H PARENT 81 45 51 56
REMARK Flexibility Score: inf
ROOT
ATOM      1  C   UNL A   1      42.227  22.924  26.506  1.00  0.00     0.274 C 
ENDROOT
BRANCH   1   2
ATOM      2  O   UNL A   1      41.871  22.014  27.559  1.00  0.00    -0.462 OA
BRANCH   2   3
ATOM      3  C   UNL A   1      40.813  21.197  27.315  1.00  0.00     0.306 C 
ATOM      4  O   UNL A   1      40.778  20.047  27.737  1.00  0.00    -0.252 OA
BRANCH   3   5
ATOM      5  C   UNL A   1      39.792  21.743  26.341  1.00  0.00     0.132 C 
BRANCH   5   6
ATOM      6  C   UNL A   1      39.163  20.649  25.491  1.00  0.00     0.109 C 
BRANCH   6   7
ATOM      7  C   UNL A   1      37.691  20.831  25.379  1.00  0.00     0.196 A 
ATOM      8  N   UNL A   1      36.951  21.852  25.772  1.00  0.00    -0.213 NA
ATOM      9  O   UNL A   1      36.982  19.770  24.892  1.00  0.00    -0.440 OA
ATOM     10  C   UNL A   1      35.664  21.393  25.626  1.00  0.00     0.117 A 
ATOM     11  C   UNL A   1      35.675  20.148  25.031  1.00  0.00     0.162 A 
BRANCH  10  12
ATOM     12  C   UNL A   1      34.498  22.076  26.149  1.00  0.00     0.004 A 
ATOM     13  C   UNL A   1      34.035  21.784  27.442  1.00  0.00     0.010 A 
ATOM     14  C   UNL A   1      33.837  23.046  25.392  1.00  0.00     0.010 A 
ATOM     15  C   UNL A   1      32.905  22.422  27.955  1.00  0.00     0.001 A 
ATOM     16  C   UNL A   1      32.700  23.681  25.904  1.00  0.00     0.001 A 
ATOM     17  C   UNL A   1      32.233  23.364  27.180  1.00  0.00     0.000 A 
ENDBRANCH  10  12
BRANCH  11  18
ATOM     18  C   UNL A   1      34.673  19.205  24.578  1.00  0.00     0.020 A 
ATOM     19  C   UNL A   1      35.020  17.884  24.277  1.00  0.00     0.012 A 
ATOM     20  C   UNL A   1      33.334  19.604  24.471  1.00  0.00     0.012 A 
ATOM     21  C   UNL A   1      34.039  16.972  23.885  1.00  0.00     0.001 A 
ATOM     22  C   UNL A   1      32.356  18.694  24.069  1.00  0.00     0.001 A 
ATOM     23  C   UNL A   1      32.709  17.377  23.780  1.00  0.00     0.000 A 
ENDBRANCH  11  18
ENDBRANCH   6   7
ENDBRANCH   5   6
ENDBRANCH   3   5
ENDBRANCH   2   3
ENDBRANCH   1   2
BRANCH   1  24
ATOM     24  C   UNL A   1      42.285  24.394  26.942  1.00  0.00     0.275 C 
BRANCH  24  25
ATOM     25  O   UNL A   1      41.015  25.049  26.841  1.00  0.00    -0.458 OA
BRANCH  25  26
ATOM     26  C   UNL A   1      41.101  26.360  26.500  1.00  0.00     0.338 C 
ATOM     27  O   UNL A   1      41.268  26.813  25.379  1.00  0.00    -0.246 OA
BRANCH  26  28
ATOM     28  C   UNL A   1      40.766  27.188  27.676  1.00  0.00     0.060 A 
ATOM     29  C   UNL A   1      41.356  28.454  27.770  1.00  0.00     0.016 A 
ATOM     30  C   UNL A   1      39.899  26.736  28.675  1.00  0.00     0.016 A 
ATOM     31  C   UNL A   1      41.126  29.249  28.891  1.00  0.00     0.010 A 
ATOM     32  C   UNL A   1      39.672  27.534  29.801  1.00  0.00     0.010 A 
ATOM     33  C   UNL A   1      40.314  28.777  29.931  1.00  0.00    -0.014 A 
BRANCH  33  34
ATOM     34  C   UNL A   1      40.278  29.507  31.221  1.00  0.00     0.031 A 
ATOM     35  C   UNL A   1      41.370  29.252  32.226  1.00  0.00     0.074 A 
ATOM     36  C   UNL A   1      39.315  30.408  31.487  1.00  0.00     0.049 A 
ATOM     37  N   UNL A   1      41.560  29.799  33.398  1.00  0.00    -0.248 NA
ATOM     38  C   UNL A   1      42.381  28.247  31.858  1.00  0.00     0.031 C 
ATOM     39  C   UNL A   1      38.220  30.769  30.588  1.00  0.00     0.029 A 
ATOM     40  N   UNL A   1      39.110  31.187  32.599  1.00  0.00    -0.354 N 
ATOM     41  C   UNL A   1      42.716  29.214  33.904  1.00  0.00     0.074 A 
ATOM     42  C   UNL A   1      43.160  28.241  32.930  1.00  0.00     0.031 C 
ATOM     43  C   UNL A   1      37.457  31.703  31.185  1.00  0.00     0.029 A 
ATOM     44  C   UNL A   1      37.998  31.989  32.514  1.00  0.00     0.049 A 
ATOM     45  H   UNL A   1      39.704  31.172  33.384  1.00  0.00     0.167 HD
ATOM     46  C   UNL A   1      43.360  29.472  35.066  1.00  0.00     0.031 A 
ATOM     47  C   UNL A   1      37.473  32.852  33.407  1.00  0.00     0.031 A 
ATOM     48  C   UNL A   1      42.910  30.420  36.049  1.00  0.00     0.049 A 
ATOM     49  C   UNL A   1      38.163  33.063  34.730  1.00  0.00     0.074 A 
ATOM     50  C   UNL A   1      43.500  30.755  37.255  1.00  0.00     0.029 A 
ATOM     51  N   UNL A   1      41.755  31.178  35.944  1.00  0.00    -0.354 N 
ATOM     52  N   UNL A   1      39.276  32.530  35.175  1.00  0.00    -0.248 NA
ATOM     53  C   UNL A   1      37.530  34.003  35.668  1.00  0.00     0.031 C 
ATOM     54  C   UNL A   1      42.674  31.681  37.902  1.00  0.00     0.029 A 
ATOM     55  C   UNL A   1      41.600  31.961  37.075  1.00  0.00     0.049 A 
ATOM     56  H   UNL A   1      41.135  31.163  35.178  1.00  0.00     0.167 HD
ATOM     57  C   UNL A   1      39.492  33.094  36.430  1.00  0.00     0.074 A 
ATOM     58  C   UNL A   1      38.399  34.014  36.669  1.00  0.00     0.031 C 
ATOM     59  C   UNL A   1      40.508  32.874  37.302  1.00  0.00     0.031 A 
BRANCH  46  60
ATOM     60  C   UNL A   1      44.615  28.690  35.345  1.00  0.00    -0.014 A 
ATOM     61  C   UNL A   1      45.870  29.165  34.924  1.00  0.00     0.010 A 
ATOM     62  C   UNL A   1      44.541  27.480  36.058  1.00  0.00     0.010 A 
ATOM     63  C   UNL A   1      47.027  28.424  35.179  1.00  0.00     0.020 A 
ATOM     64  C   UNL A   1      45.698  26.748  36.336  1.00  0.00     0.020 A 
ATOM     65  C   UNL A   1      46.933  27.216  35.878  1.00  0.00     0.054 A 
BRANCH  65  66
ATOM     66  S   UNL A   1      48.451  26.280  36.207  1.00  0.00     0.124 S 
ATOM     67  O   UNL A   1      48.218  25.054  35.445  1.00  0.00    -0.237 OA
ATOM     68  O   UNL A   1      49.492  27.159  35.681  1.00  0.00    -0.237 OA
ATOM     69  O   UNL A   1      48.450  26.119  37.658  1.00  0.00    -0.744 OA
ENDBRANCH  65  66
ENDBRANCH  46  60
BRANCH  47  70
ATOM     70  C   UNL A   1      36.220  33.588  33.084  1.00  0.00    -0.014 A 
ATOM     71  C   UNL A   1      36.267  34.915  32.624  1.00  0.00     0.010 A 
ATOM     72  C   UNL A   1      34.970  32.964  33.250  1.00  0.00     0.010 A 
ATOM     73  C   UNL A   1      35.087  35.612  32.352  1.00  0.00     0.020 A 
ATOM     74  C   UNL A   1      33.789  33.650  32.955  1.00  0.00     0.020 A 
ATOM     75  C   UNL A   1      33.854  34.975  32.519  1.00  0.00     0.054 A 
BRANCH  75  76
ATOM     76  S   UNL A   1      32.335  35.883  32.118  1.00  0.00     0.124 S 
ATOM     77  O   UNL A   1      32.574  37.173  32.759  1.00  0.00    -0.237 OA
ATOM     78  O   UNL A   1      32.347  35.890  30.657  1.00  0.00    -0.237 OA
ATOM     79  O   UNL A   1      31.282  35.069  32.721  1.00  0.00    -0.744 OA
ENDBRANCH  75  76
ENDBRANCH  47  70
BRANCH  59  80
ATOM     80  C   UNL A   1      40.510  33.663  38.585  1.00  0.00    -0.014 A 
ATOM     81  C   UNL A   1      40.003  33.118  39.777  1.00  0.00     0.010 A 
ATOM     82  C   UNL A   1      41.092  34.944  38.608  1.00  0.00     0.010 A 
ATOM     83  C   UNL A   1      40.052  33.853  40.966  1.00  0.00     0.020 A 
ATOM     84  C   UNL A   1      41.166  35.671  39.800  1.00  0.00     0.020 A 
ATOM     85  C   UNL A   1      40.633  35.125  40.970  1.00  0.00     0.054 A 
BRANCH  85  86
ATOM     86  S   UNL A   1      40.731  36.038  42.535  1.00  0.00     0.124 S 
ATOM     87  O   UNL A   1      41.924  35.460  43.149  1.00  0.00    -0.237 OA
ATOM     88  O   UNL A   1      40.861  37.424  42.092  1.00  0.00    -0.237 OA
ATOM     89  O   UNL A   1      39.470  35.719  43.201  1.00  0.00    -0.744 OA
ENDBRANCH  85  86
ENDBRANCH  59  80
ENDBRANCH  33  34
ENDBRANCH  26  28
ENDBRANCH  25  26
ENDBRANCH  24  25
ENDBRANCH   1  24
TORSDOF 18
ENDMDL
MODEL 3
REMARK VINA RESULT:     -10.8      4.900      6.796
REMARK SMILES O=C(CCc1nc(-c2ccccc2)c(-c2ccccc2)o1)OCCOC(=O)c1ccc(-c2c3nc(c(-c4ccc(S(=O)(=O)[O-])cc4)c4ccc([nH]4)c(-c4ccc(S(=O)(=O)[O-])cc4)c4nc(c(-c5ccc(S(=O)(=O)[O-])cc5)c5ccc2[nH]5)C=C4)C=C3)cc1
REMARK SMILES IDX 23 1 22 2 2 3 1 4 3 5 4 6 5 7 6 8 21 9 7 10 14 11 8 12 9 13
REMARK SMILES IDX 13 14 10 15 12 16 11 17 15 18 16 19 20 20 17 21 19 22 18 23
REMARK SMILES IDX 24 24 25 25 26 26 27 27 28 28 29 29 87 30 30 31 86 32 31 33
REMARK SMILES IDX 32 34 33 35 80 36 34 37 85 38 79 39 81 40 35 41 84 42 78 43
REMARK SMILES IDX 77 44 36 46 66 47 47 48 65 49 48 50 51 51 64 52 82 53 49 54
REMARK SMILES IDX 50 55 63 57 83 58 52 59 37 60 38 61 46 62 39 63 45 64 40 65
REMARK SMILES IDX 41 66 42 67 43 68 44 69 67 70 68 71 76 72 69 73 75 74 70 75
REMARK SMILES IDX 71 76 72 77 73 78 74 79 53 80 54 81 62 82 55 83 61 84 56 85
REMARK SMILES IDX 57 86 58 87 59 88 60 89
REMARK H PARENT 81 45 51 56
REMARK Flexibility Score: inf
ROOT
ATOM      1  C   UNL A   1      42.910  21.826  26.381  1.00  0.00     0.274 C 
ENDROOT
BRANCH   1   2
ATOM      2  O   UNL A   1      41.902  20.947  25.857  1.00  0.00    -0.462 OA
BRANCH   2   3
ATOM      3  C   UNL A   1      40.825  20.725  26.656  1.00  0.00     0.306 C 
ATOM      4  O   UNL A   1      40.941  20.209  27.761  1.00  0.00    -0.252 OA
BRANCH   3   5
ATOM      5  C   UNL A   1      39.483  20.983  26.008  1.00  0.00     0.132 C 
BRANCH   5   6
ATOM      6  C   UNL A   1      38.925  22.354  26.362  1.00  0.00     0.109 C 
BRANCH   6   7
ATOM      7  C   UNL A   1      37.609  22.587  25.710  1.00  0.00     0.196 A 
ATOM      8  N   UNL A   1      37.104  23.715  25.245  1.00  0.00    -0.213 NA
ATOM      9  O   UNL A   1      36.757  21.520  25.660  1.00  0.00    -0.440 OA
ATOM     10  C   UNL A   1      35.798  23.392  24.962  1.00  0.00     0.117 A 
ATOM     11  C   UNL A   1      35.598  22.040  25.153  1.00  0.00     0.162 A 
BRANCH  10  12
ATOM     12  C   UNL A   1      34.775  24.368  24.642  1.00  0.00     0.004 A 
ATOM     13  C   UNL A   1      34.312  24.492  23.323  1.00  0.00     0.010 A 
ATOM     14  C   UNL A   1      34.220  25.175  25.638  1.00  0.00     0.010 A 
ATOM     15  C   UNL A   1      33.339  25.437  22.996  1.00  0.00     0.001 A 
ATOM     16  C   UNL A   1      33.249  26.126  25.308  1.00  0.00     0.001 A 
ATOM     17  C   UNL A   1      32.815  26.260  23.989  1.00  0.00     0.000 A 
ENDBRANCH  10  12
BRANCH  11  18
ATOM     18  C   UNL A   1      34.495  21.119  24.975  1.00  0.00     0.020 A 
ATOM     19  C   UNL A   1      33.172  21.571  25.025  1.00  0.00     0.012 A 
ATOM     20  C   UNL A   1      34.747  19.765  24.716  1.00  0.00     0.012 A 
ATOM     21  C   UNL A   1      32.117  20.683  24.807  1.00  0.00     0.001 A 
ATOM     22  C   UNL A   1      33.692  18.877  24.510  1.00  0.00     0.001 A 
ATOM     23  C   UNL A   1      32.378  19.337  24.552  1.00  0.00     0.000 A 
ENDBRANCH  11  18
ENDBRANCH   6   7
ENDBRANCH   5   6
ENDBRANCH   3   5
ENDBRANCH   2   3
ENDBRANCH   1   2
BRANCH   1  24
ATOM     24  C   UNL A   1      42.994  23.181  25.664  1.00  0.00     0.275 C 
BRANCH  24  25
ATOM     25  O   UNL A   1      41.982  24.097  26.099  1.00  0.00    -0.458 OA
BRANCH  25  26
ATOM     26  C   UNL A   1      42.274  25.397  25.842  1.00  0.00     0.338 C 
ATOM     27  O   UNL A   1      42.416  25.910  24.743  1.00  0.00    -0.246 OA
BRANCH  26  28
ATOM     28  C   UNL A   1      42.206  26.166  27.101  1.00  0.00     0.060 A 
ATOM     29  C   UNL A   1      41.202  25.829  28.016  1.00  0.00     0.016 A 
ATOM     30  C   UNL A   1      43.099  27.205  27.381  1.00  0.00     0.016 A 
ATOM     31  C   UNL A   1      41.052  26.567  29.189  1.00  0.00     0.010 A 
ATOM     32  C   UNL A   1      42.945  27.946  28.556  1.00  0.00     0.010 A 
ATOM     33  C   UNL A   1      41.897  27.654  29.447  1.00  0.00    -0.014 A 
BRANCH  33  34
ATOM     34  C   UNL A   1      41.576  28.585  30.556  1.00  0.00     0.031 A 
ATOM     35  C   UNL A   1      42.434  28.555  31.794  1.00  0.00     0.074 A 
ATOM     36  C   UNL A   1      40.565  29.466  30.458  1.00  0.00     0.049 A 
ATOM     37  N   UNL A   1      42.362  29.297  32.868  1.00  0.00    -0.248 NA
ATOM     38  C   UNL A   1      43.516  27.556  31.821  1.00  0.00     0.031 C 
ATOM     39  C   UNL A   1      39.681  29.617  29.304  1.00  0.00     0.029 A 
ATOM     40  N   UNL A   1      40.116  30.405  31.353  1.00  0.00    -0.354 N 
ATOM     41  C   UNL A   1      43.393  28.864  33.694  1.00  0.00     0.074 A 
ATOM     42  C   UNL A   1      44.049  27.767  33.015  1.00  0.00     0.031 C 
ATOM     43  C   UNL A   1      38.793  30.595  29.561  1.00  0.00     0.029 A 
ATOM     44  C   UNL A   1      39.035  31.124  30.904  1.00  0.00     0.049 A 
ATOM     45  H   UNL A   1      40.530  30.551  32.235  1.00  0.00     0.167 HD
ATOM     46  C   UNL A   1      43.772  29.342  34.902  1.00  0.00     0.031 A 
ATOM     47  C   UNL A   1      38.319  32.094  31.507  1.00  0.00     0.031 A 
ATOM     48  C   UNL A   1      43.109  30.416  35.593  1.00  0.00     0.049 A 
ATOM     49  C   UNL A   1      38.709  32.556  32.888  1.00  0.00     0.074 A 
ATOM     50  C   UNL A   1      43.424  30.975  36.819  1.00  0.00     0.029 A 
ATOM     51  N   UNL A   1      41.990  31.085  35.123  1.00  0.00    -0.354 N 
ATOM     52  N   UNL A   1      39.711  32.162  33.638  1.00  0.00    -0.248 NA
ATOM     53  C   UNL A   1      37.877  33.604  33.498  1.00  0.00     0.031 C 
ATOM     54  C   UNL A   1      42.465  31.950  37.113  1.00  0.00     0.029 A 
ATOM     55  C   UNL A   1      41.586  32.035  36.045  1.00  0.00     0.049 A 
ATOM     56  H   UNL A   1      41.548  30.912  34.260  1.00  0.00     0.167 HD
ATOM     57  C   UNL A   1      39.646  32.935  34.794  1.00  0.00     0.074 A 
ATOM     58  C   UNL A   1      38.513  33.824  34.640  1.00  0.00     0.031 C 
ATOM     59  C   UNL A   1      40.457  32.915  35.881  1.00  0.00     0.031 A 
BRANCH  46  60
ATOM     60  C   UNL A   1      44.951  28.684  35.565  1.00  0.00    -0.014 A 
ATOM     61  C   UNL A   1      44.781  27.552  36.383  1.00  0.00     0.010 A 
ATOM     62  C   UNL A   1      46.246  29.186  35.347  1.00  0.00     0.010 A 
ATOM     63  C   UNL A   1      45.883  26.956  37.002  1.00  0.00     0.020 A 
ATOM     64  C   UNL A   1      47.353  28.579  35.946  1.00  0.00     0.020 A 
ATOM     65  C   UNL A   1      47.162  27.478  36.784  1.00  0.00     0.054 A 
BRANCH  65  66
ATOM     66  S   UNL A   1      48.577  26.679  37.589  1.00  0.00     0.124 S 
ATOM     67  O   UNL A   1      49.029  27.723  38.507  1.00  0.00    -0.237 OA
ATOM     68  O   UNL A   1      47.971  25.509  38.219  1.00  0.00    -0.237 OA
ATOM     69  O   UNL A   1      49.485  26.387  36.483  1.00  0.00    -0.744 OA
ENDBRANCH  65  66
ENDBRANCH  46  60
BRANCH  47  70
ATOM     70  C   UNL A   1      37.152  32.701  30.811  1.00  0.00    -0.014 A 
ATOM     71  C   UNL A   1      35.876  32.120  30.909  1.00  0.00     0.010 A 
ATOM     72  C   UNL A   1      37.317  33.862  30.033  1.00  0.00     0.010 A 
ATOM     73  C   UNL A   1      34.790  32.676  30.228  1.00  0.00     0.020 A 
ATOM     74  C   UNL A   1      36.229  34.435  29.370  1.00  0.00     0.020 A 
ATOM     75  C   UNL A   1      34.973  33.831  29.462  1.00  0.00     0.054 A 
BRANCH  75  76
ATOM     76  S   UNL A   1      33.541  34.564  28.622  1.00  0.00     0.124 S 
ATOM     77  O   UNL A   1      32.752  35.061  29.745  1.00  0.00    -0.237 OA
ATOM     78  O   UNL A   1      34.157  35.585  27.778  1.00  0.00    -0.237 OA
ATOM     79  O   UNL A   1      32.959  33.437  27.896  1.00  0.00    -0.744 OA
ENDBRANCH  75  76
ENDBRANCH  47  70
BRANCH  59  80
ATOM     80  C   UNL A   1      40.175  33.903  36.982  1.00  0.00    -0.014 A 
ATOM     81  C   UNL A   1      40.659  35.221  36.922  1.00  0.00     0.010 A 
ATOM     82  C   UNL A   1      39.356  33.521  38.061  1.00  0.00     0.010 A 
ATOM     83  C   UNL A   1      40.350  36.133  37.936  1.00  0.00     0.020 A 
ATOM     84  C   UNL A   1      39.025  34.438  39.064  1.00  0.00     0.020 A 
ATOM     85  C   UNL A   1      39.535  35.736  39.001  1.00  0.00     0.054 A 
BRANCH  85  86
ATOM     86  S   UNL A   1      39.108  36.951  40.278  1.00  0.00     0.124 S 
ATOM     87  O   UNL A   1      38.302  36.154  41.199  1.00  0.00    -0.237 OA
ATOM     88  O   UNL A   1      40.416  37.362  40.783  1.00  0.00    -0.237 OA
ATOM     89  O   UNL A   1      38.378  37.983  39.544  1.00  0.00    -0.744 OA
ENDBRANCH  85  86
ENDBRANCH  59  80
ENDBRANCH  33  34
ENDBRANCH  26  28
ENDBRANCH  25  26
ENDBRANCH  24  25
ENDBRANCH   1  24
TORSDOF 18
ENDMDL
