MODEL 1
REMARK VINA RESULT:     -10.1      0.000      0.000
REMARK SMILES Cc1cc(Br)cc2c1O[C@H](C(F)(F)F)C(C(=O)OCCOC(=O)c1ccc(-c3c4nc(c(-c5ccc(S(=O)(=O)[O-])cc5)c5ccc([nH]5)c(-c5ccc(S(=O)(=O)[O-])cc5)c5nc(c(-c6ccc(S(=O)(=O)[O-])cc6)c6ccc3[nH]6)C=C5)C=C4)cc1)=C2
REMARK SMILES IDX 20 1 19 2 18 3 16 4 17 5 15 6 1 7 2 8 3 9 8 10 4 11 7 12
REMARK SMILES IDX 9 13 5 14 6 15 84 16 10 17 11 18 12 19 13 20 14 21 21 22
REMARK SMILES IDX 22 23 23 24 24 25 25 26 83 27 26 28 82 29 27 30 28 31 29 32
REMARK SMILES IDX 76 33 30 34 81 35 75 36 77 37 31 38 80 39 74 40 73 41 32 43
REMARK SMILES IDX 62 44 43 45 61 46 44 47 47 48 60 49 78 50 45 51 46 52 59 54
REMARK SMILES IDX 79 55 48 56 33 57 34 58 42 59 35 60 41 61 36 62 37 63 38 64
REMARK SMILES IDX 39 65 40 66 63 67 64 68 72 69 65 70 71 71 66 72 67 73 68 74
REMARK SMILES IDX 69 75 70 76 49 77 50 78 58 79 51 80 57 81 52 82 53 83 54 84
REMARK SMILES IDX 55 85 56 86
REMARK H PARENT 77 42 47 53
REMARK Flexibility Score: inf
ROOT
ATOM      1  C   UNL A   1      33.717  33.867  28.196  1.00  0.00     0.275 C 
ENDROOT
BRANCH   1   2
ATOM      2  C   UNL A   1      34.350  34.982  29.029  1.00  0.00     0.275 C 
BRANCH   2   3
ATOM      3  O   UNL A   1      34.130  34.780  30.443  1.00  0.00    -0.459 OA
BRANCH   3   4
ATOM      4  C   UNL A   1      34.749  33.704  30.978  1.00  0.00     0.338 C 
ATOM      5  O   UNL A   1      34.371  32.544  30.918  1.00  0.00    -0.246 OA
BRANCH   4   6
ATOM      6  C   UNL A   1      35.992  34.101  31.666  1.00  0.00     0.087 C 
ATOM      7  C   UNL A   1      39.590  35.352  35.161  1.00  0.00     0.048 C 
ATOM      8  C   UNL A   1      39.552  34.811  33.761  1.00  0.00    -0.007 A 
ATOM      9  C   UNL A   1      40.771  34.474  33.146  1.00  0.00     0.023 A 
ATOM     10  C   UNL A   1      38.353  34.625  33.055  1.00  0.00     0.130 A 
ATOM     11  C   UNL A   1      40.794  33.973  31.846  1.00  0.00     0.019 A 
ATOM     12  C   UNL A   1      38.388  34.113  31.755  1.00  0.00     0.019 A 
ATOM     13  O   UNL A   1      37.183  34.979  33.674  1.00  0.00    -0.475 OA
ATOM     14  Br  UNL A   1      42.440  33.517  31.038  1.00  0.00    -0.051 Br
ATOM     15  C   UNL A   1      39.608  33.796  31.145  1.00  0.00     0.027 A 
ATOM     16  C   UNL A   1      37.152  33.875  31.042  1.00  0.00     0.027 C 
ATOM     17  C   UNL A   1      35.913  34.591  33.079  1.00  0.00     0.316 C 
BRANCH  17  18
ATOM     18  C   UNL A   1      35.231  33.554  33.986  1.00  0.00     0.430 C 
ATOM     19  F   UNL A   1      33.887  33.552  33.811  1.00  0.00    -0.167 F 
ATOM     20  F   UNL A   1      35.653  32.295  33.707  1.00  0.00    -0.167 F 
ATOM     21  F   UNL A   1      35.468  33.780  35.297  1.00  0.00    -0.167 F 
ENDBRANCH  17  18
ENDBRANCH   4   6
ENDBRANCH   3   4
ENDBRANCH   2   3
ENDBRANCH   1   2
BRANCH   1  22
ATOM     22  O   UNL A   1      34.731  33.071  27.558  1.00  0.00    -0.458 OA
BRANCH  22  23
ATOM     23  C   UNL A   1      34.558  31.735  27.670  1.00  0.00     0.338 C 
ATOM     24  O   UNL A   1      33.545  31.100  27.428  1.00  0.00    -0.246 OA
BRANCH  23  25
ATOM     25  C   UNL A   1      35.819  31.081  28.048  1.00  0.00     0.060 A 
ATOM     26  C   UNL A   1      35.763  29.779  28.526  1.00  0.00     0.016 A 
ATOM     27  C   UNL A   1      36.994  31.816  28.161  1.00  0.00     0.016 A 
ATOM     28  C   UNL A   1      36.808  29.277  29.293  1.00  0.00     0.010 A 
ATOM     29  C   UNL A   1      38.107  31.238  28.785  1.00  0.00     0.010 A 
ATOM     30  C   UNL A   1      38.010  29.985  29.420  1.00  0.00    -0.014 A 
BRANCH  30  31
ATOM     31  C   UNL A   1      39.134  29.437  30.237  1.00  0.00     0.031 A 
ATOM     32  C   UNL A   1      39.324  29.880  31.669  1.00  0.00     0.074 A 
ATOM     33  C   UNL A   1      39.980  28.524  29.711  1.00  0.00     0.049 A 
ATOM     34  N   UNL A   1      40.343  29.682  32.468  1.00  0.00    -0.248 NA
ATOM     35  C   UNL A   1      38.233  30.659  32.281  1.00  0.00     0.031 C 
ATOM     36  C   UNL A   1      39.885  27.944  28.368  1.00  0.00     0.029 A 
ATOM     37  N   UNL A   1      41.083  27.906  30.251  1.00  0.00    -0.354 N 
ATOM     38  C   UNL A   1      40.044  30.360  33.646  1.00  0.00     0.074 A 
ATOM     39  C   UNL A   1      38.754  30.987  33.456  1.00  0.00     0.031 C 
ATOM     40  C   UNL A   1      40.840  27.015  28.215  1.00  0.00     0.029 A 
ATOM     41  C   UNL A   1      41.695  27.022  29.393  1.00  0.00     0.049 A 
ATOM     42  H   UNL A   1      41.405  28.081  31.166  1.00  0.00     0.167 HD
ATOM     43  C   UNL A   1      40.776  30.450  34.783  1.00  0.00     0.031 A 
ATOM     44  C   UNL A   1      42.848  26.332  29.503  1.00  0.00     0.031 A 
ATOM     45  C   UNL A   1      42.039  29.784  34.980  1.00  0.00     0.049 A 
ATOM     46  C   UNL A   1      43.683  26.512  30.737  1.00  0.00     0.074 A 
ATOM     47  C   UNL A   1      42.861  29.812  36.094  1.00  0.00     0.029 A 
ATOM     48  N   UNL A   1      42.652  28.956  34.052  1.00  0.00    -0.354 N 
ATOM     49  N   UNL A   1      43.423  27.221  31.809  1.00  0.00    -0.248 NA
ATOM     50  C   UNL A   1      44.977  25.820  30.766  1.00  0.00     0.031 C 
ATOM     51  C   UNL A   1      43.997  29.046  35.817  1.00  0.00     0.029 A 
ATOM     52  C   UNL A   1      43.853  28.487  34.557  1.00  0.00     0.049 A 
ATOM     53  H   UNL A   1      42.286  28.734  33.166  1.00  0.00     0.167 HD
ATOM     54  C   UNL A   1      44.518  27.052  32.646  1.00  0.00     0.074 A 
ATOM     55  C   UNL A   1      45.430  26.153  31.967  1.00  0.00     0.031 C 
ATOM     56  C   UNL A   1      44.751  27.598  33.865  1.00  0.00     0.031 A 
BRANCH  43  57
ATOM     57  C   UNL A   1      40.253  31.324  35.896  1.00  0.00    -0.014 A 
ATOM     58  C   UNL A   1      38.917  31.251  36.327  1.00  0.00     0.010 A 
ATOM     59  C   UNL A   1      41.137  32.195  36.565  1.00  0.00     0.010 A 
ATOM     60  C   UNL A   1      38.466  32.053  37.380  1.00  0.00     0.020 A 
ATOM     61  C   UNL A   1      40.698  32.976  37.639  1.00  0.00     0.020 A 
ATOM     62  C   UNL A   1      39.360  32.911  38.030  1.00  0.00     0.054 A 
BRANCH  62  63
ATOM     63  S   UNL A   1      38.751  33.917  39.412  1.00  0.00     0.124 S 
ATOM     64  O   UNL A   1      39.723  33.610  40.459  1.00  0.00    -0.237 OA
ATOM     65  O   UNL A   1      38.818  35.272  38.873  1.00  0.00    -0.237 OA
ATOM     66  O   UNL A   1      37.403  33.407  39.648  1.00  0.00    -0.744 OA
ENDBRANCH  62  63
ENDBRANCH  43  57
BRANCH  44  67
ATOM     67  C   UNL A   1      43.299  25.456  28.385  1.00  0.00    -0.014 A 
ATOM     68  C   UNL A   1      44.141  25.960  27.380  1.00  0.00     0.010 A 
ATOM     69  C   UNL A   1      42.917  24.101  28.339  1.00  0.00     0.010 A 
ATOM     70  C   UNL A   1      44.591  25.127  26.350  1.00  0.00     0.020 A 
ATOM     71  C   UNL A   1      43.394  23.258  27.332  1.00  0.00     0.020 A 
ATOM     72  C   UNL A   1      44.222  23.779  26.339  1.00  0.00     0.054 A 
BRANCH  72  73
ATOM     73  S   UNL A   1      44.875  22.706  25.029  1.00  0.00     0.124 S 
ATOM     74  O   UNL A   1      43.726  21.860  24.728  1.00  0.00    -0.237 OA
ATOM     75  O   UNL A   1      45.244  23.667  23.992  1.00  0.00    -0.237 OA
ATOM     76  O   UNL A   1      46.001  22.030  25.670  1.00  0.00    -0.744 OA
ENDBRANCH  72  73
ENDBRANCH  44  67
BRANCH  56  77
ATOM     77  C   UNL A   1      46.037  27.227  34.552  1.00  0.00    -0.014 A 
ATOM     78  C   UNL A   1      46.118  26.087  35.372  1.00  0.00     0.010 A 
ATOM     79  C   UNL A   1      47.193  27.997  34.329  1.00  0.00     0.010 A 
ATOM     80  C   UNL A   1      47.328  25.738  35.976  1.00  0.00     0.020 A 
ATOM     81  C   UNL A   1      48.412  27.634  34.908  1.00  0.00     0.020 A 
ATOM     82  C   UNL A   1      48.468  26.512  35.737  1.00  0.00     0.054 A 
BRANCH  82  83
ATOM     83  S   UNL A   1      50.034  26.006  36.497  1.00  0.00     0.124 S 
ATOM     84  O   UNL A   1      50.334  27.143  37.363  1.00  0.00    -0.237 OA
ATOM     85  O   UNL A   1      49.669  24.770  37.185  1.00  0.00    -0.237 OA
ATOM     86  O   UNL A   1      50.935  25.837  35.359  1.00  0.00    -0.744 OA
ENDBRANCH  82  83
ENDBRANCH  56  77
ENDBRANCH  30  31
ENDBRANCH  23  25
ENDBRANCH  22  23
ENDBRANCH   1  22
TORSDOF 15
ENDMDL
MODEL 2
REMARK VINA RESULT:      -9.6      5.710     10.260
REMARK SMILES Cc1cc(Br)cc2c1O[C@H](C(F)(F)F)C(C(=O)OCCOC(=O)c1ccc(-c3c4nc(c(-c5ccc(S(=O)(=O)[O-])cc5)c5ccc([nH]5)c(-c5ccc(S(=O)(=O)[O-])cc5)c5nc(c(-c6ccc(S(=O)(=O)[O-])cc6)c6ccc3[nH]6)C=C5)C=C4)cc1)=C2
REMARK SMILES IDX 20 1 19 2 18 3 16 4 17 5 15 6 1 7 2 8 3 9 8 10 4 11 7 12
REMARK SMILES IDX 9 13 5 14 6 15 84 16 10 17 11 18 12 19 13 20 14 21 21 22
REMARK SMILES IDX 22 23 23 24 24 25 25 26 83 27 26 28 82 29 27 30 28 31 29 32
REMARK SMILES IDX 76 33 30 34 81 35 75 36 77 37 31 38 80 39 74 40 73 41 32 43
REMARK SMILES IDX 62 44 43 45 61 46 44 47 47 48 60 49 78 50 45 51 46 52 59 54
REMARK SMILES IDX 79 55 48 56 33 57 34 58 42 59 35 60 41 61 36 62 37 63 38 64
REMARK SMILES IDX 39 65 40 66 63 67 64 68 72 69 65 70 71 71 66 72 67 73 68 74
REMARK SMILES IDX 69 75 70 76 49 77 50 78 58 79 51 80 57 81 52 82 53 83 54 84
REMARK SMILES IDX 55 85 56 86
REMARK H PARENT 77 42 47 53
REMARK Flexibility Score: inf
ROOT
ATOM      1  C   UNL A   1      40.326  20.283  26.263  1.00  0.00     0.275 C 
ENDROOT
BRANCH   1   2
ATOM      2  C   UNL A   1      41.841  20.152  26.102  1.00  0.00     0.275 C 
BRANCH   2   3
ATOM      3  O   UNL A   1      42.521  21.377  26.455  1.00  0.00    -0.459 OA
BRANCH   3   4
ATOM      4  C   UNL A   1      43.648  21.637  25.754  1.00  0.00     0.338 C 
ATOM      5  O   UNL A   1      43.892  21.277  24.613  1.00  0.00    -0.246 OA
BRANCH   4   6
ATOM      6  C   UNL A   1      44.587  22.448  26.552  1.00  0.00     0.087 C 
ATOM      7  C   UNL A   1      48.370  25.591  28.145  1.00  0.00     0.048 C 
ATOM      8  C   UNL A   1      47.045  25.107  28.662  1.00  0.00    -0.007 A 
ATOM      9  C   UNL A   1      46.584  25.619  29.888  1.00  0.00     0.023 A 
ATOM     10  C   UNL A   1      46.256  24.178  27.965  1.00  0.00     0.130 A 
ATOM     11  C   UNL A   1      45.364  25.201  30.415  1.00  0.00     0.019 A 
ATOM     12  C   UNL A   1      45.030  23.774  28.500  1.00  0.00     0.019 A 
ATOM     13  O   UNL A   1      46.741  23.686  26.782  1.00  0.00    -0.475 OA
ATOM     14  Br  UNL A   1      44.754  25.904  32.060  1.00  0.00    -0.051 Br
ATOM     15  C   UNL A   1      44.587  24.276  29.730  1.00  0.00     0.027 A 
ATOM     16  C   UNL A   1      44.192  22.854  27.762  1.00  0.00     0.027 C 
ATOM     17  C   UNL A   1      45.865  22.908  25.919  1.00  0.00     0.316 C 
BRANCH  17  18
ATOM     18  C   UNL A   1      45.588  23.706  24.634  1.00  0.00     0.430 C 
ATOM     19  F   UNL A   1      44.341  24.235  24.640  1.00  0.00    -0.167 F 
ATOM     20  F   UNL A   1      46.444  24.751  24.504  1.00  0.00    -0.167 F 
ATOM     21  F   UNL A   1      45.702  22.948  23.521  1.00  0.00    -0.167 F 
ENDBRANCH  17  18
ENDBRANCH   4   6
ENDBRANCH   3   4
ENDBRANCH   2   3
ENDBRANCH   1   2
BRANCH   1  22
ATOM     22  O   UNL A   1      40.002  21.366  27.154  1.00  0.00    -0.458 OA
BRANCH  22  23
ATOM     23  C   UNL A   1      39.294  22.370  26.591  1.00  0.00     0.338 C 
ATOM     24  O   UNL A   1      38.402  22.271  25.764  1.00  0.00    -0.246 OA
BRANCH  23  25
ATOM     25  C   UNL A   1      39.670  23.662  27.182  1.00  0.00     0.060 A 
ATOM     26  C   UNL A   1      39.276  24.821  26.529  1.00  0.00     0.016 A 
ATOM     27  C   UNL A   1      40.597  23.726  28.217  1.00  0.00     0.016 A 
ATOM     28  C   UNL A   1      39.948  26.015  26.767  1.00  0.00     0.010 A 
ATOM     29  C   UNL A   1      41.145  24.966  28.572  1.00  0.00     0.010 A 
ATOM     30  C   UNL A   1      40.880  26.117  27.808  1.00  0.00    -0.014 A 
BRANCH  30  31
ATOM     31  C   UNL A   1      41.591  27.405  28.068  1.00  0.00     0.031 A 
ATOM     32  C   UNL A   1      40.908  28.513  28.837  1.00  0.00     0.074 A 
ATOM     33  C   UNL A   1      42.859  27.586  27.637  1.00  0.00     0.049 A 
ATOM     34  N   UNL A   1      41.272  29.762  28.986  1.00  0.00    -0.248 NA
ATOM     35  C   UNL A   1      39.644  28.178  29.516  1.00  0.00     0.031 C 
ATOM     36  C   UNL A   1      43.677  26.586  26.944  1.00  0.00     0.029 A 
ATOM     37  N   UNL A   1      43.693  28.674  27.732  1.00  0.00    -0.354 N 
ATOM     38  C   UNL A   1      40.258  30.372  29.718  1.00  0.00     0.074 A 
ATOM     39  C   UNL A   1      39.256  29.361  29.973  1.00  0.00     0.031 C 
ATOM     40  C   UNL A   1      44.906  27.081  26.738  1.00  0.00     0.029 A 
ATOM     41  C   UNL A   1      44.930  28.472  27.163  1.00  0.00     0.049 A 
ATOM     42  H   UNL A   1      43.430  29.518  28.167  1.00  0.00     0.167 HD
ATOM     43  C   UNL A   1      40.171  31.657  30.142  1.00  0.00     0.031 A 
ATOM     44  C   UNL A   1      45.956  29.319  26.947  1.00  0.00     0.031 A 
ATOM     45  C   UNL A   1      41.196  32.646  29.922  1.00  0.00     0.049 A 
ATOM     46  C   UNL A   1      45.804  30.756  27.350  1.00  0.00     0.074 A 
ATOM     47  C   UNL A   1      41.205  33.976  30.308  1.00  0.00     0.029 A 
ATOM     48  N   UNL A   1      42.401  32.410  29.277  1.00  0.00    -0.354 N 
ATOM     49  N   UNL A   1      44.804  31.335  27.970  1.00  0.00    -0.248 NA
ATOM     50  C   UNL A   1      46.907  31.661  27.001  1.00  0.00     0.031 C 
ATOM     51  C   UNL A   1      42.390  34.556  29.848  1.00  0.00     0.029 A 
ATOM     52  C   UNL A   1      43.150  33.573  29.232  1.00  0.00     0.049 A 
ATOM     53  H   UNL A   1      42.682  31.542  28.907  1.00  0.00     0.167 HD
ATOM     54  C   UNL A   1      45.162  32.671  28.096  1.00  0.00     0.074 A 
ATOM     55  C   UNL A   1      46.481  32.808  27.512  1.00  0.00     0.031 C 
ATOM     56  C   UNL A   1      44.458  33.694  28.641  1.00  0.00     0.031 A 
BRANCH  43  57
ATOM     57  C   UNL A   1      38.914  32.085  30.856  1.00  0.00    -0.014 A 
ATOM     58  C   UNL A   1      38.835  32.112  32.260  1.00  0.00     0.010 A 
ATOM     59  C   UNL A   1      37.806  32.527  30.105  1.00  0.00     0.010 A 
ATOM     60  C   UNL A   1      37.666  32.540  32.897  1.00  0.00     0.020 A 
ATOM     61  C   UNL A   1      36.647  32.984  30.738  1.00  0.00     0.020 A 
ATOM     62  C   UNL A   1      36.578  32.975  32.131  1.00  0.00     0.054 A 
BRANCH  62  63
ATOM     63  S   UNL A   1      35.087  33.552  32.988  1.00  0.00     0.124 S 
ATOM     64  O   UNL A   1      35.179  35.000  32.812  1.00  0.00    -0.237 OA
ATOM     65  O   UNL A   1      34.017  32.896  32.241  1.00  0.00    -0.237 OA
ATOM     66  O   UNL A   1      35.267  33.082  34.359  1.00  0.00    -0.744 OA
ENDBRANCH  62  63
ENDBRANCH  43  57
BRANCH  44  67
ATOM     67  C   UNL A   1      47.189  28.832  26.267  1.00  0.00    -0.014 A 
ATOM     68  C   UNL A   1      48.449  29.007  26.864  1.00  0.00     0.010 A 
ATOM     69  C   UNL A   1      47.107  28.158  25.033  1.00  0.00     0.010 A 
ATOM     70  C   UNL A   1      49.602  28.519  26.240  1.00  0.00     0.020 A 
ATOM     71  C   UNL A   1      48.253  27.638  24.424  1.00  0.00     0.020 A 
ATOM     72  C   UNL A   1      49.494  27.829  25.029  1.00  0.00     0.054 A 
BRANCH  72  73
ATOM     73  S   UNL A   1      50.998  27.149  24.276  1.00  0.00     0.124 S 
ATOM     74  O   UNL A   1      50.617  27.051  22.871  1.00  0.00    -0.237 OA
ATOM     75  O   UNL A   1      51.996  28.167  24.592  1.00  0.00    -0.237 OA
ATOM     76  O   UNL A   1      51.180  25.874  24.966  1.00  0.00    -0.744 OA
ENDBRANCH  72  73
ENDBRANCH  44  67
BRANCH  56  77
ATOM     77  C   UNL A   1      45.106  35.052  28.645  1.00  0.00    -0.014 A 
ATOM     78  C   UNL A   1      45.963  35.443  29.688  1.00  0.00     0.010 A 
ATOM     79  C   UNL A   1      44.899  35.925  27.561  1.00  0.00     0.010 A 
ATOM     80  C   UNL A   1      46.583  36.694  29.660  1.00  0.00     0.020 A 
ATOM     81  C   UNL A   1      45.541  37.165  27.515  1.00  0.00     0.020 A 
ATOM     82  C   UNL A   1      46.371  37.545  28.571  1.00  0.00     0.054 A 
BRANCH  82  83
ATOM     83  S   UNL A   1      47.227  39.143  28.540  1.00  0.00     0.124 S 
ATOM     84  O   UNL A   1      46.172  40.063  28.958  1.00  0.00    -0.237 OA
ATOM     85  O   UNL A   1      48.306  38.944  29.505  1.00  0.00    -0.237 OA
ATOM     86  O   UNL A   1      47.658  39.281  27.151  1.00  0.00    -0.744 OA
ENDBRANCH  82  83
ENDBRANCH  56  77
ENDBRANCH  30  31
ENDBRANCH  23  25
ENDBRANCH  22  23
ENDBRANCH   1  22
TORSDOF 15
ENDMDL
MODEL 3
REMARK VINA RESULT:      -9.6      4.883     11.393
REMARK SMILES Cc1cc(Br)cc2c1O[C@H](C(F)(F)F)C(C(=O)OCCOC(=O)c1ccc(-c3c4nc(c(-c5ccc(S(=O)(=O)[O-])cc5)c5ccc([nH]5)c(-c5ccc(S(=O)(=O)[O-])cc5)c5nc(c(-c6ccc(S(=O)(=O)[O-])cc6)c6ccc3[nH]6)C=C5)C=C4)cc1)=C2
REMARK SMILES IDX 20 1 19 2 18 3 16 4 17 5 15 6 1 7 2 8 3 9 8 10 4 11 7 12
REMARK SMILES IDX 9 13 5 14 6 15 84 16 10 17 11 18 12 19 13 20 14 21 21 22
REMARK SMILES IDX 22 23 23 24 24 25 25 26 83 27 26 28 82 29 27 30 28 31 29 32
REMARK SMILES IDX 76 33 30 34 81 35 75 36 77 37 31 38 80 39 74 40 73 41 32 43
REMARK SMILES IDX 62 44 43 45 61 46 44 47 47 48 60 49 78 50 45 51 46 52 59 54
REMARK SMILES IDX 79 55 48 56 33 57 34 58 42 59 35 60 41 61 36 62 37 63 38 64
REMARK SMILES IDX 39 65 40 66 63 67 64 68 72 69 65 70 71 71 66 72 67 73 68 74
REMARK SMILES IDX 69 75 70 76 49 77 50 78 58 79 51 80 57 81 52 82 53 83 54 84
REMARK SMILES IDX 55 85 56 86
REMARK H PARENT 77 42 47 53
REMARK Flexibility Score: inf
ROOT
ATOM      1  C   UNL A   1      39.042  23.295  26.547  1.00  0.00     0.275 C 
ENDROOT
BRANCH   1   2
ATOM      2  C   UNL A   1      38.154  22.681  25.465  1.00  0.00     0.275 C 
BRANCH   2   3
ATOM      3  O   UNL A   1      37.377  23.689  24.780  1.00  0.00    -0.459 OA
BRANCH   3   4
ATOM      4  C   UNL A   1      36.440  23.218  23.927  1.00  0.00     0.338 C 
ATOM      5  O   UNL A   1      36.645  22.606  22.890  1.00  0.00    -0.246 OA
BRANCH   4   6
ATOM      6  C   UNL A   1      35.083  23.531  24.413  1.00  0.00     0.087 C 
ATOM      7  C   UNL A   1      30.312  23.323  26.394  1.00  0.00     0.048 C 
ATOM      8  C   UNL A   1      31.384  24.358  26.201  1.00  0.00    -0.007 A 
ATOM      9  C   UNL A   1      31.153  25.653  26.699  1.00  0.00     0.023 A 
ATOM     10  C   UNL A   1      32.598  24.076  25.556  1.00  0.00     0.130 A 
ATOM     11  C   UNL A   1      32.111  26.652  26.542  1.00  0.00     0.019 A 
ATOM     12  C   UNL A   1      33.555  25.085  25.414  1.00  0.00     0.019 A 
ATOM     13  O   UNL A   1      32.786  22.810  25.068  1.00  0.00    -0.475 OA
ATOM     14  Br  UNL A   1      31.790  28.385  27.223  1.00  0.00    -0.051 Br
ATOM     15  C   UNL A   1      33.310  26.376  25.897  1.00  0.00     0.027 A 
ATOM     16  C   UNL A   1      34.827  24.786  24.793  1.00  0.00     0.027 C 
ATOM     17  C   UNL A   1      34.107  22.411  24.605  1.00  0.00     0.316 C 
BRANCH  17  18
ATOM     18  C   UNL A   1      34.671  21.344  25.557  1.00  0.00     0.430 C 
ATOM     19  F   UNL A   1      33.688  20.547  26.044  1.00  0.00    -0.167 F 
ATOM     20  F   UNL A   1      35.547  20.525  24.924  1.00  0.00    -0.167 F 
ATOM     21  F   UNL A   1      35.314  21.885  26.615  1.00  0.00    -0.167 F 
ENDBRANCH  17  18
ENDBRANCH   4   6
ENDBRANCH   3   4
ENDBRANCH   2   3
ENDBRANCH   1   2
BRANCH   1  22
ATOM     22  O   UNL A   1      38.659  24.657  26.807  1.00  0.00    -0.458 OA
BRANCH  22  23
ATOM     23  C   UNL A   1      39.688  25.529  26.892  1.00  0.00     0.338 C 
ATOM     24  O   UNL A   1      40.677  25.575  26.179  1.00  0.00    -0.246 OA
BRANCH  23  25
ATOM     25  C   UNL A   1      39.431  26.531  27.936  1.00  0.00     0.060 A 
ATOM     26  C   UNL A   1      39.928  27.814  27.750  1.00  0.00     0.016 A 
ATOM     27  C   UNL A   1      38.928  26.152  29.176  1.00  0.00     0.016 A 
ATOM     28  C   UNL A   1      40.110  28.653  28.844  1.00  0.00     0.010 A 
ATOM     29  C   UNL A   1      38.954  27.067  30.237  1.00  0.00     0.010 A 
ATOM     30  C   UNL A   1      39.607  28.307  30.104  1.00  0.00    -0.014 A 
BRANCH  30  31
ATOM     31  C   UNL A   1      39.795  29.217  31.274  1.00  0.00     0.031 A 
ATOM     32  C   UNL A   1      41.010  29.077  32.162  1.00  0.00     0.074 A 
ATOM     33  C   UNL A   1      38.893  30.187  31.539  1.00  0.00     0.049 A 
ATOM     34  N   UNL A   1      41.250  29.624  33.328  1.00  0.00    -0.248 NA
ATOM     35  C   UNL A   1      42.092  28.197  31.686  1.00  0.00     0.031 C 
ATOM     36  C   UNL A   1      37.707  30.494  30.734  1.00  0.00     0.029 A 
ATOM     37  N   UNL A   1      38.840  31.111  32.555  1.00  0.00    -0.354 N 
ATOM     38  C   UNL A   1      42.473  29.109  33.749  1.00  0.00     0.074 A 
ATOM     39  C   UNL A   1      42.922  28.196  32.721  1.00  0.00     0.031 C 
ATOM     40  C   UNL A   1      37.086  31.566  31.246  1.00  0.00     0.029 A 
ATOM     41  C   UNL A   1      37.749  31.946  32.485  1.00  0.00     0.049 A 
ATOM     42  H   UNL A   1      39.519  31.169  33.266  1.00  0.00     0.167 HD
ATOM     43  C   UNL A   1      43.160  29.376  34.886  1.00  0.00     0.031 A 
ATOM     44  C   UNL A   1      37.287  32.877  33.343  1.00  0.00     0.031 A 
ATOM     45  C   UNL A   1      42.727  30.321  35.883  1.00  0.00     0.049 A 
ATOM     46  C   UNL A   1      38.019  33.095  34.635  1.00  0.00     0.074 A 
ATOM     47  C   UNL A   1      43.348  30.663  37.073  1.00  0.00     0.029 A 
ATOM     48  N   UNL A   1      41.576  31.091  35.800  1.00  0.00    -0.354 N 
ATOM     49  N   UNL A   1      39.131  32.542  35.053  1.00  0.00    -0.248 NA
ATOM     50  C   UNL A   1      37.420  34.045  35.582  1.00  0.00     0.031 C 
ATOM     51  C   UNL A   1      42.546  31.597  37.732  1.00  0.00     0.029 A 
ATOM     52  C   UNL A   1      41.456  31.888  36.925  1.00  0.00     0.049 A 
ATOM     53  H   UNL A   1      40.939  31.074  35.049  1.00  0.00     0.167 HD
ATOM     54  C   UNL A   1      39.373  33.083  36.309  1.00  0.00     0.074 A 
ATOM     55  C   UNL A   1      38.305  34.028  36.570  1.00  0.00     0.031 C 
ATOM     56  C   UNL A   1      40.384  32.817  37.172  1.00  0.00     0.031 A 
BRANCH  43  57
ATOM     57  C   UNL A   1      44.437  28.613  35.139  1.00  0.00    -0.014 A 
ATOM     58  C   UNL A   1      44.429  27.335  35.726  1.00  0.00     0.010 A 
ATOM     59  C   UNL A   1      45.666  29.164  34.724  1.00  0.00     0.010 A 
ATOM     60  C   UNL A   1      45.626  26.639  35.923  1.00  0.00     0.020 A 
ATOM     61  C   UNL A   1      46.861  28.458  34.892  1.00  0.00     0.020 A 
ATOM     62  C   UNL A   1      46.835  27.204  35.504  1.00  0.00     0.054 A 
BRANCH  62  63
ATOM     63  S   UNL A   1      48.367  26.262  35.747  1.00  0.00     0.124 S 
ATOM     64  O   UNL A   1      49.321  27.318  36.078  1.00  0.00    -0.237 OA
ATOM     65  O   UNL A   1      48.018  25.365  36.846  1.00  0.00    -0.237 OA
ATOM     66  O   UNL A   1      48.584  25.611  34.458  1.00  0.00    -0.744 OA
ENDBRANCH  62  63
ENDBRANCH  43  57
BRANCH  44  67
ATOM     67  C   UNL A   1      36.038  33.625  33.026  1.00  0.00    -0.014 A 
ATOM     68  C   UNL A   1      34.782  33.092  33.365  1.00  0.00     0.010 A 
ATOM     69  C   UNL A   1      36.098  34.893  32.415  1.00  0.00     0.010 A 
ATOM     70  C   UNL A   1      33.613  33.811  33.098  1.00  0.00     0.020 A 
ATOM     71  C   UNL A   1      34.934  35.629  32.179  1.00  0.00     0.020 A 
ATOM     72  C   UNL A   1      33.698  35.079  32.515  1.00  0.00     0.054 A 
BRANCH  72  73
ATOM     73  S   UNL A   1      32.169  36.018  32.242  1.00  0.00     0.124 S 
ATOM     74  O   UNL A   1      32.349  37.158  33.135  1.00  0.00    -0.237 OA
ATOM     75  O   UNL A   1      32.235  36.315  30.814  1.00  0.00    -0.237 OA
ATOM     76  O   UNL A   1      31.117  35.080  32.628  1.00  0.00    -0.744 OA
ENDBRANCH  72  73
ENDBRANCH  44  67
BRANCH  56  77
ATOM     77  C   UNL A   1      40.394  33.569  38.475  1.00  0.00    -0.014 A 
ATOM     78  C   UNL A   1      39.735  33.063  39.609  1.00  0.00     0.010 A 
ATOM     79  C   UNL A   1      41.121  34.769  38.581  1.00  0.00     0.010 A 
ATOM     80  C   UNL A   1      39.782  33.757  40.820  1.00  0.00     0.020 A 
ATOM     81  C   UNL A   1      41.195  35.450  39.798  1.00  0.00     0.020 A 
ATOM     82  C   UNL A   1      40.515  34.944  40.908  1.00  0.00     0.054 A 
BRANCH  82  83
ATOM     83  S   UNL A   1      40.597  35.797  42.506  1.00  0.00     0.124 S 
ATOM     84  O   UNL A   1      41.120  34.754  43.382  1.00  0.00    -0.237 OA
ATOM     85  O   UNL A   1      41.511  36.903  42.229  1.00  0.00    -0.237 OA
ATOM     86  O   UNL A   1      39.213  36.189  42.762  1.00  0.00    -0.744 OA
ENDBRANCH  82  83
ENDBRANCH  56  77
ENDBRANCH  30  31
ENDBRANCH  23  25
ENDBRANCH  22  23
ENDBRANCH   1  22
TORSDOF 15
ENDMDL
