MODEL 1
REMARK VINA RESULT:     -10.4      0.000      0.000
REMARK SMILES O=C(OCCOC(=O)c1ccc(S(=O)(=O)Cc2cccs2)c(F)c1)c1ccc(-c2c3nc(c(-c4ccc(S(=O)(=O)[O-])cc4)c4ccc([nH]4)c(-c4ccc(S(=O)(=O)[O-])cc4)c4nc(c(-c5ccc(S(=O)(=O)[O-])cc5)c5ccc2[nH]5)C=C4)C=C3)cc1
REMARK SMILES IDX 4 1 3 2 2 3 1 4 25 5 26 6 84 7 27 8 83 9 28 10 29 11 30 12
REMARK SMILES IDX 77 13 31 14 82 15 76 16 78 17 32 18 81 19 75 20 74 21 33 23
REMARK SMILES IDX 63 24 44 25 62 26 45 27 48 28 61 29 79 30 46 31 47 32 60 34
REMARK SMILES IDX 80 35 49 36 34 37 35 38 43 39 36 40 42 41 37 42 38 43 39 44
REMARK SMILES IDX 40 45 41 46 64 47 65 48 73 49 66 50 72 51 67 52 68 53 69 54
REMARK SMILES IDX 70 55 71 56 50 57 51 58 59 59 52 60 58 61 53 62 54 63 55 64
REMARK SMILES IDX 56 65 57 66 5 67 6 68 7 69 8 70 9 71 10 72 24 73 11 74 22 75
REMARK SMILES IDX 12 76 23 77 13 78 14 79 15 80 16 81 17 82 18 83 21 84 19 85
REMARK SMILES IDX 20 86
REMARK H PARENT 78 22 48 33
REMARK Flexibility Score: inf
ROOT
ATOM      1  C   UNL A   1      32.270  29.634  27.087  1.00  0.00     0.275 C 
ENDROOT
BRANCH   1   2
ATOM      2  O   UNL A   1      33.705  29.617  27.176  1.00  0.00    -0.458 OA
BRANCH   2   3
ATOM      3  C   UNL A   1      34.520  30.371  27.952  1.00  0.00     0.338 C 
ATOM      4  O   UNL A   1      34.191  31.531  28.198  1.00  0.00    -0.246 OA
BRANCH   3   5
ATOM      5  C   UNL A   1      35.893  29.939  28.363  1.00  0.00     0.060 A 
ATOM      6  C   UNL A   1      36.270  29.476  29.624  1.00  0.00     0.016 A 
ATOM      7  C   UNL A   1      36.894  30.039  27.375  1.00  0.00     0.016 A 
ATOM      8  C   UNL A   1      37.585  29.073  29.877  1.00  0.00     0.010 A 
ATOM      9  C   UNL A   1      38.203  29.608  27.612  1.00  0.00     0.010 A 
ATOM     10  C   UNL A   1      38.558  29.142  28.877  1.00  0.00    -0.014 A 
BRANCH  10  11
ATOM     11  C   UNL A   1      39.971  28.901  29.240  1.00  0.00     0.031 A 
ATOM     12  C   UNL A   1      40.572  27.567  28.900  1.00  0.00     0.074 A 
ATOM     13  C   UNL A   1      40.723  29.884  29.768  1.00  0.00     0.049 A 
ATOM     14  N   UNL A   1      41.822  27.188  28.949  1.00  0.00    -0.248 NA
ATOM     15  C   UNL A   1      39.646  26.529  28.414  1.00  0.00     0.031 C 
ATOM     16  C   UNL A   1      40.244  31.224  30.111  1.00  0.00     0.029 A 
ATOM     17  N   UNL A   1      42.055  29.913  30.091  1.00  0.00    -0.354 N 
ATOM     18  C   UNL A   1      41.833  25.880  28.482  1.00  0.00     0.074 A 
ATOM     19  C   UNL A   1      40.465  25.511  28.203  1.00  0.00     0.031 C 
ATOM     20  C   UNL A   1      41.270  31.947  30.594  1.00  0.00     0.029 A 
ATOM     21  C   UNL A   1      42.475  31.123  30.592  1.00  0.00     0.049 A 
ATOM     22  H   UNL A   1      42.654  29.141  29.973  1.00  0.00     0.167 HD
ATOM     23  C   UNL A   1      42.893  25.064  28.279  1.00  0.00     0.031 A 
ATOM     24  C   UNL A   1      43.702  31.520  30.986  1.00  0.00     0.031 A 
ATOM     25  C   UNL A   1      44.245  25.424  28.598  1.00  0.00     0.049 A 
ATOM     26  C   UNL A   1      44.857  30.565  30.823  1.00  0.00     0.074 A 
ATOM     27  C   UNL A   1      45.397  24.674  28.449  1.00  0.00     0.029 A 
ATOM     28  N   UNL A   1      44.622  26.640  29.147  1.00  0.00    -0.354 N 
ATOM     29  N   UNL A   1      44.860  29.354  30.318  1.00  0.00    -0.248 NA
ATOM     30  C   UNL A   1      46.177  31.044  31.254  1.00  0.00     0.031 C 
ATOM     31  C   UNL A   1      46.468  25.426  28.947  1.00  0.00     0.029 A 
ATOM     32  C   UNL A   1      45.987  26.660  29.360  1.00  0.00     0.049 A 
ATOM     33  H   UNL A   1      44.007  27.381  29.355  1.00  0.00     0.167 HD
ATOM     34  C   UNL A   1      46.187  28.941  30.331  1.00  0.00     0.074 A 
ATOM     35  C   UNL A   1      46.957  30.034  30.892  1.00  0.00     0.031 C 
ATOM     36  C   UNL A   1      46.724  27.770  29.908  1.00  0.00     0.031 A 
BRANCH  23  37
ATOM     37  C   UNL A   1      42.598  23.703  27.714  1.00  0.00    -0.014 A 
ATOM     38  C   UNL A   1      42.066  22.684  28.527  1.00  0.00     0.010 A 
ATOM     39  C   UNL A   1      42.898  23.423  26.369  1.00  0.00     0.010 A 
ATOM     40  C   UNL A   1      41.893  21.394  28.021  1.00  0.00     0.020 A 
ATOM     41  C   UNL A   1      42.706  22.137  25.854  1.00  0.00     0.020 A 
ATOM     42  C   UNL A   1      42.227  21.126  26.690  1.00  0.00     0.054 A 
BRANCH  42  43
ATOM     43  S   UNL A   1      42.022  19.436  26.064  1.00  0.00     0.124 S 
ATOM     44  O   UNL A   1      42.569  18.641  27.161  1.00  0.00    -0.237 OA
ATOM     45  O   UNL A   1      40.578  19.334  25.876  1.00  0.00    -0.237 OA
ATOM     46  O   UNL A   1      42.810  19.426  24.833  1.00  0.00    -0.744 OA
ENDBRANCH  42  43
ENDBRANCH  23  37
BRANCH  24  47
ATOM     47  C   UNL A   1      43.909  32.891  31.530  1.00  0.00    -0.014 A 
ATOM     48  C   UNL A   1      43.789  33.143  32.908  1.00  0.00     0.010 A 
ATOM     49  C   UNL A   1      44.223  33.958  30.668  1.00  0.00     0.010 A 
ATOM     50  C   UNL A   1      43.960  34.437  33.411  1.00  0.00     0.020 A 
ATOM     51  C   UNL A   1      44.416  35.248  31.170  1.00  0.00     0.020 A 
ATOM     52  C   UNL A   1      44.271  35.483  32.538  1.00  0.00     0.054 A 
BRANCH  52  53
ATOM     53  S   UNL A   1      44.529  37.146  33.220  1.00  0.00     0.124 S 
ATOM     54  O   UNL A   1      45.516  36.897  34.265  1.00  0.00    -0.237 OA
ATOM     55  O   UNL A   1      45.012  37.891  32.059  1.00  0.00    -0.237 OA
ATOM     56  O   UNL A   1      43.201  37.533  33.689  1.00  0.00    -0.744 OA
ENDBRANCH  52  53
ENDBRANCH  24  47
BRANCH  36  57
ATOM     57  C   UNL A   1      48.219  27.631  29.985  1.00  0.00    -0.014 A 
ATOM     58  C   UNL A   1      48.844  27.067  31.111  1.00  0.00     0.010 A 
ATOM     59  C   UNL A   1      49.003  28.021  28.883  1.00  0.00     0.010 A 
ATOM     60  C   UNL A   1      50.234  26.923  31.144  1.00  0.00     0.020 A 
ATOM     61  C   UNL A   1      50.388  27.855  28.903  1.00  0.00     0.020 A 
ATOM     62  C   UNL A   1      50.997  27.320  30.040  1.00  0.00     0.054 A 
BRANCH  62  63
ATOM     63  S   UNL A   1      52.793  27.082  30.085  1.00  0.00     0.124 S 
ATOM     64  O   UNL A   1      52.955  26.204  31.240  1.00  0.00    -0.237 OA
ATOM     65  O   UNL A   1      53.072  26.472  28.786  1.00  0.00    -0.237 OA
ATOM     66  O   UNL A   1      53.315  28.436  30.253  1.00  0.00    -0.744 OA
ENDBRANCH  62  63
ENDBRANCH  36  57
ENDBRANCH  10  11
ENDBRANCH   3   5
ENDBRANCH   2   3
ENDBRANCH   1   2
BRANCH   1  67
ATOM     67  C   UNL A   1      31.733  30.083  25.726  1.00  0.00     0.275 C 
BRANCH  67  68
ATOM     68  O   UNL A   1      32.410  29.463  24.624  1.00  0.00    -0.458 OA
BRANCH  68  69
ATOM     69  C   UNL A   1      31.605  28.778  23.773  1.00  0.00     0.338 C 
ATOM     70  O   UNL A   1      30.670  29.211  23.122  1.00  0.00    -0.246 OA
BRANCH  69  71
ATOM     71  C   UNL A   1      32.135  27.417  23.605  1.00  0.00     0.063 A 
ATOM     72  C   UNL A   1      31.456  26.441  22.872  1.00  0.00     0.017 A 
ATOM     73  C   UNL A   1      33.339  27.118  24.244  1.00  0.00     0.056 A 
ATOM     74  C   UNL A   1      32.009  25.159  22.764  1.00  0.00     0.024 A 
ATOM     75  C   UNL A   1      33.821  25.816  24.213  1.00  0.00     0.142 A 
ATOM     76  C   UNL A   1      33.198  24.850  23.442  1.00  0.00     0.103 A 
ATOM     77  F   UNL A   1      34.833  25.507  25.030  1.00  0.00    -0.206 F 
BRANCH  76  78
ATOM     78  S   UNL A   1      33.856  23.218  23.311  1.00  0.00     0.186 S 
ATOM     79  O   UNL A   1      32.769  22.418  22.774  1.00  0.00    -0.223 OA
ATOM     80  O   UNL A   1      35.096  23.346  22.564  1.00  0.00    -0.223 OA
BRANCH  78  81
ATOM     81  C   UNL A   1      34.255  22.549  24.914  1.00  0.00     0.188 C 
BRANCH  81  82
ATOM     82  C   UNL A   1      35.671  22.075  25.075  1.00  0.00     0.020 A 
ATOM     83  C   UNL A   1      36.168  20.824  24.751  1.00  0.00     0.016 A 
ATOM     84  S   UNL A   1      36.921  23.105  25.627  1.00  0.00    -0.148 S 
ATOM     85  C   UNL A   1      37.547  20.680  25.066  1.00  0.00     0.012 A 
ATOM     86  C   UNL A   1      38.079  21.850  25.553  1.00  0.00     0.065 A 
ENDBRANCH  81  82
ENDBRANCH  78  81
ENDBRANCH  76  78
ENDBRANCH  69  71
ENDBRANCH  68  69
ENDBRANCH  67  68
ENDBRANCH   1  67
TORSDOF 17
ENDMDL
MODEL 2
REMARK VINA RESULT:     -10.4      3.401      6.310
REMARK SMILES O=C(OCCOC(=O)c1ccc(S(=O)(=O)Cc2cccs2)c(F)c1)c1ccc(-c2c3nc(c(-c4ccc(S(=O)(=O)[O-])cc4)c4ccc([nH]4)c(-c4ccc(S(=O)(=O)[O-])cc4)c4nc(c(-c5ccc(S(=O)(=O)[O-])cc5)c5ccc2[nH]5)C=C4)C=C3)cc1
REMARK SMILES IDX 4 1 3 2 2 3 1 4 25 5 26 6 84 7 27 8 83 9 28 10 29 11 30 12
REMARK SMILES IDX 77 13 31 14 82 15 76 16 78 17 32 18 81 19 75 20 74 21 33 23
REMARK SMILES IDX 63 24 44 25 62 26 45 27 48 28 61 29 79 30 46 31 47 32 60 34
REMARK SMILES IDX 80 35 49 36 34 37 35 38 43 39 36 40 42 41 37 42 38 43 39 44
REMARK SMILES IDX 40 45 41 46 64 47 65 48 73 49 66 50 72 51 67 52 68 53 69 54
REMARK SMILES IDX 70 55 71 56 50 57 51 58 59 59 52 60 58 61 53 62 54 63 55 64
REMARK SMILES IDX 56 65 57 66 5 67 6 68 7 69 8 70 9 71 10 72 24 73 11 74 22 75
REMARK SMILES IDX 12 76 23 77 13 78 14 79 15 80 16 81 17 82 18 83 21 84 19 85
REMARK SMILES IDX 20 86
REMARK H PARENT 78 22 48 33
REMARK Flexibility Score: inf
ROOT
ATOM      1  C   UNL A   1      34.576  32.870  28.404  1.00  0.00     0.275 C 
ENDROOT
BRANCH   1   2
ATOM      2  O   UNL A   1      34.036  31.541  28.308  1.00  0.00    -0.458 OA
BRANCH   2   3
ATOM      3  C   UNL A   1      34.625  30.413  27.844  1.00  0.00     0.338 C 
ATOM      4  O   UNL A   1      33.952  29.632  27.172  1.00  0.00    -0.246 OA
BRANCH   3   5
ATOM      5  C   UNL A   1      35.988  29.962  28.269  1.00  0.00     0.060 A 
ATOM      6  C   UNL A   1      36.326  29.408  29.504  1.00  0.00     0.016 A 
ATOM      7  C   UNL A   1      37.021  30.145  27.327  1.00  0.00     0.016 A 
ATOM      8  C   UNL A   1      37.635  28.998  29.772  1.00  0.00     0.010 A 
ATOM      9  C   UNL A   1      38.325  29.708  27.576  1.00  0.00     0.010 A 
ATOM     10  C   UNL A   1      38.641  29.150  28.814  1.00  0.00    -0.014 A 
BRANCH  10  11
ATOM     11  C   UNL A   1      40.044  28.893  29.207  1.00  0.00     0.031 A 
ATOM     12  C   UNL A   1      40.636  27.551  28.884  1.00  0.00     0.074 A 
ATOM     13  C   UNL A   1      40.796  29.869  29.747  1.00  0.00     0.049 A 
ATOM     14  N   UNL A   1      41.879  27.157  28.961  1.00  0.00    -0.248 NA
ATOM     15  C   UNL A   1      39.707  26.522  28.383  1.00  0.00     0.031 C 
ATOM     16  C   UNL A   1      40.327  31.216  30.074  1.00  0.00     0.029 A 
ATOM     17  N   UNL A   1      42.122  29.884  30.096  1.00  0.00    -0.354 N 
ATOM     18  C   UNL A   1      41.884  25.847  28.499  1.00  0.00     0.074 A 
ATOM     19  C   UNL A   1      40.518  25.493  28.193  1.00  0.00     0.031 C 
ATOM     20  C   UNL A   1      41.352  31.928  30.576  1.00  0.00     0.029 A 
ATOM     21  C   UNL A   1      42.546  31.090  30.602  1.00  0.00     0.049 A 
ATOM     22  H   UNL A   1      42.714  29.104  29.994  1.00  0.00     0.167 HD
ATOM     23  C   UNL A   1      42.938  25.017  28.321  1.00  0.00     0.031 A 
ATOM     24  C   UNL A   1      43.769  31.473  31.019  1.00  0.00     0.031 A 
ATOM     25  C   UNL A   1      44.287  25.362  28.666  1.00  0.00     0.049 A 
ATOM     26  C   UNL A   1      44.916  30.505  30.884  1.00  0.00     0.074 A 
ATOM     27  C   UNL A   1      45.433  24.597  28.543  1.00  0.00     0.029 A 
ATOM     28  N   UNL A   1      44.668  26.576  29.218  1.00  0.00    -0.354 N 
ATOM     29  N   UNL A   1      44.914  29.291  30.384  1.00  0.00    -0.248 NA
ATOM     30  C   UNL A   1      46.233  30.969  31.340  1.00  0.00     0.031 C 
ATOM     31  C   UNL A   1      46.502  25.339  29.060  1.00  0.00     0.029 A 
ATOM     32  C   UNL A   1      46.029  26.580  29.459  1.00  0.00     0.049 A 
ATOM     33  H   UNL A   1      44.058  27.325  29.411  1.00  0.00     0.167 HD
ATOM     34  C   UNL A   1      46.236  28.862  30.426  1.00  0.00     0.074 A 
ATOM     35  C   UNL A   1      47.007  29.948  30.998  1.00  0.00     0.031 C 
ATOM     36  C   UNL A   1      46.768  27.683  30.018  1.00  0.00     0.031 A 
BRANCH  23  37
ATOM     37  C   UNL A   1      42.638  23.658  27.755  1.00  0.00    -0.014 A 
ATOM     38  C   UNL A   1      42.265  22.592  28.597  1.00  0.00     0.010 A 
ATOM     39  C   UNL A   1      42.775  23.428  26.375  1.00  0.00     0.010 A 
ATOM     40  C   UNL A   1      42.090  21.308  28.076  1.00  0.00     0.020 A 
ATOM     41  C   UNL A   1      42.580  22.147  25.847  1.00  0.00     0.020 A 
ATOM     42  C   UNL A   1      42.262  21.092  26.705  1.00  0.00     0.054 A 
BRANCH  42  43
ATOM     43  S   UNL A   1      42.059  19.410  26.057  1.00  0.00     0.124 S 
ATOM     44  O   UNL A   1      42.546  18.598  27.169  1.00  0.00    -0.237 OA
ATOM     45  O   UNL A   1      40.623  19.331  25.805  1.00  0.00    -0.237 OA
ATOM     46  O   UNL A   1      42.900  19.397  24.861  1.00  0.00    -0.744 OA
ENDBRANCH  42  43
ENDBRANCH  23  37
BRANCH  24  47
ATOM     47  C   UNL A   1      43.982  32.844  31.562  1.00  0.00    -0.014 A 
ATOM     48  C   UNL A   1      44.327  33.909  30.712  1.00  0.00     0.010 A 
ATOM     49  C   UNL A   1      43.843  33.091  32.941  1.00  0.00     0.010 A 
ATOM     50  C   UNL A   1      44.550  35.189  31.231  1.00  0.00     0.020 A 
ATOM     51  C   UNL A   1      44.044  34.374  33.460  1.00  0.00     0.020 A 
ATOM     52  C   UNL A   1      44.408  35.413  32.603  1.00  0.00     0.054 A 
BRANCH  52  53
ATOM     53  S   UNL A   1      44.662  37.092  33.247  1.00  0.00     0.124 S 
ATOM     54  O   UNL A   1      43.293  37.582  33.369  1.00  0.00    -0.237 OA
ATOM     55  O   UNL A   1      45.360  36.844  34.507  1.00  0.00    -0.237 OA
ATOM     56  O   UNL A   1      45.470  37.736  32.214  1.00  0.00    -0.744 OA
ENDBRANCH  52  53
ENDBRANCH  24  47
BRANCH  36  57
ATOM     57  C   UNL A   1      48.259  27.527  30.126  1.00  0.00    -0.014 A 
ATOM     58  C   UNL A   1      48.857  27.007  31.287  1.00  0.00     0.010 A 
ATOM     59  C   UNL A   1      49.066  27.853  29.021  1.00  0.00     0.010 A 
ATOM     60  C   UNL A   1      50.244  26.844  31.350  1.00  0.00     0.020 A 
ATOM     61  C   UNL A   1      50.448  27.669  29.071  1.00  0.00     0.020 A 
ATOM     62  C   UNL A   1      51.030  27.179  30.242  1.00  0.00     0.054 A 
BRANCH  62  63
ATOM     63  S   UNL A   1      52.822  26.917  30.327  1.00  0.00     0.124 S 
ATOM     64  O   UNL A   1      53.275  28.137  30.989  1.00  0.00    -0.237 OA
ATOM     65  O   UNL A   1      52.934  25.693  31.118  1.00  0.00    -0.237 OA
ATOM     66  O   UNL A   1      53.217  26.783  28.927  1.00  0.00    -0.744 OA
ENDBRANCH  62  63
ENDBRANCH  36  57
ENDBRANCH  10  11
ENDBRANCH   3   5
ENDBRANCH   2   3
ENDBRANCH   1   2
BRANCH   1  67
ATOM     67  C   UNL A   1      34.911  33.307  29.831  1.00  0.00     0.275 C 
BRANCH  67  68
ATOM     68  O   UNL A   1      34.422  32.397  30.827  1.00  0.00    -0.458 OA
BRANCH  68  69
ATOM     69  C   UNL A   1      34.460  32.869  32.098  1.00  0.00     0.338 C 
ATOM     70  O   UNL A   1      33.597  33.502  32.683  1.00  0.00    -0.246 OA
BRANCH  69  71
ATOM     71  C   UNL A   1      35.663  32.350  32.764  1.00  0.00     0.063 A 
ATOM     72  C   UNL A   1      36.307  31.188  32.334  1.00  0.00     0.017 A 
ATOM     73  C   UNL A   1      36.126  33.048  33.881  1.00  0.00     0.056 A 
ATOM     74  C   UNL A   1      37.441  30.739  33.023  1.00  0.00     0.024 A 
ATOM     75  C   UNL A   1      37.188  32.534  34.613  1.00  0.00     0.142 A 
ATOM     76  C   UNL A   1      37.878  31.419  34.169  1.00  0.00     0.103 A 
ATOM     77  F   UNL A   1      37.447  33.084  35.803  1.00  0.00    -0.206 F 
BRANCH  76  78
ATOM     78  S   UNL A   1      39.292  30.814  35.034  1.00  0.00     0.186 S 
ATOM     79  O   UNL A   1      40.138  31.979  35.228  1.00  0.00    -0.223 OA
ATOM     80  O   UNL A   1      38.777  30.096  36.188  1.00  0.00    -0.223 OA
BRANCH  78  81
ATOM     81  C   UNL A   1      40.214  29.657  34.042  1.00  0.00     0.188 C 
BRANCH  81  82
ATOM     82  C   UNL A   1      41.610  29.375  34.518  1.00  0.00     0.020 A 
ATOM     83  C   UNL A   1      42.786  29.622  33.830  1.00  0.00     0.016 A 
ATOM     84  S   UNL A   1      41.935  28.765  36.083  1.00  0.00    -0.148 S 
ATOM     85  C   UNL A   1      43.942  29.201  34.544  1.00  0.00     0.012 A 
ATOM     86  C   UNL A   1      43.618  28.712  35.788  1.00  0.00     0.065 A 
ENDBRANCH  81  82
ENDBRANCH  78  81
ENDBRANCH  76  78
ENDBRANCH  69  71
ENDBRANCH  68  69
ENDBRANCH  67  68
ENDBRANCH   1  67
TORSDOF 17
ENDMDL
MODEL 3
REMARK VINA RESULT:     -10.4      3.438      8.735
REMARK SMILES O=C(OCCOC(=O)c1ccc(S(=O)(=O)Cc2cccs2)c(F)c1)c1ccc(-c2c3nc(c(-c4ccc(S(=O)(=O)[O-])cc4)c4ccc([nH]4)c(-c4ccc(S(=O)(=O)[O-])cc4)c4nc(c(-c5ccc(S(=O)(=O)[O-])cc5)c5ccc2[nH]5)C=C4)C=C3)cc1
REMARK SMILES IDX 4 1 3 2 2 3 1 4 25 5 26 6 84 7 27 8 83 9 28 10 29 11 30 12
REMARK SMILES IDX 77 13 31 14 82 15 76 16 78 17 32 18 81 19 75 20 74 21 33 23
REMARK SMILES IDX 63 24 44 25 62 26 45 27 48 28 61 29 79 30 46 31 47 32 60 34
REMARK SMILES IDX 80 35 49 36 34 37 35 38 43 39 36 40 42 41 37 42 38 43 39 44
REMARK SMILES IDX 40 45 41 46 64 47 65 48 73 49 66 50 72 51 67 52 68 53 69 54
REMARK SMILES IDX 70 55 71 56 50 57 51 58 59 59 52 60 58 61 53 62 54 63 55 64
REMARK SMILES IDX 56 65 57 66 5 67 6 68 7 69 8 70 9 71 10 72 24 73 11 74 22 75
REMARK SMILES IDX 12 76 23 77 13 78 14 79 15 80 16 81 17 82 18 83 21 84 19 85
REMARK SMILES IDX 20 86
REMARK H PARENT 78 22 48 33
REMARK Flexibility Score: inf
ROOT
ATOM      1  C   UNL A   1      33.421  29.476  26.891  1.00  0.00     0.275 C 
ENDROOT
BRANCH   1   2
ATOM      2  O   UNL A   1      33.748  30.862  27.083  1.00  0.00    -0.458 OA
BRANCH   2   3
ATOM      3  C   UNL A   1      34.473  31.439  28.072  1.00  0.00     0.338 C 
ATOM      4  O   UNL A   1      34.176  32.579  28.431  1.00  0.00    -0.246 OA
BRANCH   3   5
ATOM      5  C   UNL A   1      35.737  30.851  28.614  1.00  0.00     0.060 A 
ATOM      6  C   UNL A   1      35.833  29.816  29.545  1.00  0.00     0.016 A 
ATOM      7  C   UNL A   1      36.937  31.426  28.147  1.00  0.00     0.016 A 
ATOM      8  C   UNL A   1      37.079  29.332  29.954  1.00  0.00     0.010 A 
ATOM      9  C   UNL A   1      38.186  30.926  28.528  1.00  0.00     0.010 A 
ATOM     10  C   UNL A   1      38.260  29.886  29.454  1.00  0.00    -0.014 A 
BRANCH  10  11
ATOM     11  C   UNL A   1      39.548  29.486  30.060  1.00  0.00     0.031 A 
ATOM     12  C   UNL A   1      39.975  30.164  31.330  1.00  0.00     0.074 A 
ATOM     13  C   UNL A   1      40.268  28.475  29.540  1.00  0.00     0.049 A 
ATOM     14  N   UNL A   1      40.957  29.862  32.137  1.00  0.00    -0.248 NA
ATOM     15  C   UNL A   1      39.171  31.321  31.764  1.00  0.00     0.031 C 
ATOM     16  C   UNL A   1      39.928  27.731  28.326  1.00  0.00     0.029 A 
ATOM     17  N   UNL A   1      41.424  27.884  29.981  1.00  0.00    -0.354 N 
ATOM     18  C   UNL A   1      40.876  30.776  33.181  1.00  0.00     0.074 A 
ATOM     19  C   UNL A   1      39.784  31.673  32.883  1.00  0.00     0.031 C 
ATOM     20  C   UNL A   1      40.856  26.780  28.120  1.00  0.00     0.029 A 
ATOM     21  C   UNL A   1      41.851  26.846  29.186  1.00  0.00     0.049 A 
ATOM     22  H   UNL A   1      41.902  28.175  30.790  1.00  0.00     0.167 HD
ATOM     23  C   UNL A   1      41.628  30.846  34.303  1.00  0.00     0.031 A 
ATOM     24  C   UNL A   1      42.916  26.031  29.321  1.00  0.00     0.031 A 
ATOM     25  C   UNL A   1      42.737  29.976  34.572  1.00  0.00     0.049 A 
ATOM     26  C   UNL A   1      43.788  26.179  30.542  1.00  0.00     0.074 A 
ATOM     27  C   UNL A   1      43.580  29.963  35.668  1.00  0.00     0.029 A 
ATOM     28  N   UNL A   1      43.165  28.969  33.720  1.00  0.00    -0.354 N 
ATOM     29  N   UNL A   1      43.658  27.006  31.553  1.00  0.00    -0.248 NA
ATOM     30  C   UNL A   1      44.931  25.262  30.655  1.00  0.00     0.031 C 
ATOM     31  C   UNL A   1      44.545  28.971  35.458  1.00  0.00     0.029 A 
ATOM     32  C   UNL A   1      44.271  28.336  34.255  1.00  0.00     0.049 A 
ATOM     33  H   UNL A   1      42.743  28.738  32.860  1.00  0.00     0.167 HD
ATOM     34  C   UNL A   1      44.676  26.682  32.441  1.00  0.00     0.074 A 
ATOM     35  C   UNL A   1      45.411  25.582  31.849  1.00  0.00     0.031 C 
ATOM     36  C   UNL A   1      44.972  27.235  33.644  1.00  0.00     0.031 A 
BRANCH  23  37
ATOM     37  C   UNL A   1      41.273  31.925  35.287  1.00  0.00    -0.014 A 
ATOM     38  C   UNL A   1      40.164  31.783  36.144  1.00  0.00     0.010 A 
ATOM     39  C   UNL A   1      42.022  33.114  35.323  1.00  0.00     0.010 A 
ATOM     40  C   UNL A   1      39.779  32.834  36.980  1.00  0.00     0.020 A 
ATOM     41  C   UNL A   1      41.651  34.159  36.175  1.00  0.00     0.020 A 
ATOM     42  C   UNL A   1      40.518  34.021  36.980  1.00  0.00     0.054 A 
BRANCH  42  43
ATOM     43  S   UNL A   1      39.980  35.382  38.051  1.00  0.00     0.124 S 
ATOM     44  O   UNL A   1      38.836  34.789  38.739  1.00  0.00    -0.237 OA
ATOM     45  O   UNL A   1      41.156  35.622  38.884  1.00  0.00    -0.237 OA
ATOM     46  O   UNL A   1      39.657  36.454  37.113  1.00  0.00    -0.744 OA
ENDBRANCH  42  43
ENDBRANCH  23  37
BRANCH  24  47
ATOM     47  C   UNL A   1      43.194  24.982  28.301  1.00  0.00    -0.014 A 
ATOM     48  C   UNL A   1      42.741  23.664  28.484  1.00  0.00     0.010 A 
ATOM     49  C   UNL A   1      43.920  25.297  27.138  1.00  0.00     0.010 A 
ATOM     50  C   UNL A   1      43.026  22.676  27.535  1.00  0.00     0.020 A 
ATOM     51  C   UNL A   1      44.188  24.317  26.176  1.00  0.00     0.020 A 
ATOM     52  C   UNL A   1      43.749  23.009  26.386  1.00  0.00     0.054 A 
BRANCH  52  53
ATOM     53  S   UNL A   1      44.071  21.719  25.149  1.00  0.00     0.124 S 
ATOM     54  O   UNL A   1      45.417  21.284  25.508  1.00  0.00    -0.237 OA
ATOM     55  O   UNL A   1      43.003  20.757  25.413  1.00  0.00    -0.237 OA
ATOM     56  O   UNL A   1      43.959  22.430  23.878  1.00  0.00    -0.744 OA
ENDBRANCH  52  53
ENDBRANCH  24  47
BRANCH  36  57
ATOM     57  C   UNL A   1      46.104  26.623  34.423  1.00  0.00    -0.014 A 
ATOM     58  C   UNL A   1      47.421  27.094  34.287  1.00  0.00     0.010 A 
ATOM     59  C   UNL A   1      45.827  25.600  35.348  1.00  0.00     0.010 A 
ATOM     60  C   UNL A   1      48.450  26.528  35.045  1.00  0.00     0.020 A 
ATOM     61  C   UNL A   1      46.849  25.050  36.124  1.00  0.00     0.020 A 
ATOM     62  C   UNL A   1      48.157  25.508  35.956  1.00  0.00     0.054 A 
BRANCH  62  63
ATOM     63  S   UNL A   1      49.498  24.819  36.962  1.00  0.00     0.124 S 
ATOM     64  O   UNL A   1      49.334  23.384  36.746  1.00  0.00    -0.237 OA
ATOM     65  O   UNL A   1      50.691  25.413  36.363  1.00  0.00    -0.237 OA
ATOM     66  O   UNL A   1      49.191  25.286  38.312  1.00  0.00    -0.744 OA
ENDBRANCH  62  63
ENDBRANCH  36  57
ENDBRANCH  10  11
ENDBRANCH   3   5
ENDBRANCH   2   3
ENDBRANCH   1   2
BRANCH   1  67
ATOM     67  C   UNL A   1      32.084  29.241  26.185  1.00  0.00     0.275 C 
BRANCH  67  68
ATOM     68  O   UNL A   1      31.998  27.953  25.559  1.00  0.00    -0.458 OA
BRANCH  68  69
ATOM     69  C   UNL A   1      31.635  26.941  26.386  1.00  0.00     0.338 C 
ATOM     70  O   UNL A   1      30.687  26.908  27.152  1.00  0.00    -0.246 OA
BRANCH  69  71
ATOM     71  C   UNL A   1      32.477  25.769  26.104  1.00  0.00     0.063 A 
ATOM     72  C   UNL A   1      33.664  25.867  25.375  1.00  0.00     0.017 A 
ATOM     73  C   UNL A   1      32.025  24.532  26.564  1.00  0.00     0.056 A 
ATOM     74  C   UNL A   1      34.413  24.710  25.128  1.00  0.00     0.024 A 
ATOM     75  C   UNL A   1      32.724  23.382  26.224  1.00  0.00     0.142 A 
ATOM     76  C   UNL A   1      33.934  23.462  25.556  1.00  0.00     0.103 A 
ATOM     77  F   UNL A   1      32.140  22.204  26.464  1.00  0.00    -0.206 F 
BRANCH  76  78
ATOM     78  S   UNL A   1      34.883  22.016  25.205  1.00  0.00     0.186 S 
ATOM     79  O   UNL A   1      35.195  21.449  26.505  1.00  0.00    -0.223 OA
ATOM     80  O   UNL A   1      34.102  21.247  24.250  1.00  0.00    -0.223 OA
BRANCH  78  81
ATOM     81  C   UNL A   1      36.433  22.430  24.429  1.00  0.00     0.188 C 
BRANCH  81  82
ATOM     82  C   UNL A   1      37.569  22.699  25.373  1.00  0.00     0.020 A 
ATOM     83  C   UNL A   1      37.786  23.858  26.100  1.00  0.00     0.016 A 
ATOM     84  S   UNL A   1      38.744  21.514  25.749  1.00  0.00    -0.148 S 
ATOM     85  C   UNL A   1      38.979  23.809  26.872  1.00  0.00     0.012 A 
ATOM     86  C   UNL A   1      39.599  22.586  26.769  1.00  0.00     0.065 A 
ENDBRANCH  81  82
ENDBRANCH  78  81
ENDBRANCH  76  78
ENDBRANCH  69  71
ENDBRANCH  68  69
ENDBRANCH  67  68
ENDBRANCH   1  67
TORSDOF 17
ENDMDL
