MODEL 1
REMARK VINA RESULT:     -10.2      0.000      0.000
REMARK SMILES CCn1ccnc1[C@H](F)C(=O)OCCOC(=O)c1ccc(-c2c3nc(c(-c4ccc(S(=O)(=O)[O-])cc4)c4ccc([nH]4)c(-c4ccc(S(=O)(=O)[O-])cc4)c4nc(c(-c5ccc(S(=O)(=O)[O-])cc5)c5ccc2[nH]5)C=C4)C=C3)cc1
REMARK SMILES IDX 14 1 13 2 12 3 10 4 11 5 8 6 9 7 7 8 3 9 4 10 5 11 6 12 2 13
REMARK SMILES IDX 1 14 15 15 16 16 17 17 18 18 19 19 77 20 20 21 76 22 21 23
REMARK SMILES IDX 22 24 23 25 70 26 24 27 75 28 69 29 71 30 25 31 74 32 68 33
REMARK SMILES IDX 67 34 26 36 56 37 37 38 55 39 38 40 41 41 54 42 72 43 39 44
REMARK SMILES IDX 40 45 53 47 73 48 42 49 27 50 28 51 36 52 29 53 35 54 30 55
REMARK SMILES IDX 31 56 32 57 33 58 34 59 57 60 58 61 66 62 59 63 65 64 60 65
REMARK SMILES IDX 61 66 62 67 63 68 64 69 43 70 44 71 52 72 45 73 51 74 46 75
REMARK SMILES IDX 47 76 48 77 49 78 50 79
REMARK H PARENT 71 35 41 46
REMARK Flexibility Score: inf
ROOT
ATOM      1  C   UNL A   1      38.141  21.492  25.522  1.00  0.00     0.275 C 
ENDROOT
BRANCH   1   2
ATOM      2  C   UNL A   1      37.272  21.870  24.328  1.00  0.00     0.274 C 
BRANCH   2   3
ATOM      3  O   UNL A   1      36.890  23.255  24.386  1.00  0.00    -0.460 OA
BRANCH   3   4
ATOM      4  C   UNL A   1      35.700  23.579  23.787  1.00  0.00     0.348 C 
ATOM      5  O   UNL A   1      35.408  23.299  22.627  1.00  0.00    -0.248 OA
BRANCH   4   6
ATOM      6  C   UNL A   1      34.759  24.267  24.767  1.00  0.00     0.341 C 
ATOM      7  F   UNL A   1      34.577  25.583  24.461  1.00  0.00    -0.226 F 
BRANCH   6   8
ATOM      8  C   UNL A   1      33.465  23.521  24.766  1.00  0.00     0.155 A 
ATOM      9  N   UNL A   1      33.218  22.341  25.435  1.00  0.00    -0.332 N 
ATOM     10  C   UNL A   1      31.876  22.073  25.300  1.00  0.00     0.107 A 
ATOM     11  C   UNL A   1      31.385  23.051  24.477  1.00  0.00     0.131 A 
ATOM     12  N   UNL A   1      32.373  23.923  24.134  1.00  0.00    -0.238 NA
BRANCH   9  13
ATOM     13  C   UNL A   1      34.123  21.483  26.179  1.00  0.00     0.120 C 
ATOM     14  C   UNL A   1      33.930  21.600  27.683  1.00  0.00     0.027 C 
ENDBRANCH   9  13
ENDBRANCH   6   8
ENDBRANCH   4   6
ENDBRANCH   3   4
ENDBRANCH   2   3
ENDBRANCH   1   2
BRANCH   1  15
ATOM     15  O   UNL A   1      38.700  22.659  26.121  1.00  0.00    -0.458 OA
BRANCH  15  16
ATOM     16  C   UNL A   1      39.841  22.459  26.817  1.00  0.00     0.338 C 
ATOM     17  O   UNL A   1      40.144  21.469  27.455  1.00  0.00    -0.246 OA
BRANCH  16  18
ATOM     18  C   UNL A   1      40.629  23.693  26.842  1.00  0.00     0.060 A 
ATOM     19  C   UNL A   1      41.698  23.737  27.745  1.00  0.00     0.016 A 
ATOM     20  C   UNL A   1      40.079  24.846  26.273  1.00  0.00     0.016 A 
ATOM     21  C   UNL A   1      42.046  24.955  28.281  1.00  0.00     0.010 A 
ATOM     22  C   UNL A   1      40.400  26.052  26.833  1.00  0.00     0.010 A 
ATOM     23  C   UNL A   1      41.307  26.072  27.893  1.00  0.00    -0.014 A 
BRANCH  23  24
ATOM     24  C   UNL A   1      41.443  27.290  28.655  1.00  0.00     0.031 A 
ATOM     25  C   UNL A   1      42.666  28.056  28.357  1.00  0.00     0.074 A 
ATOM     26  C   UNL A   1      40.424  27.755  29.399  1.00  0.00     0.049 A 
ATOM     27  N   UNL A   1      43.674  28.286  29.130  1.00  0.00    -0.248 NA
ATOM     28  C   UNL A   1      42.851  28.493  26.964  1.00  0.00     0.031 C 
ATOM     29  C   UNL A   1      39.051  27.239  29.465  1.00  0.00     0.029 A 
ATOM     30  N   UNL A   1      40.365  28.888  30.141  1.00  0.00    -0.354 N 
ATOM     31  C   UNL A   1      44.527  29.082  28.378  1.00  0.00     0.074 A 
ATOM     32  C   UNL A   1      44.090  28.977  27.009  1.00  0.00     0.031 C 
ATOM     33  C   UNL A   1      38.250  28.188  30.000  1.00  0.00     0.029 A 
ATOM     34  C   UNL A   1      39.074  29.306  30.428  1.00  0.00     0.049 A 
ATOM     35  H   UNL A   1      41.166  29.372  30.448  1.00  0.00     0.167 HD
ATOM     36  C   UNL A   1      45.340  30.011  28.949  1.00  0.00     0.031 A 
ATOM     37  C   UNL A   1      38.715  30.532  30.886  1.00  0.00     0.031 A 
ATOM     38  C   UNL A   1      45.479  29.820  30.367  1.00  0.00     0.049 A 
ATOM     39  C   UNL A   1      39.932  31.168  31.451  1.00  0.00     0.074 A 
ATOM     40  C   UNL A   1      45.937  28.794  31.169  1.00  0.00     0.029 A 
ATOM     41  N   UNL A   1      44.734  30.640  31.183  1.00  0.00    -0.354 N 
ATOM     42  N   UNL A   1      40.563  30.712  32.499  1.00  0.00    -0.248 NA
ATOM     43  C   UNL A   1      40.713  32.055  30.600  1.00  0.00     0.031 C 
ATOM     44  C   UNL A   1      45.084  28.803  32.311  1.00  0.00     0.029 A 
ATOM     45  C   UNL A   1      44.177  29.858  32.166  1.00  0.00     0.049 A 
ATOM     46  H   UNL A   1      44.620  31.612  31.082  1.00  0.00     0.167 HD
ATOM     47  C   UNL A   1      41.911  30.905  32.224  1.00  0.00     0.074 A 
ATOM     48  C   UNL A   1      41.934  31.840  31.101  1.00  0.00     0.031 C 
ATOM     49  C   UNL A   1      42.866  30.076  32.744  1.00  0.00     0.031 A 
BRANCH  36  50
ATOM     50  C   UNL A   1      45.653  31.319  28.270  1.00  0.00    -0.014 A 
ATOM     51  C   UNL A   1      44.601  32.171  27.894  1.00  0.00     0.010 A 
ATOM     52  C   UNL A   1      46.937  31.616  27.760  1.00  0.00     0.010 A 
ATOM     53  C   UNL A   1      44.822  33.243  27.017  1.00  0.00     0.020 A 
ATOM     54  C   UNL A   1      47.179  32.710  26.933  1.00  0.00     0.020 A 
ATOM     55  C   UNL A   1      46.109  33.495  26.535  1.00  0.00     0.054 A 
BRANCH  55  56
ATOM     56  S   UNL A   1      46.367  34.804  25.314  1.00  0.00     0.124 S 
ATOM     57  O   UNL A   1      47.753  34.570  24.919  1.00  0.00    -0.237 OA
ATOM     58  O   UNL A   1      45.357  34.492  24.308  1.00  0.00    -0.237 OA
ATOM     59  O   UNL A   1      46.128  36.030  26.072  1.00  0.00    -0.744 OA
ENDBRANCH  55  56
ENDBRANCH  36  50
BRANCH  37  60
ATOM     60  C   UNL A   1      37.494  31.288  30.515  1.00  0.00    -0.014 A 
ATOM     61  C   UNL A   1      36.524  31.630  31.473  1.00  0.00     0.010 A 
ATOM     62  C   UNL A   1      37.402  31.896  29.244  1.00  0.00     0.010 A 
ATOM     63  C   UNL A   1      35.525  32.576  31.182  1.00  0.00     0.020 A 
ATOM     64  C   UNL A   1      36.408  32.831  28.945  1.00  0.00     0.020 A 
ATOM     65  C   UNL A   1      35.483  33.181  29.922  1.00  0.00     0.054 A 
BRANCH  65  66
ATOM     66  S   UNL A   1      34.283  34.509  29.603  1.00  0.00     0.124 S 
ATOM     67  O   UNL A   1      34.955  35.291  28.568  1.00  0.00    -0.237 OA
ATOM     68  O   UNL A   1      33.100  33.771  29.172  1.00  0.00    -0.237 OA
ATOM     69  O   UNL A   1      34.156  35.177  30.898  1.00  0.00    -0.744 OA
ENDBRANCH  65  66
ENDBRANCH  37  60
BRANCH  49  70
ATOM     70  C   UNL A   1      42.449  29.118  33.841  1.00  0.00    -0.014 A 
ATOM     71  C   UNL A   1      41.877  27.854  33.585  1.00  0.00     0.010 A 
ATOM     72  C   UNL A   1      42.794  29.437  35.166  1.00  0.00     0.010 A 
ATOM     73  C   UNL A   1      41.638  26.947  34.627  1.00  0.00     0.020 A 
ATOM     74  C   UNL A   1      42.574  28.530  36.207  1.00  0.00     0.020 A 
ATOM     75  C   UNL A   1      41.991  27.291  35.935  1.00  0.00     0.054 A 
BRANCH  75  76
ATOM     76  S   UNL A   1      41.739  26.086  37.271  1.00  0.00     0.124 S 
ATOM     77  O   UNL A   1      42.858  26.363  38.166  1.00  0.00    -0.237 OA
ATOM     78  O   UNL A   1      40.418  26.443  37.785  1.00  0.00    -0.237 OA
ATOM     79  O   UNL A   1      41.798  24.794  36.589  1.00  0.00    -0.744 OA
ENDBRANCH  75  76
ENDBRANCH  49  70
ENDBRANCH  23  24
ENDBRANCH  16  18
ENDBRANCH  15  16
ENDBRANCH   1  15
TORSDOF 16
ENDMDL
MODEL 2
REMARK VINA RESULT:     -10.2      3.059      4.096
REMARK SMILES CCn1ccnc1[C@H](F)C(=O)OCCOC(=O)c1ccc(-c2c3nc(c(-c4ccc(S(=O)(=O)[O-])cc4)c4ccc([nH]4)c(-c4ccc(S(=O)(=O)[O-])cc4)c4nc(c(-c5ccc(S(=O)(=O)[O-])cc5)c5ccc2[nH]5)C=C4)C=C3)cc1
REMARK SMILES IDX 14 1 13 2 12 3 10 4 11 5 8 6 9 7 7 8 3 9 4 10 5 11 6 12 2 13
REMARK SMILES IDX 1 14 15 15 16 16 17 17 18 18 19 19 77 20 20 21 76 22 21 23
REMARK SMILES IDX 22 24 23 25 70 26 24 27 75 28 69 29 71 30 25 31 74 32 68 33
REMARK SMILES IDX 67 34 26 36 56 37 37 38 55 39 38 40 41 41 54 42 72 43 39 44
REMARK SMILES IDX 40 45 53 47 73 48 42 49 27 50 28 51 36 52 29 53 35 54 30 55
REMARK SMILES IDX 31 56 32 57 33 58 34 59 57 60 58 61 66 62 59 63 65 64 60 65
REMARK SMILES IDX 61 66 62 67 63 68 64 69 43 70 44 71 52 72 45 73 51 74 46 75
REMARK SMILES IDX 47 76 48 77 49 78 50 79
REMARK H PARENT 71 35 41 46
REMARK Flexibility Score: inf
ROOT
ATOM      1  C   UNL A   1      44.487  22.101  24.087  1.00  0.00     0.275 C 
ENDROOT
BRANCH   1   2
ATOM      2  C   UNL A   1      44.487  20.902  25.028  1.00  0.00     0.274 C 
BRANCH   2   3
ATOM      3  O   UNL A   1      43.177  20.316  25.117  1.00  0.00    -0.460 OA
BRANCH   3   4
ATOM      4  C   UNL A   1      43.113  19.062  25.668  1.00  0.00     0.348 C 
ATOM      5  O   UNL A   1      43.845  18.127  25.351  1.00  0.00    -0.248 OA
BRANCH   4   6
ATOM      6  C   UNL A   1      42.066  18.997  26.772  1.00  0.00     0.341 C 
ATOM      7  F   UNL A   1      42.627  18.778  27.995  1.00  0.00    -0.226 F 
BRANCH   6   8
ATOM      8  C   UNL A   1      41.288  20.272  26.747  1.00  0.00     0.155 A 
ATOM      9  N   UNL A   1      40.053  20.448  26.159  1.00  0.00    -0.332 N 
ATOM     10  C   UNL A   1      39.625  21.712  26.490  1.00  0.00     0.107 A 
ATOM     11  C   UNL A   1      40.658  22.282  27.185  1.00  0.00     0.131 A 
ATOM     12  N   UNL A   1      41.686  21.398  27.316  1.00  0.00    -0.238 NA
BRANCH   9  13
ATOM     13  C   UNL A   1      39.268  19.536  25.346  1.00  0.00     0.120 C 
ATOM     14  C   UNL A   1      37.908  20.109  24.981  1.00  0.00     0.027 C 
ENDBRANCH   9  13
ENDBRANCH   6   8
ENDBRANCH   4   6
ENDBRANCH   3   4
ENDBRANCH   2   3
ENDBRANCH   1   2
BRANCH   1  15
ATOM     15  O   UNL A   1      43.485  23.039  24.476  1.00  0.00    -0.458 OA
BRANCH  15  16
ATOM     16  C   UNL A   1      43.951  24.238  24.895  1.00  0.00     0.338 C 
ATOM     17  O   UNL A   1      45.029  24.735  24.631  1.00  0.00    -0.246 OA
BRANCH  16  18
ATOM     18  C   UNL A   1      43.028  24.813  25.874  1.00  0.00     0.060 A 
ATOM     19  C   UNL A   1      42.121  25.768  25.396  1.00  0.00     0.016 A 
ATOM     20  C   UNL A   1      43.328  24.678  27.233  1.00  0.00     0.016 A 
ATOM     21  C   UNL A   1      41.712  26.762  26.255  1.00  0.00     0.010 A 
ATOM     22  C   UNL A   1      42.952  25.687  28.076  1.00  0.00     0.010 A 
ATOM     23  C   UNL A   1      42.232  26.760  27.549  1.00  0.00    -0.014 A 
BRANCH  23  24
ATOM     24  C   UNL A   1      42.067  27.940  28.362  1.00  0.00     0.031 A 
ATOM     25  C   UNL A   1      43.154  28.926  28.226  1.00  0.00     0.074 A 
ATOM     26  C   UNL A   1      40.910  28.177  29.006  1.00  0.00     0.049 A 
ATOM     27  N   UNL A   1      44.020  29.289  29.112  1.00  0.00    -0.248 NA
ATOM     28  C   UNL A   1      43.397  29.461  26.877  1.00  0.00     0.031 C 
ATOM     29  C   UNL A   1      39.654  27.423  28.903  1.00  0.00     0.029 A 
ATOM     30  N   UNL A   1      40.571  29.241  29.774  1.00  0.00    -0.354 N 
ATOM     31  C   UNL A   1      44.785  30.262  28.484  1.00  0.00     0.074 A 
ATOM     32  C   UNL A   1      44.515  30.154  27.073  1.00  0.00     0.031 C 
ATOM     33  C   UNL A   1      38.644  28.185  29.380  1.00  0.00     0.029 A 
ATOM     34  C   UNL A   1      39.203  29.408  29.933  1.00  0.00     0.049 A 
ATOM     35  H   UNL A   1      41.235  29.842  30.183  1.00  0.00     0.167 HD
ATOM     36  C   UNL A   1      45.354  31.289  29.171  1.00  0.00     0.031 A 
ATOM     37  C   UNL A   1      38.583  30.524  30.390  1.00  0.00     0.031 A 
ATOM     38  C   UNL A   1      45.380  31.051  30.588  1.00  0.00     0.049 A 
ATOM     39  C   UNL A   1      39.600  31.336  31.106  1.00  0.00     0.074 A 
ATOM     40  C   UNL A   1      45.934  30.082  31.401  1.00  0.00     0.029 A 
ATOM     41  N   UNL A   1      44.420  31.681  31.346  1.00  0.00    -0.354 N 
ATOM     42  N   UNL A   1      40.194  30.944  32.200  1.00  0.00    -0.248 NA
ATOM     43  C   UNL A   1      40.289  32.390  30.376  1.00  0.00     0.031 C 
ATOM     44  C   UNL A   1      44.982  29.879  32.443  1.00  0.00     0.029 A 
ATOM     45  C   UNL A   1      43.918  30.762  32.235  1.00  0.00     0.049 A 
ATOM     46  H   UNL A   1      44.142  32.622  31.266  1.00  0.00     0.167 HD
ATOM     47  C   UNL A   1      41.506  31.387  32.080  1.00  0.00     0.074 A 
ATOM     48  C   UNL A   1      41.472  32.369  30.999  1.00  0.00     0.031 C 
ATOM     49  C   UNL A   1      42.537  30.714  32.674  1.00  0.00     0.031 A 
BRANCH  36  50
ATOM     50  C   UNL A   1      45.491  32.666  28.575  1.00  0.00    -0.014 A 
ATOM     51  C   UNL A   1      46.747  33.100  28.119  1.00  0.00     0.010 A 
ATOM     52  C   UNL A   1      44.474  33.640  28.686  1.00  0.00     0.010 A 
ATOM     53  C   UNL A   1      46.979  34.452  27.829  1.00  0.00     0.020 A 
ATOM     54  C   UNL A   1      44.677  34.975  28.348  1.00  0.00     0.020 A 
ATOM     55  C   UNL A   1      45.943  35.380  27.958  1.00  0.00     0.054 A 
BRANCH  55  56
ATOM     56  S   UNL A   1      46.278  37.138  27.697  1.00  0.00     0.124 S 
ATOM     57  O   UNL A   1      46.579  37.172  26.269  1.00  0.00    -0.237 OA
ATOM     58  O   UNL A   1      45.018  37.757  28.097  1.00  0.00    -0.237 OA
ATOM     59  O   UNL A   1      47.408  37.405  28.584  1.00  0.00    -0.744 OA
ENDBRANCH  55  56
ENDBRANCH  36  50
BRANCH  37  60
ATOM     60  C   UNL A   1      37.288  31.070  29.914  1.00  0.00    -0.014 A 
ATOM     61  C   UNL A   1      36.362  31.642  30.803  1.00  0.00     0.010 A 
ATOM     62  C   UNL A   1      37.069  31.255  28.531  1.00  0.00     0.010 A 
ATOM     63  C   UNL A   1      35.280  32.404  30.326  1.00  0.00     0.020 A 
ATOM     64  C   UNL A   1      35.992  32.004  28.049  1.00  0.00     0.020 A 
ATOM     65  C   UNL A   1      35.111  32.591  28.950  1.00  0.00     0.054 A 
BRANCH  65  66
ATOM     66  S   UNL A   1      33.800  33.698  28.349  1.00  0.00     0.124 S 
ATOM     67  O   UNL A   1      32.925  32.777  27.628  1.00  0.00    -0.237 OA
ATOM     68  O   UNL A   1      33.258  34.250  29.586  1.00  0.00    -0.237 OA
ATOM     69  O   UNL A   1      34.518  34.655  27.507  1.00  0.00    -0.744 OA
ENDBRANCH  65  66
ENDBRANCH  37  60
BRANCH  49  70
ATOM     70  C   UNL A   1      42.193  29.641  33.686  1.00  0.00    -0.014 A 
ATOM     71  C   UNL A   1      41.837  28.325  33.323  1.00  0.00     0.010 A 
ATOM     72  C   UNL A   1      42.391  29.926  35.048  1.00  0.00     0.010 A 
ATOM     73  C   UNL A   1      41.663  27.330  34.297  1.00  0.00     0.020 A 
ATOM     74  C   UNL A   1      42.236  28.935  36.023  1.00  0.00     0.020 A 
ATOM     75  C   UNL A   1      41.868  27.643  35.644  1.00  0.00     0.054 A 
BRANCH  75  76
ATOM     76  S   UNL A   1      41.706  26.335  36.894  1.00  0.00     0.124 S 
ATOM     77  O   UNL A   1      41.772  25.117  36.093  1.00  0.00    -0.237 OA
ATOM     78  O   UNL A   1      42.853  26.577  37.768  1.00  0.00    -0.237 OA
ATOM     79  O   UNL A   1      40.406  26.601  37.509  1.00  0.00    -0.744 OA
ENDBRANCH  75  76
ENDBRANCH  49  70
ENDBRANCH  23  24
ENDBRANCH  16  18
ENDBRANCH  15  16
ENDBRANCH   1  15
TORSDOF 16
ENDMDL
MODEL 3
REMARK VINA RESULT:     -10.1      3.265      4.642
REMARK SMILES CCn1ccnc1[C@H](F)C(=O)OCCOC(=O)c1ccc(-c2c3nc(c(-c4ccc(S(=O)(=O)[O-])cc4)c4ccc([nH]4)c(-c4ccc(S(=O)(=O)[O-])cc4)c4nc(c(-c5ccc(S(=O)(=O)[O-])cc5)c5ccc2[nH]5)C=C4)C=C3)cc1
REMARK SMILES IDX 14 1 13 2 12 3 10 4 11 5 8 6 9 7 7 8 3 9 4 10 5 11 6 12 2 13
REMARK SMILES IDX 1 14 15 15 16 16 17 17 18 18 19 19 77 20 20 21 76 22 21 23
REMARK SMILES IDX 22 24 23 25 70 26 24 27 75 28 69 29 71 30 25 31 74 32 68 33
REMARK SMILES IDX 67 34 26 36 56 37 37 38 55 39 38 40 41 41 54 42 72 43 39 44
REMARK SMILES IDX 40 45 53 47 73 48 42 49 27 50 28 51 36 52 29 53 35 54 30 55
REMARK SMILES IDX 31 56 32 57 33 58 34 59 57 60 58 61 66 62 59 63 65 64 60 65
REMARK SMILES IDX 61 66 62 67 63 68 64 69 43 70 44 71 52 72 45 73 51 74 46 75
REMARK SMILES IDX 47 76 48 77 49 78 50 79
REMARK H PARENT 71 35 41 46
REMARK Flexibility Score: inf
ROOT
ATOM      1  C   UNL A   1      40.425  20.487  26.576  1.00  0.00     0.275 C 
ENDROOT
BRANCH   1   2
ATOM      2  C   UNL A   1      41.589  19.529  26.353  1.00  0.00     0.274 C 
BRANCH   2   3
ATOM      3  O   UNL A   1      42.836  20.241  26.275  1.00  0.00    -0.460 OA
BRANCH   3   4
ATOM      4  C   UNL A   1      43.706  19.831  25.297  1.00  0.00     0.348 C 
ATOM      5  O   UNL A   1      43.470  18.934  24.491  1.00  0.00    -0.248 OA
BRANCH   4   6
ATOM      6  C   UNL A   1      44.972  20.677  25.295  1.00  0.00     0.341 C 
ATOM      7  F   UNL A   1      45.828  20.312  24.298  1.00  0.00    -0.226 F 
BRANCH   6   8
ATOM      8  C   UNL A   1      44.570  22.110  25.175  1.00  0.00     0.155 A 
ATOM      9  N   UNL A   1      45.032  23.143  25.963  1.00  0.00    -0.332 N 
ATOM     10  C   UNL A   1      44.537  24.310  25.431  1.00  0.00     0.107 A 
ATOM     11  C   UNL A   1      43.720  23.929  24.400  1.00  0.00     0.131 A 
ATOM     12  N   UNL A   1      43.728  22.574  24.265  1.00  0.00    -0.238 NA
BRANCH   9  13
ATOM     13  C   UNL A   1      45.889  23.111  27.135  1.00  0.00     0.120 C 
ATOM     14  C   UNL A   1      46.455  24.480  27.478  1.00  0.00     0.027 C 
ENDBRANCH   9  13
ENDBRANCH   6   8
ENDBRANCH   4   6
ENDBRANCH   3   4
ENDBRANCH   2   3
ENDBRANCH   1   2
BRANCH   1  15
ATOM     15  O   UNL A   1      40.725  21.770  26.029  1.00  0.00    -0.458 OA
BRANCH  15  16
ATOM     16  C   UNL A   1      40.048  22.802  26.580  1.00  0.00     0.338 C 
ATOM     17  O   UNL A   1      38.860  22.842  26.840  1.00  0.00    -0.246 OA
BRANCH  16  18
ATOM     18  C   UNL A   1      40.923  23.971  26.680  1.00  0.00     0.060 A 
ATOM     19  C   UNL A   1      41.927  23.923  27.656  1.00  0.00     0.016 A 
ATOM     20  C   UNL A   1      40.503  25.170  26.095  1.00  0.00     0.016 A 
ATOM     21  C   UNL A   1      42.328  25.104  28.235  1.00  0.00     0.010 A 
ATOM     22  C   UNL A   1      40.874  26.341  26.697  1.00  0.00     0.010 A 
ATOM     23  C   UNL A   1      41.704  26.279  27.817  1.00  0.00    -0.014 A 
BRANCH  23  24
ATOM     24  C   UNL A   1      41.879  27.473  28.607  1.00  0.00     0.031 A 
ATOM     25  C   UNL A   1      43.158  28.169  28.379  1.00  0.00     0.074 A 
ATOM     26  C   UNL A   1      40.857  27.987  29.315  1.00  0.00     0.049 A 
ATOM     27  N   UNL A   1      44.142  28.324  29.200  1.00  0.00    -0.248 NA
ATOM     28  C   UNL A   1      43.432  28.616  27.004  1.00  0.00     0.031 C 
ATOM     29  C   UNL A   1      39.453  27.554  29.310  1.00  0.00     0.029 A 
ATOM     30  N   UNL A   1      40.832  29.109  30.075  1.00  0.00    -0.354 N 
ATOM     31  C   UNL A   1      45.074  29.079  28.501  1.00  0.00     0.074 A 
ATOM     32  C   UNL A   1      44.694  29.024  27.113  1.00  0.00     0.031 C 
ATOM     33  C   UNL A   1      38.688  28.541  29.828  1.00  0.00     0.029 A 
ATOM     34  C   UNL A   1      39.557  29.600  30.313  1.00  0.00     0.049 A 
ATOM     35  H   UNL A   1      41.646  29.538  30.426  1.00  0.00     0.167 HD
ATOM     36  C   UNL A   1      45.915  29.947  29.125  1.00  0.00     0.031 A 
ATOM     37  C   UNL A   1      39.253  30.837  30.778  1.00  0.00     0.031 A 
ATOM     38  C   UNL A   1      45.977  29.724  30.544  1.00  0.00     0.049 A 
ATOM     39  C   UNL A   1      40.479  31.389  31.409  1.00  0.00     0.074 A 
ATOM     40  C   UNL A   1      46.337  28.659  31.346  1.00  0.00     0.029 A 
ATOM     41  N   UNL A   1      45.247  30.574  31.343  1.00  0.00    -0.354 N 
ATOM     42  N   UNL A   1      41.033  30.878  32.474  1.00  0.00    -0.248 NA
ATOM     43  C   UNL A   1      41.348  32.241  30.611  1.00  0.00     0.031 C 
ATOM     44  C   UNL A   1      45.435  28.702  32.449  1.00  0.00     0.029 A 
ATOM     45  C   UNL A   1      44.601  29.811  32.284  1.00  0.00     0.049 A 
ATOM     46  H   UNL A   1      45.196  31.553  31.255  1.00  0.00     0.167 HD
ATOM     47  C   UNL A   1      42.401  30.993  32.262  1.00  0.00     0.074 A 
ATOM     48  C   UNL A   1      42.531  31.943  31.160  1.00  0.00     0.031 C 
ATOM     49  C   UNL A   1      43.280  30.100  32.809  1.00  0.00     0.031 A 
BRANCH  36  50
ATOM     50  C   UNL A   1      46.336  31.245  28.486  1.00  0.00    -0.014 A 
ATOM     51  C   UNL A   1      45.447  32.332  28.481  1.00  0.00     0.010 A 
ATOM     52  C   UNL A   1      47.481  31.344  27.665  1.00  0.00     0.010 A 
ATOM     53  C   UNL A   1      45.678  33.446  27.660  1.00  0.00     0.020 A 
ATOM     54  C   UNL A   1      47.749  32.468  26.888  1.00  0.00     0.020 A 
ATOM     55  C   UNL A   1      46.823  33.498  26.861  1.00  0.00     0.054 A 
BRANCH  55  56
ATOM     56  S   UNL A   1      47.055  34.879  25.718  1.00  0.00     0.124 S 
ATOM     57  O   UNL A   1      46.678  36.018  26.550  1.00  0.00    -0.237 OA
ATOM     58  O   UNL A   1      48.473  34.774  25.388  1.00  0.00    -0.237 OA
ATOM     59  O   UNL A   1      46.141  34.572  24.621  1.00  0.00    -0.744 OA
ENDBRANCH  55  56
ENDBRANCH  36  50
BRANCH  37  60
ATOM     60  C   UNL A   1      38.096  31.672  30.369  1.00  0.00    -0.014 A 
ATOM     61  C   UNL A   1      38.141  32.471  29.214  1.00  0.00     0.010 A 
ATOM     62  C   UNL A   1      36.841  31.487  30.989  1.00  0.00     0.010 A 
ATOM     63  C   UNL A   1      36.967  33.031  28.679  1.00  0.00     0.020 A 
ATOM     64  C   UNL A   1      35.671  32.046  30.468  1.00  0.00     0.020 A 
ATOM     65  C   UNL A   1      35.737  32.802  29.303  1.00  0.00     0.054 A 
BRANCH  65  66
ATOM     66  S   UNL A   1      34.208  33.402  28.523  1.00  0.00     0.124 S 
ATOM     67  O   UNL A   1      33.642  32.176  27.966  1.00  0.00    -0.237 OA
ATOM     68  O   UNL A   1      33.483  33.979  29.651  1.00  0.00    -0.237 OA
ATOM     69  O   UNL A   1      34.683  34.369  27.534  1.00  0.00    -0.744 OA
ENDBRANCH  65  66
ENDBRANCH  37  60
BRANCH  49  70
ATOM     70  C   UNL A   1      42.758  29.150  33.868  1.00  0.00    -0.014 A 
ATOM     71  C   UNL A   1      42.185  27.897  33.565  1.00  0.00     0.010 A 
ATOM     72  C   UNL A   1      42.999  29.464  35.216  1.00  0.00     0.010 A 
ATOM     73  C   UNL A   1      41.845  26.995  34.584  1.00  0.00     0.020 A 
ATOM     74  C   UNL A   1      42.678  28.562  36.236  1.00  0.00     0.020 A 
ATOM     75  C   UNL A   1      42.097  27.334  35.916  1.00  0.00     0.054 A 
BRANCH  75  76
ATOM     76  S   UNL A   1      41.714  26.135  37.226  1.00  0.00     0.124 S 
ATOM     77  O   UNL A   1      40.411  26.588  37.703  1.00  0.00    -0.237 OA
ATOM     78  O   UNL A   1      41.714  24.860  36.510  1.00  0.00    -0.237 OA
ATOM     79  O   UNL A   1      42.812  26.299  38.178  1.00  0.00    -0.744 OA
ENDBRANCH  75  76
ENDBRANCH  49  70
ENDBRANCH  23  24
ENDBRANCH  16  18
ENDBRANCH  15  16
ENDBRANCH   1  15
TORSDOF 16
ENDMDL
