MODEL 1
REMARK VINA RESULT:     -12.9      0.000      0.000
REMARK SMILES O=C(OCCOC(=O)c1ccc(-c2c3nc(c(-c4ccc(S(=O)(=O)[O-])cc4)c4ccc([nH]4)c(-c4ccc(S(=O)(=O)[O-])cc4)c4nc(c(-c5ccc(S(=O)(=O)[O-])cc5)c5ccc2[nH]5)C=C4)C=C3)cc1)C1=Cc2cc(Cl)cc(Cl)c2O[C@@H]1C(F)(F)F
REMARK SMILES IDX 5 1 4 2 3 3 2 4 1 5 69 6 70 7 80 8 71 9 79 10 72 11 78 12
REMARK SMILES IDX 73 13 76 14 74 15 75 16 77 17 81 18 82 19 83 20 84 21 6 22
REMARK SMILES IDX 7 23 8 24 9 25 10 26 68 27 11 28 67 29 12 30 13 31 14 32
REMARK SMILES IDX 61 33 15 34 66 35 60 36 62 37 16 38 65 39 59 40 58 41 17 43
REMARK SMILES IDX 47 44 28 45 46 46 29 47 32 48 45 49 63 50 30 51 31 52 44 54
REMARK SMILES IDX 64 55 33 56 18 57 19 58 27 59 20 60 26 61 21 62 22 63 23 64
REMARK SMILES IDX 24 65 25 66 48 67 49 68 57 69 50 70 56 71 51 72 52 73 53 74
REMARK SMILES IDX 54 75 55 76 34 77 35 78 43 79 36 80 42 81 37 82 38 83 39 84
REMARK SMILES IDX 40 85 41 86
REMARK H PARENT 62 42 32 53
REMARK Flexibility Score: inf
ROOT
ATOM      1  C   UNL A   1      37.390  21.802  24.961  1.00  0.00     0.275 C 
ENDROOT
BRANCH   1   2
ATOM      2  C   UNL A   1      35.884  22.953  23.886  1.00  0.00     0.275 C 
BRANCH   2   3
ATOM      3  O   UNL A   1      35.174  24.234  24.397  1.00  0.00    -0.459 OA
BRANCH   3   4
ATOM      4  C   UNL A   1      34.172  24.641  23.609  1.00  0.00     0.338 C 
ATOM      5  O   UNL A   1      34.178  25.008  22.464  1.00  0.00    -0.246 OA
BRANCH   4   6
ATOM      6  C   UNL A   1      33.219  24.791  24.680  1.00  0.00     0.087 C 
ATOM      7  C   UNL A   1      33.715  25.730  25.710  1.00  0.00     0.027 C 
ATOM      8  C   UNL A   1      31.677  25.087  23.552  1.00  0.00     0.316 C 
ATOM      9  C   UNL A   1      33.038  27.396  25.938  1.00  0.00     0.020 A 
ATOM     10  O   UNL A   1      30.971  26.866  23.758  1.00  0.00    -0.474 OA
ATOM     11  C   UNL A   1      33.735  28.265  26.731  1.00  0.00     0.032 A 
ATOM     12  C   UNL A   1      31.745  28.014  24.948  1.00  0.00     0.146 A 
ATOM     13  C   UNL A   1      33.321  29.605  26.642  1.00  0.00     0.043 A 
ATOM     14  C   UNL A   1      31.412  29.340  24.948  1.00  0.00     0.085 A 
ATOM     15  Cl  UNL A   1      34.243  30.756  27.559  1.00  0.00    -0.084 Cl
ATOM     16  C   UNL A   1      32.233  30.112  25.811  1.00  0.00     0.045 A 
ATOM     17  Cl  UNL A   1      30.222  30.062  23.976  1.00  0.00    -0.080 Cl
BRANCH   8  18
ATOM     18  C   UNL A   1      31.033  23.660  23.662  1.00  0.00     0.430 C 
ATOM     19  F   UNL A   1      30.650  23.375  24.911  1.00  0.00    -0.167 F 
ATOM     20  F   UNL A   1      29.868  23.672  22.944  1.00  0.00    -0.167 F 
ATOM     21  F   UNL A   1      31.713  22.641  23.110  1.00  0.00    -0.167 F 
ENDBRANCH   8  18
ENDBRANCH   4   6
ENDBRANCH   3   4
ENDBRANCH   2   3
ENDBRANCH   1   2
BRANCH   1  22
ATOM     22  O   UNL A   1      38.484  22.421  26.096  1.00  0.00    -0.458 OA
BRANCH  22  23
ATOM     23  C   UNL A   1      39.789  22.789  26.279  1.00  0.00     0.338 C 
ATOM     24  O   UNL A   1      40.812  22.265  25.886  1.00  0.00    -0.246 OA
BRANCH  23  25
ATOM     25  C   UNL A   1      39.704  24.195  26.774  1.00  0.00     0.060 A 
ATOM     26  C   UNL A   1      39.129  24.441  28.031  1.00  0.00     0.016 A 
ATOM     27  C   UNL A   1      40.515  25.163  26.175  1.00  0.00     0.016 A 
ATOM     28  C   UNL A   1      39.518  25.576  28.763  1.00  0.00     0.010 A 
ATOM     29  C   UNL A   1      40.903  26.288  26.906  1.00  0.00     0.010 A 
ATOM     30  C   UNL A   1      40.443  26.484  28.221  1.00  0.00    -0.014 A 
BRANCH  30  31
ATOM     31  C   UNL A   1      40.664  27.802  28.868  1.00  0.00     0.031 A 
ATOM     32  C   UNL A   1      42.019  27.968  29.494  1.00  0.00     0.074 A 
ATOM     33  C   UNL A   1      39.739  28.781  28.951  1.00  0.00     0.049 A 
ATOM     34  N   UNL A   1      42.533  28.990  30.120  1.00  0.00    -0.248 NA
ATOM     35  C   UNL A   1      42.909  26.794  29.419  1.00  0.00     0.031 C 
ATOM     36  C   UNL A   1      38.379  28.738  28.408  1.00  0.00     0.029 A 
ATOM     37  N   UNL A   1      39.812  30.023  29.544  1.00  0.00    -0.354 N 
ATOM     38  C   UNL A   1      43.805  28.581  30.496  1.00  0.00     0.074 A 
ATOM     39  C   UNL A   1      43.955  27.200  30.109  1.00  0.00     0.031 C 
ATOM     40  C   UNL A   1      37.754  29.901  28.688  1.00  0.00     0.029 A 
ATOM     41  C   UNL A   1      38.659  30.775  29.433  1.00  0.00     0.049 A 
ATOM     42  H   UNL A   1      40.618  30.348  30.007  1.00  0.00     0.167 HD
ATOM     43  C   UNL A   1      44.787  29.298  31.083  1.00  0.00     0.031 A 
ATOM     44  C   UNL A   1      38.389  32.024  29.873  1.00  0.00     0.031 A 
ATOM     45  C   UNL A   1      44.623  30.654  31.504  1.00  0.00     0.049 A 
ATOM     46  C   UNL A   1      39.486  32.795  30.583  1.00  0.00     0.074 A 
ATOM     47  C   UNL A   1      45.543  31.484  32.114  1.00  0.00     0.029 A 
ATOM     48  N   UNL A   1      43.446  31.373  31.369  1.00  0.00    -0.354 N 
ATOM     49  N   UNL A   1      40.717  32.423  30.857  1.00  0.00    -0.248 NA
ATOM     50  C   UNL A   1      39.167  34.164  31.018  1.00  0.00     0.031 C 
ATOM     51  C   UNL A   1      44.903  32.694  32.394  1.00  0.00     0.029 A 
ATOM     52  C   UNL A   1      43.609  32.639  31.895  1.00  0.00     0.049 A 
ATOM     53  H   UNL A   1      42.618  31.033  30.959  1.00  0.00     0.167 HD
ATOM     54  C   UNL A   1      41.331  33.529  31.442  1.00  0.00     0.074 A 
ATOM     55  C   UNL A   1      40.338  34.582  31.481  1.00  0.00     0.031 C 
ATOM     56  C   UNL A   1      42.603  33.670  31.896  1.00  0.00     0.031 A 
BRANCH  43  57
ATOM     57  C   UNL A   1      46.089  28.583  31.304  1.00  0.00    -0.014 A 
ATOM     58  C   UNL A   1      47.077  28.559  30.299  1.00  0.00     0.010 A 
ATOM     59  C   UNL A   1      46.297  27.863  32.491  1.00  0.00     0.010 A 
ATOM     60  C   UNL A   1      48.221  27.776  30.453  1.00  0.00     0.020 A 
ATOM     61  C   UNL A   1      47.458  27.108  32.663  1.00  0.00     0.020 A 
ATOM     62  C   UNL A   1      48.401  27.051  31.633  1.00  0.00     0.054 A 
BRANCH  62  63
ATOM     63  S   UNL A   1      49.895  26.040  31.808  1.00  0.00     0.124 S 
ATOM     64  O   UNL A   1      50.390  25.992  30.434  1.00  0.00    -0.237 OA
ATOM     65  O   UNL A   1      50.703  26.824  32.739  1.00  0.00    -0.237 OA
ATOM     66  O   UNL A   1      49.395  24.773  32.334  1.00  0.00    -0.744 OA
ENDBRANCH  62  63
ENDBRANCH  43  57
BRANCH  44  67
ATOM     67  C   UNL A   1      37.058  32.672  29.637  1.00  0.00    -0.014 A 
ATOM     68  C   UNL A   1      36.812  33.399  28.455  1.00  0.00     0.010 A 
ATOM     69  C   UNL A   1      36.048  32.629  30.615  1.00  0.00     0.010 A 
ATOM     70  C   UNL A   1      35.607  34.092  28.271  1.00  0.00     0.020 A 
ATOM     71  C   UNL A   1      34.830  33.299  30.425  1.00  0.00     0.020 A 
ATOM     72  C   UNL A   1      34.622  34.039  29.259  1.00  0.00     0.054 A 
BRANCH  72  73
ATOM     73  S   UNL A   1      33.059  34.927  28.988  1.00  0.00     0.124 S 
ATOM     74  O   UNL A   1      33.522  36.223  28.502  1.00  0.00    -0.237 OA
ATOM     75  O   UNL A   1      32.385  34.086  28.003  1.00  0.00    -0.237 OA
ATOM     76  O   UNL A   1      32.440  34.942  30.312  1.00  0.00    -0.744 OA
ENDBRANCH  72  73
ENDBRANCH  44  67
BRANCH  56  77
ATOM     77  C   UNL A   1      43.024  35.024  32.401  1.00  0.00    -0.014 A 
ATOM     78  C   UNL A   1      43.554  36.003  31.543  1.00  0.00     0.010 A 
ATOM     79  C   UNL A   1      42.797  35.345  33.753  1.00  0.00     0.010 A 
ATOM     80  C   UNL A   1      43.885  37.267  32.038  1.00  0.00     0.020 A 
ATOM     81  C   UNL A   1      43.095  36.618  34.243  1.00  0.00     0.020 A 
ATOM     82  C   UNL A   1      43.653  37.566  33.385  1.00  0.00     0.054 A 
BRANCH  82  83
ATOM     83  S   UNL A   1      44.053  39.226  33.994  1.00  0.00     0.124 S 
ATOM     84  O   UNL A   1      42.949  40.018  33.461  1.00  0.00    -0.237 OA
ATOM     85  O   UNL A   1      44.057  39.044  35.443  1.00  0.00    -0.237 OA
ATOM     86  O   UNL A   1      45.362  39.506  33.404  1.00  0.00    -0.744 OA
ENDBRANCH  82  83
ENDBRANCH  56  77
ENDBRANCH  30  31
ENDBRANCH  23  25
ENDBRANCH  22  23
ENDBRANCH   1  22
TORSDOF 15
ENDMDL
MODEL 2
REMARK VINA RESULT:     -12.9      2.981      9.567
REMARK SMILES O=C(OCCOC(=O)c1ccc(-c2c3nc(c(-c4ccc(S(=O)(=O)[O-])cc4)c4ccc([nH]4)c(-c4ccc(S(=O)(=O)[O-])cc4)c4nc(c(-c5ccc(S(=O)(=O)[O-])cc5)c5ccc2[nH]5)C=C4)C=C3)cc1)C1=Cc2cc(Cl)cc(Cl)c2O[C@@H]1C(F)(F)F
REMARK SMILES IDX 5 1 4 2 3 3 2 4 1 5 69 6 70 7 80 8 71 9 79 10 72 11 78 12
REMARK SMILES IDX 73 13 76 14 74 15 75 16 77 17 81 18 82 19 83 20 84 21 6 22
REMARK SMILES IDX 7 23 8 24 9 25 10 26 68 27 11 28 67 29 12 30 13 31 14 32
REMARK SMILES IDX 61 33 15 34 66 35 60 36 62 37 16 38 65 39 59 40 58 41 17 43
REMARK SMILES IDX 47 44 28 45 46 46 29 47 32 48 45 49 63 50 30 51 31 52 44 54
REMARK SMILES IDX 64 55 33 56 18 57 19 58 27 59 20 60 26 61 21 62 22 63 23 64
REMARK SMILES IDX 24 65 25 66 48 67 49 68 57 69 50 70 56 71 51 72 52 73 53 74
REMARK SMILES IDX 54 75 55 76 34 77 35 78 43 79 36 80 42 81 37 82 38 83 39 84
REMARK SMILES IDX 40 85 41 86
REMARK H PARENT 62 42 32 53
REMARK Flexibility Score: inf
ROOT
ATOM      1  C   UNL A   1      32.343  29.789  27.026  1.00  0.00     0.275 C 
ENDROOT
BRANCH   1   2
ATOM      2  C   UNL A   1      31.887  27.773  26.335  1.00  0.00     0.275 C 
BRANCH   2   3
ATOM      3  O   UNL A   1      32.805  26.530  26.470  1.00  0.00    -0.459 OA
BRANCH   3   4
ATOM      4  C   UNL A   1      32.183  25.374  26.214  1.00  0.00     0.338 C 
ATOM      5  O   UNL A   1      31.522  24.667  26.929  1.00  0.00    -0.246 OA
BRANCH   4   6
ATOM      6  C   UNL A   1      32.847  25.146  24.955  1.00  0.00     0.087 C 
ATOM      7  C   UNL A   1      34.317  25.149  25.118  1.00  0.00     0.027 C 
ATOM      8  C   UNL A   1      31.787  23.617  24.430  1.00  0.00     0.316 C 
ATOM      9  C   UNL A   1      35.327  23.647  25.017  1.00  0.00     0.020 A 
ATOM     10  O   UNL A   1      32.840  22.007  24.355  1.00  0.00    -0.474 OA
ATOM     11  C   UNL A   1      36.626  23.721  25.439  1.00  0.00     0.032 A 
ATOM     12  C   UNL A   1      34.628  22.079  24.722  1.00  0.00     0.146 A 
ATOM     13  C   UNL A   1      37.264  22.480  25.603  1.00  0.00     0.043 A 
ATOM     14  C   UNL A   1      35.345  20.928  24.899  1.00  0.00     0.085 A 
ATOM     15  Cl  UNL A   1      38.883  22.526  26.229  1.00  0.00    -0.084 Cl
ATOM     16  C   UNL A   1      36.669  21.171  25.349  1.00  0.00     0.045 A 
ATOM     17  Cl  UNL A   1      34.748  19.351  24.709  1.00  0.00    -0.080 Cl
BRANCH   8  18
ATOM     18  C   UNL A   1      30.848  24.331  23.395  1.00  0.00     0.430 C 
ATOM     19  F   UNL A   1      29.965  23.488  22.850  1.00  0.00    -0.167 F 
ATOM     20  F   UNL A   1      30.079  25.231  24.082  1.00  0.00    -0.167 F 
ATOM     21  F   UNL A   1      31.440  25.095  22.462  1.00  0.00    -0.167 F 
ENDBRANCH   8  18
ENDBRANCH   4   6
ENDBRANCH   3   4
ENDBRANCH   2   3
ENDBRANCH   1   2
BRANCH   1  22
ATOM     22  O   UNL A   1      33.634  30.221  28.033  1.00  0.00    -0.458 OA
BRANCH  22  23
ATOM     23  C   UNL A   1      34.683  31.089  28.165  1.00  0.00     0.338 C 
ATOM     24  O   UNL A   1      34.688  32.280  28.407  1.00  0.00    -0.246 OA
BRANCH  23  25
ATOM     25  C   UNL A   1      35.874  30.200  28.307  1.00  0.00     0.060 A 
ATOM     26  C   UNL A   1      36.800  30.129  27.254  1.00  0.00     0.016 A 
ATOM     27  C   UNL A   1      36.237  29.771  29.587  1.00  0.00     0.016 A 
ATOM     28  C   UNL A   1      38.140  29.802  27.527  1.00  0.00     0.010 A 
ATOM     29  C   UNL A   1      37.569  29.451  29.856  1.00  0.00     0.010 A 
ATOM     30  C   UNL A   1      38.541  29.504  28.840  1.00  0.00    -0.014 A 
BRANCH  30  31
ATOM     31  C   UNL A   1      39.879  28.914  29.098  1.00  0.00     0.031 A 
ATOM     32  C   UNL A   1      40.840  29.834  29.796  1.00  0.00     0.074 A 
ATOM     33  C   UNL A   1      40.260  27.679  28.712  1.00  0.00     0.049 A 
ATOM     34  N   UNL A   1      42.070  29.628  30.177  1.00  0.00    -0.248 NA
ATOM     35  C   UNL A   1      40.337  31.191  30.081  1.00  0.00     0.031 C 
ATOM     36  C   UNL A   1      39.435  26.697  28.006  1.00  0.00     0.029 A 
ATOM     37  N   UNL A   1      41.470  27.035  28.864  1.00  0.00    -0.354 N 
ATOM     38  C   UNL A   1      42.474  30.823  30.755  1.00  0.00     0.074 A 
ATOM     39  C   UNL A   1      41.399  31.772  30.601  1.00  0.00     0.031 C 
ATOM     40  C   UNL A   1      40.161  25.578  27.794  1.00  0.00     0.029 A 
ATOM     41  C   UNL A   1      41.504  25.758  28.343  1.00  0.00     0.049 A 
ATOM     42  H   UNL A   1      42.244  27.451  29.308  1.00  0.00     0.167 HD
ATOM     43  C   UNL A   1      43.627  31.107  31.396  1.00  0.00     0.031 A 
ATOM     44  C   UNL A   1      42.504  24.848  28.332  1.00  0.00     0.031 A 
ATOM     45  C   UNL A   1      44.709  30.180  31.512  1.00  0.00     0.049 A 
ATOM     46  C   UNL A   1      43.815  25.206  29.007  1.00  0.00     0.074 A 
ATOM     47  C   UNL A   1      45.929  30.353  32.134  1.00  0.00     0.029 A 
ATOM     48  N   UNL A   1      44.698  28.902  30.975  1.00  0.00    -0.354 N 
ATOM     49  N   UNL A   1      44.154  26.315  29.626  1.00  0.00    -0.248 NA
ATOM     50  C   UNL A   1      44.869  24.179  29.005  1.00  0.00     0.031 C 
ATOM     51  C   UNL A   1      46.679  29.192  31.929  1.00  0.00     0.029 A 
ATOM     52  C   UNL A   1      45.898  28.274  31.240  1.00  0.00     0.049 A 
ATOM     53  H   UNL A   1      43.948  28.502  30.479  1.00  0.00     0.167 HD
ATOM     54  C   UNL A   1      45.433  26.095  30.133  1.00  0.00     0.074 A 
ATOM     55  C   UNL A   1      45.806  24.750  29.750  1.00  0.00     0.031 C 
ATOM     56  C   UNL A   1      46.226  26.923  30.861  1.00  0.00     0.031 A 
BRANCH  43  57
ATOM     57  C   UNL A   1      43.741  32.487  31.977  1.00  0.00    -0.014 A 
ATOM     58  C   UNL A   1      43.257  32.766  33.271  1.00  0.00     0.010 A 
ATOM     59  C   UNL A   1      44.262  33.532  31.198  1.00  0.00     0.010 A 
ATOM     60  C   UNL A   1      43.234  34.075  33.750  1.00  0.00     0.020 A 
ATOM     61  C   UNL A   1      44.274  34.839  31.688  1.00  0.00     0.020 A 
ATOM     62  C   UNL A   1      43.739  35.105  32.951  1.00  0.00     0.054 A 
BRANCH  62  63
ATOM     63  S   UNL A   1      43.697  36.799  33.595  1.00  0.00     0.124 S 
ATOM     64  O   UNL A   1      42.426  36.816  34.315  1.00  0.00    -0.237 OA
ATOM     65  O   UNL A   1      44.894  36.852  34.431  1.00  0.00    -0.237 OA
ATOM     66  O   UNL A   1      43.742  37.627  32.393  1.00  0.00    -0.744 OA
ENDBRANCH  62  63
ENDBRANCH  43  57
BRANCH  44  67
ATOM     67  C   UNL A   1      42.330  23.493  27.714  1.00  0.00    -0.014 A 
ATOM     68  C   UNL A   1      41.809  22.421  28.467  1.00  0.00     0.010 A 
ATOM     69  C   UNL A   1      42.746  23.241  26.394  1.00  0.00     0.010 A 
ATOM     70  C   UNL A   1      41.738  21.129  27.929  1.00  0.00     0.020 A 
ATOM     71  C   UNL A   1      42.652  21.954  25.841  1.00  0.00     0.020 A 
ATOM     72  C   UNL A   1      42.162  20.902  26.617  1.00  0.00     0.054 A 
BRANCH  72  73
ATOM     73  S   UNL A   1      42.039  19.222  25.934  1.00  0.00     0.124 S 
ATOM     74  O   UNL A   1      40.609  19.101  25.669  1.00  0.00    -0.237 OA
ATOM     75  O   UNL A   1      42.896  19.298  24.754  1.00  0.00    -0.237 OA
ATOM     76  O   UNL A   1      42.547  18.376  27.012  1.00  0.00    -0.744 OA
ENDBRANCH  72  73
ENDBRANCH  44  67
BRANCH  56  77
ATOM     77  C   UNL A   1      47.539  26.381  31.361  1.00  0.00    -0.014 A 
ATOM     78  C   UNL A   1      47.653  25.753  32.613  1.00  0.00     0.010 A 
ATOM     79  C   UNL A   1      48.660  26.428  30.511  1.00  0.00     0.010 A 
ATOM     80  C   UNL A   1      48.877  25.216  33.021  1.00  0.00     0.020 A 
ATOM     81  C   UNL A   1      49.875  25.863  30.900  1.00  0.00     0.020 A 
ATOM     82  C   UNL A   1      49.979  25.274  32.161  1.00  0.00     0.054 A 
BRANCH  82  83
ATOM     83  S   UNL A   1      51.545  24.534  32.697  1.00  0.00     0.124 S 
ATOM     84  O   UNL A   1      51.554  24.841  34.124  1.00  0.00    -0.237 OA
ATOM     85  O   UNL A   1      51.367  23.125  32.357  1.00  0.00    -0.237 OA
ATOM     86  O   UNL A   1      52.551  25.237  31.902  1.00  0.00    -0.744 OA
ENDBRANCH  82  83
ENDBRANCH  56  77
ENDBRANCH  30  31
ENDBRANCH  23  25
ENDBRANCH  22  23
ENDBRANCH   1  22
TORSDOF 15
ENDMDL
MODEL 3
REMARK VINA RESULT:     -12.5      3.634      9.500
REMARK SMILES O=C(OCCOC(=O)c1ccc(-c2c3nc(c(-c4ccc(S(=O)(=O)[O-])cc4)c4ccc([nH]4)c(-c4ccc(S(=O)(=O)[O-])cc4)c4nc(c(-c5ccc(S(=O)(=O)[O-])cc5)c5ccc2[nH]5)C=C4)C=C3)cc1)C1=Cc2cc(Cl)cc(Cl)c2O[C@@H]1C(F)(F)F
REMARK SMILES IDX 5 1 4 2 3 3 2 4 1 5 69 6 70 7 80 8 71 9 79 10 72 11 78 12
REMARK SMILES IDX 73 13 76 14 74 15 75 16 77 17 81 18 82 19 83 20 84 21 6 22
REMARK SMILES IDX 7 23 8 24 9 25 10 26 68 27 11 28 67 29 12 30 13 31 14 32
REMARK SMILES IDX 61 33 15 34 66 35 60 36 62 37 16 38 65 39 59 40 58 41 17 43
REMARK SMILES IDX 47 44 28 45 46 46 29 47 32 48 45 49 63 50 30 51 31 52 44 54
REMARK SMILES IDX 64 55 33 56 18 57 19 58 27 59 20 60 26 61 21 62 22 63 23 64
REMARK SMILES IDX 24 65 25 66 48 67 49 68 57 69 50 70 56 71 51 72 52 73 53 74
REMARK SMILES IDX 54 75 55 76 34 77 35 78 43 79 36 80 42 81 37 82 38 83 39 84
REMARK SMILES IDX 40 85 41 86
REMARK H PARENT 62 42 32 53
REMARK Flexibility Score: inf
ROOT
ATOM      1  C   UNL A   1      31.936  29.981  26.880  1.00  0.00     0.275 C 
ENDROOT
BRANCH   1   2
ATOM      2  C   UNL A   1      31.611  27.831  26.735  1.00  0.00     0.275 C 
BRANCH   2   3
ATOM      3  O   UNL A   1      32.701  26.756  26.485  1.00  0.00    -0.459 OA
BRANCH   3   4
ATOM      4  C   UNL A   1      32.208  25.524  26.318  1.00  0.00     0.338 C 
ATOM      5  O   UNL A   1      31.657  24.791  27.096  1.00  0.00    -0.246 OA
BRANCH   4   6
ATOM      6  C   UNL A   1      32.854  25.298  25.049  1.00  0.00     0.087 C 
ATOM      7  C   UNL A   1      34.325  25.257  25.198  1.00  0.00     0.027 C 
ATOM      8  C   UNL A   1      31.747  23.807  24.510  1.00  0.00     0.316 C 
ATOM      9  C   UNL A   1      35.292  23.730  25.064  1.00  0.00     0.020 A 
ATOM     10  O   UNL A   1      32.755  22.170  24.400  1.00  0.00    -0.474 OA
ATOM     11  C   UNL A   1      36.596  23.761  25.474  1.00  0.00     0.032 A 
ATOM     12  C   UNL A   1      34.547  22.187  24.750  1.00  0.00     0.146 A 
ATOM     13  C   UNL A   1      37.201  22.500  25.612  1.00  0.00     0.043 A 
ATOM     14  C   UNL A   1      35.233  21.014  24.902  1.00  0.00     0.085 A 
ATOM     15  Cl  UNL A   1      38.826  22.491  26.223  1.00  0.00    -0.084 Cl
ATOM     16  C   UNL A   1      36.568  21.213  25.344  1.00  0.00     0.045 A 
ATOM     17  Cl  UNL A   1      34.591  19.457  24.693  1.00  0.00    -0.080 Cl
BRANCH   8  18
ATOM     18  C   UNL A   1      30.819  24.564  23.496  1.00  0.00     0.430 C 
ATOM     19  F   UNL A   1      31.511  25.105  22.487  1.00  0.00    -0.167 F 
ATOM     20  F   UNL A   1      30.015  23.634  22.894  1.00  0.00    -0.167 F 
ATOM     21  F   UNL A   1      29.935  25.434  24.010  1.00  0.00    -0.167 F 
ENDBRANCH   8  18
ENDBRANCH   4   6
ENDBRANCH   3   4
ENDBRANCH   2   3
ENDBRANCH   1   2
BRANCH   1  22
ATOM     22  O   UNL A   1      33.441  30.748  27.005  1.00  0.00    -0.458 OA
BRANCH  22  23
ATOM     23  C   UNL A   1      34.132  31.708  27.692  1.00  0.00     0.338 C 
ATOM     24  O   UNL A   1      33.733  32.710  28.252  1.00  0.00    -0.246 OA
BRANCH  23  25
ATOM     25  C   UNL A   1      35.470  31.090  27.933  1.00  0.00     0.060 A 
ATOM     26  C   UNL A   1      36.597  31.922  28.029  1.00  0.00     0.016 A 
ATOM     27  C   UNL A   1      35.522  29.783  28.426  1.00  0.00     0.016 A 
ATOM     28  C   UNL A   1      37.707  31.504  28.782  1.00  0.00     0.010 A 
ATOM     29  C   UNL A   1      36.624  29.372  29.177  1.00  0.00     0.010 A 
ATOM     30  C   UNL A   1      37.708  30.242  29.399  1.00  0.00    -0.014 A 
BRANCH  30  31
ATOM     31  C   UNL A   1      38.961  29.692  29.975  1.00  0.00     0.031 A 
ATOM     32  C   UNL A   1      39.412  30.364  31.240  1.00  0.00     0.074 A 
ATOM     33  C   UNL A   1      39.693  28.704  29.418  1.00  0.00     0.049 A 
ATOM     34  N   UNL A   1      40.446  30.120  31.996  1.00  0.00    -0.248 NA
ATOM     35  C   UNL A   1      38.579  31.493  31.698  1.00  0.00     0.031 C 
ATOM     36  C   UNL A   1      39.381  27.984  28.181  1.00  0.00     0.029 A 
ATOM     37  N   UNL A   1      40.876  28.132  29.836  1.00  0.00    -0.354 N 
ATOM     38  C   UNL A   1      40.373  31.056  33.019  1.00  0.00     0.074 A 
ATOM     39  C   UNL A   1      39.253  31.921  32.746  1.00  0.00     0.031 C 
ATOM     40  C   UNL A   1      40.344  27.068  27.947  1.00  0.00     0.029 A 
ATOM     41  C   UNL A   1      41.346  27.131  29.010  1.00  0.00     0.049 A 
ATOM     42  H   UNL A   1      41.346  28.414  30.654  1.00  0.00     0.167 HD
ATOM     43  C   UNL A   1      41.148  31.170  34.118  1.00  0.00     0.031 A 
ATOM     44  C   UNL A   1      42.448  26.355  29.123  1.00  0.00     0.031 A 
ATOM     45  C   UNL A   1      42.284  30.338  34.368  1.00  0.00     0.049 A 
ATOM     46  C   UNL A   1      43.340  26.537  30.336  1.00  0.00     0.074 A 
ATOM     47  C   UNL A   1      43.149  30.361  35.444  1.00  0.00     0.029 A 
ATOM     48  N   UNL A   1      42.718  29.339  33.511  1.00  0.00    -0.354 N 
ATOM     49  N   UNL A   1      43.211  27.372  31.344  1.00  0.00    -0.248 NA
ATOM     50  C   UNL A   1      44.511  25.653  30.443  1.00  0.00     0.031 C 
ATOM     51  C   UNL A   1      44.140  29.403  35.212  1.00  0.00     0.029 A 
ATOM     52  C   UNL A   1      43.850  28.741  34.028  1.00  0.00     0.049 A 
ATOM     53  H   UNL A   1      42.285  29.092  32.663  1.00  0.00     0.167 HD
ATOM     54  C   UNL A   1      44.248  27.074  32.224  1.00  0.00     0.074 A 
ATOM     55  C   UNL A   1      44.994  25.983  31.633  1.00  0.00     0.031 C 
ATOM     56  C   UNL A   1      44.554  27.640  33.421  1.00  0.00     0.031 A 
BRANCH  43  57
ATOM     57  C   UNL A   1      40.773  32.256  35.085  1.00  0.00    -0.014 A 
ATOM     58  C   UNL A   1      41.330  33.545  34.973  1.00  0.00     0.010 A 
ATOM     59  C   UNL A   1      39.919  31.967  36.162  1.00  0.00     0.010 A 
ATOM     60  C   UNL A   1      41.091  34.507  35.954  1.00  0.00     0.020 A 
ATOM     61  C   UNL A   1      39.649  32.938  37.127  1.00  0.00     0.020 A 
ATOM     62  C   UNL A   1      40.254  34.194  37.029  1.00  0.00     0.054 A 
BRANCH  62  63
ATOM     63  S   UNL A   1      39.960  35.459  38.293  1.00  0.00     0.124 S 
ATOM     64  O   UNL A   1      41.210  35.428  39.048  1.00  0.00    -0.237 OA
ATOM     65  O   UNL A   1      39.739  36.662  37.493  1.00  0.00    -0.237 OA
ATOM     66  O   UNL A   1      38.786  34.966  39.009  1.00  0.00    -0.744 OA
ENDBRANCH  62  63
ENDBRANCH  43  57
BRANCH  44  67
ATOM     67  C   UNL A   1      42.776  25.301  28.108  1.00  0.00    -0.014 A 
ATOM     68  C   UNL A   1      42.184  24.024  28.181  1.00  0.00     0.010 A 
ATOM     69  C   UNL A   1      43.733  25.537  27.104  1.00  0.00     0.010 A 
ATOM     70  C   UNL A   1      42.561  23.003  27.298  1.00  0.00     0.020 A 
ATOM     71  C   UNL A   1      44.095  24.525  26.201  1.00  0.00     0.020 A 
ATOM     72  C   UNL A   1      43.517  23.259  26.312  1.00  0.00     0.054 A 
BRANCH  72  73
ATOM     73  S   UNL A   1      43.974  21.925  25.165  1.00  0.00     0.124 S 
ATOM     74  O   UNL A   1      43.766  22.553  23.865  1.00  0.00    -0.237 OA
ATOM     75  O   UNL A   1      45.365  21.662  25.524  1.00  0.00    -0.237 OA
ATOM     76  O   UNL A   1      43.039  20.852  25.498  1.00  0.00    -0.744 OA
ENDBRANCH  72  73
ENDBRANCH  44  67
BRANCH  56  77
ATOM     77  C   UNL A   1      45.689  27.046  34.211  1.00  0.00    -0.014 A 
ATOM     78  C   UNL A   1      46.996  27.557  34.130  1.00  0.00     0.010 A 
ATOM     79  C   UNL A   1      45.413  26.006  35.119  1.00  0.00     0.010 A 
ATOM     80  C   UNL A   1      48.014  27.013  34.918  1.00  0.00     0.020 A 
ATOM     81  C   UNL A   1      46.420  25.483  35.931  1.00  0.00     0.020 A 
ATOM     82  C   UNL A   1      47.718  25.979  35.813  1.00  0.00     0.054 A 
BRANCH  82  83
ATOM     83  S   UNL A   1      49.047  25.318  36.854  1.00  0.00     0.124 S 
ATOM     84  O   UNL A   1      50.199  25.394  35.960  1.00  0.00    -0.237 OA
ATOM     85  O   UNL A   1      49.064  26.244  37.982  1.00  0.00    -0.237 OA
ATOM     86  O   UNL A   1      48.596  23.964  37.174  1.00  0.00    -0.744 OA
ENDBRANCH  82  83
ENDBRANCH  56  77
ENDBRANCH  30  31
ENDBRANCH  23  25
ENDBRANCH  22  23
ENDBRANCH   1  22
TORSDOF 15
ENDMDL
