MODEL 1
REMARK VINA RESULT:     -11.6      0.000      0.000
REMARK SMILES O=C(OCCOC(=O)[C@@H]1[C@@H](C(=O)NCCn2cc(Cl)cn2)[C@H]2CC[C@@H]1O2)c1ccc(-c2c3nc(c(-c4ccc(S(=O)(=O)[O-])cc4)c4ccc([nH]4)c(-c4ccc(S(=O)(=O)[O-])cc4)c4nc(c(-c5ccc(S(=O)(=O)[O-])cc5)c5ccc2[nH]5)C=C4)C=C3)cc1
REMARK SMILES IDX 5 1 4 2 3 3 2 4 1 5 27 6 28 7 86 8 29 9 85 10 30 11 31 12
REMARK SMILES IDX 32 13 79 14 33 15 84 16 78 17 80 18 34 19 83 20 77 21 76 22
REMARK SMILES IDX 35 24 65 25 46 26 64 27 47 28 50 29 63 30 81 31 48 32 49 33
REMARK SMILES IDX 62 35 82 36 51 37 36 38 37 39 45 40 38 41 44 42 39 43 40 44
REMARK SMILES IDX 41 45 42 46 43 47 66 48 67 49 75 50 68 51 74 52 69 53 70 54
REMARK SMILES IDX 71 55 72 56 73 57 52 58 53 59 61 60 54 61 60 62 55 63 56 64
REMARK SMILES IDX 57 65 58 66 59 67 6 68 7 69 8 70 9 71 10 72 25 73 22 74
REMARK SMILES IDX 24 75 26 76 23 77 11 78 12 79 13 80 14 82 15 83 16 84 17 85
REMARK SMILES IDX 21 86 18 87 20 88 19 89
REMARK H PARENT 80 23 50 34 13 81
REMARK Flexibility Score: inf
ROOT
ATOM      1  C   UNL A   1      36.592  20.978  25.010  1.00  0.00     0.274 C 
ENDROOT
BRANCH   1   2
ATOM      2  C   UNL A   1      38.058  20.679  25.335  1.00  0.00     0.275 C 
BRANCH   2   3
ATOM      3  O   UNL A   1      38.935  21.794  25.578  1.00  0.00    -0.458 OA
BRANCH   3   4
ATOM      4  C   UNL A   1      39.902  21.651  26.506  1.00  0.00     0.338 C 
ATOM      5  O   UNL A   1      40.482  20.600  26.729  1.00  0.00    -0.246 OA
BRANCH   4   6
ATOM      6  C   UNL A   1      40.249  22.951  27.128  1.00  0.00     0.060 A 
ATOM      7  C   UNL A   1      41.389  23.118  27.933  1.00  0.00     0.016 A 
ATOM      8  C   UNL A   1      39.425  24.041  26.852  1.00  0.00     0.016 A 
ATOM      9  C   UNL A   1      41.699  24.364  28.465  1.00  0.00     0.010 A 
ATOM     10  C   UNL A   1      39.739  25.286  27.375  1.00  0.00     0.010 A 
ATOM     11  C   UNL A   1      40.857  25.440  28.206  1.00  0.00    -0.014 A 
BRANCH  11  12
ATOM     12  C   UNL A   1      41.140  26.733  28.826  1.00  0.00     0.031 A 
ATOM     13  C   UNL A   1      42.335  27.495  28.349  1.00  0.00     0.074 A 
ATOM     14  C   UNL A   1      40.203  27.330  29.587  1.00  0.00     0.049 A 
ATOM     15  N   UNL A   1      43.415  27.840  28.980  1.00  0.00    -0.248 NA
ATOM     16  C   UNL A   1      42.352  27.851  26.925  1.00  0.00     0.031 C 
ATOM     17  C   UNL A   1      38.835  26.873  29.854  1.00  0.00     0.029 A 
ATOM     18  N   UNL A   1      40.227  28.572  30.131  1.00  0.00    -0.354 N 
ATOM     19  C   UNL A   1      44.165  28.597  28.070  1.00  0.00     0.074 A 
ATOM     20  C   UNL A   1      43.576  28.356  26.780  1.00  0.00     0.031 C 
ATOM     21  C   UNL A   1      38.092  27.925  30.256  1.00  0.00     0.029 A 
ATOM     22  C   UNL A   1      38.967  29.072  30.425  1.00  0.00     0.049 A 
ATOM     23  H   UNL A   1      41.059  29.070  30.301  1.00  0.00     0.167 HD
ATOM     24  C   UNL A   1      45.052  29.572  28.439  1.00  0.00     0.031 A 
ATOM     25  C   UNL A   1      38.662  30.362  30.695  1.00  0.00     0.031 A 
ATOM     26  C   UNL A   1      45.340  29.536  29.846  1.00  0.00     0.049 A 
ATOM     27  C   UNL A   1      39.925  31.042  31.081  1.00  0.00     0.074 A 
ATOM     28  C   UNL A   1      45.891  28.618  30.717  1.00  0.00     0.029 A 
ATOM     29  N   UNL A   1      44.715  30.469  30.640  1.00  0.00    -0.354 N 
ATOM     30  N   UNL A   1      40.619  30.717  32.137  1.00  0.00    -0.248 NA
ATOM     31  C   UNL A   1      40.658  31.780  30.063  1.00  0.00     0.031 C 
ATOM     32  C   UNL A   1      45.131  28.761  31.917  1.00  0.00     0.029 A 
ATOM     33  C   UNL A   1      44.209  29.792  31.717  1.00  0.00     0.049 A 
ATOM     34  H   UNL A   1      44.644  31.437  30.468  1.00  0.00     0.167 HD
ATOM     35  C   UNL A   1      41.947  30.838  31.754  1.00  0.00     0.074 A 
ATOM     36  C   UNL A   1      41.907  31.601  30.506  1.00  0.00     0.031 C 
ATOM     37  C   UNL A   1      42.927  30.077  32.328  1.00  0.00     0.031 A 
BRANCH  24  38
ATOM     38  C   UNL A   1      45.368  30.810  27.611  1.00  0.00    -0.014 A 
ATOM     39  C   UNL A   1      46.702  31.040  27.203  1.00  0.00     0.010 A 
ATOM     40  C   UNL A   1      44.474  31.888  27.455  1.00  0.00     0.010 A 
ATOM     41  C   UNL A   1      47.130  32.304  26.769  1.00  0.00     0.020 A 
ATOM     42  C   UNL A   1      44.877  33.137  26.974  1.00  0.00     0.020 A 
ATOM     43  C   UNL A   1      46.215  33.352  26.683  1.00  0.00     0.054 A 
BRANCH  43  44
ATOM     44  S   UNL A   1      46.797  35.022  26.293  1.00  0.00     0.124 S 
ATOM     45  O   UNL A   1      47.606  35.335  27.467  1.00  0.00    -0.237 OA
ATOM     46  O   UNL A   1      47.536  34.812  25.051  1.00  0.00    -0.237 OA
ATOM     47  O   UNL A   1      45.563  35.791  26.158  1.00  0.00    -0.744 OA
ENDBRANCH  43  44
ENDBRANCH  24  38
BRANCH  25  48
ATOM     48  C   UNL A   1      37.430  31.071  30.281  1.00  0.00    -0.014 A 
ATOM     49  C   UNL A   1      36.614  31.726  31.216  1.00  0.00     0.010 A 
ATOM     50  C   UNL A   1      37.178  31.303  28.910  1.00  0.00     0.010 A 
ATOM     51  C   UNL A   1      35.604  32.610  30.795  1.00  0.00     0.020 A 
ATOM     52  C   UNL A   1      36.172  32.174  28.483  1.00  0.00     0.020 A 
ATOM     53  C   UNL A   1      35.401  32.840  29.431  1.00  0.00     0.054 A 
BRANCH  53  54
ATOM     54  S   UNL A   1      34.198  34.097  28.904  1.00  0.00     0.124 S 
ATOM     55  O   UNL A   1      33.412  33.376  27.909  1.00  0.00    -0.237 OA
ATOM     56  O   UNL A   1      33.506  34.413  30.150  1.00  0.00    -0.237 OA
ATOM     57  O   UNL A   1      35.034  35.173  28.373  1.00  0.00    -0.744 OA
ENDBRANCH  53  54
ENDBRANCH  25  48
BRANCH  37  58
ATOM     58  C   UNL A   1      42.574  29.230  33.533  1.00  0.00    -0.014 A 
ATOM     59  C   UNL A   1      41.888  28.002  33.426  1.00  0.00     0.010 A 
ATOM     60  C   UNL A   1      43.130  29.575  34.777  1.00  0.00     0.010 A 
ATOM     61  C   UNL A   1      41.755  27.150  34.531  1.00  0.00     0.020 A 
ATOM     62  C   UNL A   1      43.016  28.722  35.879  1.00  0.00     0.020 A 
ATOM     63  C   UNL A   1      42.326  27.514  35.752  1.00  0.00     0.054 A 
BRANCH  63  64
ATOM     64  S   UNL A   1      42.224  26.367  37.156  1.00  0.00     0.124 S 
ATOM     65  O   UNL A   1      43.270  26.862  38.047  1.00  0.00    -0.237 OA
ATOM     66  O   UNL A   1      40.854  26.554  37.629  1.00  0.00    -0.237 OA
ATOM     67  O   UNL A   1      42.489  25.060  36.557  1.00  0.00    -0.744 OA
ENDBRANCH  63  64
ENDBRANCH  37  58
ENDBRANCH  11  12
ENDBRANCH   4   6
ENDBRANCH   3   4
ENDBRANCH   2   3
ENDBRANCH   1   2
BRANCH   1  68
ATOM     68  O   UNL A   1      36.456  22.005  24.005  1.00  0.00    -0.462 OA
BRANCH  68  69
ATOM     69  C   UNL A   1      35.944  23.187  24.457  1.00  0.00     0.312 C 
ATOM     70  O   UNL A   1      36.620  24.074  24.967  1.00  0.00    -0.252 OA
BRANCH  69  71
ATOM     71  C   UNL A   1      34.433  23.277  24.398  1.00  0.00     0.143 C 
ATOM     72  C   UNL A   1      33.705  22.247  23.524  1.00  0.00     0.124 C 
ATOM     73  C   UNL A   1      34.034  24.603  23.733  1.00  0.00     0.133 C 
ATOM     74  C   UNL A   1      32.923  23.155  22.570  1.00  0.00     0.132 C 
ATOM     75  C   UNL A   1      32.581  24.965  24.056  1.00  0.00     0.036 C 
ATOM     76  O   UNL A   1      33.905  24.199  22.353  1.00  0.00    -0.373 OA
ATOM     77  C   UNL A   1      31.803  24.000  23.164  1.00  0.00     0.035 C 
BRANCH  72  78
ATOM     78  C   UNL A   1      32.836  21.329  24.357  1.00  0.00     0.226 C 
ATOM     79  O   UNL A   1      32.739  21.451  25.578  1.00  0.00    -0.275 OA
ATOM     80  N   UNL A   1      32.183  20.287  23.784  1.00  0.00    -0.354 N 
ATOM     81  H   UNL A   1      31.583  19.806  24.399  1.00  0.00     0.163 HD
BRANCH  80  82
ATOM     82  C   UNL A   1      32.201  19.743  22.432  1.00  0.00     0.139 C 
BRANCH  82  83
ATOM     83  C   UNL A   1      32.215  18.212  22.426  1.00  0.00     0.165 C 
BRANCH  83  84
ATOM     84  N   UNL A   1      32.882  17.608  23.568  1.00  0.00    -0.269 N 
ATOM     85  C   UNL A   1      34.108  17.002  23.567  1.00  0.00     0.129 A 
ATOM     86  N   UNL A   1      32.267  17.557  24.766  1.00  0.00    -0.180 NA
ATOM     87  C   UNL A   1      34.308  16.556  24.851  1.00  0.00     0.079 A 
ATOM     88  C   UNL A   1      33.151  16.932  25.551  1.00  0.00     0.155 A 
ATOM     89  Cl  UNL A   1      35.642  15.727  25.476  1.00  0.00    -0.081 Cl
ENDBRANCH  83  84
ENDBRANCH  82  83
ENDBRANCH  80  82
ENDBRANCH  72  78
ENDBRANCH  69  71
ENDBRANCH  68  69
ENDBRANCH   1  68
TORSDOF 18
ENDMDL
MODEL 2
REMARK VINA RESULT:     -11.3      4.327      9.922
REMARK SMILES O=C(OCCOC(=O)[C@@H]1[C@@H](C(=O)NCCn2cc(Cl)cn2)[C@H]2CC[C@@H]1O2)c1ccc(-c2c3nc(c(-c4ccc(S(=O)(=O)[O-])cc4)c4ccc([nH]4)c(-c4ccc(S(=O)(=O)[O-])cc4)c4nc(c(-c5ccc(S(=O)(=O)[O-])cc5)c5ccc2[nH]5)C=C4)C=C3)cc1
REMARK SMILES IDX 5 1 4 2 3 3 2 4 1 5 27 6 28 7 86 8 29 9 85 10 30 11 31 12
REMARK SMILES IDX 32 13 79 14 33 15 84 16 78 17 80 18 34 19 83 20 77 21 76 22
REMARK SMILES IDX 35 24 65 25 46 26 64 27 47 28 50 29 63 30 81 31 48 32 49 33
REMARK SMILES IDX 62 35 82 36 51 37 36 38 37 39 45 40 38 41 44 42 39 43 40 44
REMARK SMILES IDX 41 45 42 46 43 47 66 48 67 49 75 50 68 51 74 52 69 53 70 54
REMARK SMILES IDX 71 55 72 56 73 57 52 58 53 59 61 60 54 61 60 62 55 63 56 64
REMARK SMILES IDX 57 65 58 66 59 67 6 68 7 69 8 70 9 71 10 72 25 73 22 74
REMARK SMILES IDX 24 75 26 76 23 77 11 78 12 79 13 80 14 82 15 83 16 84 17 85
REMARK SMILES IDX 21 86 18 87 20 88 19 89
REMARK H PARENT 80 23 50 34 13 81
REMARK Flexibility Score: inf
ROOT
ATOM      1  C   UNL A   1      31.821  28.528  27.466  1.00  0.00     0.274 C 
ENDROOT
BRANCH   1   2
ATOM      2  C   UNL A   1      32.416  29.853  26.984  1.00  0.00     0.275 C 
BRANCH   2   3
ATOM      3  O   UNL A   1      33.849  29.960  26.911  1.00  0.00    -0.458 OA
BRANCH   3   4
ATOM      4  C   UNL A   1      34.456  30.891  27.675  1.00  0.00     0.338 C 
ATOM      5  O   UNL A   1      33.895  31.879  28.119  1.00  0.00    -0.246 OA
BRANCH   4   6
ATOM      6  C   UNL A   1      35.848  30.499  28.000  1.00  0.00     0.060 A 
ATOM      7  C   UNL A   1      36.329  29.195  27.792  1.00  0.00     0.016 A 
ATOM      8  C   UNL A   1      36.704  31.488  28.483  1.00  0.00     0.016 A 
ATOM      9  C   UNL A   1      37.653  28.880  28.074  1.00  0.00     0.010 A 
ATOM     10  C   UNL A   1      38.026  31.177  28.756  1.00  0.00     0.010 A 
ATOM     11  C   UNL A   1      38.493  29.866  28.581  1.00  0.00    -0.014 A 
BRANCH  11  12
ATOM     12  C   UNL A   1      39.863  29.518  28.948  1.00  0.00     0.031 A 
ATOM     13  C   UNL A   1      40.194  29.400  30.401  1.00  0.00     0.074 A 
ATOM     14  C   UNL A   1      40.709  29.049  28.011  1.00  0.00     0.049 A 
ATOM     15  N   UNL A   1      41.007  30.096  31.134  1.00  0.00    -0.248 NA
ATOM     16  C   UNL A   1      39.433  28.401  31.161  1.00  0.00     0.031 C 
ATOM     17  C   UNL A   1      40.421  28.763  26.600  1.00  0.00     0.029 A 
ATOM     18  N   UNL A   1      41.960  28.555  28.177  1.00  0.00    -0.354 N 
ATOM     19  C   UNL A   1      40.976  29.508  32.406  1.00  0.00     0.074 A 
ATOM     20  C   UNL A   1      39.824  28.646  32.411  1.00  0.00     0.031 C 
ATOM     21  C   UNL A   1      41.350  27.906  26.129  1.00  0.00     0.029 A 
ATOM     22  C   UNL A   1      42.370  27.722  27.147  1.00  0.00     0.049 A 
ATOM     23  H   UNL A   1      42.524  28.768  28.955  1.00  0.00     0.167 HD
ATOM     24  C   UNL A   1      42.019  29.551  33.291  1.00  0.00     0.031 A 
ATOM     25  C   UNL A   1      43.422  26.872  27.176  1.00  0.00     0.031 A 
ATOM     26  C   UNL A   1      43.026  30.496  32.895  1.00  0.00     0.049 A 
ATOM     27  C   UNL A   1      44.316  27.314  28.276  1.00  0.00     0.074 A 
ATOM     28  C   UNL A   1      43.071  31.858  32.681  1.00  0.00     0.029 A 
ATOM     29  N   UNL A   1      44.165  29.993  32.309  1.00  0.00    -0.354 N 
ATOM     30  N   UNL A   1      44.920  28.472  28.286  1.00  0.00    -0.248 NA
ATOM     31  C   UNL A   1      44.192  26.672  29.575  1.00  0.00     0.031 C 
ATOM     32  C   UNL A   1      43.932  32.017  31.554  1.00  0.00     0.029 A 
ATOM     33  C   UNL A   1      44.399  30.751  31.193  1.00  0.00     0.049 A 
ATOM     34  H   UNL A   1      44.707  29.235  32.630  1.00  0.00     0.167 HD
ATOM     35  C   UNL A   1      44.888  28.890  29.608  1.00  0.00     0.074 A 
ATOM     36  C   UNL A   1      44.528  27.694  30.369  1.00  0.00     0.031 C 
ATOM     37  C   UNL A   1      44.881  30.218  29.935  1.00  0.00     0.031 A 
BRANCH  24  38
ATOM     38  C   UNL A   1      42.329  28.466  34.313  1.00  0.00    -0.014 A 
ATOM     39  C   UNL A   1      42.120  28.737  35.685  1.00  0.00     0.010 A 
ATOM     40  C   UNL A   1      43.069  27.305  34.012  1.00  0.00     0.010 A 
ATOM     41  C   UNL A   1      42.711  27.950  36.687  1.00  0.00     0.020 A 
ATOM     42  C   UNL A   1      43.618  26.485  35.001  1.00  0.00     0.020 A 
ATOM     43  C   UNL A   1      43.478  26.842  36.334  1.00  0.00     0.054 A 
BRANCH  43  44
ATOM     44  S   UNL A   1      44.382  25.932  37.612  1.00  0.00     0.124 S 
ATOM     45  O   UNL A   1      43.804  26.485  38.833  1.00  0.00    -0.237 OA
ATOM     46  O   UNL A   1      44.032  24.547  37.315  1.00  0.00    -0.237 OA
ATOM     47  O   UNL A   1      45.777  26.287  37.362  1.00  0.00    -0.744 OA
ENDBRANCH  43  44
ENDBRANCH  24  38
BRANCH  25  48
ATOM     48  C   UNL A   1      43.477  25.532  26.549  1.00  0.00    -0.014 A 
ATOM     49  C   UNL A   1      43.968  25.353  25.246  1.00  0.00     0.010 A 
ATOM     50  C   UNL A   1      43.257  24.378  27.335  1.00  0.00     0.010 A 
ATOM     51  C   UNL A   1      44.264  24.066  24.760  1.00  0.00     0.020 A 
ATOM     52  C   UNL A   1      43.541  23.096  26.856  1.00  0.00     0.020 A 
ATOM     53  C   UNL A   1      44.062  22.948  25.575  1.00  0.00     0.054 A 
BRANCH  53  54
ATOM     54  S   UNL A   1      44.590  21.309  24.991  1.00  0.00     0.124 S 
ATOM     55  O   UNL A   1      45.896  21.160  25.625  1.00  0.00    -0.237 OA
ATOM     56  O   UNL A   1      43.535  20.438  25.501  1.00  0.00    -0.237 OA
ATOM     57  O   UNL A   1      44.620  21.454  23.536  1.00  0.00    -0.744 OA
ENDBRANCH  53  54
ENDBRANCH  25  48
BRANCH  37  58
ATOM     58  C   UNL A   1      45.106  31.236  28.837  1.00  0.00    -0.014 A 
ATOM     59  C   UNL A   1      44.129  31.535  27.864  1.00  0.00     0.010 A 
ATOM     60  C   UNL A   1      46.243  32.058  28.913  1.00  0.00     0.010 A 
ATOM     61  C   UNL A   1      44.289  32.619  26.990  1.00  0.00     0.020 A 
ATOM     62  C   UNL A   1      46.401  33.151  28.055  1.00  0.00     0.020 A 
ATOM     63  C   UNL A   1      45.424  33.425  27.095  1.00  0.00     0.054 A 
BRANCH  63  64
ATOM     64  S   UNL A   1      45.584  34.876  26.016  1.00  0.00     0.124 S 
ATOM     65  O   UNL A   1      46.764  34.552  25.219  1.00  0.00    -0.237 OA
ATOM     66  O   UNL A   1      44.316  34.882  25.288  1.00  0.00    -0.237 OA
ATOM     67  O   UNL A   1      45.754  35.988  26.950  1.00  0.00    -0.744 OA
ENDBRANCH  63  64
ENDBRANCH  37  58
ENDBRANCH  11  12
ENDBRANCH   4   6
ENDBRANCH   3   4
ENDBRANCH   2   3
ENDBRANCH   1   2
BRANCH   1  68
ATOM     68  O   UNL A   1      32.635  27.397  27.092  1.00  0.00    -0.462 OA
BRANCH  68  69
ATOM     69  C   UNL A   1      31.987  26.435  26.372  1.00  0.00     0.312 C 
ATOM     70  O   UNL A   1      31.364  25.506  26.877  1.00  0.00    -0.252 OA
BRANCH  69  71
ATOM     71  C   UNL A   1      32.198  26.526  24.875  1.00  0.00     0.143 C 
ATOM     72  C   UNL A   1      30.942  26.566  23.993  1.00  0.00     0.124 C 
ATOM     73  C   UNL A   1      32.894  25.248  24.386  1.00  0.00     0.133 C 
ATOM     74  C   UNL A   1      31.179  25.365  23.072  1.00  0.00     0.132 C 
ATOM     75  C   UNL A   1      33.543  25.464  23.016  1.00  0.00     0.036 C 
ATOM     76  O   UNL A   1      31.761  24.432  24.016  1.00  0.00    -0.373 OA
ATOM     77  C   UNL A   1      32.334  25.456  22.082  1.00  0.00     0.035 C 
BRANCH  72  78
ATOM     78  C   UNL A   1      30.816  27.888  23.268  1.00  0.00     0.226 C 
ATOM     79  O   UNL A   1      31.792  28.601  23.033  1.00  0.00    -0.275 OA
ATOM     80  N   UNL A   1      29.598  28.367  22.909  1.00  0.00    -0.354 N 
ATOM     81  H   UNL A   1      29.636  29.191  22.372  1.00  0.00     0.163 HD
BRANCH  80  82
ATOM     82  C   UNL A   1      28.244  27.894  23.170  1.00  0.00     0.139 C 
BRANCH  82  83
ATOM     83  C   UNL A   1      27.216  29.028  23.113  1.00  0.00     0.165 C 
BRANCH  83  84
ATOM     84  N   UNL A   1      27.761  30.321  22.729  1.00  0.00    -0.269 N 
ATOM     85  C   UNL A   1      28.062  31.359  23.567  1.00  0.00     0.129 A 
ATOM     86  N   UNL A   1      27.965  30.614  21.429  1.00  0.00    -0.180 NA
ATOM     87  C   UNL A   1      28.515  32.374  22.761  1.00  0.00     0.079 A 
ATOM     88  C   UNL A   1      28.444  31.862  21.456  1.00  0.00     0.155 A 
ATOM     89  Cl  UNL A   1      29.038  33.917  23.212  1.00  0.00    -0.081 Cl
ENDBRANCH  83  84
ENDBRANCH  82  83
ENDBRANCH  80  82
ENDBRANCH  72  78
ENDBRANCH  69  71
ENDBRANCH  68  69
ENDBRANCH   1  68
TORSDOF 18
ENDMDL
MODEL 3
REMARK VINA RESULT:     -11.3      3.111      9.029
REMARK SMILES O=C(OCCOC(=O)[C@@H]1[C@@H](C(=O)NCCn2cc(Cl)cn2)[C@H]2CC[C@@H]1O2)c1ccc(-c2c3nc(c(-c4ccc(S(=O)(=O)[O-])cc4)c4ccc([nH]4)c(-c4ccc(S(=O)(=O)[O-])cc4)c4nc(c(-c5ccc(S(=O)(=O)[O-])cc5)c5ccc2[nH]5)C=C4)C=C3)cc1
REMARK SMILES IDX 5 1 4 2 3 3 2 4 1 5 27 6 28 7 86 8 29 9 85 10 30 11 31 12
REMARK SMILES IDX 32 13 79 14 33 15 84 16 78 17 80 18 34 19 83 20 77 21 76 22
REMARK SMILES IDX 35 24 65 25 46 26 64 27 47 28 50 29 63 30 81 31 48 32 49 33
REMARK SMILES IDX 62 35 82 36 51 37 36 38 37 39 45 40 38 41 44 42 39 43 40 44
REMARK SMILES IDX 41 45 42 46 43 47 66 48 67 49 75 50 68 51 74 52 69 53 70 54
REMARK SMILES IDX 71 55 72 56 73 57 52 58 53 59 61 60 54 61 60 62 55 63 56 64
REMARK SMILES IDX 57 65 58 66 59 67 6 68 7 69 8 70 9 71 10 72 25 73 22 74
REMARK SMILES IDX 24 75 26 76 23 77 11 78 12 79 13 80 14 82 15 83 16 84 17 85
REMARK SMILES IDX 21 86 18 87 20 88 19 89
REMARK H PARENT 80 23 50 34 13 81
REMARK Flexibility Score: inf
ROOT
ATOM      1  C   UNL A   1      32.138  28.233  27.027  1.00  0.00     0.274 C 
ENDROOT
BRANCH   1   2
ATOM      2  C   UNL A   1      32.595  29.607  26.531  1.00  0.00     0.275 C 
BRANCH   2   3
ATOM      3  O   UNL A   1      33.998  29.918  26.609  1.00  0.00    -0.458 OA
BRANCH   3   4
ATOM      4  C   UNL A   1      34.408  30.762  27.578  1.00  0.00     0.338 C 
ATOM      5  O   UNL A   1      33.684  31.584  28.117  1.00  0.00    -0.246 OA
BRANCH   4   6
ATOM      6  C   UNL A   1      35.806  30.481  27.982  1.00  0.00     0.060 A 
ATOM      7  C   UNL A   1      36.690  31.496  28.384  1.00  0.00     0.016 A 
ATOM      8  C   UNL A   1      36.219  29.149  28.001  1.00  0.00     0.016 A 
ATOM      9  C   UNL A   1      37.981  31.184  28.794  1.00  0.00     0.010 A 
ATOM     10  C   UNL A   1      37.504  28.836  28.418  1.00  0.00     0.010 A 
ATOM     11  C   UNL A   1      38.394  29.856  28.784  1.00  0.00    -0.014 A 
BRANCH  11  12
ATOM     12  C   UNL A   1      39.773  29.533  29.142  1.00  0.00     0.031 A 
ATOM     13  C   UNL A   1      40.092  29.312  30.586  1.00  0.00     0.074 A 
ATOM     14  C   UNL A   1      40.648  29.174  28.183  1.00  0.00     0.049 A 
ATOM     15  N   UNL A   1      40.868  29.979  31.384  1.00  0.00    -0.248 NA
ATOM     16  C   UNL A   1      39.363  28.226  31.253  1.00  0.00     0.031 C 
ATOM     17  C   UNL A   1      40.388  28.991  26.751  1.00  0.00     0.029 A 
ATOM     18  N   UNL A   1      41.916  28.718  28.329  1.00  0.00    -0.354 N 
ATOM     19  C   UNL A   1      40.845  29.290  32.605  1.00  0.00     0.074 A 
ATOM     20  C   UNL A   1      39.728  28.386  32.524  1.00  0.00     0.031 C 
ATOM     21  C   UNL A   1      41.356  28.212  26.226  1.00  0.00     0.029 A 
ATOM     22  C   UNL A   1      42.370  27.987  27.241  1.00  0.00     0.049 A 
ATOM     23  H   UNL A   1      42.462  28.890  29.129  1.00  0.00     0.167 HD
ATOM     24  C   UNL A   1      41.875  29.302  33.506  1.00  0.00     0.031 A 
ATOM     25  C   UNL A   1      43.455  27.179  27.218  1.00  0.00     0.031 A 
ATOM     26  C   UNL A   1      42.848  30.315  33.201  1.00  0.00     0.049 A 
ATOM     27  C   UNL A   1      44.318  27.566  28.363  1.00  0.00     0.074 A 
ATOM     28  C   UNL A   1      42.841  31.690  33.097  1.00  0.00     0.029 A 
ATOM     29  N   UNL A   1      44.013  29.905  32.594  1.00  0.00    -0.354 N 
ATOM     30  N   UNL A   1      44.876  28.741  28.474  1.00  0.00    -0.248 NA
ATOM     31  C   UNL A   1      44.205  26.817  29.605  1.00  0.00     0.031 C 
ATOM     32  C   UNL A   1      43.708  31.972  31.999  1.00  0.00     0.029 A 
ATOM     33  C   UNL A   1      44.230  30.758  31.546  1.00  0.00     0.049 A 
ATOM     34  H   UNL A   1      44.581  29.145  32.862  1.00  0.00     0.167 HD
ATOM     35  C   UNL A   1      44.811  29.051  29.825  1.00  0.00     0.074 A 
ATOM     36  C   UNL A   1      44.490  27.784  30.483  1.00  0.00     0.031 C 
ATOM     37  C   UNL A   1      44.747  30.347  30.257  1.00  0.00     0.031 A 
BRANCH  24  38
ATOM     38  C   UNL A   1      42.217  28.151  34.442  1.00  0.00    -0.014 A 
ATOM     39  C   UNL A   1      42.511  28.434  35.796  1.00  0.00     0.010 A 
ATOM     40  C   UNL A   1      42.530  26.853  33.994  1.00  0.00     0.010 A 
ATOM     41  C   UNL A   1      43.175  27.505  36.613  1.00  0.00     0.020 A 
ATOM     42  C   UNL A   1      43.144  25.901  34.813  1.00  0.00     0.020 A 
ATOM     43  C   UNL A   1      43.510  26.252  36.104  1.00  0.00     0.054 A 
BRANCH  43  44
ATOM     44  S   UNL A   1      44.519  25.121  37.095  1.00  0.00     0.124 S 
ATOM     45  O   UNL A   1      45.854  25.685  36.920  1.00  0.00    -0.237 OA
ATOM     46  O   UNL A   1      43.937  25.269  38.426  1.00  0.00    -0.237 OA
ATOM     47  O   UNL A   1      44.298  23.823  36.463  1.00  0.00    -0.744 OA
ENDBRANCH  43  44
ENDBRANCH  24  38
BRANCH  25  48
ATOM     48  C   UNL A   1      43.571  25.896  26.487  1.00  0.00    -0.014 A 
ATOM     49  C   UNL A   1      44.447  25.750  25.400  1.00  0.00     0.010 A 
ATOM     50  C   UNL A   1      42.979  24.728  27.018  1.00  0.00     0.010 A 
ATOM     51  C   UNL A   1      44.746  24.476  24.885  1.00  0.00     0.020 A 
ATOM     52  C   UNL A   1      43.267  23.459  26.507  1.00  0.00     0.020 A 
ATOM     53  C   UNL A   1      44.166  23.338  25.452  1.00  0.00     0.054 A 
BRANCH  53  54
ATOM     54  S   UNL A   1      44.678  21.691  24.878  1.00  0.00     0.124 S 
ATOM     55  O   UNL A   1      44.757  21.877  23.433  1.00  0.00    -0.237 OA
ATOM     56  O   UNL A   1      45.954  21.501  25.563  1.00  0.00    -0.237 OA
ATOM     57  O   UNL A   1      43.598  20.816  25.333  1.00  0.00    -0.744 OA
ENDBRANCH  53  54
ENDBRANCH  25  48
BRANCH  37  58
ATOM     58  C   UNL A   1      44.943  31.458  29.246  1.00  0.00    -0.014 A 
ATOM     59  C   UNL A   1      46.207  32.015  28.962  1.00  0.00     0.010 A 
ATOM     60  C   UNL A   1      43.863  31.801  28.415  1.00  0.00     0.010 A 
ATOM     61  C   UNL A   1      46.384  32.894  27.884  1.00  0.00     0.020 A 
ATOM     62  C   UNL A   1      44.035  32.664  27.328  1.00  0.00     0.020 A 
ATOM     63  C   UNL A   1      45.295  33.209  27.069  1.00  0.00     0.054 A 
BRANCH  63  64
ATOM     64  S   UNL A   1      45.549  34.280  25.626  1.00  0.00     0.124 S 
ATOM     65  O   UNL A   1      45.015  35.560  26.082  1.00  0.00    -0.237 OA
ATOM     66  O   UNL A   1      46.997  34.234  25.437  1.00  0.00    -0.237 OA
ATOM     67  O   UNL A   1      44.776  33.629  24.569  1.00  0.00    -0.744 OA
ENDBRANCH  63  64
ENDBRANCH  37  58
ENDBRANCH  11  12
ENDBRANCH   4   6
ENDBRANCH   3   4
ENDBRANCH   2   3
ENDBRANCH   1   2
BRANCH   1  68
ATOM     68  O   UNL A   1      32.827  27.156  26.358  1.00  0.00    -0.462 OA
BRANCH  68  69
ATOM     69  C   UNL A   1      32.062  26.055  26.103  1.00  0.00     0.312 C 
ATOM     70  O   UNL A   1      31.406  25.465  26.956  1.00  0.00    -0.252 OA
BRANCH  69  71
ATOM     71  C   UNL A   1      32.178  25.527  24.688  1.00  0.00     0.143 C 
ATOM     72  C   UNL A   1      33.561  25.035  24.238  1.00  0.00     0.124 C 
ATOM     73  C   UNL A   1      31.906  26.671  23.700  1.00  0.00     0.133 C 
ATOM     74  C   UNL A   1      33.806  25.904  23.000  1.00  0.00     0.132 C 
ATOM     75  C   UNL A   1      31.552  26.127  22.313  1.00  0.00     0.036 C 
ATOM     76  O   UNL A   1      33.243  27.160  23.458  1.00  0.00    -0.373 OA
ATOM     77  C   UNL A   1      32.912  25.670  21.789  1.00  0.00     0.035 C 
BRANCH  72  78
ATOM     78  C   UNL A   1      33.556  23.547  23.958  1.00  0.00     0.226 C 
ATOM     79  O   UNL A   1      32.513  22.895  23.909  1.00  0.00    -0.275 OA
ATOM     80  N   UNL A   1      34.720  22.865  23.818  1.00  0.00    -0.354 N 
ATOM     81  H   UNL A   1      34.602  21.923  23.558  1.00  0.00     0.163 HD
BRANCH  80  82
ATOM     82  C   UNL A   1      36.113  23.262  23.982  1.00  0.00     0.139 C 
BRANCH  82  83
ATOM     83  C   UNL A   1      36.923  22.217  24.755  1.00  0.00     0.165 C 
BRANCH  83  84
ATOM     84  N   UNL A   1      37.884  22.769  25.696  1.00  0.00    -0.269 N 
ATOM     85  C   UNL A   1      37.884  24.037  26.210  1.00  0.00     0.129 A 
ATOM     86  N   UNL A   1      38.936  22.033  26.107  1.00  0.00    -0.180 NA
ATOM     87  C   UNL A   1      38.988  24.114  27.023  1.00  0.00     0.079 A 
ATOM     88  C   UNL A   1      39.595  22.852  26.932  1.00  0.00     0.155 A 
ATOM     89  Cl  UNL A   1      39.528  25.430  27.936  1.00  0.00    -0.081 Cl
ENDBRANCH  83  84
ENDBRANCH  82  83
ENDBRANCH  80  82
ENDBRANCH  72  78
ENDBRANCH  69  71
ENDBRANCH  68  69
ENDBRANCH   1  68
TORSDOF 18
ENDMDL
