MODEL 1
REMARK VINA RESULT:     -10.5      0.000      0.000
REMARK SMILES CC(C)(C)OC(=O)N1C[C@H](Oc2ccncc2)C[C@H]1C(=O)OCCOC(=O)c1ccc(-c2c3nc(c(-c4ccc(S(=O)(=O)[O-])cc4)c4ccc([nH]4)c(-c4ccc(S(=O)(=O)[O-])cc4)c4nc(c(-c5ccc(S(=O)(=O)[O-])cc5)c5ccc2[nH]5)C=C4)C=C3)cc1
REMARK SMILES IDX 23 1 22 2 20 3 21 4 19 5 8 6 9 7 10 8 18 9 6 10 7 11 5 12
REMARK SMILES IDX 2 13 1 14 3 15 4 16 11 17 12 18 13 19 17 20 14 21 16 22
REMARK SMILES IDX 15 23 24 24 25 25 26 26 27 27 28 28 29 29 87 30 30 31 86 32
REMARK SMILES IDX 31 33 32 34 33 35 80 36 34 37 85 38 79 39 81 40 35 41 84 42
REMARK SMILES IDX 78 43 77 44 36 46 66 47 47 48 65 49 48 50 51 51 64 52 82 53
REMARK SMILES IDX 49 54 50 55 63 57 83 58 52 59 37 60 38 61 46 62 39 63 45 64
REMARK SMILES IDX 40 65 41 66 42 67 43 68 44 69 67 70 68 71 76 72 69 73 75 74
REMARK SMILES IDX 70 75 71 76 72 77 73 78 74 79 53 80 54 81 62 82 55 83 61 84
REMARK SMILES IDX 56 85 57 86 58 87 59 88 60 89
REMARK H PARENT 81 45 51 56
REMARK Flexibility Score: inf
ROOT
ATOM      1  C   UNL A   1      36.764  23.323  26.117  1.00  0.00     0.274 C 
ENDROOT
BRANCH   1   2
ATOM      2  O   UNL A   1      36.054  24.133  25.165  1.00  0.00    -0.461 OA
BRANCH   2   3
ATOM      3  C   UNL A   1      35.260  23.507  24.258  1.00  0.00     0.329 C 
ATOM      4  O   UNL A   1      35.291  23.691  23.048  1.00  0.00    -0.250 OA
BRANCH   3   5
ATOM      5  C   UNL A   1      34.271  22.575  24.975  1.00  0.00     0.202 C 
ATOM      6  N   UNL A   1      32.899  22.998  24.747  1.00  0.00    -0.291 N 
ATOM      7  C   UNL A   1      32.219  22.130  23.808  1.00  0.00     0.169 C 
ATOM      8  C   UNL A   1      32.923  20.787  23.959  1.00  0.00     0.195 C 
ATOM      9  C   UNL A   1      34.344  21.137  24.417  1.00  0.00     0.084 C 
BRANCH   6  10
ATOM     10  C   UNL A   1      32.351  24.014  25.485  1.00  0.00     0.411 C 
ATOM     11  O   UNL A   1      31.730  23.839  26.516  1.00  0.00    -0.224 OA
BRANCH  10  12
ATOM     12  O   UNL A   1      32.542  25.217  24.889  1.00  0.00    -0.444 OA
BRANCH  12  13
ATOM     13  C   UNL A   1      31.419  26.020  24.450  1.00  0.00     0.106 C 
ATOM     14  C   UNL A   1      31.974  26.833  23.270  1.00  0.00     0.056 C 
ATOM     15  C   UNL A   1      31.015  26.967  25.579  1.00  0.00     0.056 C 
ATOM     16  C   UNL A   1      30.221  25.203  23.942  1.00  0.00     0.056 C 
ENDBRANCH  12  13
ENDBRANCH  10  12
ENDBRANCH   6  10
BRANCH   8  17
ATOM     17  O   UNL A   1      32.237  19.818  24.777  1.00  0.00    -0.488 OA
BRANCH  17  18
ATOM     18  C   UNL A   1      32.604  18.509  24.659  1.00  0.00     0.122 A 
ATOM     19  C   UNL A   1      33.073  18.010  23.453  1.00  0.00     0.066 A 
ATOM     20  C   UNL A   1      32.666  17.718  25.799  1.00  0.00     0.066 A 
ATOM     21  C   UNL A   1      33.505  16.696  23.418  1.00  0.00     0.115 A 
ATOM     22  C   UNL A   1      33.120  16.417  25.665  1.00  0.00     0.115 A 
ATOM     23  N   UNL A   1      33.529  15.882  24.494  1.00  0.00    -0.264 NA
ENDBRANCH  17  18
ENDBRANCH   8  17
ENDBRANCH   3   5
ENDBRANCH   2   3
ENDBRANCH   1   2
BRANCH   1  24
ATOM     24  C   UNL A   1      38.244  23.708  26.074  1.00  0.00     0.275 C 
BRANCH  24  25
ATOM     25  O   UNL A   1      38.586  24.505  27.226  1.00  0.00    -0.458 OA
BRANCH  25  26
ATOM     26  C   UNL A   1      39.613  25.370  27.038  1.00  0.00     0.338 C 
ATOM     27  O   UNL A   1      40.303  25.503  26.043  1.00  0.00    -0.246 OA
BRANCH  26  28
ATOM     28  C   UNL A   1      39.658  26.313  28.165  1.00  0.00     0.060 A 
ATOM     29  C   UNL A   1      40.559  27.373  28.069  1.00  0.00     0.016 A 
ATOM     30  C   UNL A   1      38.885  26.142  29.309  1.00  0.00     0.016 A 
ATOM     31  C   UNL A   1      40.687  28.291  29.106  1.00  0.00     0.010 A 
ATOM     32  C   UNL A   1      39.017  27.058  30.359  1.00  0.00     0.010 A 
ATOM     33  C   UNL A   1      39.918  28.137  30.264  1.00  0.00    -0.014 A 
BRANCH  33  34
ATOM     34  C   UNL A   1      40.077  29.090  31.387  1.00  0.00     0.031 A 
ATOM     35  C   UNL A   1      41.218  28.935  32.346  1.00  0.00     0.074 A 
ATOM     36  C   UNL A   1      39.196  30.095  31.542  1.00  0.00     0.049 A 
ATOM     37  N   UNL A   1      41.460  29.588  33.452  1.00  0.00    -0.248 NA
ATOM     38  C   UNL A   1      42.220  27.911  32.012  1.00  0.00     0.031 C 
ATOM     39  C   UNL A   1      38.081  30.388  30.640  1.00  0.00     0.029 A 
ATOM     40  N   UNL A   1      39.091  31.046  32.525  1.00  0.00    -0.354 N 
ATOM     41  C   UNL A   1      42.626  29.035  33.968  1.00  0.00     0.074 A 
ATOM     42  C   UNL A   1      43.039  27.992  33.052  1.00  0.00     0.031 C 
ATOM     43  C   UNL A   1      37.395  31.437  31.120  1.00  0.00     0.029 A 
ATOM     44  C   UNL A   1      37.986  31.851  32.391  1.00  0.00     0.049 A 
ATOM     45  H   UNL A   1      39.745  31.144  33.254  1.00  0.00     0.167 HD
ATOM     46  C   UNL A   1      43.283  29.362  35.106  1.00  0.00     0.031 A 
ATOM     47  C   UNL A   1      37.470  32.778  33.221  1.00  0.00     0.031 A 
ATOM     48  C   UNL A   1      42.856  30.390  36.019  1.00  0.00     0.049 A 
ATOM     49  C   UNL A   1      38.158  33.061  34.526  1.00  0.00     0.074 A 
ATOM     50  C   UNL A   1      43.462  30.811  37.189  1.00  0.00     0.029 A 
ATOM     51  N   UNL A   1      41.701  31.146  35.874  1.00  0.00    -0.354 N 
ATOM     52  N   UNL A   1      39.264  32.538  35.001  1.00  0.00    -0.248 NA
ATOM     53  C   UNL A   1      37.524  34.045  35.414  1.00  0.00     0.031 C 
ATOM     54  C   UNL A   1      42.642  31.777  37.782  1.00  0.00     0.029 A 
ATOM     55  C   UNL A   1      41.552  31.998  36.955  1.00  0.00     0.049 A 
ATOM     56  H   UNL A   1      41.078  31.084  35.113  1.00  0.00     0.167 HD
ATOM     57  C   UNL A   1      39.458  33.126  36.245  1.00  0.00     0.074 A 
ATOM     58  C   UNL A   1      38.367  34.061  36.439  1.00  0.00     0.031 C 
ATOM     59  C   UNL A   1      40.446  32.905  37.146  1.00  0.00     0.031 A 
BRANCH  46  60
ATOM     60  C   UNL A   1      44.495  28.540  35.456  1.00  0.00    -0.014 A 
ATOM     61  C   UNL A   1      44.400  27.397  36.268  1.00  0.00     0.010 A 
ATOM     62  C   UNL A   1      45.757  28.936  34.976  1.00  0.00     0.010 A 
ATOM     63  C   UNL A   1      45.552  26.702  36.647  1.00  0.00     0.020 A 
ATOM     64  C   UNL A   1      46.909  28.230  35.331  1.00  0.00     0.020 A 
ATOM     65  C   UNL A   1      46.801  27.133  36.189  1.00  0.00     0.054 A 
BRANCH  65  66
ATOM     66  S   UNL A   1      48.286  26.240  36.724  1.00  0.00     0.124 S 
ATOM     67  O   UNL A   1      47.778  24.877  36.871  1.00  0.00    -0.237 OA
ATOM     68  O   UNL A   1      49.209  26.449  35.611  1.00  0.00    -0.237 OA
ATOM     69  O   UNL A   1      48.659  26.903  37.971  1.00  0.00    -0.744 OA
ENDBRANCH  65  66
ENDBRANCH  46  60
BRANCH  47  70
ATOM     70  C   UNL A   1      36.191  33.444  32.856  1.00  0.00    -0.014 A 
ATOM     71  C   UNL A   1      35.074  33.375  33.703  1.00  0.00     0.010 A 
ATOM     72  C   UNL A   1      36.116  34.221  31.683  1.00  0.00     0.010 A 
ATOM     73  C   UNL A   1      33.910  34.085  33.395  1.00  0.00     0.020 A 
ATOM     74  C   UNL A   1      34.964  34.951  31.384  1.00  0.00     0.020 A 
ATOM     75  C   UNL A   1      33.867  34.879  32.244  1.00  0.00     0.054 A 
BRANCH  75  76
ATOM     76  S   UNL A   1      32.389  35.884  31.925  1.00  0.00     0.124 S 
ATOM     77  O   UNL A   1      32.348  35.909  30.467  1.00  0.00    -0.237 OA
ATOM     78  O   UNL A   1      31.335  35.110  32.577  1.00  0.00    -0.237 OA
ATOM     79  O   UNL A   1      32.698  37.160  32.567  1.00  0.00    -0.744 OA
ENDBRANCH  75  76
ENDBRANCH  47  70
BRANCH  59  80
ATOM     80  C   UNL A   1      40.392  33.678  38.437  1.00  0.00    -0.014 A 
ATOM     81  C   UNL A   1      41.018  34.931  38.550  1.00  0.00     0.010 A 
ATOM     82  C   UNL A   1      39.647  33.181  39.522  1.00  0.00     0.010 A 
ATOM     83  C   UNL A   1      40.909  35.672  39.732  1.00  0.00     0.020 A 
ATOM     84  C   UNL A   1      39.518  33.928  40.697  1.00  0.00     0.020 A 
ATOM     85  C   UNL A   1      40.156  35.165  40.796  1.00  0.00     0.054 A 
BRANCH  85  86
ATOM     86  S   UNL A   1      39.975  36.175  42.293  1.00  0.00     0.124 S 
ATOM     87  O   UNL A   1      40.384  37.494  41.822  1.00  0.00    -0.237 OA
ATOM     88  O   UNL A   1      38.555  36.031  42.606  1.00  0.00    -0.237 OA
ATOM     89  O   UNL A   1      40.883  35.544  43.248  1.00  0.00    -0.744 OA
ENDBRANCH  85  86
ENDBRANCH  59  80
ENDBRANCH  33  34
ENDBRANCH  26  28
ENDBRANCH  25  26
ENDBRANCH  24  25
ENDBRANCH   1  24
TORSDOF 19
ENDMDL
MODEL 2
REMARK VINA RESULT:     -10.2      1.400      3.846
REMARK SMILES CC(C)(C)OC(=O)N1C[C@H](Oc2ccncc2)C[C@H]1C(=O)OCCOC(=O)c1ccc(-c2c3nc(c(-c4ccc(S(=O)(=O)[O-])cc4)c4ccc([nH]4)c(-c4ccc(S(=O)(=O)[O-])cc4)c4nc(c(-c5ccc(S(=O)(=O)[O-])cc5)c5ccc2[nH]5)C=C4)C=C3)cc1
REMARK SMILES IDX 23 1 22 2 20 3 21 4 19 5 8 6 9 7 10 8 18 9 6 10 7 11 5 12
REMARK SMILES IDX 2 13 1 14 3 15 4 16 11 17 12 18 13 19 17 20 14 21 16 22
REMARK SMILES IDX 15 23 24 24 25 25 26 26 27 27 28 28 29 29 87 30 30 31 86 32
REMARK SMILES IDX 31 33 32 34 33 35 80 36 34 37 85 38 79 39 81 40 35 41 84 42
REMARK SMILES IDX 78 43 77 44 36 46 66 47 47 48 65 49 48 50 51 51 64 52 82 53
REMARK SMILES IDX 49 54 50 55 63 57 83 58 52 59 37 60 38 61 46 62 39 63 45 64
REMARK SMILES IDX 40 65 41 66 42 67 43 68 44 69 67 70 68 71 76 72 69 73 75 74
REMARK SMILES IDX 70 75 71 76 72 77 73 78 74 79 53 80 54 81 62 82 55 83 61 84
REMARK SMILES IDX 56 85 57 86 58 87 59 88 60 89
REMARK H PARENT 81 45 51 56
REMARK Flexibility Score: inf
ROOT
ATOM      1  C   UNL A   1      37.315  22.726  25.547  1.00  0.00     0.274 C 
ENDROOT
BRANCH   1   2
ATOM      2  O   UNL A   1      35.894  22.564  25.406  1.00  0.00    -0.461 OA
BRANCH   2   3
ATOM      3  C   UNL A   1      35.315  22.970  24.246  1.00  0.00     0.329 C 
ATOM      4  O   UNL A   1      35.873  23.012  23.157  1.00  0.00    -0.250 OA
BRANCH   3   5
ATOM      5  C   UNL A   1      33.873  23.430  24.508  1.00  0.00     0.202 C 
ATOM      6  N   UNL A   1      33.082  22.357  25.087  1.00  0.00    -0.291 N 
ATOM      7  C   UNL A   1      32.845  22.567  26.500  1.00  0.00     0.169 C 
ATOM      8  C   UNL A   1      32.899  24.081  26.669  1.00  0.00     0.195 C 
ATOM      9  C   UNL A   1      33.825  24.569  25.549  1.00  0.00     0.084 C 
BRANCH   6  10
ATOM     10  C   UNL A   1      32.540  21.383  24.290  1.00  0.00     0.411 C 
ATOM     11  O   UNL A   1      32.340  21.520  23.098  1.00  0.00    -0.224 OA
BRANCH  10  12
ATOM     12  O   UNL A   1      32.206  20.283  25.011  1.00  0.00    -0.444 OA
BRANCH  12  13
ATOM     13  C   UNL A   1      32.830  19.001  24.750  1.00  0.00     0.106 C 
ATOM     14  C   UNL A   1      34.329  19.322  24.663  1.00  0.00     0.056 C 
ATOM     15  C   UNL A   1      32.338  18.477  23.402  1.00  0.00     0.056 C 
ATOM     16  C   UNL A   1      32.630  17.966  25.867  1.00  0.00     0.056 C 
ENDBRANCH  12  13
ENDBRANCH  10  12
ENDBRANCH   6  10
BRANCH   8  17
ATOM     17  O   UNL A   1      31.619  24.741  26.739  1.00  0.00    -0.488 OA
BRANCH  17  18
ATOM     18  C   UNL A   1      31.472  25.921  26.071  1.00  0.00     0.122 A 
ATOM     19  C   UNL A   1      30.780  25.975  24.870  1.00  0.00     0.066 A 
ATOM     20  C   UNL A   1      31.872  27.101  26.685  1.00  0.00     0.066 A 
ATOM     21  C   UNL A   1      30.595  27.213  24.281  1.00  0.00     0.115 A 
ATOM     22  C   UNL A   1      31.637  28.293  26.020  1.00  0.00     0.115 A 
ATOM     23  N   UNL A   1      31.018  28.374  24.823  1.00  0.00    -0.264 NA
ENDBRANCH  17  18
ENDBRANCH   8  17
ENDBRANCH   3   5
ENDBRANCH   2   3
ENDBRANCH   1   2
BRANCH   1  24
ATOM     24  C   UNL A   1      37.594  24.139  26.062  1.00  0.00     0.275 C 
BRANCH  24  25
ATOM     25  O   UNL A   1      38.627  24.110  27.068  1.00  0.00    -0.458 OA
BRANCH  25  26
ATOM     26  C   UNL A   1      39.737  24.827  26.768  1.00  0.00     0.338 C 
ATOM     27  O   UNL A   1      40.404  24.779  25.751  1.00  0.00    -0.246 OA
BRANCH  26  28
ATOM     28  C   UNL A   1      39.925  25.868  27.789  1.00  0.00     0.060 A 
ATOM     29  C   UNL A   1      39.082  25.829  28.900  1.00  0.00     0.016 A 
ATOM     30  C   UNL A   1      40.861  26.888  27.647  1.00  0.00     0.016 A 
ATOM     31  C   UNL A   1      39.173  26.796  29.894  1.00  0.00     0.010 A 
ATOM     32  C   UNL A   1      40.950  27.870  28.641  1.00  0.00     0.010 A 
ATOM     33  C   UNL A   1      40.108  27.829  29.770  1.00  0.00    -0.014 A 
BRANCH  33  34
ATOM     34  C   UNL A   1      40.184  28.883  30.808  1.00  0.00     0.031 A 
ATOM     35  C   UNL A   1      41.123  28.728  31.966  1.00  0.00     0.074 A 
ATOM     36  C   UNL A   1      39.411  29.980  30.707  1.00  0.00     0.049 A 
ATOM     37  N   UNL A   1      41.249  29.475  33.030  1.00  0.00    -0.248 NA
ATOM     38  C   UNL A   1      42.043  27.581  31.915  1.00  0.00     0.031 C 
ATOM     39  C   UNL A   1      38.505  30.274  29.596  1.00  0.00     0.029 A 
ATOM     40  N   UNL A   1      39.253  31.042  31.561  1.00  0.00    -0.354 N 
ATOM     41  C   UNL A   1      42.240  28.875  33.797  1.00  0.00     0.074 A 
ATOM     42  C   UNL A   1      42.679  27.700  33.072  1.00  0.00     0.031 C 
ATOM     43  C   UNL A   1      37.874  31.433  29.844  1.00  0.00     0.029 A 
ATOM     44  C   UNL A   1      38.285  31.929  31.156  1.00  0.00     0.049 A 
ATOM     45  H   UNL A   1      39.782  31.158  32.383  1.00  0.00     0.167 HD
ATOM     46  C   UNL A   1      42.731  29.264  34.998  1.00  0.00     0.031 A 
ATOM     47  C   UNL A   1      37.747  32.989  31.788  1.00  0.00     0.031 A 
ATOM     48  C   UNL A   1      42.277  30.424  35.719  1.00  0.00     0.049 A 
ATOM     49  C   UNL A   1      38.234  33.350  33.163  1.00  0.00     0.074 A 
ATOM     50  C   UNL A   1      42.723  30.914  36.933  1.00  0.00     0.029 A 
ATOM     51  N   UNL A   1      41.257  31.267  35.298  1.00  0.00    -0.354 N 
ATOM     52  N   UNL A   1      39.177  32.780  33.876  1.00  0.00    -0.248 NA
ATOM     53  C   UNL A   1      37.578  34.485  33.826  1.00  0.00     0.031 C 
ATOM     54  C   UNL A   1      41.931  32.016  37.276  1.00  0.00     0.029 A 
ATOM     55  C   UNL A   1      41.027  32.246  36.250  1.00  0.00     0.049 A 
ATOM     56  H   UNL A   1      40.768  31.180  34.448  1.00  0.00     0.167 HD
ATOM     57  C   UNL A   1      39.226  33.483  35.073  1.00  0.00     0.074 A 
ATOM     58  C   UNL A   1      38.233  34.536  34.979  1.00  0.00     0.031 C 
ATOM     59  C   UNL A   1      40.017  33.271  36.154  1.00  0.00     0.031 A 
BRANCH  46  60
ATOM     60  C   UNL A   1      43.764  28.373  35.636  1.00  0.00    -0.014 A 
ATOM     61  C   UNL A   1      45.137  28.540  35.385  1.00  0.00     0.010 A 
ATOM     62  C   UNL A   1      43.345  27.335  36.487  1.00  0.00     0.010 A 
ATOM     63  C   UNL A   1      46.067  27.646  35.921  1.00  0.00     0.020 A 
ATOM     64  C   UNL A   1      44.274  26.453  37.047  1.00  0.00     0.020 A 
ATOM     65  C   UNL A   1      45.627  26.598  36.737  1.00  0.00     0.054 A 
BRANCH  65  66
ATOM     66  S   UNL A   1      46.847  25.426  37.392  1.00  0.00     0.124 S 
ATOM     67  O   UNL A   1      46.823  24.373  36.378  1.00  0.00    -0.237 OA
ATOM     68  O   UNL A   1      48.069  26.224  37.440  1.00  0.00    -0.237 OA
ATOM     69  O   UNL A   1      46.301  25.049  38.693  1.00  0.00    -0.744 OA
ENDBRANCH  65  66
ENDBRANCH  46  60
BRANCH  47  70
ATOM     70  C   UNL A   1      36.633  33.730  31.139  1.00  0.00    -0.014 A 
ATOM     71  C   UNL A   1      36.642  33.981  29.758  1.00  0.00     0.010 A 
ATOM     72  C   UNL A   1      35.515  34.121  31.901  1.00  0.00     0.010 A 
ATOM     73  C   UNL A   1      35.545  34.593  29.145  1.00  0.00     0.020 A 
ATOM     74  C   UNL A   1      34.406  34.711  31.289  1.00  0.00     0.020 A 
ATOM     75  C   UNL A   1      34.428  34.942  29.912  1.00  0.00     0.054 A 
BRANCH  75  76
ATOM     76  S   UNL A   1      32.969  35.628  29.078  1.00  0.00     0.124 S 
ATOM     77  O   UNL A   1      32.154  36.069  30.206  1.00  0.00    -0.237 OA
ATOM     78  O   UNL A   1      33.546  36.692  28.259  1.00  0.00    -0.237 OA
ATOM     79  O   UNL A   1      32.440  34.493  28.326  1.00  0.00    -0.744 OA
ENDBRANCH  75  76
ENDBRANCH  47  70
BRANCH  59  80
ATOM     80  C   UNL A   1      39.836  34.187  37.335  1.00  0.00    -0.014 A 
ATOM     81  C   UNL A   1      38.949  33.853  38.373  1.00  0.00     0.010 A 
ATOM     82  C   UNL A   1      40.615  35.354  37.445  1.00  0.00     0.010 A 
ATOM     83  C   UNL A   1      38.834  34.676  39.497  1.00  0.00     0.020 A 
ATOM     84  C   UNL A   1      40.518  36.168  38.577  1.00  0.00     0.020 A 
ATOM     85  C   UNL A   1      39.623  35.828  39.592  1.00  0.00     0.054 A 
BRANCH  85  86
ATOM     86  S   UNL A   1      39.504  36.843  41.091  1.00  0.00     0.124 S 
ATOM     87  O   UNL A   1      40.908  37.048  41.432  1.00  0.00    -0.237 OA
ATOM     88  O   UNL A   1      38.792  38.029  40.619  1.00  0.00    -0.237 OA
ATOM     89  O   UNL A   1      38.753  36.003  42.021  1.00  0.00    -0.744 OA
ENDBRANCH  85  86
ENDBRANCH  59  80
ENDBRANCH  33  34
ENDBRANCH  26  28
ENDBRANCH  25  26
ENDBRANCH  24  25
ENDBRANCH   1  24
TORSDOF 19
ENDMDL
MODEL 3
REMARK VINA RESULT:     -10.1      5.186      7.187
REMARK SMILES CC(C)(C)OC(=O)N1C[C@H](Oc2ccncc2)C[C@H]1C(=O)OCCOC(=O)c1ccc(-c2c3nc(c(-c4ccc(S(=O)(=O)[O-])cc4)c4ccc([nH]4)c(-c4ccc(S(=O)(=O)[O-])cc4)c4nc(c(-c5ccc(S(=O)(=O)[O-])cc5)c5ccc2[nH]5)C=C4)C=C3)cc1
REMARK SMILES IDX 23 1 22 2 20 3 21 4 19 5 8 6 9 7 10 8 18 9 6 10 7 11 5 12
REMARK SMILES IDX 2 13 1 14 3 15 4 16 11 17 12 18 13 19 17 20 14 21 16 22
REMARK SMILES IDX 15 23 24 24 25 25 26 26 27 27 28 28 29 29 87 30 30 31 86 32
REMARK SMILES IDX 31 33 32 34 33 35 80 36 34 37 85 38 79 39 81 40 35 41 84 42
REMARK SMILES IDX 78 43 77 44 36 46 66 47 47 48 65 49 48 50 51 51 64 52 82 53
REMARK SMILES IDX 49 54 50 55 63 57 83 58 52 59 37 60 38 61 46 62 39 63 45 64
REMARK SMILES IDX 40 65 41 66 42 67 43 68 44 69 67 70 68 71 76 72 69 73 75 74
REMARK SMILES IDX 70 75 71 76 72 77 73 78 74 79 53 80 54 81 62 82 55 83 61 84
REMARK SMILES IDX 56 85 57 86 58 87 59 88 60 89
REMARK H PARENT 81 45 51 56
REMARK Flexibility Score: inf
ROOT
ATOM      1  C   UNL A   1      35.937  21.723  24.944  1.00  0.00     0.274 C 
ENDROOT
BRANCH   1   2
ATOM      2  O   UNL A   1      35.527  21.352  26.271  1.00  0.00    -0.461 OA
BRANCH   2   3
ATOM      3  C   UNL A   1      34.250  21.623  26.646  1.00  0.00     0.329 C 
ATOM      4  O   UNL A   1      33.707  21.196  27.657  1.00  0.00    -0.250 OA
BRANCH   3   5
ATOM      5  C   UNL A   1      33.562  22.496  25.586  1.00  0.00     0.202 C 
ATOM      6  N   UNL A   1      32.303  21.906  25.163  1.00  0.00    -0.291 N 
ATOM      7  C   UNL A   1      31.167  22.610  25.719  1.00  0.00     0.169 C 
ATOM      8  C   UNL A   1      31.674  24.031  25.934  1.00  0.00     0.195 C 
ATOM      9  C   UNL A   1      33.184  23.881  26.154  1.00  0.00     0.084 C 
BRANCH   6  10
ATOM     10  C   UNL A   1      32.282  20.901  24.231  1.00  0.00     0.411 C 
ATOM     11  O   UNL A   1      32.361  21.091  23.033  1.00  0.00    -0.224 OA
BRANCH  10  12
ATOM     12  O   UNL A   1      32.105  19.689  24.815  1.00  0.00    -0.444 OA
BRANCH  12  13
ATOM     13  C   UNL A   1      32.778  18.510  24.308  1.00  0.00     0.106 C 
ATOM     14  C   UNL A   1      32.296  17.377  25.226  1.00  0.00     0.056 C 
ATOM     15  C   UNL A   1      34.286  18.693  24.469  1.00  0.00     0.056 C 
ATOM     16  C   UNL A   1      32.403  18.144  22.864  1.00  0.00     0.056 C 
ENDBRANCH  12  13
ENDBRANCH  10  12
ENDBRANCH   6  10
BRANCH   8  17
ATOM     17  O   UNL A   1      31.293  24.984  24.921  1.00  0.00    -0.488 OA
BRANCH  17  18
ATOM     18  C   UNL A   1      31.372  26.310  25.230  1.00  0.00     0.122 A 
ATOM     19  C   UNL A   1      31.407  26.730  26.551  1.00  0.00     0.066 A 
ATOM     20  C   UNL A   1      31.590  27.230  24.212  1.00  0.00     0.066 A 
ATOM     21  C   UNL A   1      31.569  28.082  26.800  1.00  0.00     0.115 A 
ATOM     22  C   UNL A   1      31.749  28.561  24.561  1.00  0.00     0.115 A 
ATOM     23  N   UNL A   1      31.730  29.010  25.835  1.00  0.00    -0.264 NA
ENDBRANCH  17  18
ENDBRANCH   8  17
ENDBRANCH   3   5
ENDBRANCH   2   3
ENDBRANCH   1   2
BRANCH   1  24
ATOM     24  C   UNL A   1      37.465  21.794  24.910  1.00  0.00     0.275 C 
BRANCH  24  25
ATOM     25  O   UNL A   1      37.973  22.246  26.182  1.00  0.00    -0.458 OA
BRANCH  25  26
ATOM     26  C   UNL A   1      39.311  22.112  26.343  1.00  0.00     0.338 C 
ATOM     27  O   UNL A   1      40.014  21.176  26.003  1.00  0.00    -0.246 OA
BRANCH  26  28
ATOM     28  C   UNL A   1      39.868  23.388  26.816  1.00  0.00     0.060 A 
ATOM     29  C   UNL A   1      39.666  24.507  26.008  1.00  0.00     0.016 A 
ATOM     30  C   UNL A   1      40.612  23.486  27.987  1.00  0.00     0.016 A 
ATOM     31  C   UNL A   1      40.188  25.744  26.368  1.00  0.00     0.010 A 
ATOM     32  C   UNL A   1      41.148  24.727  28.349  1.00  0.00     0.010 A 
ATOM     33  C   UNL A   1      40.939  25.863  27.542  1.00  0.00    -0.014 A 
BRANCH  33  34
ATOM     34  C   UNL A   1      41.528  27.171  27.912  1.00  0.00     0.031 A 
ATOM     35  C   UNL A   1      43.009  27.380  27.812  1.00  0.00     0.074 A 
ATOM     36  C   UNL A   1      40.732  28.170  28.334  1.00  0.00     0.049 A 
ATOM     37  N   UNL A   1      43.725  28.403  28.199  1.00  0.00    -0.248 NA
ATOM     38  C   UNL A   1      43.785  26.295  27.193  1.00  0.00     0.031 C 
ATOM     39  C   UNL A   1      39.272  28.108  28.413  1.00  0.00     0.029 A 
ATOM     40  N   UNL A   1      41.041  29.425  28.791  1.00  0.00    -0.354 N 
ATOM     41  C   UNL A   1      45.042  28.076  27.900  1.00  0.00     0.074 A 
ATOM     42  C   UNL A   1      45.023  26.757  27.302  1.00  0.00     0.031 C 
ATOM     43  C   UNL A   1      38.813  29.270  28.906  1.00  0.00     0.029 A 
ATOM     44  C   UNL A   1      39.948  30.131  29.232  1.00  0.00     0.049 A 
ATOM     45  H   UNL A   1      41.957  29.787  28.801  1.00  0.00     0.167 HD
ATOM     46  C   UNL A   1      46.163  28.805  28.115  1.00  0.00     0.031 A 
ATOM     47  C   UNL A   1      39.867  31.310  29.877  1.00  0.00     0.031 A 
ATOM     48  C   UNL A   1      46.174  30.108  28.726  1.00  0.00     0.049 A 
ATOM     49  C   UNL A   1      41.128  32.062  30.195  1.00  0.00     0.074 A 
ATOM     50  C   UNL A   1      47.254  30.937  28.971  1.00  0.00     0.029 A 
ATOM     51  N   UNL A   1      45.050  30.765  29.207  1.00  0.00    -0.354 N 
ATOM     52  N   UNL A   1      42.368  31.748  29.902  1.00  0.00    -0.248 NA
ATOM     53  C   UNL A   1      40.984  33.319  30.943  1.00  0.00     0.031 C 
ATOM     54  C   UNL A   1      46.791  32.067  29.655  1.00  0.00     0.029 A 
ATOM     55  C   UNL A   1      45.415  31.967  29.789  1.00  0.00     0.049 A 
ATOM     56  H   UNL A   1      44.127  30.425  29.145  1.00  0.00     0.167 HD
ATOM     57  C   UNL A   1      43.153  32.764  30.432  1.00  0.00     0.074 A 
ATOM     58  C   UNL A   1      42.247  33.716  31.044  1.00  0.00     0.031 C 
ATOM     59  C   UNL A   1      44.503  32.892  30.418  1.00  0.00     0.031 A 
BRANCH  46  60
ATOM     60  C   UNL A   1      47.476  28.164  27.751  1.00  0.00    -0.014 A 
ATOM     61  C   UNL A   1      48.211  27.409  28.682  1.00  0.00     0.010 A 
ATOM     62  C   UNL A   1      47.991  28.342  26.454  1.00  0.00     0.010 A 
ATOM     63  C   UNL A   1      49.466  26.899  28.343  1.00  0.00     0.020 A 
ATOM     64  C   UNL A   1      49.235  27.811  26.102  1.00  0.00     0.020 A 
ATOM     65  C   UNL A   1      49.977  27.117  27.059  1.00  0.00     0.054 A 
BRANCH  65  66
ATOM     66  S   UNL A   1      51.625  26.478  26.652  1.00  0.00     0.124 S 
ATOM     67  O   UNL A   1      51.560  26.390  25.194  1.00  0.00    -0.237 OA
ATOM     68  O   UNL A   1      52.513  27.511  27.180  1.00  0.00    -0.237 OA
ATOM     69  O   UNL A   1      51.682  25.196  27.350  1.00  0.00    -0.744 OA
ENDBRANCH  65  66
ENDBRANCH  46  60
BRANCH  47  70
ATOM     70  C   UNL A   1      38.535  31.802  30.321  1.00  0.00    -0.014 A 
ATOM     71  C   UNL A   1      38.048  31.505  31.604  1.00  0.00     0.010 A 
ATOM     72  C   UNL A   1      37.782  32.641  29.478  1.00  0.00     0.010 A 
ATOM     73  C   UNL A   1      36.840  32.053  32.044  1.00  0.00     0.020 A 
ATOM     74  C   UNL A   1      36.586  33.211  29.922  1.00  0.00     0.020 A 
ATOM     75  C   UNL A   1      36.123  32.913  31.205  1.00  0.00     0.054 A 
BRANCH  75  76
ATOM     76  S   UNL A   1      34.617  33.705  31.838  1.00  0.00     0.124 S 
ATOM     77  O   UNL A   1      34.022  32.636  32.632  1.00  0.00    -0.237 OA
ATOM     78  O   UNL A   1      35.151  34.836  32.595  1.00  0.00    -0.237 OA
ATOM     79  O   UNL A   1      33.887  34.069  30.626  1.00  0.00    -0.744 OA
ENDBRANCH  75  76
ENDBRANCH  47  70
BRANCH  59  80
ATOM     80  C   UNL A   1      45.091  34.100  31.097  1.00  0.00    -0.014 A 
ATOM     81  C   UNL A   1      45.498  34.041  32.441  1.00  0.00     0.010 A 
ATOM     82  C   UNL A   1      45.307  35.282  30.364  1.00  0.00     0.010 A 
ATOM     83  C   UNL A   1      46.102  35.148  33.046  1.00  0.00     0.020 A 
ATOM     84  C   UNL A   1      45.930  36.383  30.959  1.00  0.00     0.020 A 
ATOM     85  C   UNL A   1      46.317  36.311  32.299  1.00  0.00     0.054 A 
BRANCH  85  86
ATOM     86  S   UNL A   1      47.163  37.709  33.087  1.00  0.00     0.124 S 
ATOM     87  O   UNL A   1      47.049  38.747  32.068  1.00  0.00    -0.237 OA
ATOM     88  O   UNL A   1      46.371  37.923  34.296  1.00  0.00    -0.237 OA
ATOM     89  O   UNL A   1      48.516  37.209  33.318  1.00  0.00    -0.744 OA
ENDBRANCH  85  86
ENDBRANCH  59  80
ENDBRANCH  33  34
ENDBRANCH  26  28
ENDBRANCH  25  26
ENDBRANCH  24  25
ENDBRANCH   1  24
TORSDOF 19
ENDMDL
