MODEL 1
REMARK VINA RESULT:     -11.6      0.000      0.000
REMARK SMILES O=C(OCCOC(=O)c1cccc(OS(=O)(=O)c2cccc([N+](=O)[O-])c2)c1)c1ccc(-c2c3nc(c(-c4ccc(S(=O)(=O)[O-])cc4)c4ccc([nH]4)c(-c4ccc(S(=O)(=O)[O-])cc4)c4nc(c(-c5ccc(S(=O)(=O)[O-])cc5)c5ccc2[nH]5)C=C4)C=C3)cc1
REMARK SMILES IDX 5 1 4 2 3 3 2 4 1 5 28 6 29 7 87 8 30 9 86 10 31 11 32 12
REMARK SMILES IDX 33 13 80 14 34 15 85 16 79 17 81 18 35 19 84 20 78 21 77 22
REMARK SMILES IDX 36 24 66 25 47 26 65 27 48 28 51 29 64 30 82 31 49 32 50 33
REMARK SMILES IDX 63 35 83 36 52 37 37 38 38 39 46 40 39 41 45 42 40 43 41 44
REMARK SMILES IDX 42 45 43 46 44 47 67 48 68 49 76 50 69 51 75 52 70 53 71 54
REMARK SMILES IDX 72 55 73 56 74 57 53 58 54 59 62 60 55 61 61 62 56 63 57 64
REMARK SMILES IDX 58 65 59 66 60 67 6 68 7 69 8 70 9 71 10 72 27 73 11 74
REMARK SMILES IDX 13 75 12 76 14 77 15 78 16 79 17 80 18 81 19 82 26 83 20 84
REMARK SMILES IDX 22 85 21 86 23 87 24 88 25 89
REMARK H PARENT 81 23 51 34
REMARK Flexibility Score: inf
ROOT
ATOM      1  C   UNL A   1      42.744  21.777  25.735  1.00  0.00     0.275 C 
ENDROOT
BRANCH   1   2
ATOM      2  C   UNL A   1      43.252  23.147  25.249  1.00  0.00     0.275 C 
BRANCH   2   3
ATOM      3  O   UNL A   1      43.193  24.180  26.244  1.00  0.00    -0.458 OA
BRANCH   3   4
ATOM      4  C   UNL A   1      42.509  25.349  26.241  1.00  0.00     0.338 C 
ATOM      5  O   UNL A   1      42.030  25.729  25.171  1.00  0.00    -0.246 OA
BRANCH   4   6
ATOM      6  C   UNL A   1      42.355  26.259  27.430  1.00  0.00     0.060 A 
ATOM      7  C   UNL A   1      43.147  27.366  27.738  1.00  0.00     0.016 A 
ATOM      8  C   UNL A   1      41.244  26.019  28.262  1.00  0.00     0.016 A 
ATOM      9  C   UNL A   1      42.826  28.231  28.778  1.00  0.00     0.010 A 
ATOM     10  C   UNL A   1      40.891  26.906  29.288  1.00  0.00     0.010 A 
ATOM     11  C   UNL A   1      41.680  28.032  29.542  1.00  0.00    -0.014 A 
BRANCH  11  12
ATOM     12  C   UNL A   1      41.462  28.913  30.711  1.00  0.00     0.031 A 
ATOM     13  C   UNL A   1      40.357  29.908  30.623  1.00  0.00     0.074 A 
ATOM     14  C   UNL A   1      42.026  28.666  31.910  1.00  0.00     0.049 A 
ATOM     15  N   UNL A   1      39.938  30.733  31.539  1.00  0.00    -0.248 NA
ATOM     16  C   UNL A   1      39.578  29.925  29.374  1.00  0.00     0.031 C 
ATOM     17  C   UNL A   1      42.844  27.495  32.190  1.00  0.00     0.029 A 
ATOM     18  N   UNL A   1      41.925  29.294  33.133  1.00  0.00    -0.354 N 
ATOM     19  C   UNL A   1      38.830  31.349  30.989  1.00  0.00     0.074 A 
ATOM     20  C   UNL A   1      38.680  30.857  29.638  1.00  0.00     0.031 C 
ATOM     21  C   UNL A   1      43.089  27.443  33.505  1.00  0.00     0.029 A 
ATOM     22  C   UNL A   1      42.635  28.671  34.141  1.00  0.00     0.049 A 
ATOM     23  H   UNL A   1      41.397  30.112  33.275  1.00  0.00     0.167 HD
ATOM     24  C   UNL A   1      37.993  32.225  31.582  1.00  0.00     0.031 A 
ATOM     25  C   UNL A   1      42.944  29.067  35.399  1.00  0.00     0.031 A 
ATOM     26  C   UNL A   1      38.169  32.719  32.917  1.00  0.00     0.049 A 
ATOM     27  C   UNL A   1      42.318  30.342  35.862  1.00  0.00     0.074 A 
ATOM     28  C   UNL A   1      37.414  33.660  33.589  1.00  0.00     0.029 A 
ATOM     29  N   UNL A   1      39.185  32.329  33.779  1.00  0.00    -0.354 N 
ATOM     30  N   UNL A   1      41.333  30.997  35.297  1.00  0.00    -0.248 NA
ATOM     31  C   UNL A   1      42.811  30.940  37.104  1.00  0.00     0.031 C 
ATOM     32  C   UNL A   1      38.030  33.910  34.818  1.00  0.00     0.029 A 
ATOM     33  C   UNL A   1      39.111  33.054  34.955  1.00  0.00     0.049 A 
ATOM     34  H   UNL A   1      39.858  31.638  33.582  1.00  0.00     0.167 HD
ATOM     35  C   UNL A   1      41.012  32.019  36.173  1.00  0.00     0.074 A 
ATOM     36  C   UNL A   1      41.933  31.917  37.288  1.00  0.00     0.031 C 
ATOM     37  C   UNL A   1      40.015  32.928  36.072  1.00  0.00     0.031 A 
BRANCH  24  38
ATOM     38  C   UNL A   1      36.890  32.765  30.725  1.00  0.00    -0.014 A 
ATOM     39  C   UNL A   1      37.076  33.885  29.894  1.00  0.00     0.010 A 
ATOM     40  C   UNL A   1      35.624  32.165  30.812  1.00  0.00     0.010 A 
ATOM     41  C   UNL A   1      35.995  34.422  29.196  1.00  0.00     0.020 A 
ATOM     42  C   UNL A   1      34.551  32.674  30.084  1.00  0.00     0.020 A 
ATOM     43  C   UNL A   1      34.741  33.809  29.293  1.00  0.00     0.054 A 
BRANCH  43  44
ATOM     44  S   UNL A   1      33.364  34.503  28.347  1.00  0.00     0.124 S 
ATOM     45  O   UNL A   1      32.629  35.234  29.377  1.00  0.00    -0.237 OA
ATOM     46  O   UNL A   1      34.049  35.330  27.357  1.00  0.00    -0.237 OA
ATOM     47  O   UNL A   1      32.683  33.327  27.811  1.00  0.00    -0.744 OA
ENDBRANCH  43  44
ENDBRANCH  24  38
BRANCH  25  48
ATOM     48  C   UNL A   1      44.013  28.371  36.193  1.00  0.00    -0.014 A 
ATOM     49  C   UNL A   1      45.763  28.653  36.137  1.00  0.00     0.010 A 
ATOM     50  C   UNL A   1      43.456  26.962  37.149  1.00  0.00     0.010 A 
ATOM     51  C   UNL A   1      46.976  27.621  36.965  1.00  0.00     0.020 A 
ATOM     52  C   UNL A   1      44.802  25.798  38.108  1.00  0.00     0.020 A 
ATOM     53  C   UNL A   1      46.537  26.222  37.947  1.00  0.00     0.054 A 
BRANCH  53  54
ATOM     54  S   UNL A   1      47.758  25.137  38.651  1.00  0.00     0.124 S 
ATOM     55  O   UNL A   1      48.020  24.210  37.557  1.00  0.00    -0.237 OA
ATOM     56  O   UNL A   1      48.835  26.066  38.977  1.00  0.00    -0.237 OA
ATOM     57  O   UNL A   1      47.043  24.573  39.794  1.00  0.00    -0.744 OA
ENDBRANCH  53  54
ENDBRANCH  25  48
BRANCH  37  58
ATOM     58  C   UNL A   1      39.768  33.785  37.277  1.00  0.00    -0.014 A 
ATOM     59  C   UNL A   1      38.913  33.391  38.318  1.00  0.00     0.010 A 
ATOM     60  C   UNL A   1      40.431  35.026  37.353  1.00  0.00     0.010 A 
ATOM     61  C   UNL A   1      38.698  34.243  39.402  1.00  0.00     0.020 A 
ATOM     62  C   UNL A   1      40.256  35.856  38.457  1.00  0.00     0.020 A 
ATOM     63  C   UNL A   1      39.378  35.464  39.468  1.00  0.00     0.054 A 
BRANCH  63  64
ATOM     64  S   UNL A   1      39.133  36.517  40.918  1.00  0.00     0.124 S 
ATOM     65  O   UNL A   1      38.253  35.695  41.745  1.00  0.00    -0.237 OA
ATOM     66  O   UNL A   1      40.495  36.684  41.420  1.00  0.00    -0.237 OA
ATOM     67  O   UNL A   1      38.522  37.725  40.370  1.00  0.00    -0.744 OA
ENDBRANCH  63  64
ENDBRANCH  37  58
ENDBRANCH  11  12
ENDBRANCH   4   6
ENDBRANCH   3   4
ENDBRANCH   2   3
ENDBRANCH   1   2
BRANCH   1  68
ATOM     68  O   UNL A   1      41.700  21.849  26.723  1.00  0.00    -0.458 OA
BRANCH  68  69
ATOM     69  C   UNL A   1      40.596  21.080  26.513  1.00  0.00     0.338 C 
ATOM     70  O   UNL A   1      40.518  19.873  26.647  1.00  0.00    -0.246 OA
BRANCH  69  71
ATOM     71  C   UNL A   1      39.444  21.970  26.225  1.00  0.00     0.063 A 
ATOM     72  C   UNL A   1      39.418  23.274  26.724  1.00  0.00     0.016 A 
ATOM     73  C   UNL A   1      38.395  21.511  25.429  1.00  0.00     0.064 A 
ATOM     74  C   UNL A   1      38.387  24.141  26.348  1.00  0.00     0.005 A 
ATOM     75  C   UNL A   1      37.311  22.345  25.140  1.00  0.00     0.143 A 
ATOM     76  C   UNL A   1      37.339  23.680  25.547  1.00  0.00     0.048 A 
BRANCH  75  77
ATOM     77  O   UNL A   1      36.195  21.943  24.446  1.00  0.00    -0.379 OA
BRANCH  77  78
ATOM     78  S   UNL A   1      34.804  21.603  25.238  1.00  0.00     0.339 S 
ATOM     79  O   UNL A   1      34.158  20.500  24.543  1.00  0.00    -0.181 OA
ATOM     80  O   UNL A   1      35.062  21.538  26.661  1.00  0.00    -0.181 OA
BRANCH  78  81
ATOM     81  C   UNL A   1      33.775  23.021  24.940  1.00  0.00     0.112 A 
ATOM     82  C   UNL A   1      32.161  22.832  25.612  1.00  0.00     0.024 A 
ATOM     83  C   UNL A   1      34.189  24.125  23.599  1.00  0.00     0.109 A 
ATOM     84  C   UNL A   1      30.837  23.769  24.876  1.00  0.00     0.009 A 
ATOM     85  C   UNL A   1      32.970  25.135  22.803  1.00  0.00     0.270 A 
ATOM     86  C   UNL A   1      31.257  25.026  23.348  1.00  0.00     0.086 A 
BRANCH  85  87
ATOM     87  N   UNL A   1      33.280  25.830  21.582  1.00  0.00     0.062 N 
ATOM     88  O   UNL A   1      33.121  25.223  20.518  1.00  0.00    -0.258 OA
ATOM     89  O   UNL A   1      33.731  26.978  21.697  1.00  0.00    -0.258 OA
ENDBRANCH  85  87
ENDBRANCH  78  81
ENDBRANCH  77  78
ENDBRANCH  75  77
ENDBRANCH  69  71
ENDBRANCH  68  69
ENDBRANCH   1  68
TORSDOF 18
ENDMDL
MODEL 2
REMARK VINA RESULT:     -10.8      5.270      9.983
REMARK SMILES O=C(OCCOC(=O)c1cccc(OS(=O)(=O)c2cccc([N+](=O)[O-])c2)c1)c1ccc(-c2c3nc(c(-c4ccc(S(=O)(=O)[O-])cc4)c4ccc([nH]4)c(-c4ccc(S(=O)(=O)[O-])cc4)c4nc(c(-c5ccc(S(=O)(=O)[O-])cc5)c5ccc2[nH]5)C=C4)C=C3)cc1
REMARK SMILES IDX 5 1 4 2 3 3 2 4 1 5 28 6 29 7 87 8 30 9 86 10 31 11 32 12
REMARK SMILES IDX 33 13 80 14 34 15 85 16 79 17 81 18 35 19 84 20 78 21 77 22
REMARK SMILES IDX 36 24 66 25 47 26 65 27 48 28 51 29 64 30 82 31 49 32 50 33
REMARK SMILES IDX 63 35 83 36 52 37 37 38 38 39 46 40 39 41 45 42 40 43 41 44
REMARK SMILES IDX 42 45 43 46 44 47 67 48 68 49 76 50 69 51 75 52 70 53 71 54
REMARK SMILES IDX 72 55 73 56 74 57 53 58 54 59 62 60 55 61 61 62 56 63 57 64
REMARK SMILES IDX 58 65 59 66 60 67 6 68 7 69 8 70 9 71 10 72 27 73 11 74
REMARK SMILES IDX 13 75 12 76 14 77 15 78 16 79 17 80 18 81 19 82 26 83 20 84
REMARK SMILES IDX 22 85 21 86 23 87 24 88 25 89
REMARK H PARENT 81 23 51 34
REMARK Flexibility Score: inf
ROOT
ATOM      1  C   UNL A   1      35.797  21.466  24.940  1.00  0.00     0.275 C 
ENDROOT
BRANCH   1   2
ATOM      2  C   UNL A   1      37.241  20.950  25.067  1.00  0.00     0.275 C 
BRANCH   2   3
ATOM      3  O   UNL A   1      38.211  21.979  25.315  1.00  0.00    -0.458 OA
BRANCH   3   4
ATOM      4  C   UNL A   1      39.305  21.965  26.112  1.00  0.00     0.338 C 
ATOM      5  O   UNL A   1      39.809  20.871  26.374  1.00  0.00    -0.246 OA
BRANCH   4   6
ATOM      6  C   UNL A   1      39.910  23.179  26.766  1.00  0.00     0.060 A 
ATOM      7  C   UNL A   1      40.725  23.194  27.899  1.00  0.00     0.016 A 
ATOM      8  C   UNL A   1      39.703  24.410  26.113  1.00  0.00     0.016 A 
ATOM      9  C   UNL A   1      41.356  24.354  28.332  1.00  0.00     0.010 A 
ATOM     10  C   UNL A   1      40.366  25.576  26.520  1.00  0.00     0.010 A 
ATOM     11  C   UNL A   1      41.212  25.548  27.632  1.00  0.00    -0.014 A 
BRANCH  11  12
ATOM     12  C   UNL A   1      41.808  26.771  28.214  1.00  0.00     0.031 A 
ATOM     13  C   UNL A   1      43.284  26.937  28.102  1.00  0.00     0.074 A 
ATOM     14  C   UNL A   1      41.056  27.830  28.580  1.00  0.00     0.049 A 
ATOM     15  N   UNL A   1      44.014  27.949  28.474  1.00  0.00    -0.248 NA
ATOM     16  C   UNL A   1      44.021  25.861  27.419  1.00  0.00     0.031 C 
ATOM     17  C   UNL A   1      39.615  27.901  28.386  1.00  0.00     0.029 A 
ATOM     18  N   UNL A   1      41.380  29.074  29.076  1.00  0.00    -0.354 N 
ATOM     19  C   UNL A   1      45.292  27.646  28.046  1.00  0.00     0.074 A 
ATOM     20  C   UNL A   1      45.255  26.330  27.450  1.00  0.00     0.031 C 
ATOM     21  C   UNL A   1      39.202  29.141  28.671  1.00  0.00     0.029 A 
ATOM     22  C   UNL A   1      40.291  29.901  29.265  1.00  0.00     0.049 A 
ATOM     23  H   UNL A   1      42.304  29.347  29.280  1.00  0.00     0.167 HD
ATOM     24  C   UNL A   1      46.392  28.423  28.118  1.00  0.00     0.031 A 
ATOM     25  C   UNL A   1      40.166  31.092  29.899  1.00  0.00     0.031 A 
ATOM     26  C   UNL A   1      46.415  29.719  28.733  1.00  0.00     0.049 A 
ATOM     27  C   UNL A   1      41.434  31.718  30.382  1.00  0.00     0.074 A 
ATOM     28  C   UNL A   1      47.495  30.560  28.918  1.00  0.00     0.029 A 
ATOM     29  N   UNL A   1      45.311  30.354  29.285  1.00  0.00    -0.354 N 
ATOM     30  N   UNL A   1      42.661  31.379  30.068  1.00  0.00    -0.248 NA
ATOM     31  C   UNL A   1      41.335  32.866  31.286  1.00  0.00     0.031 C 
ATOM     32  C   UNL A   1      47.063  31.658  29.667  1.00  0.00     0.029 A 
ATOM     33  C   UNL A   1      45.695  31.552  29.863  1.00  0.00     0.049 A 
ATOM     34  H   UNL A   1      44.391  30.005  29.267  1.00  0.00     0.167 HD
ATOM     35  C   UNL A   1      43.474  32.340  30.642  1.00  0.00     0.074 A 
ATOM     36  C   UNL A   1      42.601  33.254  31.353  1.00  0.00     0.031 C 
ATOM     37  C   UNL A   1      44.817  32.469  30.546  1.00  0.00     0.031 A 
BRANCH  24  38
ATOM     38  C   UNL A   1      47.662  27.816  27.608  1.00  0.00    -0.014 A 
ATOM     39  C   UNL A   1      48.504  27.049  28.436  1.00  0.00     0.010 A 
ATOM     40  C   UNL A   1      48.042  28.079  26.283  1.00  0.00     0.010 A 
ATOM     41  C   UNL A   1      49.730  26.594  27.952  1.00  0.00     0.020 A 
ATOM     42  C   UNL A   1      49.247  27.591  25.784  1.00  0.00     0.020 A 
ATOM     43  C   UNL A   1      50.089  26.864  26.627  1.00  0.00     0.054 A 
BRANCH  43  44
ATOM     44  S   UNL A   1      51.668  26.228  26.013  1.00  0.00     0.124 S 
ATOM     45  O   UNL A   1      52.628  27.090  26.700  1.00  0.00    -0.237 OA
ATOM     46  O   UNL A   1      51.641  24.838  26.460  1.00  0.00    -0.237 OA
ATOM     47  O   UNL A   1      51.581  26.420  24.568  1.00  0.00    -0.744 OA
ENDBRANCH  43  44
ENDBRANCH  24  38
BRANCH  25  48
ATOM     48  C   UNL A   1      38.816  31.638  30.270  1.00  0.00    -0.014 A 
ATOM     49  C   UNL A   1      37.849  32.832  29.385  1.00  0.00     0.010 A 
ATOM     50  C   UNL A   1      38.225  31.169  31.894  1.00  0.00     0.010 A 
ATOM     51  C   UNL A   1      36.347  33.581  30.021  1.00  0.00     0.020 A 
ATOM     52  C   UNL A   1      36.524  31.983  32.623  1.00  0.00     0.020 A 
ATOM     53  C   UNL A   1      35.666  33.178  31.598  1.00  0.00     0.054 A 
BRANCH  53  54
ATOM     54  S   UNL A   1      34.251  34.026  32.264  1.00  0.00     0.124 S 
ATOM     55  O   UNL A   1      34.863  35.001  33.158  1.00  0.00    -0.237 OA
ATOM     56  O   UNL A   1      33.627  34.563  31.060  1.00  0.00    -0.237 OA
ATOM     57  O   UNL A   1      33.526  32.940  32.921  1.00  0.00    -0.744 OA
ENDBRANCH  53  54
ENDBRANCH  25  48
BRANCH  37  58
ATOM     58  C   UNL A   1      45.408  33.733  31.095  1.00  0.00    -0.014 A 
ATOM     59  C   UNL A   1      45.510  34.908  30.334  1.00  0.00     0.010 A 
ATOM     60  C   UNL A   1      45.867  33.724  32.426  1.00  0.00     0.010 A 
ATOM     61  C   UNL A   1      46.097  36.046  30.887  1.00  0.00     0.020 A 
ATOM     62  C   UNL A   1      46.408  34.873  32.996  1.00  0.00     0.020 A 
ATOM     63  C   UNL A   1      46.532  36.023  32.217  1.00  0.00     0.054 A 
BRANCH  63  64
ATOM     64  S   UNL A   1      47.225  37.535  32.930  1.00  0.00     0.124 S 
ATOM     65  O   UNL A   1      46.079  38.441  32.893  1.00  0.00    -0.237 OA
ATOM     66  O   UNL A   1      47.638  37.095  34.260  1.00  0.00    -0.237 OA
ATOM     67  O   UNL A   1      48.317  37.877  32.023  1.00  0.00    -0.744 OA
ENDBRANCH  63  64
ENDBRANCH  37  58
ENDBRANCH  11  12
ENDBRANCH   4   6
ENDBRANCH   3   4
ENDBRANCH   2   3
ENDBRANCH   1   2
BRANCH   1  68
ATOM     68  O   UNL A   1      35.415  22.413  25.955  1.00  0.00    -0.458 OA
BRANCH  68  69
ATOM     69  C   UNL A   1      34.278  22.144  26.655  1.00  0.00     0.338 C 
ATOM     70  O   UNL A   1      34.200  21.520  27.697  1.00  0.00    -0.246 OA
BRANCH  69  71
ATOM     71  C   UNL A   1      33.145  22.858  26.017  1.00  0.00     0.063 A 
ATOM     72  C   UNL A   1      31.977  22.169  25.681  1.00  0.00     0.016 A 
ATOM     73  C   UNL A   1      33.235  24.229  25.777  1.00  0.00     0.064 A 
ATOM     74  C   UNL A   1      30.872  22.873  25.192  1.00  0.00     0.005 A 
ATOM     75  C   UNL A   1      32.167  24.913  25.189  1.00  0.00     0.143 A 
ATOM     76  C   UNL A   1      30.964  24.247  24.956  1.00  0.00     0.048 A 
BRANCH  75  77
ATOM     77  O   UNL A   1      32.209  26.239  24.831  1.00  0.00    -0.379 OA
BRANCH  77  78
ATOM     78  S   UNL A   1      32.116  27.410  25.970  1.00  0.00     0.339 S 
ATOM     79  O   UNL A   1      31.040  27.055  26.882  1.00  0.00    -0.181 OA
ATOM     80  O   UNL A   1      33.443  27.709  26.464  1.00  0.00    -0.181 OA
BRANCH  78  81
ATOM     81  C   UNL A   1      31.536  28.837  25.082  1.00  0.00     0.112 A 
ATOM     82  C   UNL A   1      31.820  30.335  25.960  1.00  0.00     0.024 A 
ATOM     83  C   UNL A   1      30.291  28.625  23.820  1.00  0.00     0.109 A 
ATOM     84  C   UNL A   1      30.764  31.722  25.602  1.00  0.00     0.009 A 
ATOM     85  C   UNL A   1      29.198  29.937  23.350  1.00  0.00     0.270 A 
ATOM     86  C   UNL A   1      29.331  31.527  24.186  1.00  0.00     0.086 A 
BRANCH  85  87
ATOM     87  N   UNL A   1      28.059  29.675  22.510  1.00  0.00     0.062 N 
ATOM     88  O   UNL A   1      28.189  29.844  21.293  1.00  0.00    -0.258 OA
ATOM     89  O   UNL A   1      27.012  29.342  23.083  1.00  0.00    -0.258 OA
ENDBRANCH  85  87
ENDBRANCH  78  81
ENDBRANCH  77  78
ENDBRANCH  75  77
ENDBRANCH  69  71
ENDBRANCH  68  69
ENDBRANCH   1  68
TORSDOF 18
ENDMDL
MODEL 3
REMARK VINA RESULT:     -10.8      6.527      8.890
REMARK SMILES O=C(OCCOC(=O)c1cccc(OS(=O)(=O)c2cccc([N+](=O)[O-])c2)c1)c1ccc(-c2c3nc(c(-c4ccc(S(=O)(=O)[O-])cc4)c4ccc([nH]4)c(-c4ccc(S(=O)(=O)[O-])cc4)c4nc(c(-c5ccc(S(=O)(=O)[O-])cc5)c5ccc2[nH]5)C=C4)C=C3)cc1
REMARK SMILES IDX 5 1 4 2 3 3 2 4 1 5 28 6 29 7 87 8 30 9 86 10 31 11 32 12
REMARK SMILES IDX 33 13 80 14 34 15 85 16 79 17 81 18 35 19 84 20 78 21 77 22
REMARK SMILES IDX 36 24 66 25 47 26 65 27 48 28 51 29 64 30 82 31 49 32 50 33
REMARK SMILES IDX 63 35 83 36 52 37 37 38 38 39 46 40 39 41 45 42 40 43 41 44
REMARK SMILES IDX 42 45 43 46 44 47 67 48 68 49 76 50 69 51 75 52 70 53 71 54
REMARK SMILES IDX 72 55 73 56 74 57 53 58 54 59 62 60 55 61 61 62 56 63 57 64
REMARK SMILES IDX 58 65 59 66 60 67 6 68 7 69 8 70 9 71 10 72 27 73 11 74
REMARK SMILES IDX 13 75 12 76 14 77 15 78 16 79 17 80 18 81 19 82 26 83 20 84
REMARK SMILES IDX 22 85 21 86 23 87 24 88 25 89
REMARK H PARENT 81 23 51 34
REMARK Flexibility Score: inf
ROOT
ATOM      1  C   UNL A   1      41.551  19.420  27.050  1.00  0.00     0.275 C 
ENDROOT
BRANCH   1   2
ATOM      2  C   UNL A   1      42.449  18.577  26.126  1.00  0.00     0.275 C 
BRANCH   2   3
ATOM      3  O   UNL A   1      42.916  19.278  24.964  1.00  0.00    -0.458 OA
BRANCH   3   4
ATOM      4  C   UNL A   1      44.139  19.794  24.696  1.00  0.00     0.338 C 
ATOM      5  O   UNL A   1      45.002  19.027  24.264  1.00  0.00    -0.246 OA
BRANCH   4   6
ATOM      6  C   UNL A   1      44.549  21.219  24.957  1.00  0.00     0.060 A 
ATOM      7  C   UNL A   1      44.623  22.248  24.018  1.00  0.00     0.016 A 
ATOM      8  C   UNL A   1      44.793  21.563  26.302  1.00  0.00     0.016 A 
ATOM      9  C   UNL A   1      44.865  23.565  24.391  1.00  0.00     0.010 A 
ATOM     10  C   UNL A   1      44.999  22.894  26.691  1.00  0.00     0.010 A 
ATOM     11  C   UNL A   1      45.023  23.909  25.731  1.00  0.00    -0.014 A 
BRANCH  11  12
ATOM     12  C   UNL A   1      45.401  25.303  26.050  1.00  0.00     0.031 A 
ATOM     13  C   UNL A   1      44.324  26.215  26.527  1.00  0.00     0.074 A 
ATOM     14  C   UNL A   1      46.688  25.684  26.186  1.00  0.00     0.049 A 
ATOM     15  N   UNL A   1      44.428  27.449  26.928  1.00  0.00    -0.248 NA
ATOM     16  C   UNL A   1      42.972  25.642  26.637  1.00  0.00     0.031 C 
ATOM     17  C   UNL A   1      47.814  24.765  26.094  1.00  0.00     0.029 A 
ATOM     18  N   UNL A   1      47.272  26.883  26.532  1.00  0.00    -0.354 N 
ATOM     19  C   UNL A   1      43.164  27.794  27.364  1.00  0.00     0.074 A 
ATOM     20  C   UNL A   1      42.292  26.668  27.116  1.00  0.00     0.031 C 
ATOM     21  C   UNL A   1      48.927  25.409  26.463  1.00  0.00     0.029 A 
ATOM     22  C   UNL A   1      48.650  26.829  26.617  1.00  0.00     0.049 A 
ATOM     23  H   UNL A   1      46.755  27.703  26.702  1.00  0.00     0.167 HD
ATOM     24  C   UNL A   1      42.779  28.946  27.952  1.00  0.00     0.031 A 
ATOM     25  C   UNL A   1      49.581  27.806  26.733  1.00  0.00     0.031 A 
ATOM     26  C   UNL A   1      43.653  30.061  28.171  1.00  0.00     0.049 A 
ATOM     27  C   UNL A   1      49.062  29.192  26.938  1.00  0.00     0.074 A 
ATOM     28  C   UNL A   1      43.345  31.300  28.700  1.00  0.00     0.029 A 
ATOM     29  N   UNL A   1      45.004  30.084  27.853  1.00  0.00    -0.354 N 
ATOM     30  N   UNL A   1      47.839  29.547  27.251  1.00  0.00    -0.248 NA
ATOM     31  C   UNL A   1      50.004  30.305  26.817  1.00  0.00     0.031 C 
ATOM     32  C   UNL A   1      44.486  32.102  28.610  1.00  0.00     0.029 A 
ATOM     33  C   UNL A   1      45.531  31.336  28.119  1.00  0.00     0.049 A 
ATOM     34  H   UNL A   1      45.512  29.322  27.491  1.00  0.00     0.167 HD
ATOM     35  C   UNL A   1      47.892  30.911  27.478  1.00  0.00     0.074 A 
ATOM     36  C   UNL A   1      49.259  31.322  27.229  1.00  0.00     0.031 C 
ATOM     37  C   UNL A   1      46.899  31.730  27.895  1.00  0.00     0.031 A 
BRANCH  24  38
ATOM     38  C   UNL A   1      41.324  29.060  28.286  1.00  0.00    -0.014 A 
ATOM     39  C   UNL A   1      40.336  29.131  27.286  1.00  0.00     0.010 A 
ATOM     40  C   UNL A   1      40.955  29.161  29.636  1.00  0.00     0.010 A 
ATOM     41  C   UNL A   1      39.004  29.347  27.636  1.00  0.00     0.020 A 
ATOM     42  C   UNL A   1      39.619  29.335  29.992  1.00  0.00     0.020 A 
ATOM     43  C   UNL A   1      38.655  29.443  28.988  1.00  0.00     0.054 A 
BRANCH  43  44
ATOM     44  S   UNL A   1      36.914  29.684  29.416  1.00  0.00     0.124 S 
ATOM     45  O   UNL A   1      36.785  28.870  30.622  1.00  0.00    -0.237 OA
ATOM     46  O   UNL A   1      36.840  31.128  29.622  1.00  0.00    -0.237 OA
ATOM     47  O   UNL A   1      36.196  29.185  28.246  1.00  0.00    -0.744 OA
ENDBRANCH  43  44
ENDBRANCH  24  38
BRANCH  25  48
ATOM     48  C   UNL A   1      51.034  27.531  26.463  1.00  0.00    -0.014 A 
ATOM     49  C   UNL A   1      51.844  27.434  24.889  1.00  0.00     0.010 A 
ATOM     50  C   UNL A   1      51.997  27.053  27.895  1.00  0.00     0.010 A 
ATOM     51  C   UNL A   1      53.539  26.887  24.662  1.00  0.00     0.020 A 
ATOM     52  C   UNL A   1      53.915  26.454  27.666  1.00  0.00     0.020 A 
ATOM     53  C   UNL A   1      54.582  26.411  26.002  1.00  0.00     0.054 A 
BRANCH  53  54
ATOM     54  S   UNL A   1      56.214  25.749  25.746  1.00  0.00     0.124 S 
ATOM     55  O   UNL A   1      56.769  25.757  27.093  1.00  0.00    -0.237 OA
ATOM     56  O   UNL A   1      55.921  24.436  25.181  1.00  0.00    -0.237 OA
ATOM     57  O   UNL A   1      56.795  26.719  24.821  1.00  0.00    -0.744 OA
ENDBRANCH  53  54
ENDBRANCH  25  48
BRANCH  37  58
ATOM     58  C   UNL A   1      47.299  33.128  28.263  1.00  0.00    -0.014 A 
ATOM     59  C   UNL A   1      47.746  33.469  29.549  1.00  0.00     0.010 A 
ATOM     60  C   UNL A   1      47.220  34.122  27.268  1.00  0.00     0.010 A 
ATOM     61  C   UNL A   1      48.075  34.792  29.843  1.00  0.00     0.020 A 
ATOM     62  C   UNL A   1      47.595  35.433  27.545  1.00  0.00     0.020 A 
ATOM     63  C   UNL A   1      48.007  35.762  28.837  1.00  0.00     0.054 A 
BRANCH  63  64
ATOM     64  S   UNL A   1      48.507  37.456  29.228  1.00  0.00     0.124 S 
ATOM     65  O   UNL A   1      48.808  37.361  30.655  1.00  0.00    -0.237 OA
ATOM     66  O   UNL A   1      49.660  37.655  28.353  1.00  0.00    -0.237 OA
ATOM     67  O   UNL A   1      47.329  38.252  28.892  1.00  0.00    -0.744 OA
ENDBRANCH  63  64
ENDBRANCH  37  58
ENDBRANCH  11  12
ENDBRANCH   4   6
ENDBRANCH   3   4
ENDBRANCH   2   3
ENDBRANCH   1   2
BRANCH   1  68
ATOM     68  O   UNL A   1      40.984  20.585  26.422  1.00  0.00    -0.458 OA
BRANCH  68  69
ATOM     69  C   UNL A   1      40.871  21.706  27.186  1.00  0.00     0.338 C 
ATOM     70  O   UNL A   1      41.676  22.108  28.006  1.00  0.00    -0.246 OA
BRANCH  69  71
ATOM     71  C   UNL A   1      39.662  22.453  26.761  1.00  0.00     0.063 A 
ATOM     72  C   UNL A   1      39.443  23.756  27.216  1.00  0.00     0.016 A 
ATOM     73  C   UNL A   1      38.754  21.863  25.883  1.00  0.00     0.064 A 
ATOM     74  C   UNL A   1      38.364  24.493  26.717  1.00  0.00     0.005 A 
ATOM     75  C   UNL A   1      37.619  22.565  25.466  1.00  0.00     0.143 A 
ATOM     76  C   UNL A   1      37.459  23.901  25.833  1.00  0.00     0.048 A 
BRANCH  75  77
ATOM     77  O   UNL A   1      36.628  22.025  24.681  1.00  0.00    -0.379 OA
BRANCH  77  78
ATOM     78  S   UNL A   1      35.210  21.550  25.345  1.00  0.00     0.339 S 
ATOM     79  O   UNL A   1      34.794  20.329  24.673  1.00  0.00    -0.181 OA
ATOM     80  O   UNL A   1      35.307  21.611  26.788  1.00  0.00    -0.181 OA
BRANCH  78  81
ATOM     81  C   UNL A   1      34.049  22.795  24.830  1.00  0.00     0.112 A 
ATOM     82  C   UNL A   1      33.860  22.853  23.082  1.00  0.00     0.024 A 
ATOM     83  C   UNL A   1      33.688  24.152  25.933  1.00  0.00     0.109 A 
ATOM     84  C   UNL A   1      33.317  24.385  22.355  1.00  0.00     0.009 A 
ATOM     85  C   UNL A   1      33.111  25.717  25.337  1.00  0.00     0.270 A 
ATOM     86  C   UNL A   1      32.905  25.955  23.564  1.00  0.00     0.086 A 
BRANCH  85  87
ATOM     87  N   UNL A   1      33.056  26.858  26.213  1.00  0.00     0.062 N 
ATOM     88  O   UNL A   1      34.011  27.642  26.198  1.00  0.00    -0.258 OA
ATOM     89  O   UNL A   1      32.068  26.940  26.955  1.00  0.00    -0.258 OA
ENDBRANCH  85  87
ENDBRANCH  78  81
ENDBRANCH  77  78
ENDBRANCH  75  77
ENDBRANCH  69  71
ENDBRANCH  68  69
ENDBRANCH   1  68
TORSDOF 18
ENDMDL
