MODEL 1
REMARK VINA RESULT:     -10.6      0.000      0.000
REMARK SMILES NS(=O)(=O)c1ccc(-c2coc(=O)n2-c2ccc(C(=O)OCCOC(=O)c3ccc(-c4c5nc(c(-c6ccc(S(=O)(=O)[O-])cc6)c6ccc([nH]6)c(-c6ccc(S(=O)(=O)[O-])cc6)c6nc(c(-c7ccc(S(=O)(=O)[O-])cc7)c7ccc4[nH]7)C=C6)C=C5)cc3)cc2)cc1
REMARK SMILES IDX 22 1 21 2 19 3 20 4 18 5 15 6 16 7 88 8 17 9 87 10 14 11
REMARK SMILES IDX 9 12 10 13 11 14 12 15 13 16 8 17 5 18 6 19 90 20 7 21 89 22
REMARK SMILES IDX 2 23 3 24 4 25 1 26 23 29 24 30 25 31 26 32 27 33 28 34
REMARK SMILES IDX 86 35 29 36 85 37 30 38 31 39 32 40 79 41 33 42 84 43 78 44
REMARK SMILES IDX 80 45 34 46 83 47 77 48 76 49 35 51 65 52 46 53 64 54 47 55
REMARK SMILES IDX 50 56 63 57 81 58 48 59 49 60 62 62 82 63 51 64 36 65 37 66
REMARK SMILES IDX 45 67 38 68 44 69 39 70 40 71 41 72 42 73 43 74 66 75 67 76
REMARK SMILES IDX 75 77 68 78 74 79 69 80 70 81 71 82 72 83 73 84 52 85 53 86
REMARK SMILES IDX 61 87 54 88 60 89 55 90 56 91 57 92 58 93 59 94
REMARK H PARENT 1 27 1 28 80 50 50 61
REMARK Flexibility Score: inf
ROOT
ATOM      1  C   UNL A   1      42.262  20.285  26.687  1.00  0.00     0.275 C 
ENDROOT
BRANCH   1   2
ATOM      2  O   UNL A   1      42.995  21.497  26.441  1.00  0.00    -0.458 OA
BRANCH   2   3
ATOM      3  C   UNL A   1      43.886  21.460  25.414  1.00  0.00     0.338 C 
ATOM      4  O   UNL A   1      44.029  20.553  24.610  1.00  0.00    -0.246 OA
BRANCH   3   5
ATOM      5  C   UNL A   1      44.634  22.739  25.331  1.00  0.00     0.060 A 
ATOM      6  C   UNL A   1      46.044  25.156  25.402  1.00  0.00     0.053 A 
ATOM      7  C   UNL A   1      46.714  23.959  25.662  1.00  0.00     0.028 A 
ATOM      8  C   UNL A   1      44.699  25.124  25.002  1.00  0.00     0.028 A 
ATOM      9  C   UNL A   1      45.999  22.755  25.659  1.00  0.00     0.018 A 
ATOM     10  C   UNL A   1      44.000  23.922  24.947  1.00  0.00     0.018 A 
BRANCH   6  11
ATOM     11  N   UNL A   1      46.658  26.400  25.662  1.00  0.00    -0.242 N 
ATOM     12  C   UNL A   1      46.730  27.049  26.864  1.00  0.00     0.095 A 
ATOM     13  C   UNL A   1      47.363  28.191  26.630  1.00  0.00     0.228 A 
ATOM     14  O   UNL A   1      47.755  28.366  25.304  1.00  0.00    -0.415 OA
ATOM     15  C   UNL A   1      47.326  27.173  24.715  1.00  0.00     0.424 A 
ATOM     16  O   UNL A   1      47.527  26.916  23.538  1.00  0.00    -0.223 OA
BRANCH  12  17
ATOM     17  C   UNL A   1      46.398  26.470  28.166  1.00  0.00     0.002 A 
ATOM     18  C   UNL A   1      45.680  25.376  30.645  1.00  0.00     0.082 A 
ATOM     19  C   UNL A   1      44.764  25.354  29.595  1.00  0.00     0.022 A 
ATOM     20  C   UNL A   1      46.950  25.938  30.468  1.00  0.00     0.022 A 
ATOM     21  C   UNL A   1      45.128  25.895  28.362  1.00  0.00     0.012 A 
ATOM     22  C   UNL A   1      47.309  26.478  29.227  1.00  0.00     0.012 A 
BRANCH  18  23
ATOM     23  S   UNL A   1      45.262  24.728  32.236  1.00  0.00     0.238 S 
ATOM     24  O   UNL A   1      46.422  24.818  33.088  1.00  0.00    -0.207 OA
ATOM     25  O   UNL A   1      44.528  23.498  32.043  1.00  0.00    -0.207 OA
BRANCH  23  26
ATOM     26  N   UNL A   1      44.158  25.824  32.871  1.00  0.00    -0.225 NA
ATOM     27  H   UNL A   1      43.956  25.581  33.840  1.00  0.00     0.137 HD
ATOM     28  H   UNL A   1      43.296  25.792  32.326  1.00  0.00     0.137 HD
ENDBRANCH  23  26
ENDBRANCH  18  23
ENDBRANCH  12  17
ENDBRANCH   6  11
ENDBRANCH   3   5
ENDBRANCH   2   3
ENDBRANCH   1   2
BRANCH   1  29
ATOM     29  C   UNL A   1      40.762  20.546  26.753  1.00  0.00     0.275 C 
BRANCH  29  30
ATOM     30  O   UNL A   1      40.491  21.746  27.471  1.00  0.00    -0.458 OA
BRANCH  30  31
ATOM     31  C   UNL A   1      39.762  22.661  26.793  1.00  0.00     0.338 C 
ATOM     32  O   UNL A   1      38.795  22.451  26.081  1.00  0.00    -0.246 OA
BRANCH  31  33
ATOM     33  C   UNL A   1      40.428  23.963  26.876  1.00  0.00     0.060 A 
ATOM     34  C   UNL A   1      41.556  24.045  27.701  1.00  0.00     0.016 A 
ATOM     35  C   UNL A   1      39.728  25.099  26.447  1.00  0.00     0.016 A 
ATOM     36  C   UNL A   1      41.843  25.256  28.290  1.00  0.00     0.010 A 
ATOM     37  C   UNL A   1      40.001  26.296  27.053  1.00  0.00     0.010 A 
ATOM     38  C   UNL A   1      40.991  26.331  28.035  1.00  0.00    -0.014 A 
BRANCH  38  39
ATOM     39  C   UNL A   1      41.128  27.528  28.833  1.00  0.00     0.031 A 
ATOM     40  C   UNL A   1      42.344  28.317  28.537  1.00  0.00     0.074 A 
ATOM     41  C   UNL A   1      40.118  27.937  29.624  1.00  0.00     0.049 A 
ATOM     42  N   UNL A   1      43.294  28.657  29.340  1.00  0.00    -0.248 NA
ATOM     43  C   UNL A   1      42.593  28.653  27.125  1.00  0.00     0.031 C 
ATOM     44  C   UNL A   1      38.764  27.379  29.726  1.00  0.00     0.029 A 
ATOM     45  N   UNL A   1      40.048  29.050  30.395  1.00  0.00    -0.354 N 
ATOM     46  C   UNL A   1      44.182  29.404  28.572  1.00  0.00     0.074 A 
ATOM     47  C   UNL A   1      43.794  29.220  27.198  1.00  0.00     0.031 C 
ATOM     48  C   UNL A   1      37.952  28.294  30.300  1.00  0.00     0.029 A 
ATOM     49  C   UNL A   1      38.753  29.433  30.717  1.00  0.00     0.049 A 
ATOM     50  H   UNL A   1      40.844  29.542  30.700  1.00  0.00     0.167 HD
ATOM     51  C   UNL A   1      45.039  30.305  29.121  1.00  0.00     0.031 A 
ATOM     52  C   UNL A   1      38.374  30.646  31.189  1.00  0.00     0.031 A 
ATOM     53  C   UNL A   1      45.194  30.112  30.536  1.00  0.00     0.049 A 
ATOM     54  C   UNL A   1      39.594  31.307  31.723  1.00  0.00     0.074 A 
ATOM     55  C   UNL A   1      45.693  29.093  31.321  1.00  0.00     0.029 A 
ATOM     56  N   UNL A   1      44.429  30.895  31.370  1.00  0.00    -0.354 N 
ATOM     57  N   UNL A   1      40.264  30.858  32.749  1.00  0.00    -0.248 NA
ATOM     58  C   UNL A   1      40.338  32.194  30.841  1.00  0.00     0.031 C 
ATOM     59  C   UNL A   1      44.839  29.049  32.460  1.00  0.00     0.029 A 
ATOM     60  C   UNL A   1      43.897  30.075  32.334  1.00  0.00     0.049 A 
ATOM     61  H   UNL A   1      44.289  31.866  31.290  1.00  0.00     0.167 HD
ATOM     62  C   UNL A   1      41.600  31.055  32.425  1.00  0.00     0.074 A 
ATOM     63  C   UNL A   1      41.579  31.974  31.287  1.00  0.00     0.031 C 
ATOM     64  C   UNL A   1      42.582  30.243  32.922  1.00  0.00     0.031 A 
BRANCH  51  65
ATOM     65  C   UNL A   1      45.443  31.574  28.418  1.00  0.00    -0.014 A 
ATOM     66  C   UNL A   1      44.448  32.460  27.968  1.00  0.00     0.010 A 
ATOM     67  C   UNL A   1      46.759  31.798  27.955  1.00  0.00     0.010 A 
ATOM     68  C   UNL A   1      44.748  33.482  27.056  1.00  0.00     0.020 A 
ATOM     69  C   UNL A   1      47.078  32.841  27.087  1.00  0.00     0.020 A 
ATOM     70  C   UNL A   1      46.061  33.654  26.612  1.00  0.00     0.054 A 
BRANCH  70  71
ATOM     71  S   UNL A   1      46.419  34.890  25.341  1.00  0.00     0.124 S 
ATOM     72  O   UNL A   1      47.803  34.579  25.001  1.00  0.00    -0.237 OA
ATOM     73  O   UNL A   1      45.427  34.579  24.316  1.00  0.00    -0.237 OA
ATOM     74  O   UNL A   1      46.214  36.161  26.033  1.00  0.00    -0.744 OA
ENDBRANCH  70  71
ENDBRANCH  51  65
BRANCH  52  75
ATOM     75  C   UNL A   1      37.132  31.384  30.841  1.00  0.00    -0.014 A 
ATOM     76  C   UNL A   1      36.385  32.065  31.819  1.00  0.00     0.010 A 
ATOM     77  C   UNL A   1      36.817  31.635  29.487  1.00  0.00     0.010 A 
ATOM     78  C   UNL A   1      35.395  32.997  31.455  1.00  0.00     0.020 A 
ATOM     79  C   UNL A   1      35.829  32.554  29.117  1.00  0.00     0.020 A 
ATOM     80  C   UNL A   1      35.137  33.248  30.104  1.00  0.00     0.054 A 
BRANCH  80  81
ATOM     81  S   UNL A   1      33.979  34.570  29.639  1.00  0.00     0.124 S 
ATOM     82  O   UNL A   1      32.837  33.818  29.126  1.00  0.00    -0.237 OA
ATOM     83  O   UNL A   1      33.762  35.261  30.907  1.00  0.00    -0.237 OA
ATOM     84  O   UNL A   1      34.716  35.339  28.638  1.00  0.00    -0.744 OA
ENDBRANCH  80  81
ENDBRANCH  52  75
BRANCH  64  85
ATOM     85  C   UNL A   1      42.202  29.246  34.000  1.00  0.00    -0.014 A 
ATOM     86  C   UNL A   1      41.478  28.064  33.734  1.00  0.00     0.010 A 
ATOM     87  C   UNL A   1      42.747  29.417  35.283  1.00  0.00     0.010 A 
ATOM     88  C   UNL A   1      41.293  27.091  34.728  1.00  0.00     0.020 A 
ATOM     89  C   UNL A   1      42.581  28.443  36.273  1.00  0.00     0.020 A 
ATOM     90  C   UNL A   1      41.849  27.287  35.994  1.00  0.00     0.054 A 
BRANCH  90  91
ATOM     91  S   UNL A   1      41.666  25.995  37.258  1.00  0.00     0.124 S 
ATOM     92  O   UNL A   1      41.882  24.770  36.493  1.00  0.00    -0.237 OA
ATOM     93  O   UNL A   1      42.712  26.328  38.220  1.00  0.00    -0.237 OA
ATOM     94  O   UNL A   1      40.302  26.182  37.751  1.00  0.00    -0.744 OA
ENDBRANCH  90  91
ENDBRANCH  64  85
ENDBRANCH  38  39
ENDBRANCH  31  33
ENDBRANCH  30  31
ENDBRANCH  29  30
ENDBRANCH   1  29
TORSDOF 18
ENDMDL
MODEL 2
REMARK VINA RESULT:     -10.0      4.602      7.582
REMARK SMILES NS(=O)(=O)c1ccc(-c2coc(=O)n2-c2ccc(C(=O)OCCOC(=O)c3ccc(-c4c5nc(c(-c6ccc(S(=O)(=O)[O-])cc6)c6ccc([nH]6)c(-c6ccc(S(=O)(=O)[O-])cc6)c6nc(c(-c7ccc(S(=O)(=O)[O-])cc7)c7ccc4[nH]7)C=C6)C=C5)cc3)cc2)cc1
REMARK SMILES IDX 22 1 21 2 19 3 20 4 18 5 15 6 16 7 88 8 17 9 87 10 14 11
REMARK SMILES IDX 9 12 10 13 11 14 12 15 13 16 8 17 5 18 6 19 90 20 7 21 89 22
REMARK SMILES IDX 2 23 3 24 4 25 1 26 23 29 24 30 25 31 26 32 27 33 28 34
REMARK SMILES IDX 86 35 29 36 85 37 30 38 31 39 32 40 79 41 33 42 84 43 78 44
REMARK SMILES IDX 80 45 34 46 83 47 77 48 76 49 35 51 65 52 46 53 64 54 47 55
REMARK SMILES IDX 50 56 63 57 81 58 48 59 49 60 62 62 82 63 51 64 36 65 37 66
REMARK SMILES IDX 45 67 38 68 44 69 39 70 40 71 41 72 42 73 43 74 66 75 67 76
REMARK SMILES IDX 75 77 68 78 74 79 69 80 70 81 71 82 72 83 73 84 52 85 53 86
REMARK SMILES IDX 61 87 54 88 60 89 55 90 56 91 57 92 58 93 59 94
REMARK H PARENT 1 27 1 28 80 50 50 61
REMARK Flexibility Score: inf
ROOT
ATOM      1  C   UNL A   1      40.141  23.036  27.054  1.00  0.00     0.275 C 
ENDROOT
BRANCH   1   2
ATOM      2  O   UNL A   1      39.023  23.612  26.356  1.00  0.00    -0.458 OA
BRANCH   2   3
ATOM      3  C   UNL A   1      38.227  22.742  25.679  1.00  0.00     0.338 C 
ATOM      4  O   UNL A   1      38.426  21.548  25.522  1.00  0.00    -0.246 OA
BRANCH   3   5
ATOM      5  C   UNL A   1      36.996  23.426  25.209  1.00  0.00     0.060 A 
ATOM      6  C   UNL A   1      34.557  24.547  24.414  1.00  0.00     0.053 A 
ATOM      7  C   UNL A   1      34.967  24.659  25.744  1.00  0.00     0.028 A 
ATOM      8  C   UNL A   1      35.422  23.971  23.470  1.00  0.00     0.028 A 
ATOM      9  C   UNL A   1      36.171  24.068  26.146  1.00  0.00     0.018 A 
ATOM     10  C   UNL A   1      36.644  23.429  23.858  1.00  0.00     0.018 A 
BRANCH   6  11
ATOM     11  N   UNL A   1      33.242  24.883  24.031  1.00  0.00    -0.242 N 
ATOM     12  C   UNL A   1      32.276  24.033  23.562  1.00  0.00     0.095 A 
ATOM     13  C   UNL A   1      31.217  24.788  23.301  1.00  0.00     0.228 A 
ATOM     14  O   UNL A   1      31.394  26.141  23.581  1.00  0.00    -0.415 OA
ATOM     15  C   UNL A   1      32.694  26.162  24.095  1.00  0.00     0.424 A 
ATOM     16  O   UNL A   1      33.217  27.186  24.507  1.00  0.00    -0.223 OA
BRANCH  12  17
ATOM     17  C   UNL A   1      32.339  22.572  23.594  1.00  0.00     0.002 A 
ATOM     18  C   UNL A   1      32.510  19.777  23.722  1.00  0.00     0.082 A 
ATOM     19  C   UNL A   1      32.684  20.528  24.883  1.00  0.00     0.022 A 
ATOM     20  C   UNL A   1      32.250  20.409  22.500  1.00  0.00     0.022 A 
ATOM     21  C   UNL A   1      32.593  21.918  24.815  1.00  0.00     0.012 A 
ATOM     22  C   UNL A   1      32.159  21.804  22.440  1.00  0.00     0.012 A 
BRANCH  18  23
ATOM     23  S   UNL A   1      32.642  18.015  23.747  1.00  0.00     0.238 S 
ATOM     24  O   UNL A   1      31.764  17.503  24.771  1.00  0.00    -0.207 OA
ATOM     25  O   UNL A   1      34.043  17.666  23.674  1.00  0.00    -0.207 OA
BRANCH  23  26
ATOM     26  N   UNL A   1      31.969  17.511  22.292  1.00  0.00    -0.225 NA
ATOM     27  H   UNL A   1      32.693  17.095  21.708  1.00  0.00     0.137 HD
ATOM     28  H   UNL A   1      31.563  18.313  21.810  1.00  0.00     0.137 HD
ENDBRANCH  23  26
ENDBRANCH  18  23
ENDBRANCH  12  17
ENDBRANCH   6  11
ENDBRANCH   3   5
ENDBRANCH   2   3
ENDBRANCH   1   2
BRANCH   1  29
ATOM     29  C   UNL A   1      41.324  23.995  27.097  1.00  0.00     0.275 C 
BRANCH  29  30
ATOM     30  O   UNL A   1      41.322  24.848  25.956  1.00  0.00    -0.458 OA
BRANCH  30  31
ATOM     31  C   UNL A   1      42.549  25.183  25.495  1.00  0.00     0.338 C 
ATOM     32  O   UNL A   1      43.364  24.445  24.968  1.00  0.00    -0.246 OA
BRANCH  31  33
ATOM     33  C   UNL A   1      42.856  26.556  25.901  1.00  0.00     0.060 A 
ATOM     34  C   UNL A   1      43.751  26.715  26.965  1.00  0.00     0.016 A 
ATOM     35  C   UNL A   1      42.001  27.583  25.480  1.00  0.00     0.016 A 
ATOM     36  C   UNL A   1      43.622  27.832  27.761  1.00  0.00     0.010 A 
ATOM     37  C   UNL A   1      41.859  28.680  26.286  1.00  0.00     0.010 A 
ATOM     38  C   UNL A   1      42.603  28.737  27.464  1.00  0.00    -0.014 A 
BRANCH  38  39
ATOM     39  C   UNL A   1      42.295  29.772  28.425  1.00  0.00     0.031 A 
ATOM     40  C   UNL A   1      43.286  30.868  28.474  1.00  0.00     0.074 A 
ATOM     41  C   UNL A   1      41.105  29.780  29.056  1.00  0.00     0.049 A 
ATOM     42  N   UNL A   1      43.979  31.278  29.482  1.00  0.00    -0.248 NA
ATOM     43  C   UNL A   1      43.646  31.499  27.193  1.00  0.00     0.031 C 
ATOM     44  C   UNL A   1      39.949  28.905  28.822  1.00  0.00     0.029 A 
ATOM     45  N   UNL A   1      40.625  30.689  29.940  1.00  0.00    -0.354 N 
ATOM     46  C   UNL A   1      44.741  32.340  29.003  1.00  0.00     0.074 A 
ATOM     47  C   UNL A   1      44.627  32.314  27.569  1.00  0.00     0.031 C 
ATOM     48  C   UNL A   1      38.846  29.483  29.346  1.00  0.00     0.029 A 
ATOM     49  C   UNL A   1      39.242  30.688  30.057  1.00  0.00     0.049 A 
ATOM     50  H   UNL A   1      41.206  31.296  30.453  1.00  0.00     0.167 HD
ATOM     51  C   UNL A   1      45.234  33.308  29.821  1.00  0.00     0.031 A 
ATOM     52  C   UNL A   1      38.486  31.672  30.604  1.00  0.00     0.031 A 
ATOM     53  C   UNL A   1      45.220  32.910  31.201  1.00  0.00     0.049 A 
ATOM     54  C   UNL A   1      39.392  32.500  31.444  1.00  0.00     0.074 A 
ATOM     55  C   UNL A   1      45.849  31.917  31.925  1.00  0.00     0.029 A 
ATOM     56  N   UNL A   1      44.158  33.327  31.970  1.00  0.00    -0.354 N 
ATOM     57  N   UNL A   1      39.995  32.050  32.510  1.00  0.00    -0.248 NA
ATOM     58  C   UNL A   1      39.997  33.682  30.846  1.00  0.00     0.031 C 
ATOM     59  C   UNL A   1      44.875  31.470  32.863  1.00  0.00     0.029 A 
ATOM     60  C   UNL A   1      43.725  32.245  32.697  1.00  0.00     0.049 A 
ATOM     61  H   UNL A   1      43.777  34.234  31.993  1.00  0.00     0.167 HD
ATOM     62  C   UNL A   1      41.263  32.616  32.476  1.00  0.00     0.074 A 
ATOM     63  C   UNL A   1      41.169  33.689  31.488  1.00  0.00     0.031 C 
ATOM     64  C   UNL A   1      42.339  31.987  33.040  1.00  0.00     0.031 A 
BRANCH  51  65
ATOM     65  C   UNL A   1      45.387  34.740  29.382  1.00  0.00    -0.014 A 
ATOM     66  C   UNL A   1      44.271  35.595  29.418  1.00  0.00     0.010 A 
ATOM     67  C   UNL A   1      46.528  35.204  28.691  1.00  0.00     0.010 A 
ATOM     68  C   UNL A   1      44.280  36.826  28.747  1.00  0.00     0.020 A 
ATOM     69  C   UNL A   1      46.566  36.447  28.062  1.00  0.00     0.020 A 
ATOM     70  C   UNL A   1      45.426  37.235  28.060  1.00  0.00     0.054 A 
BRANCH  70  71
ATOM     71  S   UNL A   1      45.389  38.762  27.092  1.00  0.00     0.124 S 
ATOM     72  O   UNL A   1      45.788  39.755  28.084  1.00  0.00    -0.237 OA
ATOM     73  O   UNL A   1      46.362  38.487  26.040  1.00  0.00    -0.237 OA
ATOM     74  O   UNL A   1      44.000  38.848  26.642  1.00  0.00    -0.744 OA
ENDBRANCH  70  71
ENDBRANCH  51  65
BRANCH  52  75
ATOM     75  C   UNL A   1      37.160  32.141  30.126  1.00  0.00    -0.014 A 
ATOM     76  C   UNL A   1      36.106  32.394  31.021  1.00  0.00     0.010 A 
ATOM     77  C   UNL A   1      37.009  32.590  28.796  1.00  0.00     0.010 A 
ATOM     78  C   UNL A   1      34.966  33.112  30.613  1.00  0.00     0.020 A 
ATOM     79  C   UNL A   1      35.875  33.297  28.379  1.00  0.00     0.020 A 
ATOM     80  C   UNL A   1      34.867  33.574  29.297  1.00  0.00     0.054 A 
BRANCH  80  81
ATOM     81  S   UNL A   1      33.475  34.641  28.820  1.00  0.00     0.124 S 
ATOM     82  O   UNL A   1      32.793  33.831  27.814  1.00  0.00    -0.237 OA
ATOM     83  O   UNL A   1      32.761  34.814  30.082  1.00  0.00    -0.237 OA
ATOM     84  O   UNL A   1      34.123  35.847  28.309  1.00  0.00    -0.744 OA
ENDBRANCH  80  81
ENDBRANCH  52  75
BRANCH  64  85
ATOM     85  C   UNL A   1      42.081  30.753  33.883  1.00  0.00    -0.014 A 
ATOM     86  C   UNL A   1      41.817  29.483  33.328  1.00  0.00     0.010 A 
ATOM     87  C   UNL A   1      42.290  30.842  35.270  1.00  0.00     0.010 A 
ATOM     88  C   UNL A   1      41.750  28.340  34.139  1.00  0.00     0.020 A 
ATOM     89  C   UNL A   1      42.240  29.704  36.081  1.00  0.00     0.020 A 
ATOM     90  C   UNL A   1      41.964  28.459  35.514  1.00  0.00     0.054 A 
BRANCH  90  91
ATOM     91  S   UNL A   1      41.944  26.968  36.551  1.00  0.00     0.124 S 
ATOM     92  O   UNL A   1      43.123  27.151  37.394  1.00  0.00    -0.237 OA
ATOM     93  O   UNL A   1      40.659  27.064  37.239  1.00  0.00    -0.237 OA
ATOM     94  O   UNL A   1      42.039  25.872  35.587  1.00  0.00    -0.744 OA
ENDBRANCH  90  91
ENDBRANCH  64  85
ENDBRANCH  38  39
ENDBRANCH  31  33
ENDBRANCH  30  31
ENDBRANCH  29  30
ENDBRANCH   1  29
TORSDOF 18
ENDMDL
MODEL 3
REMARK VINA RESULT:      -9.8      4.491      7.553
REMARK SMILES NS(=O)(=O)c1ccc(-c2coc(=O)n2-c2ccc(C(=O)OCCOC(=O)c3ccc(-c4c5nc(c(-c6ccc(S(=O)(=O)[O-])cc6)c6ccc([nH]6)c(-c6ccc(S(=O)(=O)[O-])cc6)c6nc(c(-c7ccc(S(=O)(=O)[O-])cc7)c7ccc4[nH]7)C=C6)C=C5)cc3)cc2)cc1
REMARK SMILES IDX 22 1 21 2 19 3 20 4 18 5 15 6 16 7 88 8 17 9 87 10 14 11
REMARK SMILES IDX 9 12 10 13 11 14 12 15 13 16 8 17 5 18 6 19 90 20 7 21 89 22
REMARK SMILES IDX 2 23 3 24 4 25 1 26 23 29 24 30 25 31 26 32 27 33 28 34
REMARK SMILES IDX 86 35 29 36 85 37 30 38 31 39 32 40 79 41 33 42 84 43 78 44
REMARK SMILES IDX 80 45 34 46 83 47 77 48 76 49 35 51 65 52 46 53 64 54 47 55
REMARK SMILES IDX 50 56 63 57 81 58 48 59 49 60 62 62 82 63 51 64 36 65 37 66
REMARK SMILES IDX 45 67 38 68 44 69 39 70 40 71 41 72 42 73 43 74 66 75 67 76
REMARK SMILES IDX 75 77 68 78 74 79 69 80 70 81 71 82 72 83 73 84 52 85 53 86
REMARK SMILES IDX 61 87 54 88 60 89 55 90 56 91 57 92 58 93 59 94
REMARK H PARENT 1 27 1 28 80 50 50 61
REMARK Flexibility Score: inf
ROOT
ATOM      1  C   UNL A   1      40.221  22.133  27.088  1.00  0.00     0.275 C 
ENDROOT
BRANCH   1   2
ATOM      2  O   UNL A   1      39.134  22.219  26.151  1.00  0.00    -0.458 OA
BRANCH   2   3
ATOM      3  C   UNL A   1      38.505  23.422  26.072  1.00  0.00     0.338 C 
ATOM      4  O   UNL A   1      39.000  24.515  26.295  1.00  0.00    -0.246 OA
BRANCH   3   5
ATOM      5  C   UNL A   1      37.115  23.248  25.581  1.00  0.00     0.060 A 
ATOM      6  C   UNL A   1      34.529  23.099  24.520  1.00  0.00     0.053 A 
ATOM      7  C   UNL A   1      35.611  22.638  23.767  1.00  0.00     0.028 A 
ATOM      8  C   UNL A   1      34.738  23.529  25.839  1.00  0.00     0.028 A 
ATOM      9  C   UNL A   1      36.907  22.744  24.286  1.00  0.00     0.018 A 
ATOM     10  C   UNL A   1      36.021  23.587  26.377  1.00  0.00     0.018 A 
BRANCH   6  11
ATOM     11  N   UNL A   1      33.257  23.262  23.933  1.00  0.00    -0.242 N 
ATOM     12  C   UNL A   1      32.401  22.273  23.530  1.00  0.00     0.095 A 
ATOM     13  C   UNL A   1      31.347  22.887  23.009  1.00  0.00     0.228 A 
ATOM     14  O   UNL A   1      31.420  24.278  23.043  1.00  0.00    -0.415 OA
ATOM     15  C   UNL A   1      32.643  24.488  23.686  1.00  0.00     0.424 A 
ATOM     16  O   UNL A   1      33.059  25.606  23.951  1.00  0.00    -0.223 OA
BRANCH  12  17
ATOM     17  C   UNL A   1      32.532  20.851  23.850  1.00  0.00     0.002 A 
ATOM     18  C   UNL A   1      32.833  18.147  24.526  1.00  0.00     0.082 A 
ATOM     19  C   UNL A   1      32.977  19.121  25.513  1.00  0.00     0.022 A 
ATOM     20  C   UNL A   1      32.539  18.512  23.206  1.00  0.00     0.022 A 
ATOM     21  C   UNL A   1      32.820  20.464  25.172  1.00  0.00     0.012 A 
ATOM     22  C   UNL A   1      32.382  19.862  22.872  1.00  0.00     0.012 A 
BRANCH  18  23
ATOM     23  S   UNL A   1      33.046  16.433  24.897  1.00  0.00     0.238 S 
ATOM     24  O   UNL A   1      33.727  15.804  23.791  1.00  0.00    -0.207 OA
ATOM     25  O   UNL A   1      31.803  15.929  25.435  1.00  0.00    -0.207 OA
BRANCH  23  26
ATOM     26  N   UNL A   1      34.142  16.400  26.170  1.00  0.00    -0.225 NA
ATOM     27  H   UNL A   1      33.708  15.962  26.982  1.00  0.00     0.137 HD
ATOM     28  H   UNL A   1      34.417  17.354  26.406  1.00  0.00     0.137 HD
ENDBRANCH  23  26
ENDBRANCH  18  23
ENDBRANCH  12  17
ENDBRANCH   6  11
ENDBRANCH   3   5
ENDBRANCH   2   3
ENDBRANCH   1   2
BRANCH   1  29
ATOM     29  C   UNL A   1      41.331  21.225  26.572  1.00  0.00     0.275 C 
BRANCH  29  30
ATOM     30  O   UNL A   1      41.960  21.799  25.430  1.00  0.00    -0.458 OA
BRANCH  30  31
ATOM     31  C   UNL A   1      43.312  21.782  25.457  1.00  0.00     0.338 C 
ATOM     32  O   UNL A   1      44.038  20.806  25.367  1.00  0.00    -0.246 OA
BRANCH  31  33
ATOM     33  C   UNL A   1      43.803  23.114  25.817  1.00  0.00     0.060 A 
ATOM     34  C   UNL A   1      44.588  23.208  26.972  1.00  0.00     0.016 A 
ATOM     35  C   UNL A   1      43.189  24.230  25.235  1.00  0.00     0.016 A 
ATOM     36  C   UNL A   1      44.565  24.389  27.679  1.00  0.00     0.010 A 
ATOM     37  C   UNL A   1      43.148  25.396  25.952  1.00  0.00     0.010 A 
ATOM     38  C   UNL A   1      43.755  25.423  27.207  1.00  0.00    -0.014 A 
BRANCH  38  39
ATOM     39  C   UNL A   1      43.524  26.566  28.061  1.00  0.00     0.031 A 
ATOM     40  C   UNL A   1      44.558  27.618  27.959  1.00  0.00     0.074 A 
ATOM     41  C   UNL A   1      42.360  26.692  28.726  1.00  0.00     0.049 A 
ATOM     42  N   UNL A   1      45.303  28.103  28.893  1.00  0.00    -0.248 NA
ATOM     43  C   UNL A   1      44.894  28.093  26.606  1.00  0.00     0.031 C 
ATOM     44  C   UNL A   1      41.163  25.847  28.626  1.00  0.00     0.029 A 
ATOM     45  N   UNL A   1      41.949  27.709  29.522  1.00  0.00    -0.354 N 
ATOM     46  C   UNL A   1      46.088  29.074  28.278  1.00  0.00     0.074 A 
ATOM     47  C   UNL A   1      45.919  28.901  26.859  1.00  0.00     0.031 C 
ATOM     48  C   UNL A   1      40.103  26.523  29.122  1.00  0.00     0.029 A 
ATOM     49  C   UNL A   1      40.572  27.779  29.685  1.00  0.00     0.049 A 
ATOM     50  H   UNL A   1      42.572  28.342  29.948  1.00  0.00     0.167 HD
ATOM     51  C   UNL A   1      46.648  30.102  28.969  1.00  0.00     0.031 A 
ATOM     52  C   UNL A   1      39.876  28.848  30.148  1.00  0.00     0.031 A 
ATOM     53  C   UNL A   1      46.670  29.854  30.384  1.00  0.00     0.049 A 
ATOM     54  C   UNL A   1      40.844  29.720  30.863  1.00  0.00     0.074 A 
ATOM     55  C   UNL A   1      47.287  28.918  31.189  1.00  0.00     0.029 A 
ATOM     56  N   UNL A   1      45.654  30.395  31.138  1.00  0.00    -0.354 N 
ATOM     57  N   UNL A   1      41.468  29.361  31.951  1.00  0.00    -0.248 NA
ATOM     58  C   UNL A   1      41.471  30.805  30.121  1.00  0.00     0.031 C 
ATOM     59  C   UNL A   1      46.332  28.614  32.202  1.00  0.00     0.029 A 
ATOM     60  C   UNL A   1      45.207  29.416  31.991  1.00  0.00     0.049 A 
ATOM     61  H   UNL A   1      45.311  31.315  31.076  1.00  0.00     0.167 HD
ATOM     62  C   UNL A   1      42.755  29.866  31.814  1.00  0.00     0.074 A 
ATOM     63  C   UNL A   1      42.667  30.831  30.719  1.00  0.00     0.031 C 
ATOM     64  C   UNL A   1      43.827  29.255  32.406  1.00  0.00     0.031 A 
BRANCH  51  65
ATOM     65  C   UNL A   1      46.839  31.471  28.374  1.00  0.00    -0.014 A 
ATOM     66  C   UNL A   1      45.806  32.419  28.479  1.00  0.00     0.010 A 
ATOM     67  C   UNL A   1      47.899  31.772  27.490  1.00  0.00     0.010 A 
ATOM     68  C   UNL A   1      45.807  33.581  27.694  1.00  0.00     0.020 A 
ATOM     69  C   UNL A   1      47.936  32.948  26.741  1.00  0.00     0.020 A 
ATOM     70  C   UNL A   1      46.868  33.828  26.819  1.00  0.00     0.054 A 
BRANCH  70  71
ATOM     71  S   UNL A   1      46.803  35.261  25.718  1.00  0.00     0.124 S 
ATOM     72  O   UNL A   1      45.955  36.179  26.473  1.00  0.00    -0.237 OA
ATOM     73  O   UNL A   1      48.209  35.637  25.611  1.00  0.00    -0.237 OA
ATOM     74  O   UNL A   1      46.210  34.726  24.493  1.00  0.00    -0.744 OA
ENDBRANCH  70  71
ENDBRANCH  51  65
BRANCH  52  75
ATOM     75  C   UNL A   1      38.552  29.319  29.666  1.00  0.00    -0.014 A 
ATOM     76  C   UNL A   1      37.483  29.534  30.554  1.00  0.00     0.010 A 
ATOM     77  C   UNL A   1      38.414  29.809  28.349  1.00  0.00     0.010 A 
ATOM     78  C   UNL A   1      36.342  30.253  30.153  1.00  0.00     0.020 A 
ATOM     79  C   UNL A   1      37.280  30.518  27.939  1.00  0.00     0.020 A 
ATOM     80  C   UNL A   1      36.257  30.756  28.851  1.00  0.00     0.054 A 
BRANCH  80  81
ATOM     81  S   UNL A   1      34.860  31.824  28.388  1.00  0.00     0.124 S 
ATOM     82  O   UNL A   1      33.963  30.890  27.714  1.00  0.00    -0.237 OA
ATOM     83  O   UNL A   1      34.399  32.321  29.682  1.00  0.00    -0.237 OA
ATOM     84  O   UNL A   1      35.469  32.833  27.523  1.00  0.00    -0.744 OA
ENDBRANCH  80  81
ENDBRANCH  52  75
BRANCH  64  85
ATOM     85  C   UNL A   1      43.553  28.130  33.386  1.00  0.00    -0.014 A 
ATOM     86  C   UNL A   1      43.553  26.769  33.013  1.00  0.00     0.010 A 
ATOM     87  C   UNL A   1      43.473  28.446  34.752  1.00  0.00     0.010 A 
ATOM     88  C   UNL A   1      43.461  25.756  33.980  1.00  0.00     0.020 A 
ATOM     89  C   UNL A   1      43.397  27.440  35.722  1.00  0.00     0.020 A 
ATOM     90  C   UNL A   1      43.385  26.100  35.332  1.00  0.00     0.054 A 
BRANCH  90  91
ATOM     91  S   UNL A   1      43.334  24.785  36.584  1.00  0.00     0.124 S 
ATOM     92  O   UNL A   1      44.165  23.743  35.986  1.00  0.00    -0.237 OA
ATOM     93  O   UNL A   1      43.895  25.436  37.765  1.00  0.00    -0.237 OA
ATOM     94  O   UNL A   1      41.912  24.457  36.686  1.00  0.00    -0.744 OA
ENDBRANCH  90  91
ENDBRANCH  64  85
ENDBRANCH  38  39
ENDBRANCH  31  33
ENDBRANCH  30  31
ENDBRANCH  29  30
ENDBRANCH   1  29
TORSDOF 18
ENDMDL
