MODEL 1
REMARK VINA RESULT:     -12.2      0.000      0.000
REMARK SMILES Nc1ccc(-c2cc(Cl)cc3c2O[C@H](C(F)(F)F)C(C(=O)OCCOC(=O)c2ccc(-c4c5nc(c(-c6ccc(S(=O)(=O)[O-])cc6)c6ccc([nH]6)c(-c6ccc(S(=O)(=O)[O-])cc6)c6nc(c(-c7ccc(S(=O)(=O)[O-])cc7)c7ccc4[nH]7)C=C6)C=C5)cc2)=C3)cc1
REMARK SMILES IDX 24 1 23 2 22 3 20 4 21 5 19 6 6 7 7 8 12 9 8 10 11 11 13 12
REMARK SMILES IDX 9 13 10 14 88 15 14 16 5 17 2 18 3 19 90 20 4 21 89 22 1 23
REMARK SMILES IDX 15 26 16 27 17 28 18 29 25 30 26 31 27 32 28 33 29 34 87 35
REMARK SMILES IDX 30 36 86 37 31 38 32 39 33 40 80 41 34 42 85 43 79 44 81 45
REMARK SMILES IDX 35 46 84 47 78 48 77 49 36 51 66 52 47 53 65 54 48 55 51 56
REMARK SMILES IDX 64 57 82 58 49 59 50 60 63 62 83 63 52 64 37 65 38 66 46 67
REMARK SMILES IDX 39 68 45 69 40 70 41 71 42 72 43 73 44 74 67 75 68 76 76 77
REMARK SMILES IDX 69 78 75 79 70 80 71 81 72 82 73 83 74 84 53 85 54 86 62 87
REMARK SMILES IDX 55 88 61 89 56 90 57 91 58 92 59 93 60 94
REMARK H PARENT 1 24 1 25 81 50 51 61
REMARK Flexibility Score: inf
ROOT
ATOM      1  C   UNL A   1      32.404  29.078  27.008  1.00  0.00     0.275 C 
ENDROOT
BRANCH   1   2
ATOM      2  C   UNL A   1      32.081  28.875  25.526  1.00  0.00     0.275 C 
BRANCH   2   3
ATOM      3  O   UNL A   1      32.474  27.559  25.076  1.00  0.00    -0.459 OA
BRANCH   3   4
ATOM      4  C   UNL A   1      31.729  26.531  25.547  1.00  0.00     0.338 C 
ATOM      5  O   UNL A   1      30.563  26.581  25.903  1.00  0.00    -0.246 OA
BRANCH   4   6
ATOM      6  C   UNL A   1      32.518  25.284  25.555  1.00  0.00     0.087 C 
ATOM      7  C   UNL A   1      34.837  21.812  25.151  1.00  0.00     0.026 A 
ATOM      8  C   UNL A   1      36.225  21.905  25.371  1.00  0.00     0.033 A 
ATOM      9  C   UNL A   1      34.044  22.960  25.346  1.00  0.00     0.135 A 
ATOM     10  C   UNL A   1      36.802  23.105  25.776  1.00  0.00     0.042 A 
ATOM     11  C   UNL A   1      34.639  24.166  25.713  1.00  0.00     0.019 A 
ATOM     12  O   UNL A   1      32.686  22.829  25.199  1.00  0.00    -0.475 OA
ATOM     13  Cl  UNL A   1      38.499  23.192  26.043  1.00  0.00    -0.084 Cl
ATOM     14  C   UNL A   1      36.017  24.238  25.946  1.00  0.00     0.032 A 
ATOM     15  C   UNL A   1      33.828  25.360  25.815  1.00  0.00     0.027 C 
ATOM     16  C   UNL A   1      31.847  24.011  25.138  1.00  0.00     0.316 C 
BRANCH   7  17
ATOM     17  C   UNL A   1      34.252  20.544  24.696  1.00  0.00    -0.014 A 
ATOM     18  C   UNL A   1      33.082  18.103  23.886  1.00  0.00     0.031 A 
ATOM     19  C   UNL A   1      32.388  19.302  23.740  1.00  0.00     0.026 A 
ATOM     20  C   UNL A   1      34.372  18.132  24.417  1.00  0.00     0.026 A 
ATOM     21  C   UNL A   1      32.966  20.510  24.136  1.00  0.00     0.011 A 
ATOM     22  C   UNL A   1      34.952  19.338  24.821  1.00  0.00     0.011 A 
BRANCH  18  23
ATOM     23  N   UNL A   1      32.510  16.909  23.489  1.00  0.00    -0.399 N 
ATOM     24  H   UNL A   1      32.328  16.206  24.154  1.00  0.00     0.156 HD
ATOM     25  H   UNL A   1      32.284  16.762  22.542  1.00  0.00     0.156 HD
ENDBRANCH  18  23
ENDBRANCH   7  17
BRANCH  16  26
ATOM     26  C   UNL A   1      31.266  24.128  23.719  1.00  0.00     0.430 C 
ATOM     27  F   UNL A   1      31.011  22.908  23.186  1.00  0.00    -0.167 F 
ATOM     28  F   UNL A   1      30.090  24.801  23.714  1.00  0.00    -0.167 F 
ATOM     29  F   UNL A   1      32.105  24.769  22.875  1.00  0.00    -0.167 F 
ENDBRANCH  16  26
ENDBRANCH   4   6
ENDBRANCH   3   4
ENDBRANCH   2   3
ENDBRANCH   1   2
BRANCH   1  30
ATOM     30  O   UNL A   1      33.826  29.103  27.216  1.00  0.00    -0.458 OA
BRANCH  30  31
ATOM     31  C   UNL A   1      34.313  30.253  27.738  1.00  0.00     0.338 C 
ATOM     32  O   UNL A   1      33.708  31.291  27.939  1.00  0.00    -0.246 OA
BRANCH  31  33
ATOM     33  C   UNL A   1      35.698  30.038  28.173  1.00  0.00     0.060 A 
ATOM     34  C   UNL A   1      36.009  29.546  29.433  1.00  0.00     0.016 A 
ATOM     35  C   UNL A   1      36.700  30.203  27.227  1.00  0.00     0.016 A 
ATOM     36  C   UNL A   1      37.346  29.244  29.730  1.00  0.00     0.010 A 
ATOM     37  C   UNL A   1      37.987  29.739  27.463  1.00  0.00     0.010 A 
ATOM     38  C   UNL A   1      38.349  29.301  28.737  1.00  0.00    -0.014 A 
BRANCH  38  39
ATOM     39  C   UNL A   1      39.767  28.934  29.022  1.00  0.00     0.031 A 
ATOM     40  C   UNL A   1      40.675  29.875  29.786  1.00  0.00     0.074 A 
ATOM     41  C   UNL A   1      40.255  27.760  28.568  1.00  0.00     0.049 A 
ATOM     42  N   UNL A   1      41.923  29.698  30.148  1.00  0.00    -0.248 NA
ATOM     43  C   UNL A   1      40.142  31.198  30.158  1.00  0.00     0.031 C 
ATOM     44  C   UNL A   1      39.518  26.806  27.736  1.00  0.00     0.029 A 
ATOM     45  N   UNL A   1      41.472  27.152  28.763  1.00  0.00    -0.354 N 
ATOM     46  C   UNL A   1      42.313  30.884  30.763  1.00  0.00     0.074 A 
ATOM     47  C   UNL A   1      41.212  31.806  30.648  1.00  0.00     0.031 C 
ATOM     48  C   UNL A   1      40.255  25.697  27.576  1.00  0.00     0.029 A 
ATOM     49  C   UNL A   1      41.541  25.877  28.244  1.00  0.00     0.049 A 
ATOM     50  H   UNL A   1      42.223  27.584  29.230  1.00  0.00     0.167 HD
ATOM     51  C   UNL A   1      43.464  31.166  31.418  1.00  0.00     0.031 A 
ATOM     52  C   UNL A   1      42.513  24.944  28.316  1.00  0.00     0.031 A 
ATOM     53  C   UNL A   1      44.533  30.220  31.590  1.00  0.00     0.049 A 
ATOM     54  C   UNL A   1      43.763  25.255  29.090  1.00  0.00     0.074 A 
ATOM     55  C   UNL A   1      45.704  30.374  32.309  1.00  0.00     0.029 A 
ATOM     56  N   UNL A   1      44.554  28.940  31.056  1.00  0.00    -0.354 N 
ATOM     57  N   UNL A   1      44.074  26.351  29.740  1.00  0.00    -0.248 NA
ATOM     58  C   UNL A   1      44.789  24.206  29.155  1.00  0.00     0.031 C 
ATOM     59  C   UNL A   1      46.460  29.212  32.159  1.00  0.00     0.029 A 
ATOM     60  C   UNL A   1      45.728  28.303  31.411  1.00  0.00     0.049 A 
ATOM     61  H   UNL A   1      43.839  28.545  30.505  1.00  0.00     0.167 HD
ATOM     62  C   UNL A   1      45.323  26.120  30.303  1.00  0.00     0.074 A 
ATOM     63  C   UNL A   1      45.702  24.770  29.938  1.00  0.00     0.031 C 
ATOM     64  C   UNL A   1      46.089  26.955  31.046  1.00  0.00     0.031 A 
BRANCH  51  65
ATOM     65  C   UNL A   1      43.616  32.524  32.062  1.00  0.00    -0.014 A 
ATOM     66  C   UNL A   1      43.230  32.720  33.401  1.00  0.00     0.010 A 
ATOM     67  C   UNL A   1      44.024  33.638  31.303  1.00  0.00     0.010 A 
ATOM     68  C   UNL A   1      43.216  34.003  33.957  1.00  0.00     0.020 A 
ATOM     69  C   UNL A   1      44.045  34.917  31.866  1.00  0.00     0.020 A 
ATOM     70  C   UNL A   1      43.614  35.095  33.182  1.00  0.00     0.054 A 
BRANCH  70  71
ATOM     71  S   UNL A   1      43.551  36.758  33.905  1.00  0.00     0.124 S 
ATOM     72  O   UNL A   1      43.767  37.609  32.739  1.00  0.00    -0.237 OA
ATOM     73  O   UNL A   1      42.210  36.804  34.483  1.00  0.00    -0.237 OA
ATOM     74  O   UNL A   1      44.639  36.748  34.881  1.00  0.00    -0.744 OA
ENDBRANCH  70  71
ENDBRANCH  51  65
BRANCH  52  75
ATOM     75  C   UNL A   1      42.278  23.604  27.705  1.00  0.00    -0.014 A 
ATOM     76  C   UNL A   1      41.794  22.536  28.481  1.00  0.00     0.010 A 
ATOM     77  C   UNL A   1      42.646  23.362  26.368  1.00  0.00     0.010 A 
ATOM     78  C   UNL A   1      41.745  21.241  27.956  1.00  0.00     0.020 A 
ATOM     79  C   UNL A   1      42.566  22.074  25.828  1.00  0.00     0.020 A 
ATOM     80  C   UNL A   1      42.148  21.015  26.638  1.00  0.00     0.054 A 
BRANCH  80  81
ATOM     81  S   UNL A   1      42.150  19.315  26.004  1.00  0.00     0.124 S 
ATOM     82  O   UNL A   1      42.671  18.571  27.147  1.00  0.00    -0.237 OA
ATOM     83  O   UNL A   1      40.741  19.088  25.695  1.00  0.00    -0.237 OA
ATOM     84  O   UNL A   1      43.036  19.382  24.845  1.00  0.00    -0.744 OA
ENDBRANCH  80  81
ENDBRANCH  52  75
BRANCH  64  85
ATOM     85  C   UNL A   1      47.427  26.462  31.528  1.00  0.00    -0.014 A 
ATOM     86  C   UNL A   1      48.541  26.512  30.668  1.00  0.00     0.010 A 
ATOM     87  C   UNL A   1      47.543  25.797  32.762  1.00  0.00     0.010 A 
ATOM     88  C   UNL A   1      49.730  25.864  31.009  1.00  0.00     0.020 A 
ATOM     89  C   UNL A   1      48.741  25.176  33.120  1.00  0.00     0.020 A 
ATOM     90  C   UNL A   1      49.817  25.187  32.228  1.00  0.00     0.054 A 
BRANCH  90  91
ATOM     91  S   UNL A   1      51.347  24.299  32.625  1.00  0.00     0.124 S 
ATOM     92  O   UNL A   1      52.335  25.014  31.823  1.00  0.00    -0.237 OA
ATOM     93  O   UNL A   1      51.457  24.482  34.070  1.00  0.00    -0.237 OA
ATOM     94  O   UNL A   1      51.070  22.929  32.199  1.00  0.00    -0.744 OA
ENDBRANCH  90  91
ENDBRANCH  64  85
ENDBRANCH  38  39
ENDBRANCH  31  33
ENDBRANCH  30  31
ENDBRANCH   1  30
TORSDOF 17
ENDMDL
MODEL 2
REMARK VINA RESULT:     -12.1      3.109      9.563
REMARK SMILES Nc1ccc(-c2cc(Cl)cc3c2O[C@H](C(F)(F)F)C(C(=O)OCCOC(=O)c2ccc(-c4c5nc(c(-c6ccc(S(=O)(=O)[O-])cc6)c6ccc([nH]6)c(-c6ccc(S(=O)(=O)[O-])cc6)c6nc(c(-c7ccc(S(=O)(=O)[O-])cc7)c7ccc4[nH]7)C=C6)C=C5)cc2)=C3)cc1
REMARK SMILES IDX 24 1 23 2 22 3 20 4 21 5 19 6 6 7 7 8 12 9 8 10 11 11 13 12
REMARK SMILES IDX 9 13 10 14 88 15 14 16 5 17 2 18 3 19 90 20 4 21 89 22 1 23
REMARK SMILES IDX 15 26 16 27 17 28 18 29 25 30 26 31 27 32 28 33 29 34 87 35
REMARK SMILES IDX 30 36 86 37 31 38 32 39 33 40 80 41 34 42 85 43 79 44 81 45
REMARK SMILES IDX 35 46 84 47 78 48 77 49 36 51 66 52 47 53 65 54 48 55 51 56
REMARK SMILES IDX 64 57 82 58 49 59 50 60 63 62 83 63 52 64 37 65 38 66 46 67
REMARK SMILES IDX 39 68 45 69 40 70 41 71 42 72 43 73 44 74 67 75 68 76 76 77
REMARK SMILES IDX 69 78 75 79 70 80 71 81 72 82 73 83 74 84 53 85 54 86 62 87
REMARK SMILES IDX 55 88 61 89 56 90 57 91 58 92 59 93 60 94
REMARK H PARENT 1 24 1 25 81 50 51 61
REMARK Flexibility Score: inf
ROOT
ATOM      1  C   UNL A   1      37.020  22.267  24.252  1.00  0.00     0.275 C 
ENDROOT
BRANCH   1   2
ATOM      2  C   UNL A   1      35.590  21.882  24.636  1.00  0.00     0.275 C 
BRANCH   2   3
ATOM      3  O   UNL A   1      34.643  22.893  24.224  1.00  0.00    -0.459 OA
BRANCH   3   4
ATOM      4  C   UNL A   1      33.745  23.274  25.163  1.00  0.00     0.338 C 
ATOM      5  O   UNL A   1      33.320  22.592  26.082  1.00  0.00    -0.246 OA
BRANCH   4   6
ATOM      6  C   UNL A   1      33.340  24.677  24.951  1.00  0.00     0.087 C 
ATOM      7  C   UNL A   1      31.866  28.592  24.642  1.00  0.00     0.026 A 
ATOM      8  C   UNL A   1      32.373  29.570  25.519  1.00  0.00     0.033 A 
ATOM      9  C   UNL A   1      32.401  27.290  24.699  1.00  0.00     0.135 A 
ATOM     10  C   UNL A   1      33.386  29.258  26.422  1.00  0.00     0.042 A 
ATOM     11  C   UNL A   1      33.387  26.980  25.634  1.00  0.00     0.019 A 
ATOM     12  O   UNL A   1      31.945  26.373  23.785  1.00  0.00    -0.475 OA
ATOM     13  Cl  UNL A   1      33.993  30.470  27.480  1.00  0.00    -0.084 Cl
ATOM     14  C   UNL A   1      33.895  27.967  26.487  1.00  0.00     0.032 A 
ATOM     15  C   UNL A   1      33.859  25.617  25.749  1.00  0.00     0.027 C 
ATOM     16  C   UNL A   1      32.265  24.968  23.950  1.00  0.00     0.316 C 
BRANCH   7  17
ATOM     17  C   UNL A   1      30.777  28.934  23.717  1.00  0.00    -0.014 A 
ATOM     18  C   UNL A   1      28.683  29.666  21.967  1.00  0.00     0.031 A 
ATOM     19  C   UNL A   1      29.996  30.047  21.697  1.00  0.00     0.026 A 
ATOM     20  C   UNL A   1      28.425  28.898  23.103  1.00  0.00     0.026 A 
ATOM     21  C   UNL A   1      31.032  29.684  22.558  1.00  0.00     0.011 A 
ATOM     22  C   UNL A   1      29.459  28.536  23.972  1.00  0.00     0.011 A 
BRANCH  18  23
ATOM     23  N   UNL A   1      27.659  30.024  21.111  1.00  0.00    -0.399 N 
ATOM     24  H   UNL A   1      27.814  30.703  20.414  1.00  0.00     0.156 HD
ATOM     25  H   UNL A   1      26.774  29.601  21.198  1.00  0.00     0.156 HD
ENDBRANCH  18  23
ENDBRANCH   7  17
BRANCH  16  26
ATOM     26  C   UNL A   1      30.972  24.206  24.284  1.00  0.00     0.430 C 
ATOM     27  F   UNL A   1      30.649  24.329  25.594  1.00  0.00    -0.167 F 
ATOM     28  F   UNL A   1      29.915  24.682  23.582  1.00  0.00    -0.167 F 
ATOM     29  F   UNL A   1      31.075  22.884  24.017  1.00  0.00    -0.167 F 
ENDBRANCH  16  26
ENDBRANCH   4   6
ENDBRANCH   3   4
ENDBRANCH   2   3
ENDBRANCH   1   2
BRANCH   1  30
ATOM     30  O   UNL A   1      37.544  23.244  25.167  1.00  0.00    -0.458 OA
BRANCH  30  31
ATOM     31  C   UNL A   1      38.552  22.812  25.958  1.00  0.00     0.338 C 
ATOM     32  O   UNL A   1      38.978  21.676  26.063  1.00  0.00    -0.246 OA
BRANCH  31  33
ATOM     33  C   UNL A   1      39.184  23.966  26.609  1.00  0.00     0.060 A 
ATOM     34  C   UNL A   1      39.900  24.917  25.895  1.00  0.00     0.016 A 
ATOM     35  C   UNL A   1      38.922  24.165  27.958  1.00  0.00     0.016 A 
ATOM     36  C   UNL A   1      40.363  26.058  26.565  1.00  0.00     0.010 A 
ATOM     37  C   UNL A   1      39.227  25.372  28.572  1.00  0.00     0.010 A 
ATOM     38  C   UNL A   1      40.001  26.320  27.904  1.00  0.00    -0.014 A 
BRANCH  38  39
ATOM     39  C   UNL A   1      40.443  27.555  28.617  1.00  0.00     0.031 A 
ATOM     40  C   UNL A   1      41.868  27.702  29.108  1.00  0.00     0.074 A 
ATOM     41  C   UNL A   1      39.553  28.542  28.853  1.00  0.00     0.049 A 
ATOM     42  N   UNL A   1      42.426  28.720  29.715  1.00  0.00    -0.248 NA
ATOM     43  C   UNL A   1      42.777  26.553  28.940  1.00  0.00     0.031 C 
ATOM     44  C   UNL A   1      38.127  28.487  28.523  1.00  0.00     0.029 A 
ATOM     45  N   UNL A   1      39.715  29.793  29.397  1.00  0.00    -0.354 N 
ATOM     46  C   UNL A   1      43.728  28.323  30.010  1.00  0.00     0.074 A 
ATOM     47  C   UNL A   1      43.854  26.946  29.604  1.00  0.00     0.031 C 
ATOM     48  C   UNL A   1      37.569  29.680  28.777  1.00  0.00     0.029 A 
ATOM     49  C   UNL A   1      38.579  30.571  29.341  1.00  0.00     0.049 A 
ATOM     50  H   UNL A   1      40.562  30.106  29.789  1.00  0.00     0.167 HD
ATOM     51  C   UNL A   1      44.747  29.053  30.521  1.00  0.00     0.031 A 
ATOM     52  C   UNL A   1      38.372  31.860  29.678  1.00  0.00     0.031 A 
ATOM     53  C   UNL A   1      44.635  30.446  30.861  1.00  0.00     0.049 A 
ATOM     54  C   UNL A   1      39.527  32.671  30.196  1.00  0.00     0.074 A 
ATOM     55  C   UNL A   1      45.628  31.300  31.304  1.00  0.00     0.029 A 
ATOM     56  N   UNL A   1      43.469  31.191  30.778  1.00  0.00    -0.354 N 
ATOM     57  N   UNL A   1      40.771  32.299  30.382  1.00  0.00    -0.248 NA
ATOM     58  C   UNL A   1      39.260  34.075  30.536  1.00  0.00     0.031 C 
ATOM     59  C   UNL A   1      45.050  32.546  31.547  1.00  0.00     0.029 A 
ATOM     60  C   UNL A   1      43.714  32.491  31.183  1.00  0.00     0.049 A 
ATOM     61  H   UNL A   1      42.597  30.847  30.476  1.00  0.00     0.167 HD
ATOM     62  C   UNL A   1      41.439  33.425  30.849  1.00  0.00     0.074 A 
ATOM     63  C   UNL A   1      40.468  34.499  30.893  1.00  0.00     0.031 C 
ATOM     64  C   UNL A   1      42.737  33.552  31.216  1.00  0.00     0.031 A 
BRANCH  51  65
ATOM     65  C   UNL A   1      46.097  28.394  30.686  1.00  0.00    -0.014 A 
ATOM     66  C   UNL A   1      46.993  28.335  29.602  1.00  0.00     0.010 A 
ATOM     67  C   UNL A   1      46.428  27.722  31.878  1.00  0.00     0.010 A 
ATOM     68  C   UNL A   1      48.173  27.592  29.695  1.00  0.00     0.020 A 
ATOM     69  C   UNL A   1      47.624  27.008  31.986  1.00  0.00     0.020 A 
ATOM     70  C   UNL A   1      48.476  26.924  30.884  1.00  0.00     0.054 A 
BRANCH  70  71
ATOM     71  S   UNL A   1      49.991  25.930  30.975  1.00  0.00     0.124 S 
ATOM     72  O   UNL A   1      49.684  24.999  32.056  1.00  0.00    -0.237 OA
ATOM     73  O   UNL A   1      50.070  25.345  29.638  1.00  0.00    -0.237 OA
ATOM     74  O   UNL A   1      51.029  26.915  31.274  1.00  0.00    -0.744 OA
ENDBRANCH  70  71
ENDBRANCH  51  65
BRANCH  52  75
ATOM     75  C   UNL A   1      37.030  32.466  29.440  1.00  0.00    -0.014 A 
ATOM     76  C   UNL A   1      36.731  33.091  28.216  1.00  0.00     0.010 A 
ATOM     77  C   UNL A   1      36.083  32.517  30.480  1.00  0.00     0.010 A 
ATOM     78  C   UNL A   1      35.543  33.813  28.058  1.00  0.00     0.020 A 
ATOM     79  C   UNL A   1      34.878  33.209  30.314  1.00  0.00     0.020 A 
ATOM     80  C   UNL A   1      34.632  33.882  29.115  1.00  0.00     0.054 A 
BRANCH  80  81
ATOM     81  S   UNL A   1      33.136  34.889  28.913  1.00  0.00     0.124 S 
ATOM     82  O   UNL A   1      33.689  36.155  28.440  1.00  0.00    -0.237 OA
ATOM     83  O   UNL A   1      32.371  34.129  27.928  1.00  0.00    -0.237 OA
ATOM     84  O   UNL A   1      32.561  34.920  30.255  1.00  0.00    -0.744 OA
ENDBRANCH  80  81
ENDBRANCH  52  75
BRANCH  64  85
ATOM     85  C   UNL A   1      43.216  34.892  31.707  1.00  0.00    -0.014 A 
ATOM     86  C   UNL A   1      42.942  35.288  33.030  1.00  0.00     0.010 A 
ATOM     87  C   UNL A   1      43.782  35.821  30.817  1.00  0.00     0.010 A 
ATOM     88  C   UNL A   1      43.177  36.602  33.440  1.00  0.00     0.020 A 
ATOM     89  C   UNL A   1      44.049  37.127  31.233  1.00  0.00     0.020 A 
ATOM     90  C   UNL A   1      43.716  37.517  32.533  1.00  0.00     0.054 A 
BRANCH  90  91
ATOM     91  S   UNL A   1      43.957  39.234  33.065  1.00  0.00     0.124 S 
ATOM     92  O   UNL A   1      43.700  39.976  31.834  1.00  0.00    -0.237 OA
ATOM     93  O   UNL A   1      42.952  39.388  34.114  1.00  0.00    -0.237 OA
ATOM     94  O   UNL A   1      45.341  39.259  33.531  1.00  0.00    -0.744 OA
ENDBRANCH  90  91
ENDBRANCH  64  85
ENDBRANCH  38  39
ENDBRANCH  31  33
ENDBRANCH  30  31
ENDBRANCH   1  30
TORSDOF 17
ENDMDL
MODEL 3
REMARK VINA RESULT:     -12.0      1.477      8.161
REMARK SMILES Nc1ccc(-c2cc(Cl)cc3c2O[C@H](C(F)(F)F)C(C(=O)OCCOC(=O)c2ccc(-c4c5nc(c(-c6ccc(S(=O)(=O)[O-])cc6)c6ccc([nH]6)c(-c6ccc(S(=O)(=O)[O-])cc6)c6nc(c(-c7ccc(S(=O)(=O)[O-])cc7)c7ccc4[nH]7)C=C6)C=C5)cc2)=C3)cc1
REMARK SMILES IDX 24 1 23 2 22 3 20 4 21 5 19 6 6 7 7 8 12 9 8 10 11 11 13 12
REMARK SMILES IDX 9 13 10 14 88 15 14 16 5 17 2 18 3 19 90 20 4 21 89 22 1 23
REMARK SMILES IDX 15 26 16 27 17 28 18 29 25 30 26 31 27 32 28 33 29 34 87 35
REMARK SMILES IDX 30 36 86 37 31 38 32 39 33 40 80 41 34 42 85 43 79 44 81 45
REMARK SMILES IDX 35 46 84 47 78 48 77 49 36 51 66 52 47 53 65 54 48 55 51 56
REMARK SMILES IDX 64 57 82 58 49 59 50 60 63 62 83 63 52 64 37 65 38 66 46 67
REMARK SMILES IDX 39 68 45 69 40 70 41 71 42 72 43 73 44 74 67 75 68 76 76 77
REMARK SMILES IDX 69 78 75 79 70 80 71 81 72 82 73 83 74 84 53 85 54 86 62 87
REMARK SMILES IDX 55 88 61 89 56 90 57 91 58 92 59 93 60 94
REMARK H PARENT 1 24 1 25 81 50 51 61
REMARK Flexibility Score: inf
ROOT
ATOM      1  C   UNL A   1      32.581  28.803  27.031  1.00  0.00     0.275 C 
ENDROOT
BRANCH   1   2
ATOM      2  C   UNL A   1      32.060  27.374  26.867  1.00  0.00     0.275 C 
BRANCH   2   3
ATOM      3  O   UNL A   1      31.853  27.044  25.475  1.00  0.00    -0.459 OA
BRANCH   3   4
ATOM      4  C   UNL A   1      32.976  26.880  24.737  1.00  0.00     0.338 C 
ATOM      5  O   UNL A   1      33.491  27.707  24.002  1.00  0.00    -0.246 OA
BRANCH   4   6
ATOM      6  C   UNL A   1      33.544  25.534  24.954  1.00  0.00     0.087 C 
ATOM      7  C   UNL A   1      35.290  21.726  25.147  1.00  0.00     0.026 A 
ATOM      8  C   UNL A   1      36.644  21.628  25.525  1.00  0.00     0.033 A 
ATOM      9  C   UNL A   1      34.680  22.996  25.140  1.00  0.00     0.135 A 
ATOM     10  C   UNL A   1      37.364  22.763  25.888  1.00  0.00     0.042 A 
ATOM     11  C   UNL A   1      35.424  24.129  25.468  1.00  0.00     0.019 A 
ATOM     12  O   UNL A   1      33.342  23.059  24.841  1.00  0.00    -0.475 OA
ATOM     13  Cl  UNL A   1      39.014  22.618  26.350  1.00  0.00    -0.084 Cl
ATOM     14  C   UNL A   1      36.762  24.014  25.859  1.00  0.00     0.032 A 
ATOM     15  C   UNL A   1      34.814  25.437  25.363  1.00  0.00     0.027 C 
ATOM     16  C   UNL A   1      32.721  24.342  24.573  1.00  0.00     0.316 C 
BRANCH   7  17
ATOM     17  C   UNL A   1      34.557  20.521  24.739  1.00  0.00    -0.014 A 
ATOM     18  C   UNL A   1      33.107  18.202  24.025  1.00  0.00     0.031 A 
ATOM     19  C   UNL A   1      32.500  19.455  23.987  1.00  0.00     0.026 A 
ATOM     20  C   UNL A   1      34.449  18.116  24.400  1.00  0.00     0.026 A 
ATOM     21  C   UNL A   1      33.215  20.602  24.335  1.00  0.00     0.011 A 
ATOM     22  C   UNL A   1      35.167  19.261  24.755  1.00  0.00     0.011 A 
BRANCH  18  23
ATOM     23  N   UNL A   1      32.399  17.068  23.676  1.00  0.00    -0.399 N 
ATOM     24  H   UNL A   1      31.592  17.145  23.116  1.00  0.00     0.156 HD
ATOM     25  H   UNL A   1      32.701  16.184  23.987  1.00  0.00     0.156 HD
ENDBRANCH  18  23
ENDBRANCH   7  17
BRANCH  16  26
ATOM     26  C   UNL A   1      32.320  24.393  23.089  1.00  0.00     0.430 C 
ATOM     27  F   UNL A   1      32.111  23.151  22.590  1.00  0.00    -0.167 F 
ATOM     28  F   UNL A   1      31.166  25.079  22.906  1.00  0.00    -0.167 F 
ATOM     29  F   UNL A   1      33.268  24.980  22.324  1.00  0.00    -0.167 F 
ENDBRANCH  16  26
ENDBRANCH   4   6
ENDBRANCH   3   4
ENDBRANCH   2   3
ENDBRANCH   1   2
BRANCH   1  30
ATOM     30  O   UNL A   1      33.873  28.801  27.663  1.00  0.00    -0.458 OA
BRANCH  30  31
ATOM     31  C   UNL A   1      34.378  30.023  27.946  1.00  0.00     0.338 C 
ATOM     32  O   UNL A   1      33.772  31.077  28.022  1.00  0.00    -0.246 OA
BRANCH  31  33
ATOM     33  C   UNL A   1      35.797  29.890  28.298  1.00  0.00     0.060 A 
ATOM     34  C   UNL A   1      36.211  29.417  29.536  1.00  0.00     0.016 A 
ATOM     35  C   UNL A   1      36.730  30.113  27.294  1.00  0.00     0.016 A 
ATOM     36  C   UNL A   1      37.578  29.194  29.751  1.00  0.00     0.010 A 
ATOM     37  C   UNL A   1      38.053  29.726  27.452  1.00  0.00     0.010 A 
ATOM     38  C   UNL A   1      38.515  29.309  28.701  1.00  0.00    -0.014 A 
BRANCH  38  39
ATOM     39  C   UNL A   1      39.967  29.026  28.899  1.00  0.00     0.031 A 
ATOM     40  C   UNL A   1      40.558  27.686  28.514  1.00  0.00     0.074 A 
ATOM     41  C   UNL A   1      40.759  29.967  29.457  1.00  0.00     0.049 A 
ATOM     42  N   UNL A   1      41.804  27.287  28.588  1.00  0.00    -0.248 NA
ATOM     43  C   UNL A   1      39.639  26.642  28.023  1.00  0.00     0.031 C 
ATOM     44  C   UNL A   1      40.299  31.263  29.964  1.00  0.00     0.029 A 
ATOM     45  N   UNL A   1      42.116  29.997  29.665  1.00  0.00    -0.354 N 
ATOM     46  C   UNL A   1      41.805  25.957  28.175  1.00  0.00     0.074 A 
ATOM     47  C   UNL A   1      40.432  25.585  27.940  1.00  0.00     0.031 C 
ATOM     48  C   UNL A   1      41.361  31.995  30.330  1.00  0.00     0.029 A 
ATOM     49  C   UNL A   1      42.575  31.207  30.139  1.00  0.00     0.049 A 
ATOM     50  H   UNL A   1      42.706  29.229  29.491  1.00  0.00     0.167 HD
ATOM     51  C   UNL A   1      42.856  25.133  27.955  1.00  0.00     0.031 A 
ATOM     52  C   UNL A   1      43.828  31.649  30.372  1.00  0.00     0.031 A 
ATOM     53  C   UNL A   1      44.227  25.531  28.126  1.00  0.00     0.049 A 
ATOM     54  C   UNL A   1      44.987  30.738  30.074  1.00  0.00     0.074 A 
ATOM     55  C   UNL A   1      45.369  24.803  27.848  1.00  0.00     0.029 A 
ATOM     56  N   UNL A   1      44.642  26.767  28.598  1.00  0.00    -0.354 N 
ATOM     57  N   UNL A   1      44.967  29.516  29.598  1.00  0.00    -0.248 NA
ATOM     58  C   UNL A   1      46.335  31.265  30.327  1.00  0.00     0.031 C 
ATOM     59  C   UNL A   1      46.473  25.575  28.209  1.00  0.00     0.029 A 
ATOM     60  C   UNL A   1      46.023  26.813  28.640  1.00  0.00     0.049 A 
ATOM     61  H   UNL A   1      44.042  27.501  28.864  1.00  0.00     0.167 HD
ATOM     62  C   UNL A   1      46.298  29.131  29.483  1.00  0.00     0.074 A 
ATOM     63  C   UNL A   1      47.098  30.259  29.915  1.00  0.00     0.031 C 
ATOM     64  C   UNL A   1      46.807  27.946  29.066  1.00  0.00     0.031 A 
BRANCH  51  65
ATOM     65  C   UNL A   1      42.586  23.738  27.440  1.00  0.00    -0.014 A 
ATOM     66  C   UNL A   1      42.363  22.682  28.343  1.00  0.00     0.010 A 
ATOM     67  C   UNL A   1      42.677  23.449  26.065  1.00  0.00     0.010 A 
ATOM     68  C   UNL A   1      42.272  21.364  27.887  1.00  0.00     0.020 A 
ATOM     69  C   UNL A   1      42.550  22.137  25.602  1.00  0.00     0.020 A 
ATOM     70  C   UNL A   1      42.377  21.098  26.519  1.00  0.00     0.054 A 
BRANCH  70  71
ATOM     71  S   UNL A   1      42.297  19.379  25.947  1.00  0.00     0.124 S 
ATOM     72  O   UNL A   1      42.841  18.649  27.088  1.00  0.00    -0.237 OA
ATOM     73  O   UNL A   1      40.870  19.191  25.697  1.00  0.00    -0.237 OA
ATOM     74  O   UNL A   1      43.134  19.378  24.748  1.00  0.00    -0.744 OA
ENDBRANCH  70  71
ENDBRANCH  51  65
BRANCH  52  75
ATOM     75  C   UNL A   1      44.029  33.054  30.829  1.00  0.00    -0.014 A 
ATOM     76  C   UNL A   1      44.265  33.341  32.186  1.00  0.00     0.010 A 
ATOM     77  C   UNL A   1      43.873  34.121  29.925  1.00  0.00     0.010 A 
ATOM     78  C   UNL A   1      44.274  34.663  32.642  1.00  0.00     0.020 A 
ATOM     79  C   UNL A   1      43.916  35.447  30.372  1.00  0.00     0.020 A 
ATOM     80  C   UNL A   1      44.082  35.707  31.734  1.00  0.00     0.054 A 
BRANCH  80  81
ATOM     81  S   UNL A   1      44.019  37.408  32.361  1.00  0.00     0.124 S 
ATOM     82  O   UNL A   1      45.352  37.565  32.936  1.00  0.00    -0.237 OA
ATOM     83  O   UNL A   1      43.760  38.184  31.152  1.00  0.00    -0.237 OA
ATOM     84  O   UNL A   1      42.923  37.377  33.325  1.00  0.00    -0.744 OA
ENDBRANCH  80  81
ENDBRANCH  52  75
BRANCH  64  85
ATOM     85  C   UNL A   1      48.303  27.775  29.048  1.00  0.00    -0.014 A 
ATOM     86  C   UNL A   1      49.026  28.077  27.878  1.00  0.00     0.010 A 
ATOM     87  C   UNL A   1      48.966  27.161  30.125  1.00  0.00     0.010 A 
ATOM     88  C   UNL A   1      50.371  27.719  27.765  1.00  0.00     0.020 A 
ATOM     89  C   UNL A   1      50.320  26.832  30.027  1.00  0.00     0.020 A 
ATOM     90  C   UNL A   1      51.005  27.087  28.835  1.00  0.00     0.054 A 
BRANCH  90  91
ATOM     91  S   UNL A   1      52.734  26.575  28.646  1.00  0.00     0.124 S 
ATOM     92  O   UNL A   1      52.661  25.652  27.517  1.00  0.00    -0.237 OA
ATOM     93  O   UNL A   1      53.416  27.840  28.382  1.00  0.00    -0.237 OA
ATOM     94  O   UNL A   1      53.054  25.961  29.934  1.00  0.00    -0.744 OA
ENDBRANCH  90  91
ENDBRANCH  64  85
ENDBRANCH  38  39
ENDBRANCH  31  33
ENDBRANCH  30  31
ENDBRANCH   1  30
TORSDOF 17
ENDMDL
