MODEL 1
REMARK VINA RESULT:     -10.2      0.000      0.000
REMARK SMILES O=Cc1ccc(-c2cnccc2C(=O)OCCOC(=O)c2ccc(-c3c4nc(c(-c5ccc(S(=O)(=O)[O-])cc5)c5ccc([nH]5)c(-c5ccc(S(=O)(=O)[O-])cc5)c5nc(c(-c6ccc(S(=O)(=O)[O-])cc6)c6ccc3[nH]6)C=C5)C=C4)cc2)s1
REMARK SMILES IDX 17 1 16 2 15 3 13 4 14 5 12 6 7 7 8 8 9 9 11 10 10 11 6 12
REMARK SMILES IDX 3 13 4 14 81 15 5 16 2 17 1 18 18 19 19 20 20 21 21 22 22 23
REMARK SMILES IDX 80 24 23 25 79 26 24 27 25 28 26 29 73 30 27 31 78 32 72 33
REMARK SMILES IDX 74 34 28 35 77 36 71 37 70 38 29 40 59 41 40 42 58 43 41 44
REMARK SMILES IDX 44 45 57 46 75 47 42 48 43 49 56 51 76 52 45 53 30 54 31 55
REMARK SMILES IDX 39 56 32 57 38 58 33 59 34 60 35 61 36 62 37 63 60 64 61 65
REMARK SMILES IDX 69 66 62 67 68 68 63 69 64 70 65 71 66 72 67 73 46 74 47 75
REMARK SMILES IDX 55 76 48 77 54 78 49 79 50 80 51 81 52 82 53 83
REMARK H PARENT 74 39 44 50
REMARK Flexibility Score: inf
ROOT
ATOM      1  C   UNL A   1      35.003  29.883  27.747  1.00  0.00     0.275 C 
ENDROOT
BRANCH   1   2
ATOM      2  C   UNL A   1      34.341  28.754  26.960  1.00  0.00     0.275 C 
BRANCH   2   3
ATOM      3  O   UNL A   1      33.429  29.277  25.971  1.00  0.00    -0.458 OA
BRANCH   3   4
ATOM      4  C   UNL A   1      32.505  28.420  25.469  1.00  0.00     0.339 C 
ATOM      5  O   UNL A   1      31.402  28.193  25.928  1.00  0.00    -0.246 OA
BRANCH   4   6
ATOM      6  C   UNL A   1      32.978  27.824  24.195  1.00  0.00     0.071 A 
ATOM      7  C   UNL A   1      33.108  26.443  24.003  1.00  0.00     0.025 A 
ATOM      8  C   UNL A   1      33.584  26.039  22.754  1.00  0.00     0.121 A 
ATOM      9  N   UNL A   1      33.919  26.873  21.741  1.00  0.00    -0.264 NA
ATOM     10  C   UNL A   1      33.262  28.704  23.142  1.00  0.00     0.036 A 
ATOM     11  C   UNL A   1      33.749  28.190  21.956  1.00  0.00     0.112 A 
BRANCH   7  12
ATOM     12  C   UNL A   1      32.695  25.447  24.993  1.00  0.00     0.037 A 
ATOM     13  C   UNL A   1      31.396  23.809  26.302  1.00  0.00     0.067 A 
ATOM     14  C   UNL A   1      32.706  23.883  26.724  1.00  0.00     0.024 A 
ATOM     15  S   UNL A   1      31.083  24.867  25.004  1.00  0.00    -0.132 S 
ATOM     16  C   UNL A   1      33.455  24.834  25.974  1.00  0.00     0.021 A 
BRANCH  13  17
ATOM     17  C   UNL A   1      30.334  22.979  26.818  1.00  0.00     0.270 C 
ATOM     18  O   UNL A   1      29.369  23.395  27.456  1.00  0.00    -0.297 OA
ENDBRANCH  13  17
ENDBRANCH   7  12
ENDBRANCH   4   6
ENDBRANCH   3   4
ENDBRANCH   2   3
ENDBRANCH   1   2
BRANCH   1  19
ATOM     19  O   UNL A   1      36.432  29.802  27.612  1.00  0.00    -0.458 OA
BRANCH  19  20
ATOM     20  C   UNL A   1      37.084  29.420  28.733  1.00  0.00     0.338 C 
ATOM     21  O   UNL A   1      36.624  29.280  29.854  1.00  0.00    -0.246 OA
BRANCH  20  22
ATOM     22  C   UNL A   1      38.455  29.037  28.386  1.00  0.00     0.060 A 
ATOM     23  C   UNL A   1      39.258  28.543  29.409  1.00  0.00     0.016 A 
ATOM     24  C   UNL A   1      38.992  29.297  27.130  1.00  0.00     0.016 A 
ATOM     25  C   UNL A   1      40.627  28.406  29.223  1.00  0.00     0.010 A 
ATOM     26  C   UNL A   1      40.354  29.057  26.912  1.00  0.00     0.010 A 
ATOM     27  C   UNL A   1      41.195  28.647  27.965  1.00  0.00    -0.014 A 
BRANCH  27  28
ATOM     28  C   UNL A   1      42.664  28.493  27.766  1.00  0.00     0.031 A 
ATOM     29  C   UNL A   1      43.597  29.635  28.085  1.00  0.00     0.074 A 
ATOM     30  C   UNL A   1      43.167  27.327  27.311  1.00  0.00     0.049 A 
ATOM     31  N   UNL A   1      44.874  29.752  27.829  1.00  0.00    -0.248 NA
ATOM     32  C   UNL A   1      43.011  30.803  28.763  1.00  0.00     0.031 C 
ATOM     33  C   UNL A   1      42.387  26.124  27.012  1.00  0.00     0.029 A 
ATOM     34  N   UNL A   1      44.460  26.960  27.023  1.00  0.00    -0.354 N 
ATOM     35  C   UNL A   1      45.233  31.027  28.260  1.00  0.00     0.074 A 
ATOM     36  C   UNL A   1      44.034  31.645  28.785  1.00  0.00     0.031 C 
ATOM     37  C   UNL A   1      43.217  25.145  26.621  1.00  0.00     0.029 A 
ATOM     38  C   UNL A   1      44.572  25.676  26.543  1.00  0.00     0.049 A 
ATOM     39  H   UNL A   1      45.232  27.558  27.150  1.00  0.00     0.167 HD
ATOM     40  C   UNL A   1      46.448  31.626  28.215  1.00  0.00     0.031 A 
ATOM     41  C   UNL A   1      45.630  25.009  26.043  1.00  0.00     0.031 A 
ATOM     42  C   UNL A   1      47.641  30.990  27.716  1.00  0.00     0.049 A 
ATOM     43  C   UNL A   1      46.955  25.709  25.956  1.00  0.00     0.074 A 
ATOM     44  C   UNL A   1      48.925  31.503  27.648  1.00  0.00     0.029 A 
ATOM     45  N   UNL A   1      47.698  29.701  27.205  1.00  0.00    -0.354 N 
ATOM     46  N   UNL A   1      47.269  26.924  26.336  1.00  0.00    -0.248 NA
ATOM     47  C   UNL A   1      48.065  24.953  25.364  1.00  0.00     0.031 C 
ATOM     48  C   UNL A   1      49.746  30.546  27.042  1.00  0.00     0.029 A 
ATOM     49  C   UNL A   1      48.988  29.411  26.794  1.00  0.00     0.049 A 
ATOM     50  H   UNL A   1      46.934  29.084  27.145  1.00  0.00     0.167 HD
ATOM     51  C   UNL A   1      48.618  27.076  26.040  1.00  0.00     0.074 A 
ATOM     52  C   UNL A   1      49.064  25.819  25.471  1.00  0.00     0.031 C 
ATOM     53  C   UNL A   1      49.414  28.159  26.221  1.00  0.00     0.031 A 
BRANCH  40  54
ATOM     54  C   UNL A   1      46.537  33.064  28.665  1.00  0.00    -0.014 A 
ATOM     55  C   UNL A   1      46.818  33.409  29.999  1.00  0.00     0.010 A 
ATOM     56  C   UNL A   1      46.356  34.093  27.721  1.00  0.00     0.010 A 
ATOM     57  C   UNL A   1      46.866  34.751  30.390  1.00  0.00     0.020 A 
ATOM     58  C   UNL A   1      46.434  35.435  28.099  1.00  0.00     0.020 A 
ATOM     59  C   UNL A   1      46.668  35.757  29.438  1.00  0.00     0.054 A 
BRANCH  59  60
ATOM     60  S   UNL A   1      46.738  37.489  29.969  1.00  0.00     0.124 S 
ATOM     61  O   UNL A   1      47.596  37.408  31.149  1.00  0.00    -0.237 OA
ATOM     62  O   UNL A   1      47.325  38.156  28.811  1.00  0.00    -0.237 OA
ATOM     63  O   UNL A   1      45.342  37.828  30.238  1.00  0.00    -0.744 OA
ENDBRANCH  59  60
ENDBRANCH  40  54
BRANCH  41  64
ATOM     64  C   UNL A   1      45.452  23.619  25.539  1.00  0.00    -0.014 A 
ATOM     65  C   UNL A   1      45.593  22.518  26.402  1.00  0.00     0.010 A 
ATOM     66  C   UNL A   1      45.095  23.392  24.196  1.00  0.00     0.010 A 
ATOM     67  C   UNL A   1      45.377  21.219  25.930  1.00  0.00     0.020 A 
ATOM     68  C   UNL A   1      44.846  22.099  23.730  1.00  0.00     0.020 A 
ATOM     69  C   UNL A   1      44.996  21.019  24.600  1.00  0.00     0.054 A 
BRANCH  69  70
ATOM     70  S   UNL A   1      44.643  19.331  24.033  1.00  0.00     0.124 S 
ATOM     71  O   UNL A   1      44.504  19.518  22.593  1.00  0.00    -0.237 OA
ATOM     72  O   UNL A   1      45.832  18.599  24.466  1.00  0.00    -0.237 OA
ATOM     73  O   UNL A   1      43.414  18.983  24.742  1.00  0.00    -0.744 OA
ENDBRANCH  69  70
ENDBRANCH  41  64
BRANCH  53  74
ATOM     74  C   UNL A   1      50.860  28.021  25.825  1.00  0.00    -0.014 A 
ATOM     75  C   UNL A   1      51.300  28.372  24.536  1.00  0.00     0.010 A 
ATOM     76  C   UNL A   1      51.799  27.576  26.774  1.00  0.00     0.010 A 
ATOM     77  C   UNL A   1      52.650  28.248  24.194  1.00  0.00     0.020 A 
ATOM     78  C   UNL A   1      53.152  27.479  26.444  1.00  0.00     0.020 A 
ATOM     79  C   UNL A   1      53.568  27.803  25.150  1.00  0.00     0.054 A 
BRANCH  79  80
ATOM     80  S   UNL A   1      55.319  27.690  24.693  1.00  0.00     0.124 S 
ATOM     81  O   UNL A   1      55.982  28.050  25.943  1.00  0.00    -0.237 OA
ATOM     82  O   UNL A   1      55.455  26.293  24.288  1.00  0.00    -0.237 OA
ATOM     83  O   UNL A   1      55.458  28.663  23.612  1.00  0.00    -0.744 OA
ENDBRANCH  79  80
ENDBRANCH  53  74
ENDBRANCH  27  28
ENDBRANCH  20  22
ENDBRANCH  19  20
ENDBRANCH   1  19
TORSDOF 16
ENDMDL
MODEL 2
REMARK VINA RESULT:     -10.1      3.219      4.252
REMARK SMILES O=Cc1ccc(-c2cnccc2C(=O)OCCOC(=O)c2ccc(-c3c4nc(c(-c5ccc(S(=O)(=O)[O-])cc5)c5ccc([nH]5)c(-c5ccc(S(=O)(=O)[O-])cc5)c5nc(c(-c6ccc(S(=O)(=O)[O-])cc6)c6ccc3[nH]6)C=C5)C=C4)cc2)s1
REMARK SMILES IDX 17 1 16 2 15 3 13 4 14 5 12 6 7 7 8 8 9 9 11 10 10 11 6 12
REMARK SMILES IDX 3 13 4 14 81 15 5 16 2 17 1 18 18 19 19 20 20 21 21 22 22 23
REMARK SMILES IDX 80 24 23 25 79 26 24 27 25 28 26 29 73 30 27 31 78 32 72 33
REMARK SMILES IDX 74 34 28 35 77 36 71 37 70 38 29 40 59 41 40 42 58 43 41 44
REMARK SMILES IDX 44 45 57 46 75 47 42 48 43 49 56 51 76 52 45 53 30 54 31 55
REMARK SMILES IDX 39 56 32 57 38 58 33 59 34 60 35 61 36 62 37 63 60 64 61 65
REMARK SMILES IDX 69 66 62 67 68 68 63 69 64 70 65 71 66 72 67 73 46 74 47 75
REMARK SMILES IDX 55 76 48 77 54 78 49 79 50 80 51 81 52 82 53 83
REMARK H PARENT 74 39 44 50
REMARK Flexibility Score: inf
ROOT
ATOM      1  C   UNL A   1      32.597  28.763  26.991  1.00  0.00     0.275 C 
ENDROOT
BRANCH   1   2
ATOM      2  C   UNL A   1      32.323  28.155  25.617  1.00  0.00     0.275 C 
BRANCH   2   3
ATOM      3  O   UNL A   1      31.901  29.167  24.678  1.00  0.00    -0.458 OA
BRANCH   3   4
ATOM      4  C   UNL A   1      31.524  28.746  23.445  1.00  0.00     0.339 C 
ATOM      5  O   UNL A   1      32.259  28.413  22.536  1.00  0.00    -0.246 OA
BRANCH   4   6
ATOM      6  C   UNL A   1      30.045  28.657  23.349  1.00  0.00     0.071 A 
ATOM      7  C   UNL A   1      29.342  27.460  23.526  1.00  0.00     0.025 A 
ATOM      8  C   UNL A   1      27.955  27.536  23.386  1.00  0.00     0.121 A 
ATOM      9  N   UNL A   1      27.262  28.664  23.098  1.00  0.00    -0.264 NA
ATOM     10  C   UNL A   1      29.346  29.848  23.109  1.00  0.00     0.036 A 
ATOM     11  C   UNL A   1      27.973  29.798  22.967  1.00  0.00     0.112 A 
BRANCH   7  12
ATOM     12  C   UNL A   1      29.975  26.201  23.923  1.00  0.00     0.037 A 
ATOM     13  C   UNL A   1      30.768  24.256  25.217  1.00  0.00     0.067 A 
ATOM     14  C   UNL A   1      31.082  24.148  23.880  1.00  0.00     0.024 A 
ATOM     15  S   UNL A   1      29.924  25.697  25.560  1.00  0.00    -0.132 S 
ATOM     16  C   UNL A   1      30.631  25.274  23.133  1.00  0.00     0.021 A 
BRANCH  13  17
ATOM     17  C   UNL A   1      31.063  23.332  26.285  1.00  0.00     0.270 C 
ATOM     18  O   UNL A   1      30.608  23.412  27.425  1.00  0.00    -0.297 OA
ENDBRANCH  13  17
ENDBRANCH   7  12
ENDBRANCH   4   6
ENDBRANCH   3   4
ENDBRANCH   2   3
ENDBRANCH   1   2
BRANCH   1  19
ATOM     19  O   UNL A   1      34.013  28.890  27.197  1.00  0.00    -0.458 OA
BRANCH  19  20
ATOM     20  C   UNL A   1      34.405  30.079  27.706  1.00  0.00     0.338 C 
ATOM     21  O   UNL A   1      33.726  31.075  27.888  1.00  0.00    -0.246 OA
BRANCH  20  22
ATOM     22  C   UNL A   1      35.791  29.971  28.171  1.00  0.00     0.060 A 
ATOM     23  C   UNL A   1      36.796  30.162  27.229  1.00  0.00     0.016 A 
ATOM     24  C   UNL A   1      36.101  29.544  29.458  1.00  0.00     0.016 A 
ATOM     25  C   UNL A   1      38.110  29.823  27.526  1.00  0.00     0.010 A 
ATOM     26  C   UNL A   1      37.440  29.305  29.788  1.00  0.00     0.010 A 
ATOM     27  C   UNL A   1      38.455  29.403  28.817  1.00  0.00    -0.014 A 
BRANCH  27  28
ATOM     28  C   UNL A   1      39.866  29.047  29.135  1.00  0.00     0.031 A 
ATOM     29  C   UNL A   1      40.767  30.048  29.814  1.00  0.00     0.074 A 
ATOM     30  C   UNL A   1      40.342  27.823  28.827  1.00  0.00     0.049 A 
ATOM     31  N   UNL A   1      42.057  29.988  30.026  1.00  0.00    -0.248 NA
ATOM     32  C   UNL A   1      40.137  31.286  30.302  1.00  0.00     0.031 C 
ATOM     33  C   UNL A   1      39.569  26.739  28.216  1.00  0.00     0.029 A 
ATOM     34  N   UNL A   1      41.594  27.280  28.990  1.00  0.00    -0.354 N 
ATOM     35  C   UNL A   1      42.403  31.200  30.616  1.00  0.00     0.074 A 
ATOM     36  C   UNL A   1      41.187  31.978  30.720  1.00  0.00     0.031 C 
ATOM     37  C   UNL A   1      40.348  25.654  28.092  1.00  0.00     0.029 A 
ATOM     38  C   UNL A   1      41.700  25.993  28.517  1.00  0.00     0.049 A 
ATOM     39  H   UNL A   1      42.343  27.765  29.407  1.00  0.00     0.167 HD
ATOM     40  C   UNL A   1      43.623  31.626  31.027  1.00  0.00     0.031 A 
ATOM     41  C   UNL A   1      42.771  25.186  28.384  1.00  0.00     0.031 A 
ATOM     42  C   UNL A   1      44.822  30.831  30.944  1.00  0.00     0.049 A 
ATOM     43  C   UNL A   1      44.121  25.695  28.799  1.00  0.00     0.074 A 
ATOM     44  C   UNL A   1      46.102  31.160  31.353  1.00  0.00     0.029 A 
ATOM     45  N   UNL A   1      44.887  29.546  30.423  1.00  0.00    -0.354 N 
ATOM     46  N   UNL A   1      44.436  26.856  29.324  1.00  0.00    -0.248 NA
ATOM     47  C   UNL A   1      45.260  24.793  28.595  1.00  0.00     0.031 C 
ATOM     48  C   UNL A   1      46.953  30.099  31.025  1.00  0.00     0.029 A 
ATOM     49  C   UNL A   1      46.191  29.080  30.473  1.00  0.00     0.049 A 
ATOM     50  H   UNL A   1      44.120  29.040  30.070  1.00  0.00     0.167 HD
ATOM     51  C   UNL A   1      45.810  26.819  29.524  1.00  0.00     0.074 A 
ATOM     52  C   UNL A   1      46.261  25.513  29.085  1.00  0.00     0.031 C 
ATOM     53  C   UNL A   1      46.625  27.781  30.024  1.00  0.00     0.031 A 
BRANCH  40  54
ATOM     54  C   UNL A   1      43.733  33.037  31.550  1.00  0.00    -0.014 A 
ATOM     55  C   UNL A   1      44.007  34.125  30.703  1.00  0.00     0.010 A 
ATOM     56  C   UNL A   1      43.535  33.278  32.923  1.00  0.00     0.010 A 
ATOM     57  C   UNL A   1      44.130  35.417  31.225  1.00  0.00     0.020 A 
ATOM     58  C   UNL A   1      43.625  34.571  33.445  1.00  0.00     0.020 A 
ATOM     59  C   UNL A   1      43.944  35.631  32.595  1.00  0.00     0.054 A 
BRANCH  59  60
ATOM     60  S   UNL A   1      44.107  37.316  33.246  1.00  0.00     0.124 S 
ATOM     61  O   UNL A   1      45.388  37.245  33.945  1.00  0.00    -0.237 OA
ATOM     62  O   UNL A   1      44.099  38.130  32.033  1.00  0.00    -0.237 OA
ATOM     63  O   UNL A   1      42.937  37.473  34.106  1.00  0.00    -0.744 OA
ENDBRANCH  59  60
ENDBRANCH  40  54
BRANCH  41  64
ATOM     64  C   UNL A   1      42.604  23.834  27.783  1.00  0.00    -0.014 A 
ATOM     65  C   UNL A   1      42.758  23.639  26.399  1.00  0.00     0.010 A 
ATOM     66  C   UNL A   1      42.332  22.722  28.603  1.00  0.00     0.010 A 
ATOM     67  C   UNL A   1      42.645  22.358  25.850  1.00  0.00     0.020 A 
ATOM     68  C   UNL A   1      42.253  21.436  28.062  1.00  0.00     0.020 A 
ATOM     69  C   UNL A   1      42.403  21.264  26.686  1.00  0.00     0.054 A 
BRANCH  69  70
ATOM     70  S   UNL A   1      42.343  19.601  25.960  1.00  0.00     0.124 S 
ATOM     71  O   UNL A   1      42.684  18.760  27.102  1.00  0.00    -0.237 OA
ATOM     72  O   UNL A   1      40.960  19.511  25.497  1.00  0.00    -0.237 OA
ATOM     73  O   UNL A   1      43.345  19.655  24.899  1.00  0.00    -0.744 OA
ENDBRANCH  69  70
ENDBRANCH  41  64
BRANCH  53  74
ATOM     74  C   UNL A   1      48.087  27.445  30.150  1.00  0.00    -0.014 A 
ATOM     75  C   UNL A   1      49.001  27.768  29.131  1.00  0.00     0.010 A 
ATOM     76  C   UNL A   1      48.559  26.835  31.328  1.00  0.00     0.010 A 
ATOM     77  C   UNL A   1      50.356  27.458  29.275  1.00  0.00     0.020 A 
ATOM     78  C   UNL A   1      49.916  26.551  31.487  1.00  0.00     0.020 A 
ATOM     79  C   UNL A   1      50.805  26.851  30.452  1.00  0.00     0.054 A 
BRANCH  79  80
ATOM     80  S   UNL A   1      52.574  26.496  30.631  1.00  0.00     0.124 S 
ATOM     81  O   UNL A   1      52.977  26.261  29.247  1.00  0.00    -0.237 OA
ATOM     82  O   UNL A   1      53.088  27.722  31.235  1.00  0.00    -0.237 OA
ATOM     83  O   UNL A   1      52.606  25.320  31.497  1.00  0.00    -0.744 OA
ENDBRANCH  79  80
ENDBRANCH  53  74
ENDBRANCH  27  28
ENDBRANCH  20  22
ENDBRANCH  19  20
ENDBRANCH   1  19
TORSDOF 16
ENDMDL
MODEL 3
REMARK VINA RESULT:     -10.1      7.534     12.771
REMARK SMILES O=Cc1ccc(-c2cnccc2C(=O)OCCOC(=O)c2ccc(-c3c4nc(c(-c5ccc(S(=O)(=O)[O-])cc5)c5ccc([nH]5)c(-c5ccc(S(=O)(=O)[O-])cc5)c5nc(c(-c6ccc(S(=O)(=O)[O-])cc6)c6ccc3[nH]6)C=C5)C=C4)cc2)s1
REMARK SMILES IDX 17 1 16 2 15 3 13 4 14 5 12 6 7 7 8 8 9 9 11 10 10 11 6 12
REMARK SMILES IDX 3 13 4 14 81 15 5 16 2 17 1 18 18 19 19 20 20 21 21 22 22 23
REMARK SMILES IDX 80 24 23 25 79 26 24 27 25 28 26 29 73 30 27 31 78 32 72 33
REMARK SMILES IDX 74 34 28 35 77 36 71 37 70 38 29 40 59 41 40 42 58 43 41 44
REMARK SMILES IDX 44 45 57 46 75 47 42 48 43 49 56 51 76 52 45 53 30 54 31 55
REMARK SMILES IDX 39 56 32 57 38 58 33 59 34 60 35 61 36 62 37 63 60 64 61 65
REMARK SMILES IDX 69 66 62 67 68 68 63 69 64 70 65 71 66 72 67 73 46 74 47 75
REMARK SMILES IDX 55 76 48 77 54 78 49 79 50 80 51 81 52 82 53 83
REMARK H PARENT 74 39 44 50
REMARK Flexibility Score: inf
ROOT
ATOM      1  C   UNL A   1      38.039  23.702  26.016  1.00  0.00     0.275 C 
ENDROOT
BRANCH   1   2
ATOM      2  C   UNL A   1      38.037  22.203  25.722  1.00  0.00     0.275 C 
BRANCH   2   3
ATOM      3  O   UNL A   1      36.692  21.680  25.708  1.00  0.00    -0.458 OA
BRANCH   3   4
ATOM      4  C   UNL A   1      35.994  21.803  24.551  1.00  0.00     0.339 C 
ATOM      5  O   UNL A   1      36.423  22.194  23.484  1.00  0.00    -0.246 OA
BRANCH   4   6
ATOM      6  C   UNL A   1      34.605  21.308  24.721  1.00  0.00     0.071 A 
ATOM      7  C   UNL A   1      33.493  22.158  24.762  1.00  0.00     0.025 A 
ATOM      8  C   UNL A   1      32.255  21.542  24.946  1.00  0.00     0.121 A 
ATOM      9  N   UNL A   1      32.061  20.208  25.083  1.00  0.00    -0.264 NA
ATOM     10  C   UNL A   1      34.424  19.920  24.802  1.00  0.00     0.036 A 
ATOM     11  C   UNL A   1      33.151  19.424  25.007  1.00  0.00     0.112 A 
BRANCH   7  12
ATOM     12  C   UNL A   1      33.573  23.603  24.539  1.00  0.00     0.037 A 
ATOM     13  C   UNL A   1      33.510  25.847  23.514  1.00  0.00     0.067 A 
ATOM     14  C   UNL A   1      33.784  25.903  24.864  1.00  0.00     0.024 A 
ATOM     15  S   UNL A   1      33.294  24.244  22.975  1.00  0.00    -0.132 S 
ATOM     16  C   UNL A   1      33.828  24.609  25.455  1.00  0.00     0.021 A 
BRANCH  13  17
ATOM     17  C   UNL A   1      33.396  26.937  22.576  1.00  0.00     0.270 C 
ATOM     18  O   UNL A   1      33.892  26.945  21.451  1.00  0.00    -0.297 OA
ENDBRANCH  13  17
ENDBRANCH   7  12
ENDBRANCH   4   6
ENDBRANCH   3   4
ENDBRANCH   2   3
ENDBRANCH   1   2
BRANCH   1  19
ATOM     19  O   UNL A   1      39.012  24.000  27.031  1.00  0.00    -0.458 OA
BRANCH  19  20
ATOM     20  C   UNL A   1      39.955  24.896  26.663  1.00  0.00     0.338 C 
ATOM     21  O   UNL A   1      40.457  25.044  25.562  1.00  0.00    -0.246 OA
BRANCH  20  22
ATOM     22  C   UNL A   1      40.210  25.812  27.779  1.00  0.00     0.060 A 
ATOM     23  C   UNL A   1      39.364  25.729  28.879  1.00  0.00     0.016 A 
ATOM     24  C   UNL A   1      41.156  26.828  27.690  1.00  0.00     0.016 A 
ATOM     25  C   UNL A   1      39.375  26.722  29.850  1.00  0.00     0.010 A 
ATOM     26  C   UNL A   1      41.238  27.769  28.724  1.00  0.00     0.010 A 
ATOM     27  C   UNL A   1      40.325  27.750  29.796  1.00  0.00    -0.014 A 
BRANCH  27  28
ATOM     28  C   UNL A   1      40.340  28.810  30.842  1.00  0.00     0.031 A 
ATOM     29  C   UNL A   1      41.317  28.731  31.989  1.00  0.00     0.074 A 
ATOM     30  C   UNL A   1      39.487  29.853  30.764  1.00  0.00     0.049 A 
ATOM     31  N   UNL A   1      41.377  29.459  33.074  1.00  0.00    -0.248 NA
ATOM     32  C   UNL A   1      42.349  27.684  31.911  1.00  0.00     0.031 C 
ATOM     33  C   UNL A   1      38.524  30.084  29.683  1.00  0.00     0.029 A 
ATOM     34  N   UNL A   1      39.294  30.919  31.608  1.00  0.00    -0.354 N 
ATOM     35  C   UNL A   1      42.411  28.923  33.835  1.00  0.00     0.074 A 
ATOM     36  C   UNL A   1      42.945  27.803  33.090  1.00  0.00     0.031 C 
ATOM     37  C   UNL A   1      37.873  31.234  29.910  1.00  0.00     0.029 A 
ATOM     38  C   UNL A   1      38.295  31.770  31.198  1.00  0.00     0.049 A 
ATOM     39  H   UNL A   1      39.821  31.061  32.428  1.00  0.00     0.167 HD
ATOM     40  C   UNL A   1      42.869  29.325  35.046  1.00  0.00     0.031 A 
ATOM     41  C   UNL A   1      37.735  32.835  31.806  1.00  0.00     0.031 A 
ATOM     42  C   UNL A   1      42.350  30.460  35.767  1.00  0.00     0.049 A 
ATOM     43  C   UNL A   1      38.223  33.232  33.168  1.00  0.00     0.074 A 
ATOM     44  C   UNL A   1      42.759  30.964  36.989  1.00  0.00     0.029 A 
ATOM     45  N   UNL A   1      41.312  31.270  35.328  1.00  0.00    -0.354 N 
ATOM     46  N   UNL A   1      39.179  32.695  33.889  1.00  0.00    -0.248 NA
ATOM     47  C   UNL A   1      37.552  34.372  33.806  1.00  0.00     0.031 C 
ATOM     48  C   UNL A   1      41.930  32.042  37.317  1.00  0.00     0.029 A 
ATOM     49  C   UNL A   1      41.048  32.253  36.268  1.00  0.00     0.049 A 
ATOM     50  H   UNL A   1      40.834  31.163  34.474  1.00  0.00     0.167 HD
ATOM     51  C   UNL A   1      39.233  33.438  35.061  1.00  0.00     0.074 A 
ATOM     52  C   UNL A   1      38.228  34.477  34.942  1.00  0.00     0.031 C 
ATOM     53  C   UNL A   1      40.038  33.274  36.139  1.00  0.00     0.031 A 
BRANCH  40  54
ATOM     54  C   UNL A   1      43.951  28.497  35.696  1.00  0.00    -0.014 A 
ATOM     55  C   UNL A   1      43.677  27.256  36.297  1.00  0.00     0.010 A 
ATOM     56  C   UNL A   1      45.278  28.969  35.685  1.00  0.00     0.010 A 
ATOM     57  C   UNL A   1      44.698  26.527  36.915  1.00  0.00     0.020 A 
ATOM     58  C   UNL A   1      46.307  28.230  36.273  1.00  0.00     0.020 A 
ATOM     59  C   UNL A   1      46.007  27.021  36.904  1.00  0.00     0.054 A 
BRANCH  59  60
ATOM     60  S   UNL A   1      47.313  26.056  37.712  1.00  0.00     0.124 S 
ATOM     61  O   UNL A   1      46.538  25.065  38.454  1.00  0.00    -0.237 OA
ATOM     62  O   UNL A   1      48.074  25.537  36.579  1.00  0.00    -0.237 OA
ATOM     63  O   UNL A   1      48.016  27.038  38.533  1.00  0.00    -0.744 OA
ENDBRANCH  59  60
ENDBRANCH  40  54
BRANCH  41  64
ATOM     64  C   UNL A   1      36.614  33.557  31.142  1.00  0.00    -0.014 A 
ATOM     65  C   UNL A   1      36.738  34.015  29.820  1.00  0.00     0.010 A 
ATOM     66  C   UNL A   1      35.395  33.749  31.821  1.00  0.00     0.010 A 
ATOM     67  C   UNL A   1      35.663  34.650  29.189  1.00  0.00     0.020 A 
ATOM     68  C   UNL A   1      34.308  34.352  31.182  1.00  0.00     0.020 A 
ATOM     69  C   UNL A   1      34.453  34.805  29.871  1.00  0.00     0.054 A 
BRANCH  69  70
ATOM     70  S   UNL A   1      33.048  35.559  29.003  1.00  0.00     0.124 S 
ATOM     71  O   UNL A   1      32.511  34.426  28.256  1.00  0.00    -0.237 OA
ATOM     72  O   UNL A   1      32.219  36.041  30.106  1.00  0.00    -0.237 OA
ATOM     73  O   UNL A   1      33.667  36.606  28.195  1.00  0.00    -0.744 OA
ENDBRANCH  69  70
ENDBRANCH  41  64
BRANCH  53  74
ATOM     74  C   UNL A   1      39.887  34.260  37.266  1.00  0.00    -0.014 A 
ATOM     75  C   UNL A   1      40.404  35.564  37.170  1.00  0.00     0.010 A 
ATOM     76  C   UNL A   1      39.176  33.886  38.422  1.00  0.00     0.010 A 
ATOM     77  C   UNL A   1      40.240  36.467  38.224  1.00  0.00     0.020 A 
ATOM     78  C   UNL A   1      38.985  34.795  39.465  1.00  0.00     0.020 A 
ATOM     79  C   UNL A   1      39.532  36.077  39.366  1.00  0.00     0.054 A 
BRANCH  79  80
ATOM     80  S   UNL A   1      39.299  37.280  40.702  1.00  0.00     0.124 S 
ATOM     81  O   UNL A   1      40.653  37.794  40.886  1.00  0.00    -0.237 OA
ATOM     82  O   UNL A   1      38.342  38.220  40.124  1.00  0.00    -0.237 OA
ATOM     83  O   UNL A   1      38.783  36.475  41.806  1.00  0.00    -0.744 OA
ENDBRANCH  79  80
ENDBRANCH  53  74
ENDBRANCH  27  28
ENDBRANCH  20  22
ENDBRANCH  19  20
ENDBRANCH   1  19
TORSDOF 16
ENDMDL
