MODEL 1
REMARK VINA RESULT:     -12.0      0.000      0.000
REMARK SMILES Cc1nc2n(n1)[C@@H](c1ccc([N+](=O)[O-])o1)CC(C(=O)OCCOC(=O)c1ccc(-c3c4nc(c(-c5ccc(S(=O)(=O)[O-])cc5)c5ccc([nH]5)c(-c5ccc(S(=O)(=O)[O-])cc5)c5nc(c(-c6ccc(S(=O)(=O)[O-])cc6)c6ccc3[nH]6)C=C5)C=C4)cc1)=N2
REMARK SMILES IDX 22 1 21 2 20 3 18 4 19 5 17 6 1 7 2 8 3 9 6 10 4 11 5 12
REMARK SMILES IDX 86 13 7 14 16 15 8 16 9 17 15 18 10 19 11 20 12 21 13 22
REMARK SMILES IDX 14 23 23 24 24 25 25 26 26 27 27 28 85 29 28 30 84 31 29 32
REMARK SMILES IDX 30 33 31 34 78 35 32 36 83 37 77 38 79 39 33 40 82 41 76 42
REMARK SMILES IDX 75 43 34 45 64 46 45 47 63 48 46 49 49 50 62 51 80 52 47 53
REMARK SMILES IDX 48 54 61 56 81 57 50 58 35 59 36 60 44 61 37 62 43 63 38 64
REMARK SMILES IDX 39 65 40 66 41 67 42 68 65 69 66 70 74 71 67 72 73 73 68 74
REMARK SMILES IDX 69 75 70 76 71 77 72 78 51 79 52 80 60 81 53 82 59 83 54 84
REMARK SMILES IDX 55 85 56 86 57 87 58 88
REMARK H PARENT 79 44 49 55
REMARK Flexibility Score: inf
ROOT
ATOM      1  C   UNL A   1      33.712  31.108  27.605  1.00  0.00     0.275 C 
ENDROOT
BRANCH   1   2
ATOM      2  C   UNL A   1      34.072  29.795  26.898  1.00  0.00     0.275 C 
BRANCH   2   3
ATOM      3  O   UNL A   1      33.623  28.667  27.670  1.00  0.00    -0.458 OA
BRANCH   3   4
ATOM      4  C   UNL A   1      32.402  28.181  27.370  1.00  0.00     0.353 C 
ATOM      5  O   UNL A   1      31.487  27.969  28.135  1.00  0.00    -0.245 OA
BRANCH   4   6
ATOM      6  C   UNL A   1      32.259  28.050  25.847  1.00  0.00     0.132 C 
ATOM      7  C   UNL A   1      32.715  25.117  20.871  1.00  0.00     0.092 C 
ATOM      8  C   UNL A   1      32.532  26.055  21.999  1.00  0.00     0.149 A 
ATOM      9  N   UNL A   1      33.009  25.779  23.254  1.00  0.00    -0.195 NA
ATOM     10  N   UNL A   1      31.902  27.231  21.889  1.00  0.00    -0.154 NA
ATOM     11  C   UNL A   1      32.635  26.810  23.976  1.00  0.00     0.249 A 
ATOM     12  N   UNL A   1      31.905  27.644  23.173  1.00  0.00    -0.219 N 
ATOM     13  N   UNL A   1      32.848  27.037  25.290  1.00  0.00    -0.209 NA
ATOM     14  C   UNL A   1      31.375  28.921  23.611  1.00  0.00     0.184 C 
ATOM     15  C   UNL A   1      31.407  29.072  25.138  1.00  0.00     0.100 C 
BRANCH  14  16
ATOM     16  C   UNL A   1      29.986  29.190  23.099  1.00  0.00     0.136 A 
ATOM     17  C   UNL A   1      28.799  28.478  23.024  1.00  0.00     0.056 A 
ATOM     18  O   UNL A   1      29.793  30.450  22.589  1.00  0.00    -0.404 OA
ATOM     19  C   UNL A   1      27.829  29.342  22.448  1.00  0.00     0.134 A 
ATOM     20  C   UNL A   1      28.487  30.525  22.220  1.00  0.00     0.433 A 
BRANCH  20  21
ATOM     21  N   UNL A   1      28.056  31.774  21.677  1.00  0.00     0.102 N 
ATOM     22  O   UNL A   1      27.950  31.836  20.445  1.00  0.00    -0.256 OA
ATOM     23  O   UNL A   1      27.829  32.699  22.469  1.00  0.00    -0.256 OA
ENDBRANCH  20  21
ENDBRANCH  14  16
ENDBRANCH   4   6
ENDBRANCH   3   4
ENDBRANCH   2   3
ENDBRANCH   1   2
BRANCH   1  24
ATOM     24  O   UNL A   1      34.802  32.049  27.654  1.00  0.00    -0.458 OA
BRANCH  24  25
ATOM     25  C   UNL A   1      34.882  32.735  28.817  1.00  0.00     0.338 C 
ATOM     26  O   UNL A   1      34.064  33.528  29.260  1.00  0.00    -0.246 OA
BRANCH  25  27
ATOM     27  C   UNL A   1      36.094  32.410  29.570  1.00  0.00     0.060 A 
ATOM     28  C   UNL A   1      37.231  32.067  28.841  1.00  0.00     0.016 A 
ATOM     29  C   UNL A   1      36.023  32.172  30.943  1.00  0.00     0.016 A 
ATOM     30  C   UNL A   1      38.274  31.396  29.460  1.00  0.00     0.010 A 
ATOM     31  C   UNL A   1      37.086  31.520  31.572  1.00  0.00     0.010 A 
ATOM     32  C   UNL A   1      38.192  31.094  30.822  1.00  0.00    -0.014 A 
BRANCH  32  33
ATOM     33  C   UNL A   1      39.321  30.352  31.399  1.00  0.00     0.031 A 
ATOM     34  C   UNL A   1      39.489  28.965  30.889  1.00  0.00     0.074 A 
ATOM     35  C   UNL A   1      40.386  30.987  31.934  1.00  0.00     0.049 A 
ATOM     36  N   UNL A   1      40.065  28.712  29.751  1.00  0.00    -0.248 NA
ATOM     37  C   UNL A   1      38.808  27.817  31.482  1.00  0.00     0.031 C 
ATOM     38  C   UNL A   1      40.861  32.303  31.481  1.00  0.00     0.029 A 
ATOM     39  N   UNL A   1      41.377  30.544  32.775  1.00  0.00    -0.354 N 
ATOM     40  C   UNL A   1      39.814  27.387  29.455  1.00  0.00     0.074 A 
ATOM     41  C   UNL A   1      39.032  26.871  30.558  1.00  0.00     0.031 C 
ATOM     42  C   UNL A   1      42.134  32.468  31.899  1.00  0.00     0.029 A 
ATOM     43  C   UNL A   1      42.501  31.368  32.787  1.00  0.00     0.049 A 
ATOM     44  H   UNL A   1      41.301  29.724  33.316  1.00  0.00     0.167 HD
ATOM     45  C   UNL A   1      40.265  26.786  28.325  1.00  0.00     0.031 A 
ATOM     46  C   UNL A   1      43.779  30.943  32.987  1.00  0.00     0.031 A 
ATOM     47  C   UNL A   1      41.073  27.605  27.469  1.00  0.00     0.049 A 
ATOM     48  C   UNL A   1      44.011  30.102  31.760  1.00  0.00     0.074 A 
ATOM     49  C   UNL A   1      40.908  28.381  26.343  1.00  0.00     0.029 A 
ATOM     50  N   UNL A   1      42.395  27.773  27.810  1.00  0.00    -0.354 N 
ATOM     51  N   UNL A   1      44.320  30.544  30.573  1.00  0.00    -0.248 NA
ATOM     52  C   UNL A   1      43.545  28.713  31.790  1.00  0.00     0.031 C 
ATOM     53  C   UNL A   1      42.002  29.306  26.350  1.00  0.00     0.029 A 
ATOM     54  C   UNL A   1      42.730  29.069  27.514  1.00  0.00     0.049 A 
ATOM     55  H   UNL A   1      42.988  27.090  28.196  1.00  0.00     0.167 HD
ATOM     56  C   UNL A   1      43.808  29.605  29.677  1.00  0.00     0.074 A 
ATOM     57  C   UNL A   1      43.359  28.493  30.495  1.00  0.00     0.031 C 
ATOM     58  C   UNL A   1      43.610  29.860  28.350  1.00  0.00     0.031 A 
BRANCH  45  59
ATOM     59  C   UNL A   1      40.133  25.342  28.049  1.00  0.00    -0.014 A 
ATOM     60  C   UNL A   1      41.211  24.510  28.398  1.00  0.00     0.010 A 
ATOM     61  C   UNL A   1      39.076  24.824  27.287  1.00  0.00     0.010 A 
ATOM     62  C   UNL A   1      41.272  23.199  27.934  1.00  0.00     0.020 A 
ATOM     63  C   UNL A   1      39.127  23.501  26.829  1.00  0.00     0.020 A 
ATOM     64  C   UNL A   1      40.240  22.709  27.132  1.00  0.00     0.054 A 
BRANCH  64  65
ATOM     65  S   UNL A   1      40.418  21.039  26.449  1.00  0.00     0.124 S 
ATOM     66  O   UNL A   1      39.158  20.865  25.731  1.00  0.00    -0.237 OA
ATOM     67  O   UNL A   1      41.607  21.172  25.611  1.00  0.00    -0.237 OA
ATOM     68  O   UNL A   1      40.583  20.199  27.632  1.00  0.00    -0.744 OA
ENDBRANCH  64  65
ENDBRANCH  45  59
BRANCH  46  69
ATOM     69  C   UNL A   1      44.109  30.450  34.365  1.00  0.00    -0.014 A 
ATOM     70  C   UNL A   1      43.261  29.487  34.954  1.00  0.00     0.010 A 
ATOM     71  C   UNL A   1      45.204  30.899  35.122  1.00  0.00     0.010 A 
ATOM     72  C   UNL A   1      43.569  28.898  36.184  1.00  0.00     0.020 A 
ATOM     73  C   UNL A   1      45.537  30.295  36.344  1.00  0.00     0.020 A 
ATOM     74  C   UNL A   1      44.729  29.281  36.855  1.00  0.00     0.054 A 
BRANCH  74  75
ATOM     75  S   UNL A   1      45.202  28.380  38.355  1.00  0.00     0.124 S 
ATOM     76  O   UNL A   1      44.992  29.381  39.398  1.00  0.00    -0.237 OA
ATOM     77  O   UNL A   1      44.260  27.262  38.356  1.00  0.00    -0.237 OA
ATOM     78  O   UNL A   1      46.595  28.011  38.111  1.00  0.00    -0.744 OA
ENDBRANCH  74  75
ENDBRANCH  46  69
BRANCH  58  79
ATOM     79  C   UNL A   1      44.145  31.165  27.842  1.00  0.00    -0.014 A 
ATOM     80  C   UNL A   1      43.666  32.378  28.364  1.00  0.00     0.010 A 
ATOM     81  C   UNL A   1      45.162  31.198  26.872  1.00  0.00     0.010 A 
ATOM     82  C   UNL A   1      44.218  33.594  27.955  1.00  0.00     0.020 A 
ATOM     83  C   UNL A   1      45.734  32.410  26.473  1.00  0.00     0.020 A 
ATOM     84  C   UNL A   1      45.260  33.602  27.024  1.00  0.00     0.054 A 
BRANCH  84  85
ATOM     85  S   UNL A   1      46.025  35.187  26.587  1.00  0.00     0.124 S 
ATOM     86  O   UNL A   1      46.918  35.427  27.718  1.00  0.00    -0.237 OA
ATOM     87  O   UNL A   1      46.684  34.884  25.319  1.00  0.00    -0.237 OA
ATOM     88  O   UNL A   1      44.892  36.105  26.485  1.00  0.00    -0.744 OA
ENDBRANCH  84  85
ENDBRANCH  58  79
ENDBRANCH  32  33
ENDBRANCH  25  27
ENDBRANCH  24  25
ENDBRANCH   1  24
TORSDOF 16
ENDMDL
MODEL 2
REMARK VINA RESULT:     -11.9      1.977      4.006
REMARK SMILES Cc1nc2n(n1)[C@@H](c1ccc([N+](=O)[O-])o1)CC(C(=O)OCCOC(=O)c1ccc(-c3c4nc(c(-c5ccc(S(=O)(=O)[O-])cc5)c5ccc([nH]5)c(-c5ccc(S(=O)(=O)[O-])cc5)c5nc(c(-c6ccc(S(=O)(=O)[O-])cc6)c6ccc3[nH]6)C=C5)C=C4)cc1)=N2
REMARK SMILES IDX 22 1 21 2 20 3 18 4 19 5 17 6 1 7 2 8 3 9 6 10 4 11 5 12
REMARK SMILES IDX 86 13 7 14 16 15 8 16 9 17 15 18 10 19 11 20 12 21 13 22
REMARK SMILES IDX 14 23 23 24 24 25 25 26 26 27 27 28 85 29 28 30 84 31 29 32
REMARK SMILES IDX 30 33 31 34 78 35 32 36 83 37 77 38 79 39 33 40 82 41 76 42
REMARK SMILES IDX 75 43 34 45 64 46 45 47 63 48 46 49 49 50 62 51 80 52 47 53
REMARK SMILES IDX 48 54 61 56 81 57 50 58 35 59 36 60 44 61 37 62 43 63 38 64
REMARK SMILES IDX 39 65 40 66 41 67 42 68 65 69 66 70 74 71 67 72 73 73 68 74
REMARK SMILES IDX 69 75 70 76 71 77 72 78 51 79 52 80 60 81 53 82 59 83 54 84
REMARK SMILES IDX 55 85 56 86 57 87 58 88
REMARK H PARENT 79 44 49 55
REMARK Flexibility Score: inf
ROOT
ATOM      1  C   UNL A   1      33.328  31.220  27.310  1.00  0.00     0.275 C 
ENDROOT
BRANCH   1   2
ATOM      2  C   UNL A   1      33.221  29.763  26.842  1.00  0.00     0.275 C 
BRANCH   2   3
ATOM      3  O   UNL A   1      32.222  29.634  25.815  1.00  0.00    -0.458 OA
BRANCH   3   4
ATOM      4  C   UNL A   1      32.498  28.775  24.814  1.00  0.00     0.353 C 
ATOM      5  O   UNL A   1      32.874  29.048  23.695  1.00  0.00    -0.245 OA
BRANCH   4   6
ATOM      6  C   UNL A   1      32.405  27.332  25.330  1.00  0.00     0.132 C 
ATOM      7  C   UNL A   1      29.431  22.688  27.105  1.00  0.00     0.092 C 
ATOM      8  C   UNL A   1      30.388  23.742  26.711  1.00  0.00     0.149 A 
ATOM      9  N   UNL A   1      29.990  25.033  26.483  1.00  0.00    -0.195 NA
ATOM     10  N   UNL A   1      31.701  23.528  26.552  1.00  0.00    -0.154 NA
ATOM     11  C   UNL A   1      31.093  25.655  26.133  1.00  0.00     0.249 A 
ATOM     12  N   UNL A   1      32.104  24.733  26.101  1.00  0.00    -0.219 N 
ATOM     13  N   UNL A   1      31.255  26.952  25.795  1.00  0.00    -0.209 NA
ATOM     14  C   UNL A   1      33.486  25.065  25.812  1.00  0.00     0.184 C 
ATOM     15  C   UNL A   1      33.633  26.467  25.205  1.00  0.00     0.100 C 
BRANCH  14  16
ATOM     16  C   UNL A   1      34.165  24.052  24.932  1.00  0.00     0.136 A 
ATOM     17  C   UNL A   1      34.772  24.066  23.686  1.00  0.00     0.056 A 
ATOM     18  O   UNL A   1      34.248  22.789  25.464  1.00  0.00    -0.404 OA
ATOM     19  C   UNL A   1      35.257  22.754  23.442  1.00  0.00     0.134 A 
ATOM     20  C   UNL A   1      34.922  22.030  24.559  1.00  0.00     0.433 A 
BRANCH  20  21
ATOM     21  N   UNL A   1      35.145  20.667  24.923  1.00  0.00     0.102 N 
ATOM     22  O   UNL A   1      34.142  19.989  25.176  1.00  0.00    -0.256 OA
ATOM     23  O   UNL A   1      36.317  20.267  24.965  1.00  0.00    -0.256 OA
ENDBRANCH  20  21
ENDBRANCH  14  16
ENDBRANCH   4   6
ENDBRANCH   3   4
ENDBRANCH   2   3
ENDBRANCH   1   2
BRANCH   1  24
ATOM     24  O   UNL A   1      34.686  31.693  27.400  1.00  0.00    -0.458 OA
BRANCH  24  25
ATOM     25  C   UNL A   1      34.913  32.511  28.453  1.00  0.00     0.338 C 
ATOM     26  O   UNL A   1      34.175  33.391  28.872  1.00  0.00    -0.246 OA
BRANCH  25  27
ATOM     27  C   UNL A   1      36.184  32.221  29.117  1.00  0.00     0.060 A 
ATOM     28  C   UNL A   1      37.125  31.478  28.407  1.00  0.00     0.016 A 
ATOM     29  C   UNL A   1      36.321  32.426  30.491  1.00  0.00     0.016 A 
ATOM     30  C   UNL A   1      38.164  30.852  29.078  1.00  0.00     0.010 A 
ATOM     31  C   UNL A   1      37.383  31.818  31.163  1.00  0.00     0.010 A 
ATOM     32  C   UNL A   1      38.279  30.997  30.463  1.00  0.00    -0.014 A 
BRANCH  32  33
ATOM     33  C   UNL A   1      39.387  30.278  31.108  1.00  0.00     0.031 A 
ATOM     34  C   UNL A   1      39.572  28.873  30.656  1.00  0.00     0.074 A 
ATOM     35  C   UNL A   1      40.431  30.933  31.657  1.00  0.00     0.049 A 
ATOM     36  N   UNL A   1      40.189  28.579  29.549  1.00  0.00    -0.248 NA
ATOM     37  C   UNL A   1      38.869  27.747  31.266  1.00  0.00     0.031 C 
ATOM     38  C   UNL A   1      40.924  32.231  31.174  1.00  0.00     0.029 A 
ATOM     39  N   UNL A   1      41.391  30.521  32.550  1.00  0.00    -0.354 N 
ATOM     40  C   UNL A   1      39.948  27.243  29.294  1.00  0.00     0.074 A 
ATOM     41  C   UNL A   1      39.126  26.767  30.385  1.00  0.00     0.031 C 
ATOM     42  C   UNL A   1      42.180  32.413  31.632  1.00  0.00     0.029 A 
ATOM     43  C   UNL A   1      42.514  31.346  32.573  1.00  0.00     0.049 A 
ATOM     44  H   UNL A   1      41.295  29.722  33.117  1.00  0.00     0.167 HD
ATOM     45  C   UNL A   1      40.440  26.602  28.203  1.00  0.00     0.031 A 
ATOM     46  C   UNL A   1      43.784  30.930  32.835  1.00  0.00     0.031 A 
ATOM     47  C   UNL A   1      41.279  27.389  27.348  1.00  0.00     0.049 A 
ATOM     48  C   UNL A   1      44.060  30.044  31.648  1.00  0.00     0.074 A 
ATOM     49  C   UNL A   1      41.156  28.123  26.189  1.00  0.00     0.029 A 
ATOM     50  N   UNL A   1      42.587  27.570  27.731  1.00  0.00    -0.354 N 
ATOM     51  N   UNL A   1      44.412  30.443  30.458  1.00  0.00    -0.248 NA
ATOM     52  C   UNL A   1      43.592  28.657  31.712  1.00  0.00     0.031 C 
ATOM     53  C   UNL A   1      42.249  29.049  26.202  1.00  0.00     0.029 A 
ATOM     54  C   UNL A   1      42.934  28.855  27.400  1.00  0.00     0.049 A 
ATOM     55  H   UNL A   1      43.166  26.902  28.163  1.00  0.00     0.167 HD
ATOM     56  C   UNL A   1      43.933  29.471  29.579  1.00  0.00     0.074 A 
ATOM     57  C   UNL A   1      43.453  28.389  30.420  1.00  0.00     0.031 C 
ATOM     58  C   UNL A   1      43.783  29.677  28.237  1.00  0.00     0.031 A 
BRANCH  45  59
ATOM     59  C   UNL A   1      40.317  25.148  27.976  1.00  0.00    -0.014 A 
ATOM     60  C   UNL A   1      41.373  24.328  28.410  1.00  0.00     0.010 A 
ATOM     61  C   UNL A   1      39.298  24.603  27.182  1.00  0.00     0.010 A 
ATOM     62  C   UNL A   1      41.453  23.001  28.000  1.00  0.00     0.020 A 
ATOM     63  C   UNL A   1      39.368  23.263  26.778  1.00  0.00     0.020 A 
ATOM     64  C   UNL A   1      40.461  22.482  27.166  1.00  0.00     0.054 A 
BRANCH  64  65
ATOM     65  S   UNL A   1      40.667  20.787  26.557  1.00  0.00     0.124 S 
ATOM     66  O   UNL A   1      40.768  20.025  27.798  1.00  0.00    -0.237 OA
ATOM     67  O   UNL A   1      39.442  20.582  25.789  1.00  0.00    -0.237 OA
ATOM     68  O   UNL A   1      41.893  20.853  25.764  1.00  0.00    -0.744 OA
ENDBRANCH  64  65
ENDBRANCH  45  59
BRANCH  46  69
ATOM     69  C   UNL A   1      44.064  30.488  34.240  1.00  0.00    -0.014 A 
ATOM     70  C   UNL A   1      45.384  30.601  34.729  1.00  0.00     0.010 A 
ATOM     71  C   UNL A   1      43.097  29.947  35.105  1.00  0.00     0.010 A 
ATOM     72  C   UNL A   1      45.695  30.317  36.062  1.00  0.00     0.020 A 
ATOM     73  C   UNL A   1      43.393  29.685  36.451  1.00  0.00     0.020 A 
ATOM     74  C   UNL A   1      44.686  29.896  36.926  1.00  0.00     0.054 A 
BRANCH  74  75
ATOM     75  S   UNL A   1      45.074  29.706  38.687  1.00  0.00     0.124 S 
ATOM     76  O   UNL A   1      44.155  30.654  39.311  1.00  0.00    -0.237 OA
ATOM     77  O   UNL A   1      44.777  28.295  38.920  1.00  0.00    -0.237 OA
ATOM     78  O   UNL A   1      46.489  30.060  38.768  1.00  0.00    -0.744 OA
ENDBRANCH  74  75
ENDBRANCH  46  69
BRANCH  58  79
ATOM     79  C   UNL A   1      44.337  30.963  27.702  1.00  0.00    -0.014 A 
ATOM     80  C   UNL A   1      45.513  30.962  26.935  1.00  0.00     0.010 A 
ATOM     81  C   UNL A   1      43.667  32.181  27.918  1.00  0.00     0.010 A 
ATOM     82  C   UNL A   1      45.990  32.145  26.364  1.00  0.00     0.020 A 
ATOM     83  C   UNL A   1      44.126  33.365  27.333  1.00  0.00     0.020 A 
ATOM     84  C   UNL A   1      45.284  33.336  26.553  1.00  0.00     0.054 A 
BRANCH  84  85
ATOM     85  S   UNL A   1      45.868  34.835  25.717  1.00  0.00     0.124 S 
ATOM     86  O   UNL A   1      45.535  34.568  24.320  1.00  0.00    -0.237 OA
ATOM     87  O   UNL A   1      45.083  35.886  26.361  1.00  0.00    -0.237 OA
ATOM     88  O   UNL A   1      47.299  34.868  26.018  1.00  0.00    -0.744 OA
ENDBRANCH  84  85
ENDBRANCH  58  79
ENDBRANCH  32  33
ENDBRANCH  25  27
ENDBRANCH  24  25
ENDBRANCH   1  24
TORSDOF 16
ENDMDL
MODEL 3
REMARK VINA RESULT:     -11.8      2.799      8.504
REMARK SMILES Cc1nc2n(n1)[C@@H](c1ccc([N+](=O)[O-])o1)CC(C(=O)OCCOC(=O)c1ccc(-c3c4nc(c(-c5ccc(S(=O)(=O)[O-])cc5)c5ccc([nH]5)c(-c5ccc(S(=O)(=O)[O-])cc5)c5nc(c(-c6ccc(S(=O)(=O)[O-])cc6)c6ccc3[nH]6)C=C5)C=C4)cc1)=N2
REMARK SMILES IDX 22 1 21 2 20 3 18 4 19 5 17 6 1 7 2 8 3 9 6 10 4 11 5 12
REMARK SMILES IDX 86 13 7 14 16 15 8 16 9 17 15 18 10 19 11 20 12 21 13 22
REMARK SMILES IDX 14 23 23 24 24 25 25 26 26 27 27 28 85 29 28 30 84 31 29 32
REMARK SMILES IDX 30 33 31 34 78 35 32 36 83 37 77 38 79 39 33 40 82 41 76 42
REMARK SMILES IDX 75 43 34 45 64 46 45 47 63 48 46 49 49 50 62 51 80 52 47 53
REMARK SMILES IDX 48 54 61 56 81 57 50 58 35 59 36 60 44 61 37 62 43 63 38 64
REMARK SMILES IDX 39 65 40 66 41 67 42 68 65 69 66 70 74 71 67 72 73 73 68 74
REMARK SMILES IDX 69 75 70 76 71 77 72 78 51 79 52 80 60 81 53 82 59 83 54 84
REMARK SMILES IDX 55 85 56 86 57 87 58 88
REMARK H PARENT 79 44 49 55
REMARK Flexibility Score: inf
ROOT
ATOM      1  C   UNL A   1      38.354  22.607  26.472  1.00  0.00     0.275 C 
ENDROOT
BRANCH   1   2
ATOM      2  C   UNL A   1      37.604  23.315  25.336  1.00  0.00     0.275 C 
BRANCH   2   3
ATOM      3  O   UNL A   1      36.765  22.386  24.628  1.00  0.00    -0.458 OA
BRANCH   3   4
ATOM      4  C   UNL A   1      36.174  22.845  23.507  1.00  0.00     0.353 C 
ATOM      5  O   UNL A   1      36.659  22.925  22.400  1.00  0.00    -0.245 OA
BRANCH   4   6
ATOM      6  C   UNL A   1      34.693  23.139  23.788  1.00  0.00     0.132 C 
ATOM      7  C   UNL A   1      29.921  22.838  27.060  1.00  0.00     0.092 C 
ATOM      8  C   UNL A   1      30.993  23.022  26.060  1.00  0.00     0.149 A 
ATOM      9  N   UNL A   1      32.196  22.374  26.160  1.00  0.00    -0.195 NA
ATOM     10  N   UNL A   1      30.878  23.820  24.991  1.00  0.00    -0.154 NA
ATOM     11  C   UNL A   1      32.883  22.805  25.127  1.00  0.00     0.249 A 
ATOM     12  N   UNL A   1      32.119  23.731  24.469  1.00  0.00    -0.219 N 
ATOM     13  N   UNL A   1      34.142  22.480  24.760  1.00  0.00    -0.209 NA
ATOM     14  C   UNL A   1      32.527  24.382  23.240  1.00  0.00     0.184 C 
ATOM     15  C   UNL A   1      34.024  24.201  22.953  1.00  0.00     0.100 C 
BRANCH  14  16
ATOM     16  C   UNL A   1      32.172  25.844  23.200  1.00  0.00     0.136 A 
ATOM     17  C   UNL A   1      31.339  26.644  22.434  1.00  0.00     0.056 A 
ATOM     18  O   UNL A   1      32.786  26.613  24.157  1.00  0.00    -0.404 OA
ATOM     19  C   UNL A   1      31.439  27.965  22.947  1.00  0.00     0.134 A 
ATOM     20  C   UNL A   1      32.318  27.880  23.998  1.00  0.00     0.433 A 
BRANCH  20  21
ATOM     21  N   UNL A   1      32.815  28.855  24.916  1.00  0.00     0.102 N 
ATOM     22  O   UNL A   1      33.883  28.591  25.482  1.00  0.00    -0.256 OA
ATOM     23  O   UNL A   1      32.142  29.882  25.084  1.00  0.00    -0.256 OA
ENDBRANCH  20  21
ENDBRANCH  14  16
ENDBRANCH   4   6
ENDBRANCH   3   4
ENDBRANCH   2   3
ENDBRANCH   1   2
BRANCH   1  24
ATOM     24  O   UNL A   1      39.533  21.907  26.030  1.00  0.00    -0.458 OA
BRANCH  24  25
ATOM     25  C   UNL A   1      40.455  21.717  27.002  1.00  0.00     0.338 C 
ATOM     26  O   UNL A   1      40.643  20.695  27.646  1.00  0.00    -0.246 OA
BRANCH  25  27
ATOM     27  C   UNL A   1      41.287  22.902  27.217  1.00  0.00     0.060 A 
ATOM     28  C   UNL A   1      41.037  23.664  28.357  1.00  0.00     0.016 A 
ATOM     29  C   UNL A   1      42.083  23.397  26.184  1.00  0.00     0.016 A 
ATOM     30  C   UNL A   1      41.503  24.967  28.435  1.00  0.00     0.010 A 
ATOM     31  C   UNL A   1      42.576  24.700  26.274  1.00  0.00     0.010 A 
ATOM     32  C   UNL A   1      42.250  25.499  27.380  1.00  0.00    -0.014 A 
BRANCH  32  33
ATOM     33  C   UNL A   1      42.682  26.896  27.521  1.00  0.00     0.031 A 
ATOM     34  C   UNL A   1      41.584  27.899  27.491  1.00  0.00     0.074 A 
ATOM     35  C   UNL A   1      43.849  27.220  28.116  1.00  0.00     0.049 A 
ATOM     36  N   UNL A   1      40.849  28.151  28.534  1.00  0.00    -0.248 NA
ATOM     37  C   UNL A   1      41.081  28.484  26.250  1.00  0.00     0.031 C 
ATOM     38  C   UNL A   1      44.469  26.420  29.183  1.00  0.00     0.029 A 
ATOM     39  N   UNL A   1      44.587  28.378  28.094  1.00  0.00    -0.354 N 
ATOM     40  C   UNL A   1      39.775  28.904  28.101  1.00  0.00     0.074 A 
ATOM     41  C   UNL A   1      39.961  29.088  26.678  1.00  0.00     0.031 C 
ATOM     42  C   UNL A   1      45.364  27.191  29.835  1.00  0.00     0.029 A 
ATOM     43  C   UNL A   1      45.512  28.464  29.133  1.00  0.00     0.049 A 
ATOM     44  H   UNL A   1      44.474  29.079  27.411  1.00  0.00     0.167 HD
ATOM     45  C   UNL A   1      38.797  29.339  28.936  1.00  0.00     0.031 A 
ATOM     46  C   UNL A   1      45.914  29.621  29.728  1.00  0.00     0.031 A 
ATOM     47  C   UNL A   1      38.972  29.010  30.320  1.00  0.00     0.049 A 
ATOM     48  C   UNL A   1      44.641  30.074  30.393  1.00  0.00     0.074 A 
ATOM     49  C   UNL A   1      38.547  28.042  31.203  1.00  0.00     0.029 A 
ATOM     50  N   UNL A   1      39.834  29.790  31.055  1.00  0.00    -0.354 N 
ATOM     51  N   UNL A   1      44.166  29.631  31.524  1.00  0.00    -0.248 NA
ATOM     52  C   UNL A   1      43.680  30.825  29.581  1.00  0.00     0.031 C 
ATOM     53  C   UNL A   1      39.514  28.032  32.259  1.00  0.00     0.029 A 
ATOM     54  C   UNL A   1      40.499  28.958  31.919  1.00  0.00     0.049 A 
ATOM     55  H   UNL A   1      39.951  30.764  30.976  1.00  0.00     0.167 HD
ATOM     56  C   UNL A   1      42.782  29.783  31.435  1.00  0.00     0.074 A 
ATOM     57  C   UNL A   1      42.552  30.541  30.219  1.00  0.00     0.031 C 
ATOM     58  C   UNL A   1      41.900  29.129  32.247  1.00  0.00     0.031 A 
BRANCH  45  59
ATOM     59  C   UNL A   1      37.716  30.260  28.530  1.00  0.00    -0.014 A 
ATOM     60  C   UNL A   1      37.870  31.622  28.839  1.00  0.00     0.010 A 
ATOM     61  C   UNL A   1      36.487  29.794  28.041  1.00  0.00     0.010 A 
ATOM     62  C   UNL A   1      36.793  32.497  28.731  1.00  0.00     0.020 A 
ATOM     63  C   UNL A   1      35.404  30.675  27.919  1.00  0.00     0.020 A 
ATOM     64  C   UNL A   1      35.559  32.013  28.293  1.00  0.00     0.054 A 
BRANCH  64  65
ATOM     65  S   UNL A   1      34.154  33.159  28.284  1.00  0.00     0.124 S 
ATOM     66  O   UNL A   1      33.923  33.372  29.710  1.00  0.00    -0.237 OA
ATOM     67  O   UNL A   1      34.693  34.305  27.555  1.00  0.00    -0.237 OA
ATOM     68  O   UNL A   1      33.108  32.416  27.586  1.00  0.00    -0.744 OA
ENDBRANCH  64  65
ENDBRANCH  45  59
BRANCH  46  69
ATOM     69  C   UNL A   1      46.748  30.546  28.891  1.00  0.00    -0.014 A 
ATOM     70  C   UNL A   1      47.137  31.785  29.446  1.00  0.00     0.010 A 
ATOM     71  C   UNL A   1      47.155  30.269  27.575  1.00  0.00     0.010 A 
ATOM     72  C   UNL A   1      48.008  32.645  28.770  1.00  0.00     0.020 A 
ATOM     73  C   UNL A   1      48.050  31.112  26.900  1.00  0.00     0.020 A 
ATOM     74  C   UNL A   1      48.490  32.284  27.514  1.00  0.00     0.054 A 
BRANCH  74  75
ATOM     75  S   UNL A   1      49.753  33.325  26.736  1.00  0.00     0.124 S 
ATOM     76  O   UNL A   1      50.480  32.367  25.909  1.00  0.00    -0.237 OA
ATOM     77  O   UNL A   1      48.945  34.301  26.007  1.00  0.00    -0.237 OA
ATOM     78  O   UNL A   1      50.499  33.867  27.870  1.00  0.00    -0.744 OA
ENDBRANCH  74  75
ENDBRANCH  46  69
BRANCH  58  79
ATOM     79  C   UNL A   1      42.497  28.360  33.386  1.00  0.00    -0.014 A 
ATOM     80  C   UNL A   1      42.443  28.872  34.692  1.00  0.00     0.010 A 
ATOM     81  C   UNL A   1      43.079  27.096  33.176  1.00  0.00     0.010 A 
ATOM     82  C   UNL A   1      42.923  28.124  35.770  1.00  0.00     0.020 A 
ATOM     83  C   UNL A   1      43.543  26.333  34.251  1.00  0.00     0.020 A 
ATOM     84  C   UNL A   1      43.456  26.852  35.544  1.00  0.00     0.054 A 
BRANCH  84  85
ATOM     85  S   UNL A   1      43.978  25.862  36.971  1.00  0.00     0.124 S 
ATOM     86  O   UNL A   1      45.430  26.023  36.951  1.00  0.00    -0.237 OA
ATOM     87  O   UNL A   1      43.288  26.514  38.081  1.00  0.00    -0.237 OA
ATOM     88  O   UNL A   1      43.499  24.517  36.656  1.00  0.00    -0.744 OA
ENDBRANCH  84  85
ENDBRANCH  58  79
ENDBRANCH  32  33
ENDBRANCH  25  27
ENDBRANCH  24  25
ENDBRANCH   1  24
TORSDOF 16
ENDMDL
