MODEL 1
REMARK VINA RESULT:     -10.3      0.000      0.000
REMARK SMILES CCC1(C(=O)OCCOC(=O)c2ccc(-c3c4nc(c(-c5ccc(S(=O)(=O)[O-])cc5)c5ccc([nH]5)c(-c5ccc(S(=O)(=O)[O-])cc5)c5nc(c(-c6ccc(S(=O)(=O)[O-])cc6)c6ccc3[nH]6)C=C5)C=C4)cc2)CCN(C(=O)C[C@H]2CSCC[NH2+]2)CC1
REMARK SMILES IDX 8 1 7 2 6 3 4 4 5 5 3 6 72 7 85 8 73 9 84 10 74 11 75 12
REMARK SMILES IDX 76 13 2 14 1 15 77 16 78 17 79 18 83 19 80 20 82 21 81 24
REMARK SMILES IDX 9 25 10 26 11 27 12 28 13 29 71 30 14 31 70 32 15 33 16 34
REMARK SMILES IDX 17 35 64 36 18 37 69 38 63 39 65 40 19 41 68 42 62 43 61 44
REMARK SMILES IDX 20 46 50 47 31 48 49 49 32 50 35 51 48 52 66 53 33 54 34 55
REMARK SMILES IDX 47 57 67 58 36 59 21 60 22 61 30 62 23 63 29 64 24 65 25 66
REMARK SMILES IDX 26 67 27 68 28 69 51 70 52 71 60 72 53 73 59 74 54 75 55 76
REMARK SMILES IDX 56 77 57 78 58 79 37 80 38 81 46 82 39 83 45 84 40 85 41 86
REMARK SMILES IDX 42 87 43 88 44 89
REMARK H PARENT 83 22 83 23 65 45 35 56
REMARK Flexibility Score: inf
ROOT
ATOM      1  C   UNL A   1      32.798  29.192  26.232  1.00  0.00     0.275 C 
ENDROOT
BRANCH   1   2
ATOM      2  C   UNL A   1      31.761  28.296  26.903  1.00  0.00     0.274 C 
BRANCH   2   3
ATOM      3  O   UNL A   1      32.220  26.929  26.838  1.00  0.00    -0.462 OA
BRANCH   3   4
ATOM      4  C   UNL A   1      31.410  26.010  26.244  1.00  0.00     0.312 C 
ATOM      5  O   UNL A   1      30.214  25.896  26.477  1.00  0.00    -0.252 OA
BRANCH   4   6
ATOM      6  C   UNL A   1      32.167  25.139  25.220  1.00  0.00     0.071 C 
ATOM      7  C   UNL A   1      33.602  24.807  25.745  1.00  0.00     0.040 C 
ATOM      8  C   UNL A   1      31.382  23.816  25.070  1.00  0.00     0.040 C 
ATOM      9  C   UNL A   1      34.294  23.668  24.987  1.00  0.00     0.120 C 
ATOM     10  C   UNL A   1      32.148  22.831  24.192  1.00  0.00     0.120 C 
ATOM     11  N   UNL A   1      33.397  22.522  24.869  1.00  0.00    -0.342 N 
ATOM     12  C   UNL A   1      33.642  21.367  25.588  1.00  0.00     0.228 C 
ATOM     13  O   UNL A   1      34.637  21.245  26.309  1.00  0.00    -0.275 OA
BRANCH   6  14
ATOM     14  C   UNL A   1      32.262  25.901  23.872  1.00  0.00     0.015 C 
ATOM     15  C   UNL A   1      33.552  26.695  23.655  1.00  0.00     0.005 C 
ENDBRANCH   6  14
BRANCH  12  16
ATOM     16  C   UNL A   1      32.657  20.204  25.500  1.00  0.00     0.166 C 
BRANCH  16  17
ATOM     17  C   UNL A   1      33.274  18.784  25.453  1.00  0.00     0.201 C 
ATOM     18  C   UNL A   1      32.216  17.719  25.092  1.00  0.00     0.135 C 
ATOM     19  N   UNL A   1      34.485  18.784  24.605  1.00  0.00    -0.342 N 
ATOM     20  S   UNL A   1      32.889  16.025  25.080  1.00  0.00    -0.150 SA
ATOM     21  C   UNL A   1      35.156  17.486  24.491  1.00  0.00     0.271 C 
ATOM     22  H   UNL A   1      35.148  19.452  25.000  1.00  0.00     0.346 HD
ATOM     23  H   UNL A   1      34.176  19.032  23.666  1.00  0.00     0.346 HD
ATOM     24  C   UNL A   1      34.283  16.350  23.959  1.00  0.00     0.131 C 
ENDBRANCH  16  17
ENDBRANCH  12  16
ENDBRANCH   4   6
ENDBRANCH   3   4
ENDBRANCH   2   3
ENDBRANCH   1   2
BRANCH   1  25
ATOM     25  O   UNL A   1      34.009  29.105  27.001  1.00  0.00    -0.458 OA
BRANCH  25  26
ATOM     26  C   UNL A   1      34.402  30.226  27.647  1.00  0.00     0.338 C 
ATOM     27  O   UNL A   1      33.739  31.227  27.856  1.00  0.00    -0.246 OA
BRANCH  26  28
ATOM     28  C   UNL A   1      35.787  30.039  28.132  1.00  0.00     0.060 A 
ATOM     29  C   UNL A   1      36.857  30.278  27.274  1.00  0.00     0.016 A 
ATOM     30  C   UNL A   1      36.025  29.510  29.400  1.00  0.00     0.016 A 
ATOM     31  C   UNL A   1      38.139  29.873  27.637  1.00  0.00     0.010 A 
ATOM     32  C   UNL A   1      37.339  29.229  29.807  1.00  0.00     0.010 A 
ATOM     33  C   UNL A   1      38.417  29.360  28.914  1.00  0.00    -0.014 A 
BRANCH  33  34
ATOM     34  C   UNL A   1      39.814  28.944  29.273  1.00  0.00     0.031 A 
ATOM     35  C   UNL A   1      40.694  29.816  30.144  1.00  0.00     0.074 A 
ATOM     36  C   UNL A   1      40.301  27.751  28.863  1.00  0.00     0.049 A 
ATOM     37  N   UNL A   1      41.968  29.684  30.423  1.00  0.00    -0.248 NA
ATOM     38  C   UNL A   1      40.073  30.998  30.764  1.00  0.00     0.031 C 
ATOM     39  C   UNL A   1      39.585  26.774  28.038  1.00  0.00     0.029 A 
ATOM     40  N   UNL A   1      41.505  27.135  29.116  1.00  0.00    -0.354 N 
ATOM     41  C   UNL A   1      42.318  30.806  31.171  1.00  0.00     0.074 A 
ATOM     42  C   UNL A   1      41.117  31.601  31.316  1.00  0.00     0.031 C 
ATOM     43  C   UNL A   1      40.310  25.650  27.948  1.00  0.00     0.029 A 
ATOM     44  C   UNL A   1      41.598  25.865  28.593  1.00  0.00     0.049 A 
ATOM     45  H   UNL A   1      42.233  27.563  29.623  1.00  0.00     0.167 HD
ATOM     46  C   UNL A   1      43.526  31.149  31.683  1.00  0.00     0.031 A 
ATOM     47  C   UNL A   1      42.610  24.976  28.589  1.00  0.00     0.031 A 
ATOM     48  C   UNL A   1      44.708  30.328  31.607  1.00  0.00     0.049 A 
ATOM     49  C   UNL A   1      43.928  25.361  29.191  1.00  0.00     0.074 A 
ATOM     50  C   UNL A   1      45.979  30.596  32.092  1.00  0.00     0.029 A 
ATOM     51  N   UNL A   1      44.760  29.064  31.041  1.00  0.00    -0.354 N 
ATOM     52  N   UNL A   1      44.262  26.475  29.794  1.00  0.00    -0.248 NA
ATOM     53  C   UNL A   1      45.016  24.380  29.080  1.00  0.00     0.031 C 
ATOM     54  C   UNL A   1      46.804  29.504  31.797  1.00  0.00     0.029 A 
ATOM     55  C   UNL A   1      46.036  28.539  31.166  1.00  0.00     0.049 A 
ATOM     56  H   UNL A   1      44.001  28.606  30.612  1.00  0.00     0.167 HD
ATOM     57  C   UNL A   1      45.604  26.336  30.124  1.00  0.00     0.074 A 
ATOM     58  C   UNL A   1      46.008  25.013  29.690  1.00  0.00     0.031 C 
ATOM     59  C   UNL A   1      46.432  27.230  30.715  1.00  0.00     0.031 A 
BRANCH  46  60
ATOM     60  C   UNL A   1      43.650  32.504  32.333  1.00  0.00    -0.014 A 
ATOM     61  C   UNL A   1      43.496  32.678  33.719  1.00  0.00     0.010 A 
ATOM     62  C   UNL A   1      43.964  33.620  31.535  1.00  0.00     0.010 A 
ATOM     63  C   UNL A   1      43.614  33.952  34.288  1.00  0.00     0.020 A 
ATOM     64  C   UNL A   1      44.108  34.889  32.103  1.00  0.00     0.020 A 
ATOM     65  C   UNL A   1      43.912  35.051  33.475  1.00  0.00     0.054 A 
BRANCH  65  66
ATOM     66  S   UNL A   1      44.072  36.690  34.237  1.00  0.00     0.124 S 
ATOM     67  O   UNL A   1      43.619  36.431  35.601  1.00  0.00    -0.237 OA
ATOM     68  O   UNL A   1      45.496  36.978  34.092  1.00  0.00    -0.237 OA
ATOM     69  O   UNL A   1      43.186  37.531  33.435  1.00  0.00    -0.744 OA
ENDBRANCH  65  66
ENDBRANCH  46  60
BRANCH  47  70
ATOM     70  C   UNL A   1      42.427  23.650  27.937  1.00  0.00    -0.014 A 
ATOM     71  C   UNL A   1      42.787  23.457  26.592  1.00  0.00     0.010 A 
ATOM     72  C   UNL A   1      41.920  22.562  28.671  1.00  0.00     0.010 A 
ATOM     73  C   UNL A   1      42.649  22.200  25.996  1.00  0.00     0.020 A 
ATOM     74  C   UNL A   1      41.812  21.297  28.090  1.00  0.00     0.020 A 
ATOM     75  C   UNL A   1      42.170  21.126  26.751  1.00  0.00     0.054 A 
BRANCH  75  76
ATOM     76  S   UNL A   1      42.083  19.480  25.994  1.00  0.00     0.124 S 
ATOM     77  O   UNL A   1      42.920  19.647  24.810  1.00  0.00    -0.237 OA
ATOM     78  O   UNL A   1      42.630  18.617  27.038  1.00  0.00    -0.237 OA
ATOM     79  O   UNL A   1      40.656  19.301  25.735  1.00  0.00    -0.744 OA
ENDBRANCH  75  76
ENDBRANCH  47  70
BRANCH  59  80
ATOM     80  C   UNL A   1      47.853  26.792  30.932  1.00  0.00    -0.014 A 
ATOM     81  C   UNL A   1      48.209  26.021  32.054  1.00  0.00     0.010 A 
ATOM     82  C   UNL A   1      48.848  27.172  30.015  1.00  0.00     0.010 A 
ATOM     83  C   UNL A   1      49.545  25.683  32.283  1.00  0.00     0.020 A 
ATOM     84  C   UNL A   1      50.183  26.817  30.229  1.00  0.00     0.020 A 
ATOM     85  C   UNL A   1      50.525  26.095  31.375  1.00  0.00     0.054 A 
BRANCH  85  86
ATOM     86  S   UNL A   1      52.257  25.661  31.694  1.00  0.00     0.124 S 
ATOM     87  O   UNL A   1      52.862  25.847  30.378  1.00  0.00    -0.237 OA
ATOM     88  O   UNL A   1      52.654  26.632  32.711  1.00  0.00    -0.237 OA
ATOM     89  O   UNL A   1      52.185  24.277  32.158  1.00  0.00    -0.744 OA
ENDBRANCH  85  86
ENDBRANCH  59  80
ENDBRANCH  33  34
ENDBRANCH  26  28
ENDBRANCH  25  26
ENDBRANCH   1  25
TORSDOF 17
ENDMDL
MODEL 2
REMARK VINA RESULT:     -10.2      2.772      3.587
REMARK SMILES CCC1(C(=O)OCCOC(=O)c2ccc(-c3c4nc(c(-c5ccc(S(=O)(=O)[O-])cc5)c5ccc([nH]5)c(-c5ccc(S(=O)(=O)[O-])cc5)c5nc(c(-c6ccc(S(=O)(=O)[O-])cc6)c6ccc3[nH]6)C=C5)C=C4)cc2)CCN(C(=O)C[C@H]2CSCC[NH2+]2)CC1
REMARK SMILES IDX 8 1 7 2 6 3 4 4 5 5 3 6 72 7 85 8 73 9 84 10 74 11 75 12
REMARK SMILES IDX 76 13 2 14 1 15 77 16 78 17 79 18 83 19 80 20 82 21 81 24
REMARK SMILES IDX 9 25 10 26 11 27 12 28 13 29 71 30 14 31 70 32 15 33 16 34
REMARK SMILES IDX 17 35 64 36 18 37 69 38 63 39 65 40 19 41 68 42 62 43 61 44
REMARK SMILES IDX 20 46 50 47 31 48 49 49 32 50 35 51 48 52 66 53 33 54 34 55
REMARK SMILES IDX 47 57 67 58 36 59 21 60 22 61 30 62 23 63 29 64 24 65 25 66
REMARK SMILES IDX 26 67 27 68 28 69 51 70 52 71 60 72 53 73 59 74 54 75 55 76
REMARK SMILES IDX 56 77 57 78 58 79 37 80 38 81 46 82 39 83 45 84 40 85 41 86
REMARK SMILES IDX 42 87 43 88 44 89
REMARK H PARENT 83 22 83 23 65 45 35 56
REMARK Flexibility Score: inf
ROOT
ATOM      1  C   UNL A   1      32.329  30.185  27.206  1.00  0.00     0.275 C 
ENDROOT
BRANCH   1   2
ATOM      2  C   UNL A   1      32.172  28.741  26.740  1.00  0.00     0.274 C 
BRANCH   2   3
ATOM      3  O   UNL A   1      31.368  28.726  25.541  1.00  0.00    -0.462 OA
BRANCH   3   4
ATOM      4  C   UNL A   1      32.001  28.551  24.349  1.00  0.00     0.312 C 
ATOM      5  O   UNL A   1      33.008  29.159  24.009  1.00  0.00    -0.252 OA
BRANCH   4   6
ATOM      6  C   UNL A   1      31.319  27.477  23.477  1.00  0.00     0.071 C 
ATOM      7  C   UNL A   1      32.136  27.242  22.165  1.00  0.00     0.040 C 
ATOM      8  C   UNL A   1      31.306  26.162  24.289  1.00  0.00     0.040 C 
ATOM      9  C   UNL A   1      31.753  25.962  21.413  1.00  0.00     0.120 C 
ATOM     10  C   UNL A   1      30.789  25.007  23.438  1.00  0.00     0.120 C 
ATOM     11  N   UNL A   1      31.717  24.829  22.333  1.00  0.00    -0.342 N 
ATOM     12  C   UNL A   1      32.685  23.843  22.265  1.00  0.00     0.228 C 
ATOM     13  O   UNL A   1      33.575  23.860  21.410  1.00  0.00    -0.275 OA
BRANCH   6  14
ATOM     14  C   UNL A   1      29.881  27.943  23.124  1.00  0.00     0.015 C 
ATOM     15  C   UNL A   1      29.789  29.236  22.313  1.00  0.00     0.005 C 
ENDBRANCH   6  14
BRANCH  12  16
ATOM     16  C   UNL A   1      32.666  22.701  23.277  1.00  0.00     0.166 C 
BRANCH  16  17
ATOM     17  C   UNL A   1      33.683  22.801  24.442  1.00  0.00     0.201 C 
ATOM     18  C   UNL A   1      34.498  21.497  24.594  1.00  0.00     0.135 C 
ATOM     19  N   UNL A   1      34.485  24.036  24.312  1.00  0.00    -0.342 N 
ATOM     20  S   UNL A   1      35.670  21.552  25.989  1.00  0.00    -0.150 SA
ATOM     21  C   UNL A   1      35.482  24.235  25.368  1.00  0.00     0.271 C 
ATOM     22  H   UNL A   1      33.846  24.831  24.324  1.00  0.00     0.346 HD
ATOM     23  H   UNL A   1      35.003  23.950  23.439  1.00  0.00     0.346 HD
ATOM     24  C   UNL A   1      36.497  23.102  25.522  1.00  0.00     0.131 C 
ENDBRANCH  16  17
ENDBRANCH  12  16
ENDBRANCH   4   6
ENDBRANCH   3   4
ENDBRANCH   2   3
ENDBRANCH   1   2
BRANCH   1  25
ATOM     25  O   UNL A   1      33.671  30.596  26.896  1.00  0.00    -0.458 OA
BRANCH  25  26
ATOM     26  C   UNL A   1      34.216  31.543  27.693  1.00  0.00     0.338 C 
ATOM     27  O   UNL A   1      33.711  32.598  28.037  1.00  0.00    -0.246 OA
BRANCH  26  28
ATOM     28  C   UNL A   1      35.542  31.078  28.152  1.00  0.00     0.060 A 
ATOM     29  C   UNL A   1      35.720  29.745  28.512  1.00  0.00     0.016 A 
ATOM     30  C   UNL A   1      36.582  31.988  28.344  1.00  0.00     0.016 A 
ATOM     31  C   UNL A   1      36.882  29.355  29.172  1.00  0.00     0.010 A 
ATOM     32  C   UNL A   1      37.801  31.554  28.890  1.00  0.00     0.010 A 
ATOM     33  C   UNL A   1      37.958  30.238  29.359  1.00  0.00    -0.014 A 
BRANCH  33  34
ATOM     34  C   UNL A   1      39.198  29.777  30.067  1.00  0.00     0.031 A 
ATOM     35  C   UNL A   1      39.593  30.351  31.412  1.00  0.00     0.074 A 
ATOM     36  C   UNL A   1      39.968  28.800  29.538  1.00  0.00     0.049 A 
ATOM     37  N   UNL A   1      40.704  30.182  32.088  1.00  0.00    -0.248 NA
ATOM     38  C   UNL A   1      38.630  31.246  32.075  1.00  0.00     0.031 C 
ATOM     39  C   UNL A   1      39.726  28.118  28.263  1.00  0.00     0.029 A 
ATOM     40  N   UNL A   1      41.095  28.179  30.025  1.00  0.00    -0.354 N 
ATOM     41  C   UNL A   1      40.609  31.012  33.201  1.00  0.00     0.074 A 
ATOM     42  C   UNL A   1      39.325  31.675  33.120  1.00  0.00     0.031 C 
ATOM     43  C   UNL A   1      40.599  27.110  28.124  1.00  0.00     0.029 A 
ATOM     44  C   UNL A   1      41.548  27.150  29.229  1.00  0.00     0.049 A 
ATOM     45  H   UNL A   1      41.538  28.445  30.863  1.00  0.00     0.167 HD
ATOM     46  C   UNL A   1      41.510  31.214  34.196  1.00  0.00     0.031 A 
ATOM     47  C   UNL A   1      42.624  26.347  29.338  1.00  0.00     0.031 A 
ATOM     48  C   UNL A   1      42.757  30.505  34.324  1.00  0.00     0.049 A 
ATOM     49  C   UNL A   1      43.589  26.564  30.465  1.00  0.00     0.074 A 
ATOM     50  C   UNL A   1      43.735  30.647  35.296  1.00  0.00     0.029 A 
ATOM     51  N   UNL A   1      43.185  29.495  33.477  1.00  0.00    -0.354 N 
ATOM     52  N   UNL A   1      43.530  27.434  31.443  1.00  0.00    -0.248 NA
ATOM     53  C   UNL A   1      44.786  25.711  30.481  1.00  0.00     0.031 C 
ATOM     54  C   UNL A   1      44.766  29.739  35.021  1.00  0.00     0.029 A 
ATOM     55  C   UNL A   1      44.409  29.004  33.903  1.00  0.00     0.049 A 
ATOM     56  H   UNL A   1      42.692  29.174  32.687  1.00  0.00     0.167 HD
ATOM     57  C   UNL A   1      44.688  27.243  32.185  1.00  0.00     0.074 A 
ATOM     58  C   UNL A   1      45.408  26.148  31.567  1.00  0.00     0.031 C 
ATOM     59  C   UNL A   1      45.125  27.927  33.271  1.00  0.00     0.031 A 
BRANCH  46  60
ATOM     60  C   UNL A   1      41.202  32.289  35.208  1.00  0.00    -0.014 A 
ATOM     61  C   UNL A   1      40.454  32.024  36.368  1.00  0.00     0.010 A 
ATOM     62  C   UNL A   1      41.711  33.586  35.005  1.00  0.00     0.010 A 
ATOM     63  C   UNL A   1      40.185  33.047  37.284  1.00  0.00     0.020 A 
ATOM     64  C   UNL A   1      41.466  34.604  35.931  1.00  0.00     0.020 A 
ATOM     65  C   UNL A   1      40.686  34.333  37.056  1.00  0.00     0.054 A 
BRANCH  65  66
ATOM     66  S   UNL A   1      40.335  35.641  38.263  1.00  0.00     0.124 S 
ATOM     67  O   UNL A   1      41.658  35.884  38.834  1.00  0.00    -0.237 OA
ATOM     68  O   UNL A   1      39.803  36.717  37.432  1.00  0.00    -0.237 OA
ATOM     69  O   UNL A   1      39.370  35.024  39.169  1.00  0.00    -0.744 OA
ENDBRANCH  65  66
ENDBRANCH  46  60
BRANCH  47  70
ATOM     70  C   UNL A   1      42.872  25.299  28.311  1.00  0.00    -0.014 A 
ATOM     71  C   UNL A   1      43.642  25.582  27.170  1.00  0.00     0.010 A 
ATOM     72  C   UNL A   1      42.364  23.999  28.488  1.00  0.00     0.010 A 
ATOM     73  C   UNL A   1      43.904  24.582  26.227  1.00  0.00     0.020 A 
ATOM     74  C   UNL A   1      42.652  22.989  27.567  1.00  0.00     0.020 A 
ATOM     75  C   UNL A   1      43.413  23.291  26.436  1.00  0.00     0.054 A 
BRANCH  75  76
ATOM     76  S   UNL A   1      43.838  21.980  25.255  1.00  0.00     0.124 S 
ATOM     77  O   UNL A   1      43.772  22.689  23.981  1.00  0.00    -0.237 OA
ATOM     78  O   UNL A   1      45.174  21.579  25.687  1.00  0.00    -0.237 OA
ATOM     79  O   UNL A   1      42.796  20.979  25.472  1.00  0.00    -0.744 OA
ENDBRANCH  75  76
ENDBRANCH  47  70
BRANCH  59  80
ATOM     80  C   UNL A   1      46.439  27.493  33.856  1.00  0.00    -0.014 A 
ATOM     81  C   UNL A   1      46.494  26.509  34.861  1.00  0.00     0.010 A 
ATOM     82  C   UNL A   1      47.632  28.089  33.411  1.00  0.00     0.010 A 
ATOM     83  C   UNL A   1      47.714  26.168  35.449  1.00  0.00     0.020 A 
ATOM     84  C   UNL A   1      48.858  27.734  33.982  1.00  0.00     0.020 A 
ATOM     85  C   UNL A   1      48.887  26.793  35.014  1.00  0.00     0.054 A 
BRANCH  85  86
ATOM     86  S   UNL A   1      50.462  26.350  35.797  1.00  0.00     0.124 S 
ATOM     87  O   UNL A   1      51.214  25.799  34.673  1.00  0.00    -0.237 OA
ATOM     88  O   UNL A   1      50.943  27.633  36.307  1.00  0.00    -0.237 OA
ATOM     89  O   UNL A   1      50.076  25.385  36.824  1.00  0.00    -0.744 OA
ENDBRANCH  85  86
ENDBRANCH  59  80
ENDBRANCH  33  34
ENDBRANCH  26  28
ENDBRANCH  25  26
ENDBRANCH   1  25
TORSDOF 17
ENDMDL
MODEL 3
REMARK VINA RESULT:     -10.2      2.852      8.557
REMARK SMILES CCC1(C(=O)OCCOC(=O)c2ccc(-c3c4nc(c(-c5ccc(S(=O)(=O)[O-])cc5)c5ccc([nH]5)c(-c5ccc(S(=O)(=O)[O-])cc5)c5nc(c(-c6ccc(S(=O)(=O)[O-])cc6)c6ccc3[nH]6)C=C5)C=C4)cc2)CCN(C(=O)C[C@H]2CSCC[NH2+]2)CC1
REMARK SMILES IDX 8 1 7 2 6 3 4 4 5 5 3 6 72 7 85 8 73 9 84 10 74 11 75 12
REMARK SMILES IDX 76 13 2 14 1 15 77 16 78 17 79 18 83 19 80 20 82 21 81 24
REMARK SMILES IDX 9 25 10 26 11 27 12 28 13 29 71 30 14 31 70 32 15 33 16 34
REMARK SMILES IDX 17 35 64 36 18 37 69 38 63 39 65 40 19 41 68 42 62 43 61 44
REMARK SMILES IDX 20 46 50 47 31 48 49 49 32 50 35 51 48 52 66 53 33 54 34 55
REMARK SMILES IDX 47 57 67 58 36 59 21 60 22 61 30 62 23 63 29 64 24 65 25 66
REMARK SMILES IDX 26 67 27 68 28 69 51 70 52 71 60 72 53 73 59 74 54 75 55 76
REMARK SMILES IDX 56 77 57 78 58 79 37 80 38 81 46 82 39 83 45 84 40 85 41 86
REMARK SMILES IDX 42 87 43 88 44 89
REMARK H PARENT 83 22 83 23 65 45 35 56
REMARK Flexibility Score: inf
ROOT
ATOM      1  C   UNL A   1      32.359  29.973  26.743  1.00  0.00     0.275 C 
ENDROOT
BRANCH   1   2
ATOM      2  C   UNL A   1      32.085  29.073  25.542  1.00  0.00     0.274 C 
BRANCH   2   3
ATOM      3  O   UNL A   1      32.470  27.723  25.877  1.00  0.00    -0.462 OA
BRANCH   3   4
ATOM      4  C   UNL A   1      31.493  26.855  26.258  1.00  0.00     0.312 C 
ATOM      5  O   UNL A   1      30.801  26.995  27.258  1.00  0.00    -0.252 OA
BRANCH   4   6
ATOM      6  C   UNL A   1      31.338  25.681  25.270  1.00  0.00     0.071 C 
ATOM      7  C   UNL A   1      32.633  25.520  24.409  1.00  0.00     0.040 C 
ATOM      8  C   UNL A   1      31.144  24.396  26.107  1.00  0.00     0.040 C 
ATOM      9  C   UNL A   1      32.724  24.183  23.664  1.00  0.00     0.120 C 
ATOM     10  C   UNL A   1      31.139  23.163  25.209  1.00  0.00     0.120 C 
ATOM     11  N   UNL A   1      32.445  23.078  24.577  1.00  0.00    -0.342 N 
ATOM     12  C   UNL A   1      33.460  22.224  24.969  1.00  0.00     0.228 C 
ATOM     13  O   UNL A   1      34.611  22.334  24.536  1.00  0.00    -0.275 OA
BRANCH   6  14
ATOM     14  C   UNL A   1      30.121  25.948  24.346  1.00  0.00     0.015 C 
ATOM     15  C   UNL A   1      30.388  26.875  23.158  1.00  0.00     0.005 C 
ENDBRANCH   6  14
BRANCH  12  16
ATOM     16  C   UNL A   1      33.161  21.115  25.974  1.00  0.00     0.166 C 
BRANCH  16  17
ATOM     17  C   UNL A   1      32.674  19.768  25.383  1.00  0.00     0.201 C 
ATOM     18  C   UNL A   1      33.101  19.610  23.907  1.00  0.00     0.135 C 
ATOM     19  N   UNL A   1      33.057  18.653  26.275  1.00  0.00    -0.342 N 
ATOM     20  S   UNL A   1      32.501  18.062  23.156  1.00  0.00    -0.150 SA
ATOM     21  C   UNL A   1      32.643  17.325  25.813  1.00  0.00     0.271 C 
ATOM     22  H   UNL A   1      32.635  18.818  27.189  1.00  0.00     0.346 HD
ATOM     23  H   UNL A   1      34.077  18.644  26.299  1.00  0.00     0.346 HD
ATOM     24  C   UNL A   1      33.151  16.934  24.425  1.00  0.00     0.131 C 
ENDBRANCH  16  17
ENDBRANCH  12  16
ENDBRANCH   4   6
ENDBRANCH   3   4
ENDBRANCH   2   3
ENDBRANCH   1   2
BRANCH   1  25
ATOM     25  O   UNL A   1      33.699  30.475  26.612  1.00  0.00    -0.458 OA
BRANCH  25  26
ATOM     26  C   UNL A   1      34.099  31.387  27.526  1.00  0.00     0.338 C 
ATOM     27  O   UNL A   1      33.487  32.372  27.902  1.00  0.00    -0.246 OA
BRANCH  26  28
ATOM     28  C   UNL A   1      35.413  30.978  28.069  1.00  0.00     0.060 A 
ATOM     29  C   UNL A   1      35.564  29.713  28.631  1.00  0.00     0.016 A 
ATOM     30  C   UNL A   1      36.466  31.890  28.133  1.00  0.00     0.016 A 
ATOM     31  C   UNL A   1      36.712  29.411  29.358  1.00  0.00     0.010 A 
ATOM     32  C   UNL A   1      37.671  31.527  28.755  1.00  0.00     0.010 A 
ATOM     33  C   UNL A   1      37.800  30.296  29.422  1.00  0.00    -0.014 A 
BRANCH  33  34
ATOM     34  C   UNL A   1      39.026  29.931  30.208  1.00  0.00     0.031 A 
ATOM     35  C   UNL A   1      40.015  28.908  29.689  1.00  0.00     0.074 A 
ATOM     36  C   UNL A   1      39.298  30.548  31.380  1.00  0.00     0.049 A 
ATOM     37  N   UNL A   1      41.038  28.364  30.303  1.00  0.00    -0.248 NA
ATOM     38  C   UNL A   1      39.821  28.415  28.315  1.00  0.00     0.031 C 
ATOM     39  C   UNL A   1      38.470  31.574  32.017  1.00  0.00     0.029 A 
ATOM     40  N   UNL A   1      40.374  30.430  32.230  1.00  0.00    -0.354 N 
ATOM     41  C   UNL A   1      41.549  27.408  29.429  1.00  0.00     0.074 A 
ATOM     42  C   UNL A   1      40.734  27.456  28.234  1.00  0.00     0.031 C 
ATOM     43  C   UNL A   1      39.113  32.067  33.085  1.00  0.00     0.029 A 
ATOM     44  C   UNL A   1      40.338  31.306  33.292  1.00  0.00     0.049 A 
ATOM     45  H   UNL A   1      41.100  29.780  32.093  1.00  0.00     0.167 HD
ATOM     46  C   UNL A   1      42.595  26.562  29.605  1.00  0.00     0.031 A 
ATOM     47  C   UNL A   1      41.166  31.465  34.342  1.00  0.00     0.031 A 
ATOM     48  C   UNL A   1      43.457  26.559  30.759  1.00  0.00     0.049 A 
ATOM     49  C   UNL A   1      42.337  30.542  34.501  1.00  0.00     0.074 A 
ATOM     50  C   UNL A   1      44.538  25.733  31.028  1.00  0.00     0.029 A 
ATOM     51  N   UNL A   1      43.363  27.443  31.822  1.00  0.00    -0.354 N 
ATOM     52  N   UNL A   1      42.732  29.572  33.712  1.00  0.00    -0.248 NA
ATOM     53  C   UNL A   1      43.153  30.713  35.711  1.00  0.00     0.031 C 
ATOM     54  C   UNL A   1      45.081  26.104  32.264  1.00  0.00     0.029 A 
ATOM     55  C   UNL A   1      44.364  27.187  32.745  1.00  0.00     0.049 A 
ATOM     56  H   UNL A   1      42.682  28.150  31.909  1.00  0.00     0.167 HD
ATOM     57  C   UNL A   1      43.836  29.007  34.337  1.00  0.00     0.074 A 
ATOM     58  C   UNL A   1      44.071  29.771  35.547  1.00  0.00     0.031 C 
ATOM     59  C   UNL A   1      44.578  27.940  33.953  1.00  0.00     0.031 A 
BRANCH  46  60
ATOM     60  C   UNL A   1      42.839  25.523  28.540  1.00  0.00    -0.014 A 
ATOM     61  C   UNL A   1      43.665  25.777  27.432  1.00  0.00     0.010 A 
ATOM     62  C   UNL A   1      42.253  24.250  28.678  1.00  0.00     0.010 A 
ATOM     63  C   UNL A   1      43.866  24.790  26.460  1.00  0.00     0.020 A 
ATOM     64  C   UNL A   1      42.473  23.254  27.722  1.00  0.00     0.020 A 
ATOM     65  C   UNL A   1      43.262  23.536  26.608  1.00  0.00     0.054 A 
BRANCH  65  66
ATOM     66  S   UNL A   1      43.547  22.268  25.341  1.00  0.00     0.124 S 
ATOM     67  O   UNL A   1      42.363  21.426  25.490  1.00  0.00    -0.237 OA
ATOM     68  O   UNL A   1      43.611  23.049  24.109  1.00  0.00    -0.237 OA
ATOM     69  O   UNL A   1      44.806  21.650  25.749  1.00  0.00    -0.744 OA
ENDBRANCH  65  66
ENDBRANCH  46  60
BRANCH  47  70
ATOM     70  C   UNL A   1      40.877  32.513  35.359  1.00  0.00    -0.014 A 
ATOM     71  C   UNL A   1      40.065  32.228  36.471  1.00  0.00     0.010 A 
ATOM     72  C   UNL A   1      41.442  33.796  35.237  1.00  0.00     0.010 A 
ATOM     73  C   UNL A   1      39.828  33.205  37.443  1.00  0.00     0.020 A 
ATOM     74  C   UNL A   1      41.236  34.763  36.223  1.00  0.00     0.020 A 
ATOM     75  C   UNL A   1      40.422  34.464  37.316  1.00  0.00     0.054 A 
BRANCH  75  76
ATOM     76  S   UNL A   1      40.184  35.691  38.631  1.00  0.00     0.124 S 
ATOM     77  O   UNL A   1      39.125  35.079  39.428  1.00  0.00    -0.237 OA
ATOM     78  O   UNL A   1      41.501  35.746  39.262  1.00  0.00    -0.237 OA
ATOM     79  O   UNL A   1      39.803  36.898  37.901  1.00  0.00    -0.744 OA
ENDBRANCH  75  76
ENDBRANCH  47  70
BRANCH  59  80
ATOM     80  C   UNL A   1      45.716  27.551  34.853  1.00  0.00    -0.014 A 
ATOM     81  C   UNL A   1      47.014  28.048  34.633  1.00  0.00     0.010 A 
ATOM     82  C   UNL A   1      45.491  26.664  35.920  1.00  0.00     0.010 A 
ATOM     83  C   UNL A   1      48.078  27.621  35.431  1.00  0.00     0.020 A 
ATOM     84  C   UNL A   1      46.549  26.252  36.735  1.00  0.00     0.020 A 
ATOM     85  C   UNL A   1      47.840  26.715  36.470  1.00  0.00     0.054 A 
BRANCH  85  86
ATOM     86  S   UNL A   1      49.234  26.160  37.488  1.00  0.00     0.124 S 
ATOM     87  O   UNL A   1      49.751  25.039  36.708  1.00  0.00    -0.237 OA
ATOM     88  O   UNL A   1      50.093  27.341  37.537  1.00  0.00    -0.237 OA
ATOM     89  O   UNL A   1      48.609  25.800  38.759  1.00  0.00    -0.744 OA
ENDBRANCH  85  86
ENDBRANCH  59  80
ENDBRANCH  33  34
ENDBRANCH  26  28
ENDBRANCH  25  26
ENDBRANCH   1  25
TORSDOF 17
ENDMDL
