MODEL 1
REMARK VINA RESULT:     -10.3      0.000      0.000
REMARK SMILES O=C(OCCOC(=O)[C@@]1([C@@H]2CCC[C@@H]2O)CCCc2ccccc21)c1ccc(-c2c3nc(c(-c4ccc(S(=O)(=O)[O-])cc4)c4ccc([nH]4)c(-c4ccc(S(=O)(=O)[O-])cc4)c4nc(c(-c5ccc(S(=O)(=O)[O-])cc5)c5ccc2[nH]5)C=C4)C=C3)cc1
REMARK SMILES IDX 4 1 3 2 2 3 1 4 25 5 26 6 84 7 27 8 83 9 28 10 29 11 30 12
REMARK SMILES IDX 77 13 31 14 82 15 76 16 78 17 32 18 81 19 75 20 74 21 33 23
REMARK SMILES IDX 63 24 44 25 62 26 45 27 48 28 61 29 79 30 46 31 47 32 60 34
REMARK SMILES IDX 80 35 49 36 34 37 35 38 43 39 36 40 42 41 37 42 38 43 39 44
REMARK SMILES IDX 40 45 41 46 64 47 65 48 73 49 66 50 72 51 67 52 68 53 69 54
REMARK SMILES IDX 70 55 71 56 50 57 51 58 59 59 52 60 58 61 53 62 54 63 55 64
REMARK SMILES IDX 56 65 57 66 5 67 6 68 7 69 8 70 9 71 16 72 24 73 17 74 19 75
REMARK SMILES IDX 23 76 18 77 20 78 22 79 21 80 10 81 11 82 14 83 12 84 13 85
REMARK SMILES IDX 15 86
REMARK H PARENT 78 22 48 33 15 87
REMARK Flexibility Score: inf
ROOT
ATOM      1  C   UNL A   1      32.971  32.063  27.558  1.00  0.00     0.275 C 
ENDROOT
BRANCH   1   2
ATOM      2  O   UNL A   1      33.311  30.670  27.633  1.00  0.00    -0.458 OA
BRANCH   2   3
ATOM      3  C   UNL A   1      34.322  30.014  27.014  1.00  0.00     0.338 C 
ATOM      4  O   UNL A   1      34.123  29.515  25.908  1.00  0.00    -0.246 OA
BRANCH   3   5
ATOM      5  C   UNL A   1      35.640  29.761  27.665  1.00  0.00     0.060 A 
ATOM      6  C   UNL A   1      36.877  29.725  27.014  1.00  0.00     0.016 A 
ATOM      7  C   UNL A   1      35.605  29.457  29.031  1.00  0.00     0.016 A 
ATOM      8  C   UNL A   1      38.059  29.460  27.725  1.00  0.00     0.010 A 
ATOM      9  C   UNL A   1      36.781  29.242  29.751  1.00  0.00     0.010 A 
ATOM     10  C   UNL A   1      38.025  29.212  29.100  1.00  0.00    -0.014 A 
BRANCH  10  11
ATOM     11  C   UNL A   1      39.219  28.742  29.852  1.00  0.00     0.031 A 
ATOM     12  C   UNL A   1      39.559  29.439  31.139  1.00  0.00     0.074 A 
ATOM     13  C   UNL A   1      40.010  27.732  29.431  1.00  0.00     0.049 A 
ATOM     14  N   UNL A   1      40.500  29.140  31.993  1.00  0.00    -0.248 NA
ATOM     15  C   UNL A   1      38.700  30.562  31.558  1.00  0.00     0.031 C 
ATOM     16  C   UNL A   1      39.740  26.843  28.311  1.00  0.00     0.029 A 
ATOM     17  N   UNL A   1      41.243  27.314  29.871  1.00  0.00    -0.354 N 
ATOM     18  C   UNL A   1      40.261  29.946  33.093  1.00  0.00     0.074 A 
ATOM     19  C   UNL A   1      39.218  30.875  32.733  1.00  0.00     0.031 C 
ATOM     20  C   UNL A   1      40.838  26.118  28.031  1.00  0.00     0.029 A 
ATOM     21  C   UNL A   1      41.864  26.437  29.006  1.00  0.00     0.049 A 
ATOM     22  H   UNL A   1      41.643  27.609  30.721  1.00  0.00     0.167 HD
ATOM     23  C   UNL A   1      40.778  29.830  34.336  1.00  0.00     0.031 A 
ATOM     24  C   UNL A   1      43.111  25.927  29.013  1.00  0.00     0.031 A 
ATOM     25  C   UNL A   1      41.843  28.928  34.665  1.00  0.00     0.049 A 
ATOM     26  C   UNL A   1      43.882  26.044  30.294  1.00  0.00     0.074 A 
ATOM     27  C   UNL A   1      42.422  28.680  35.893  1.00  0.00     0.029 A 
ATOM     28  N   UNL A   1      42.511  28.143  33.735  1.00  0.00    -0.354 N 
ATOM     29  N   UNL A   1      43.553  26.694  31.383  1.00  0.00    -0.248 NA
ATOM     30  C   UNL A   1      45.106  25.242  30.408  1.00  0.00     0.031 C 
ATOM     31  C   UNL A   1      43.490  27.796  35.693  1.00  0.00     0.029 A 
ATOM     32  C   UNL A   1      43.535  27.449  34.350  1.00  0.00     0.049 A 
ATOM     33  H   UNL A   1      42.288  28.090  32.777  1.00  0.00     0.167 HD
ATOM     34  C   UNL A   1      44.449  26.275  32.354  1.00  0.00     0.074 A 
ATOM     35  C   UNL A   1      45.377  25.371  31.700  1.00  0.00     0.031 C 
ATOM     36  C   UNL A   1      44.452  26.558  33.680  1.00  0.00     0.031 A 
BRANCH  23  37
ATOM     37  C   UNL A   1      40.138  30.681  35.394  1.00  0.00    -0.014 A 
ATOM     38  C   UNL A   1      38.847  30.366  35.869  1.00  0.00     0.010 A 
ATOM     39  C   UNL A   1      40.776  31.840  35.857  1.00  0.00     0.010 A 
ATOM     40  C   UNL A   1      38.177  31.236  36.728  1.00  0.00     0.020 A 
ATOM     41  C   UNL A   1      40.118  32.701  36.740  1.00  0.00     0.020 A 
ATOM     42  C   UNL A   1      38.812  32.408  37.146  1.00  0.00     0.054 A 
BRANCH  42  43
ATOM     43  S   UNL A   1      37.903  33.551  38.221  1.00  0.00     0.124 S 
ATOM     44  O   UNL A   1      38.080  32.935  39.532  1.00  0.00    -0.237 OA
ATOM     45  O   UNL A   1      38.615  34.812  38.019  1.00  0.00    -0.237 OA
ATOM     46  O   UNL A   1      36.544  33.516  37.692  1.00  0.00    -0.744 OA
ENDBRANCH  42  43
ENDBRANCH  23  37
BRANCH  24  47
ATOM     47  C   UNL A   1      43.638  25.151  27.855  1.00  0.00    -0.014 A 
ATOM     48  C   UNL A   1      43.383  23.776  27.723  1.00  0.00     0.010 A 
ATOM     49  C   UNL A   1      44.427  25.791  26.880  1.00  0.00     0.010 A 
ATOM     50  C   UNL A   1      43.927  23.050  26.656  1.00  0.00     0.020 A 
ATOM     51  C   UNL A   1      44.966  25.071  25.805  1.00  0.00     0.020 A 
ATOM     52  C   UNL A   1      44.719  23.700  25.705  1.00  0.00     0.054 A 
BRANCH  52  53
ATOM     53  S   UNL A   1      45.402  22.729  24.330  1.00  0.00     0.124 S 
ATOM     54  O   UNL A   1      44.220  22.485  23.510  1.00  0.00    -0.237 OA
ATOM     55  O   UNL A   1      46.387  23.648  23.764  1.00  0.00    -0.237 OA
ATOM     56  O   UNL A   1      45.962  21.550  24.985  1.00  0.00    -0.744 OA
ENDBRANCH  52  53
ENDBRANCH  24  47
BRANCH  36  57
ATOM     57  C   UNL A   1      45.447  25.824  34.530  1.00  0.00    -0.014 A 
ATOM     58  C   UNL A   1      46.703  26.373  34.829  1.00  0.00     0.010 A 
ATOM     59  C   UNL A   1      45.086  24.577  35.075  1.00  0.00     0.010 A 
ATOM     60  C   UNL A   1      47.597  25.672  35.640  1.00  0.00     0.020 A 
ATOM     61  C   UNL A   1      45.963  23.890  35.913  1.00  0.00     0.020 A 
ATOM     62  C   UNL A   1      47.220  24.437  36.179  1.00  0.00     0.054 A 
BRANCH  62  63
ATOM     63  S   UNL A   1      48.374  23.577  37.278  1.00  0.00     0.124 S 
ATOM     64  O   UNL A   1      48.350  22.220  36.740  1.00  0.00    -0.237 OA
ATOM     65  O   UNL A   1      49.619  24.313  37.074  1.00  0.00    -0.237 OA
ATOM     66  O   UNL A   1      47.774  23.735  38.601  1.00  0.00    -0.744 OA
ENDBRANCH  62  63
ENDBRANCH  36  57
ENDBRANCH  10  11
ENDBRANCH   3   5
ENDBRANCH   2   3
ENDBRANCH   1   2
BRANCH   1  67
ATOM     67  C   UNL A   1      34.074  33.021  27.997  1.00  0.00     0.274 C 
BRANCH  67  68
ATOM     68  O   UNL A   1      34.404  32.913  29.387  1.00  0.00    -0.461 OA
BRANCH  68  69
ATOM     69  C   UNL A   1      35.353  33.795  29.838  1.00  0.00     0.317 C 
ATOM     70  O   UNL A   1      36.259  34.225  29.127  1.00  0.00    -0.251 OA
BRANCH  69  71
ATOM     71  C   UNL A   1      35.143  34.221  31.333  1.00  0.00     0.098 C 
ATOM     72  C   UNL A   1      34.187  33.157  31.932  1.00  0.00     0.024 C 
ATOM     73  C   UNL A   1      36.486  34.162  32.099  1.00  0.00    -0.027 A 
ATOM     74  C   UNL A   1      34.028  33.235  33.440  1.00  0.00     0.006 C 
ATOM     75  C   UNL A   1      36.532  33.793  33.459  1.00  0.00    -0.044 A 
ATOM     76  C   UNL A   1      37.691  34.545  31.484  1.00  0.00     0.005 A 
ATOM     77  C   UNL A   1      35.357  33.179  34.176  1.00  0.00     0.036 C 
ATOM     78  C   UNL A   1      37.733  33.926  34.181  1.00  0.00     0.004 A 
ATOM     79  C   UNL A   1      38.883  34.654  32.206  1.00  0.00     0.000 A 
ATOM     80  C   UNL A   1      38.897  34.374  33.564  1.00  0.00     0.000 A 
BRANCH  71  81
ATOM     81  C   UNL A   1      34.565  35.686  31.392  1.00  0.00     0.040 C 
ATOM     82  C   UNL A   1      34.611  36.481  32.716  1.00  0.00     0.008 C 
ATOM     83  C   UNL A   1      33.122  35.900  30.907  1.00  0.00     0.119 C 
ATOM     84  C   UNL A   1      33.178  36.666  33.208  1.00  0.00     0.003 C 
ATOM     85  C   UNL A   1      32.274  36.048  32.158  1.00  0.00     0.032 C 
BRANCH  83  86
ATOM     86  O   UNL A   1      32.603  34.896  30.058  1.00  0.00    -0.393 OA
ATOM     87  H   UNL A   1      32.912  34.027  30.358  1.00  0.00     0.210 HD
ENDBRANCH  83  86
ENDBRANCH  71  81
ENDBRANCH  69  71
ENDBRANCH  68  69
ENDBRANCH  67  68
ENDBRANCH   1  67
TORSDOF 16
ENDMDL
MODEL 2
REMARK VINA RESULT:     -10.2      5.544      7.510
REMARK SMILES O=C(OCCOC(=O)[C@@]1([C@@H]2CCC[C@@H]2O)CCCc2ccccc21)c1ccc(-c2c3nc(c(-c4ccc(S(=O)(=O)[O-])cc4)c4ccc([nH]4)c(-c4ccc(S(=O)(=O)[O-])cc4)c4nc(c(-c5ccc(S(=O)(=O)[O-])cc5)c5ccc2[nH]5)C=C4)C=C3)cc1
REMARK SMILES IDX 4 1 3 2 2 3 1 4 25 5 26 6 84 7 27 8 83 9 28 10 29 11 30 12
REMARK SMILES IDX 77 13 31 14 82 15 76 16 78 17 32 18 81 19 75 20 74 21 33 23
REMARK SMILES IDX 63 24 44 25 62 26 45 27 48 28 61 29 79 30 46 31 47 32 60 34
REMARK SMILES IDX 80 35 49 36 34 37 35 38 43 39 36 40 42 41 37 42 38 43 39 44
REMARK SMILES IDX 40 45 41 46 64 47 65 48 73 49 66 50 72 51 67 52 68 53 69 54
REMARK SMILES IDX 70 55 71 56 50 57 51 58 59 59 52 60 58 61 53 62 54 63 55 64
REMARK SMILES IDX 56 65 57 66 5 67 6 68 7 69 8 70 9 71 16 72 24 73 17 74 19 75
REMARK SMILES IDX 23 76 18 77 20 78 22 79 21 80 10 81 11 82 14 83 12 84 13 85
REMARK SMILES IDX 15 86
REMARK H PARENT 78 22 48 33 15 87
REMARK Flexibility Score: inf
ROOT
ATOM      1  C   UNL A   1      35.314  31.004  27.741  1.00  0.00     0.275 C 
ENDROOT
BRANCH   1   2
ATOM      2  O   UNL A   1      36.699  30.843  28.085  1.00  0.00    -0.458 OA
BRANCH   2   3
ATOM      3  C   UNL A   1      37.285  29.833  28.772  1.00  0.00     0.338 C 
ATOM      4  O   UNL A   1      36.657  29.277  29.671  1.00  0.00    -0.246 OA
BRANCH   3   5
ATOM      5  C   UNL A   1      38.710  29.437  28.570  1.00  0.00     0.060 A 
ATOM      6  C   UNL A   1      39.654  29.248  29.583  1.00  0.00     0.016 A 
ATOM      7  C   UNL A   1      39.136  29.328  27.240  1.00  0.00     0.016 A 
ATOM      8  C   UNL A   1      40.978  28.891  29.276  1.00  0.00     0.010 A 
ATOM      9  C   UNL A   1      40.436  28.926  26.933  1.00  0.00     0.010 A 
ATOM     10  C   UNL A   1      41.385  28.729  27.949  1.00  0.00    -0.014 A 
BRANCH  10  11
ATOM     11  C   UNL A   1      42.813  28.540  27.574  1.00  0.00     0.031 A 
ATOM     12  C   UNL A   1      43.673  29.766  27.448  1.00  0.00     0.074 A 
ATOM     13  C   UNL A   1      43.363  27.332  27.337  1.00  0.00     0.049 A 
ATOM     14  N   UNL A   1      44.957  29.828  27.216  1.00  0.00    -0.248 NA
ATOM     15  C   UNL A   1      43.038  31.077  27.678  1.00  0.00     0.031 C 
ATOM     16  C   UNL A   1      42.733  26.042  27.574  1.00  0.00     0.029 A 
ATOM     17  N   UNL A   1      44.575  26.990  26.785  1.00  0.00    -0.354 N 
ATOM     18  C   UNL A   1      45.295  31.158  27.401  1.00  0.00     0.074 A 
ATOM     19  C   UNL A   1      44.069  31.898  27.573  1.00  0.00     0.031 C 
ATOM     20  C   UNL A   1      43.465  25.066  27.008  1.00  0.00     0.029 A 
ATOM     21  C   UNL A   1      44.661  25.658  26.435  1.00  0.00     0.049 A 
ATOM     22  H   UNL A   1      45.310  27.631  26.653  1.00  0.00     0.167 HD
ATOM     23  C   UNL A   1      46.529  31.689  27.547  1.00  0.00     0.031 A 
ATOM     24  C   UNL A   1      45.608  24.985  25.755  1.00  0.00     0.031 A 
ATOM     25  C   UNL A   1      47.736  30.946  27.333  1.00  0.00     0.049 A 
ATOM     26  C   UNL A   1      46.938  25.659  25.600  1.00  0.00     0.074 A 
ATOM     27  C   UNL A   1      49.045  31.352  27.493  1.00  0.00     0.029 A 
ATOM     28  N   UNL A   1      47.771  29.636  26.874  1.00  0.00    -0.354 N 
ATOM     29  N   UNL A   1      47.270  26.884  25.931  1.00  0.00    -0.248 NA
ATOM     30  C   UNL A   1      48.054  24.830  25.130  1.00  0.00     0.031 C 
ATOM     31  C   UNL A   1      49.874  30.308  27.065  1.00  0.00     0.029 A 
ATOM     32  C   UNL A   1      49.079  29.232  26.693  1.00  0.00     0.049 A 
ATOM     33  H   UNL A   1      46.978  29.076  26.704  1.00  0.00     0.167 HD
ATOM     34  C   UNL A   1      48.653  26.933  25.841  1.00  0.00     0.074 A 
ATOM     35  C   UNL A   1      49.084  25.635  25.354  1.00  0.00     0.031 C 
ATOM     36  C   UNL A   1      49.488  27.938  26.202  1.00  0.00     0.031 A 
BRANCH  23  37
ATOM     37  C   UNL A   1      46.577  33.120  27.998  1.00  0.00    -0.014 A 
ATOM     38  C   UNL A   1      46.655  34.159  27.046  1.00  0.00     0.010 A 
ATOM     39  C   UNL A   1      46.633  33.433  29.363  1.00  0.00     0.010 A 
ATOM     40  C   UNL A   1      46.865  35.476  27.452  1.00  0.00     0.020 A 
ATOM     41  C   UNL A   1      46.817  34.757  29.774  1.00  0.00     0.020 A 
ATOM     42  C   UNL A   1      46.960  35.765  28.816  1.00  0.00     0.054 A 
BRANCH  42  43
ATOM     43  S   UNL A   1      47.285  37.476  29.319  1.00  0.00     0.124 S 
ATOM     44  O   UNL A   1      46.261  37.689  30.338  1.00  0.00    -0.237 OA
ATOM     45  O   UNL A   1      48.659  37.406  29.815  1.00  0.00    -0.237 OA
ATOM     46  O   UNL A   1      47.109  38.238  28.088  1.00  0.00    -0.744 OA
ENDBRANCH  42  43
ENDBRANCH  23  37
BRANCH  24  47
ATOM     47  C   UNL A   1      45.393  23.578  25.312  1.00  0.00    -0.014 A 
ATOM     48  C   UNL A   1      44.750  23.285  24.098  1.00  0.00     0.010 A 
ATOM     49  C   UNL A   1      45.817  22.511  26.129  1.00  0.00     0.010 A 
ATOM     50  C   UNL A   1      44.510  21.958  23.721  1.00  0.00     0.020 A 
ATOM     51  C   UNL A   1      45.588  21.181  25.752  1.00  0.00     0.020 A 
ATOM     52  C   UNL A   1      44.927  20.914  24.551  1.00  0.00     0.054 A 
BRANCH  52  53
ATOM     53  S   UNL A   1      44.607  19.204  24.027  1.00  0.00     0.124 S 
ATOM     54  O   UNL A   1      43.349  18.906  24.704  1.00  0.00    -0.237 OA
ATOM     55  O   UNL A   1      44.528  19.337  22.575  1.00  0.00    -0.237 OA
ATOM     56  O   UNL A   1      45.769  18.469  24.518  1.00  0.00    -0.744 OA
ENDBRANCH  52  53
ENDBRANCH  24  47
BRANCH  36  57
ATOM     57  C   UNL A   1      50.959  27.650  26.155  1.00  0.00    -0.014 A 
ATOM     58  C   UNL A   1      51.728  27.946  25.018  1.00  0.00     0.010 A 
ATOM     59  C   UNL A   1      51.585  27.115  27.296  1.00  0.00     0.010 A 
ATOM     60  C   UNL A   1      53.099  27.684  25.016  1.00  0.00     0.020 A 
ATOM     61  C   UNL A   1      52.959  26.883  27.308  1.00  0.00     0.020 A 
ATOM     62  C   UNL A   1      53.706  27.158  26.162  1.00  0.00     0.054 A 
BRANCH  62  63
ATOM     63  S   UNL A   1      55.496  26.885  26.153  1.00  0.00     0.124 S 
ATOM     64  O   UNL A   1      55.988  28.081  26.831  1.00  0.00    -0.237 OA
ATOM     65  O   UNL A   1      55.634  25.636  26.900  1.00  0.00    -0.237 OA
ATOM     66  O   UNL A   1      55.825  26.793  24.732  1.00  0.00    -0.744 OA
ENDBRANCH  62  63
ENDBRANCH  36  57
ENDBRANCH  10  11
ENDBRANCH   3   5
ENDBRANCH   2   3
ENDBRANCH   1   2
BRANCH   1  67
ATOM     67  C   UNL A   1      34.681  32.310  28.210  1.00  0.00     0.274 C 
BRANCH  67  68
ATOM     68  O   UNL A   1      34.396  32.332  29.614  1.00  0.00    -0.461 OA
BRANCH  68  69
ATOM     69  C   UNL A   1      34.775  33.475  30.274  1.00  0.00     0.317 C 
ATOM     70  O   UNL A   1      34.276  34.575  30.046  1.00  0.00    -0.251 OA
BRANCH  69  71
ATOM     71  C   UNL A   1      35.875  33.226  31.364  1.00  0.00     0.098 C 
ATOM     72  C   UNL A   1      35.579  31.812  31.930  1.00  0.00     0.024 C 
ATOM     73  C   UNL A   1      37.278  33.210  30.712  1.00  0.00    -0.027 A 
ATOM     74  C   UNL A   1      36.663  31.261  32.839  1.00  0.00     0.006 C 
ATOM     75  C   UNL A   1      38.299  32.370  31.201  1.00  0.00    -0.044 A 
ATOM     76  C   UNL A   1      37.600  34.086  29.659  1.00  0.00     0.005 A 
ATOM     77  C   UNL A   1      38.035  31.256  32.183  1.00  0.00     0.036 C 
ATOM     78  C   UNL A   1      39.613  32.507  30.716  1.00  0.00     0.004 A 
ATOM     79  C   UNL A   1      38.905  34.200  29.172  1.00  0.00     0.000 A 
ATOM     80  C   UNL A   1      39.919  33.431  29.722  1.00  0.00     0.000 A 
BRANCH  71  81
ATOM     81  C   UNL A   1      35.811  34.362  32.454  1.00  0.00     0.040 C 
ATOM     82  C   UNL A   1      37.019  34.607  33.385  1.00  0.00     0.008 C 
ATOM     83  C   UNL A   1      34.620  34.348  33.425  1.00  0.00     0.119 C 
ATOM     84  C   UNL A   1      36.611  34.217  34.803  1.00  0.00     0.003 C 
ATOM     85  C   UNL A   1      35.153  33.804  34.739  1.00  0.00     0.032 C 
BRANCH  83  86
ATOM     86  O   UNL A   1      33.486  33.620  32.997  1.00  0.00    -0.393 OA
ATOM     87  H   UNL A   1      33.258  33.879  32.090  1.00  0.00     0.210 HD
ENDBRANCH  83  86
ENDBRANCH  71  81
ENDBRANCH  69  71
ENDBRANCH  68  69
ENDBRANCH  67  68
ENDBRANCH   1  67
TORSDOF 16
ENDMDL
MODEL 3
REMARK VINA RESULT:     -10.1      6.602     12.924
REMARK SMILES O=C(OCCOC(=O)[C@@]1([C@@H]2CCC[C@@H]2O)CCCc2ccccc21)c1ccc(-c2c3nc(c(-c4ccc(S(=O)(=O)[O-])cc4)c4ccc([nH]4)c(-c4ccc(S(=O)(=O)[O-])cc4)c4nc(c(-c5ccc(S(=O)(=O)[O-])cc5)c5ccc2[nH]5)C=C4)C=C3)cc1
REMARK SMILES IDX 4 1 3 2 2 3 1 4 25 5 26 6 84 7 27 8 83 9 28 10 29 11 30 12
REMARK SMILES IDX 77 13 31 14 82 15 76 16 78 17 32 18 81 19 75 20 74 21 33 23
REMARK SMILES IDX 63 24 44 25 62 26 45 27 48 28 61 29 79 30 46 31 47 32 60 34
REMARK SMILES IDX 80 35 49 36 34 37 35 38 43 39 36 40 42 41 37 42 38 43 39 44
REMARK SMILES IDX 40 45 41 46 64 47 65 48 73 49 66 50 72 51 67 52 68 53 69 54
REMARK SMILES IDX 70 55 71 56 50 57 51 58 59 59 52 60 58 61 53 62 54 63 55 64
REMARK SMILES IDX 56 65 57 66 5 67 6 68 7 69 8 70 9 71 16 72 24 73 17 74 19 75
REMARK SMILES IDX 23 76 18 77 20 78 22 79 21 80 10 81 11 82 14 83 12 84 13 85
REMARK SMILES IDX 15 86
REMARK H PARENT 78 22 48 33 15 87
REMARK Flexibility Score: inf
ROOT
ATOM      1  C   UNL A   1      38.934  20.077  25.396  1.00  0.00     0.275 C 
ENDROOT
BRANCH   1   2
ATOM      2  O   UNL A   1      40.021  19.738  26.272  1.00  0.00    -0.458 OA
BRANCH   2   3
ATOM      3  C   UNL A   1      41.345  19.969  26.102  1.00  0.00     0.338 C 
ATOM      4  O   UNL A   1      42.058  19.069  25.663  1.00  0.00    -0.246 OA
BRANCH   3   5
ATOM      5  C   UNL A   1      42.007  21.233  26.538  1.00  0.00     0.060 A 
ATOM      6  C   UNL A   1      42.192  21.643  27.862  1.00  0.00     0.016 A 
ATOM      7  C   UNL A   1      42.400  22.106  25.516  1.00  0.00     0.016 A 
ATOM      8  C   UNL A   1      42.816  22.865  28.157  1.00  0.00     0.010 A 
ATOM      9  C   UNL A   1      43.065  23.299  25.805  1.00  0.00     0.010 A 
ATOM     10  C   UNL A   1      43.257  23.709  27.134  1.00  0.00    -0.014 A 
BRANCH  10  11
ATOM     11  C   UNL A   1      43.746  25.089  27.398  1.00  0.00     0.031 A 
ATOM     12  C   UNL A   1      45.232  25.308  27.455  1.00  0.00     0.074 A 
ATOM     13  C   UNL A   1      42.926  26.142  27.594  1.00  0.00     0.049 A 
ATOM     14  N   UNL A   1      45.875  26.437  27.587  1.00  0.00    -0.248 NA
ATOM     15  C   UNL A   1      46.106  24.134  27.273  1.00  0.00     0.031 C 
ATOM     16  C   UNL A   1      41.482  26.149  27.408  1.00  0.00     0.029 A 
ATOM     17  N   UNL A   1      43.187  27.412  28.051  1.00  0.00    -0.354 N 
ATOM     18  C   UNL A   1      47.206  26.123  27.374  1.00  0.00     0.074 A 
ATOM     19  C   UNL A   1      47.307  24.686  27.297  1.00  0.00     0.031 C 
ATOM     20  C   UNL A   1      40.964  27.280  27.917  1.00  0.00     0.029 A 
ATOM     21  C   UNL A   1      42.051  28.115  28.394  1.00  0.00     0.049 A 
ATOM     22  H   UNL A   1      44.096  27.784  28.124  1.00  0.00     0.167 HD
ATOM     23  C   UNL A   1      48.231  26.970  27.133  1.00  0.00     0.031 A 
ATOM     24  C   UNL A   1      41.903  29.308  29.001  1.00  0.00     0.031 A 
ATOM     25  C   UNL A   1      48.121  28.394  27.253  1.00  0.00     0.049 A 
ATOM     26  C   UNL A   1      43.111  30.196  29.051  1.00  0.00     0.074 A 
ATOM     27  C   UNL A   1      49.068  29.363  26.991  1.00  0.00     0.029 A 
ATOM     28  N   UNL A   1      46.985  29.049  27.710  1.00  0.00    -0.354 N 
ATOM     29  N   UNL A   1      44.340  29.914  28.693  1.00  0.00    -0.248 NA
ATOM     30  C   UNL A   1      42.892  31.595  29.435  1.00  0.00     0.031 C 
ATOM     31  C   UNL A   1      48.527  30.602  27.356  1.00  0.00     0.029 A 
ATOM     32  C   UNL A   1      47.223  30.408  27.790  1.00  0.00     0.049 A 
ATOM     33  H   UNL A   1      46.135  28.609  27.942  1.00  0.00     0.167 HD
ATOM     34  C   UNL A   1      45.011  31.127  28.676  1.00  0.00     0.074 A 
ATOM     35  C   UNL A   1      44.066  32.131  29.130  1.00  0.00     0.031 C 
ATOM     36  C   UNL A   1      46.271  31.390  28.250  1.00  0.00     0.031 A 
BRANCH  23  37
ATOM     37  C   UNL A   1      49.513  26.334  26.676  1.00  0.00    -0.014 A 
ATOM     38  C   UNL A   1      50.444  25.859  27.626  1.00  0.00     0.010 A 
ATOM     39  C   UNL A   1      49.836  26.284  25.313  1.00  0.00     0.010 A 
ATOM     40  C   UNL A   1      51.703  25.418  27.223  1.00  0.00     0.020 A 
ATOM     41  C   UNL A   1      51.088  25.817  24.904  1.00  0.00     0.020 A 
ATOM     42  C   UNL A   1      52.023  25.415  25.863  1.00  0.00     0.054 A 
BRANCH  42  43
ATOM     43  S   UNL A   1      53.685  24.887  25.365  1.00  0.00     0.124 S 
ATOM     44  O   UNL A   1      53.462  23.488  25.011  1.00  0.00    -0.237 OA
ATOM     45  O   UNL A   1      53.980  25.778  24.244  1.00  0.00    -0.237 OA
ATOM     46  O   UNL A   1      54.491  25.108  26.561  1.00  0.00    -0.744 OA
ENDBRANCH  42  43
ENDBRANCH  23  37
BRANCH  24  47
ATOM     47  C   UNL A   1      40.568  29.784  29.460  1.00  0.00    -0.014 A 
ATOM     48  C   UNL A   1      40.286  29.957  30.825  1.00  0.00     0.010 A 
ATOM     49  C   UNL A   1      39.552  30.046  28.520  1.00  0.00     0.010 A 
ATOM     50  C   UNL A   1      39.010  30.356  31.244  1.00  0.00     0.020 A 
ATOM     51  C   UNL A   1      38.277  30.455  28.933  1.00  0.00     0.020 A 
ATOM     52  C   UNL A   1      38.012  30.599  30.296  1.00  0.00     0.054 A 
BRANCH  52  53
ATOM     53  S   UNL A   1      36.371  31.123  30.874  1.00  0.00     0.124 S 
ATOM     54  O   UNL A   1      35.997  30.031  31.767  1.00  0.00    -0.237 OA
ATOM     55  O   UNL A   1      36.666  32.398  31.523  1.00  0.00    -0.237 OA
ATOM     56  O   UNL A   1      35.588  31.221  29.646  1.00  0.00    -0.744 OA
ENDBRANCH  52  53
ENDBRANCH  24  47
BRANCH  36  57
ATOM     57  C   UNL A   1      46.679  32.832  28.184  1.00  0.00    -0.014 A 
ATOM     58  C   UNL A   1      47.315  33.464  29.264  1.00  0.00     0.010 A 
ATOM     59  C   UNL A   1      46.461  33.547  26.992  1.00  0.00     0.010 A 
ATOM     60  C   UNL A   1      47.700  34.802  29.161  1.00  0.00     0.020 A 
ATOM     61  C   UNL A   1      46.875  34.872  26.874  1.00  0.00     0.020 A 
ATOM     62  C   UNL A   1      47.481  35.496  27.966  1.00  0.00     0.054 A 
BRANCH  62  63
ATOM     63  S   UNL A   1      48.047  37.212  27.838  1.00  0.00     0.124 S 
ATOM     64  O   UNL A   1      48.266  37.351  26.401  1.00  0.00    -0.237 OA
ATOM     65  O   UNL A   1      46.916  37.963  28.378  1.00  0.00    -0.237 OA
ATOM     66  O   UNL A   1      49.255  37.240  28.660  1.00  0.00    -0.744 OA
ENDBRANCH  62  63
ENDBRANCH  36  57
ENDBRANCH  10  11
ENDBRANCH   3   5
ENDBRANCH   2   3
ENDBRANCH   1   2
BRANCH   1  67
ATOM     67  C   UNL A   1      38.357  21.475  25.595  1.00  0.00     0.274 C 
BRANCH  67  68
ATOM     68  O   UNL A   1      36.925  21.499  25.636  1.00  0.00    -0.461 OA
BRANCH  68  69
ATOM     69  C   UNL A   1      36.309  21.918  24.482  1.00  0.00     0.317 C 
ATOM     70  O   UNL A   1      36.927  22.185  23.454  1.00  0.00    -0.251 OA
BRANCH  69  71
ATOM     71  C   UNL A   1      34.747  21.985  24.603  1.00  0.00     0.098 C 
ATOM     72  C   UNL A   1      34.290  22.948  23.476  1.00  0.00     0.024 C 
ATOM     73  C   UNL A   1      34.130  20.591  24.337  1.00  0.00    -0.027 A 
ATOM     74  C   UNL A   1      32.789  22.983  23.252  1.00  0.00     0.006 C 
ATOM     75  C   UNL A   1      32.882  20.457  23.697  1.00  0.00    -0.044 A 
ATOM     76  C   UNL A   1      34.762  19.418  24.790  1.00  0.00     0.005 A 
ATOM     77  C   UNL A   1      32.200  21.605  22.995  1.00  0.00     0.036 C 
ATOM     78  C   UNL A   1      32.257  19.197  23.633  1.00  0.00     0.004 A 
ATOM     79  C   UNL A   1      34.141  18.169  24.704  1.00  0.00     0.000 A 
ATOM     80  C   UNL A   1      32.873  18.063  24.152  1.00  0.00     0.000 A 
BRANCH  71  81
ATOM     81  C   UNL A   1      34.345  22.473  26.046  1.00  0.00     0.040 C 
ATOM     82  C   UNL A   1      32.986  22.058  26.651  1.00  0.00     0.008 C 
ATOM     83  C   UNL A   1      34.405  23.984  26.326  1.00  0.00     0.119 C 
ATOM     84  C   UNL A   1      32.117  23.308  26.768  1.00  0.00     0.003 C 
ATOM     85  C   UNL A   1      32.968  24.474  26.301  1.00  0.00     0.032 C 
BRANCH  83  86
ATOM     86  O   UNL A   1      35.215  24.741  25.449  1.00  0.00    -0.393 OA
ATOM     87  H   UNL A   1      35.027  25.685  25.570  1.00  0.00     0.210 HD
ENDBRANCH  83  86
ENDBRANCH  71  81
ENDBRANCH  69  71
ENDBRANCH  68  69
ENDBRANCH  67  68
ENDBRANCH   1  67
TORSDOF 16
ENDMDL
