MODEL 1
REMARK VINA RESULT:     -12.1      0.000      0.000
REMARK SMILES COc1cc(CC(=O)N2CCC[C@H]2C(=O)OCCOC(=O)c2ccc(-c3c4nc(c(-c5ccc(S(=O)(=O)[O-])cc5)c5ccc([nH]5)c(-c5ccc(S(=O)(=O)[O-])cc5)c5nc(c(-c6ccc(S(=O)(=O)[O-])cc6)c6ccc3[nH]6)C=C5)C=C4)cc2)ccc1C
REMARK SMILES IDX 17 1 16 2 14 3 15 4 13 5 9 6 10 7 11 8 12 9 7 10 8 11 6 12
REMARK SMILES IDX 5 13 3 14 4 15 84 16 83 17 85 18 82 19 2 20 1 21 18 22 19 23
REMARK SMILES IDX 20 24 21 25 22 26 23 27 81 28 24 29 80 30 25 31 26 32 27 33
REMARK SMILES IDX 74 34 28 35 79 36 73 37 75 38 29 39 78 40 72 41 71 42 30 44
REMARK SMILES IDX 60 45 41 46 59 47 42 48 45 49 58 50 76 51 43 52 44 53 57 55
REMARK SMILES IDX 77 56 46 57 31 58 32 59 40 60 33 61 39 62 34 63 35 64 36 65
REMARK SMILES IDX 37 66 38 67 61 68 62 69 70 70 63 71 69 72 64 73 65 74 66 75
REMARK SMILES IDX 67 76 68 77 47 78 48 79 56 80 49 81 55 82 50 83 51 84 52 85
REMARK SMILES IDX 53 86 54 87
REMARK H PARENT 75 43 45 54
REMARK Flexibility Score: inf
ROOT
ATOM      1  C   UNL A   1      33.037  29.922  26.510  1.00  0.00     0.274 C 
ENDROOT
BRANCH   1   2
ATOM      2  O   UNL A   1      33.253  29.310  25.225  1.00  0.00    -0.461 OA
BRANCH   2   3
ATOM      3  C   UNL A   1      32.146  28.742  24.669  1.00  0.00     0.328 C 
ATOM      4  O   UNL A   1      31.226  29.399  24.192  1.00  0.00    -0.250 OA
BRANCH   3   5
ATOM      5  C   UNL A   1      32.185  27.197  24.645  1.00  0.00     0.195 C 
ATOM      6  N   UNL A   1      31.420  26.576  23.557  1.00  0.00    -0.329 N 
ATOM      7  C   UNL A   1      32.291  26.562  22.403  1.00  0.00     0.120 C 
ATOM      8  C   UNL A   1      33.608  26.099  23.005  1.00  0.00     0.024 C 
ATOM      9  C   UNL A   1      33.621  26.705  24.407  1.00  0.00     0.039 C 
BRANCH   6  10
ATOM     10  C   UNL A   1      30.403  25.684  23.846  1.00  0.00     0.227 C 
ATOM     11  O   UNL A   1      29.436  26.074  24.516  1.00  0.00    -0.275 OA
BRANCH  10  12
ATOM     12  C   UNL A   1      30.383  24.222  23.385  1.00  0.00     0.135 C 
BRANCH  12  13
ATOM     13  C   UNL A   1      31.423  23.259  23.896  1.00  0.00    -0.035 A 
ATOM     14  C   UNL A   1      33.081  22.683  25.591  1.00  0.00     0.122 A 
ATOM     15  C   UNL A   1      31.938  23.392  25.200  1.00  0.00     0.051 A 
ATOM     16  C   UNL A   1      33.672  21.782  24.688  1.00  0.00    -0.009 A 
ATOM     17  C   UNL A   1      33.069  21.556  23.438  1.00  0.00     0.007 A 
ATOM     18  C   UNL A   1      34.960  21.067  24.987  1.00  0.00     0.048 C 
ATOM     19  C   UNL A   1      31.959  22.295  23.039  1.00  0.00     0.005 A 
BRANCH  14  20
ATOM     20  O   UNL A   1      33.731  22.859  26.786  1.00  0.00    -0.496 OA
ATOM     21  C   UNL A   1      33.069  22.421  27.965  1.00  0.00     0.278 C 
ENDBRANCH  14  20
ENDBRANCH  12  13
ENDBRANCH  10  12
ENDBRANCH   6  10
ENDBRANCH   3   5
ENDBRANCH   2   3
ENDBRANCH   1   2
BRANCH   1  22
ATOM     22  C   UNL A   1      33.931  29.278  27.589  1.00  0.00     0.275 C 
BRANCH  22  23
ATOM     23  O   UNL A   1      35.350  29.259  27.318  1.00  0.00    -0.458 OA
BRANCH  23  24
ATOM     24  C   UNL A   1      36.066  30.335  27.734  1.00  0.00     0.338 C 
ATOM     25  O   UNL A   1      35.570  31.455  27.920  1.00  0.00    -0.246 OA
BRANCH  24  26
ATOM     26  C   UNL A   1      37.361  29.844  28.278  1.00  0.00     0.060 A 
ATOM     27  C   UNL A   1      37.398  29.032  29.420  1.00  0.00     0.016 A 
ATOM     28  C   UNL A   1      38.484  29.918  27.451  1.00  0.00     0.016 A 
ATOM     29  C   UNL A   1      38.496  28.189  29.649  1.00  0.00     0.010 A 
ATOM     30  C   UNL A   1      39.495  28.999  27.598  1.00  0.00     0.010 A 
ATOM     31  C   UNL A   1      39.516  28.129  28.697  1.00  0.00    -0.014 A 
BRANCH  31  32
ATOM     32  C   UNL A   1      40.793  27.437  28.868  1.00  0.00     0.031 A 
ATOM     33  C   UNL A   1      41.078  26.040  28.471  1.00  0.00     0.074 A 
ATOM     34  C   UNL A   1      41.769  28.251  29.331  1.00  0.00     0.049 A 
ATOM     35  N   UNL A   1      42.082  25.365  28.925  1.00  0.00    -0.248 NA
ATOM     36  C   UNL A   1      40.273  25.266  27.532  1.00  0.00     0.031 C 
ATOM     37  C   UNL A   1      43.203  28.047  29.404  1.00  0.00     0.029 A 
ATOM     38  N   UNL A   1      41.561  29.442  30.041  1.00  0.00    -0.354 N 
ATOM     39  C   UNL A   1      42.230  24.241  28.140  1.00  0.00     0.074 A 
ATOM     40  C   UNL A   1      41.033  24.180  27.338  1.00  0.00     0.031 C 
ATOM     41  C   UNL A   1      43.686  28.848  30.373  1.00  0.00     0.029 A 
ATOM     42  C   UNL A   1      42.539  29.472  31.027  1.00  0.00     0.049 A 
ATOM     43  H   UNL A   1      40.867  30.120  29.873  1.00  0.00     0.167 HD
ATOM     44  C   UNL A   1      43.418  23.570  28.144  1.00  0.00     0.031 A 
ATOM     45  C   UNL A   1      42.203  29.369  32.346  1.00  0.00     0.031 A 
ATOM     46  C   UNL A   1      44.334  24.137  29.127  1.00  0.00     0.049 A 
ATOM     47  C   UNL A   1      42.856  28.155  32.956  1.00  0.00     0.074 A 
ATOM     48  C   UNL A   1      45.371  25.048  29.020  1.00  0.00     0.029 A 
ATOM     49  N   UNL A   1      44.015  24.051  30.477  1.00  0.00    -0.354 N 
ATOM     50  N   UNL A   1      43.162  27.075  32.287  1.00  0.00    -0.248 NA
ATOM     51  C   UNL A   1      43.270  28.095  34.351  1.00  0.00     0.031 C 
ATOM     52  C   UNL A   1      45.586  25.608  30.306  1.00  0.00     0.029 A 
ATOM     53  C   UNL A   1      44.707  25.008  31.192  1.00  0.00     0.049 A 
ATOM     54  H   UNL A   1      43.386  23.402  30.867  1.00  0.00     0.167 HD
ATOM     55  C   UNL A   1      43.909  26.254  33.087  1.00  0.00     0.074 A 
ATOM     56  C   UNL A   1      43.909  26.913  34.384  1.00  0.00     0.031 C 
ATOM     57  C   UNL A   1      44.535  25.130  32.631  1.00  0.00     0.031 A 
BRANCH  44  58
ATOM     58  C   UNL A   1      43.845  22.610  27.058  1.00  0.00    -0.014 A 
ATOM     59  C   UNL A   1      42.990  21.539  26.712  1.00  0.00     0.010 A 
ATOM     60  C   UNL A   1      45.069  22.680  26.366  1.00  0.00     0.010 A 
ATOM     61  C   UNL A   1      43.357  20.552  25.787  1.00  0.00     0.020 A 
ATOM     62  C   UNL A   1      45.457  21.685  25.446  1.00  0.00     0.020 A 
ATOM     63  C   UNL A   1      44.601  20.620  25.170  1.00  0.00     0.054 A 
BRANCH  63  64
ATOM     64  S   UNL A   1      45.070  19.296  24.019  1.00  0.00     0.124 S 
ATOM     65  O   UNL A   1      44.484  19.750  22.760  1.00  0.00    -0.237 OA
ATOM     66  O   UNL A   1      46.527  19.326  24.078  1.00  0.00    -0.237 OA
ATOM     67  O   UNL A   1      44.449  18.103  24.591  1.00  0.00    -0.744 OA
ENDBRANCH  63  64
ENDBRANCH  44  58
BRANCH  45  68
ATOM     68  C   UNL A   1      40.851  29.915  32.707  1.00  0.00    -0.014 A 
ATOM     69  C   UNL A   1      40.623  31.295  32.486  1.00  0.00     0.010 A 
ATOM     70  C   UNL A   1      39.733  29.086  32.915  1.00  0.00     0.010 A 
ATOM     71  C   UNL A   1      39.327  31.809  32.363  1.00  0.00     0.020 A 
ATOM     72  C   UNL A   1      38.427  29.606  32.811  1.00  0.00     0.020 A 
ATOM     73  C   UNL A   1      38.235  30.955  32.498  1.00  0.00     0.054 A 
BRANCH  73  74
ATOM     74  S   UNL A   1      36.585  31.618  32.102  1.00  0.00     0.124 S 
ATOM     75  O   UNL A   1      35.784  30.402  31.989  1.00  0.00    -0.237 OA
ATOM     76  O   UNL A   1      36.302  32.449  33.271  1.00  0.00    -0.237 OA
ATOM     77  O   UNL A   1      36.797  32.347  30.855  1.00  0.00    -0.744 OA
ENDBRANCH  73  74
ENDBRANCH  45  68
BRANCH  57  78
ATOM     78  C   UNL A   1      45.178  24.088  33.505  1.00  0.00    -0.014 A 
ATOM     79  C   UNL A   1      46.481  24.202  34.008  1.00  0.00     0.010 A 
ATOM     80  C   UNL A   1      44.394  23.005  33.972  1.00  0.00     0.010 A 
ATOM     81  C   UNL A   1      47.007  23.241  34.877  1.00  0.00     0.020 A 
ATOM     82  C   UNL A   1      44.893  22.069  34.878  1.00  0.00     0.020 A 
ATOM     83  C   UNL A   1      46.211  22.179  35.305  1.00  0.00     0.054 A 
BRANCH  83  84
ATOM     84  S   UNL A   1      46.876  20.980  36.484  1.00  0.00     0.124 S 
ATOM     85  O   UNL A   1      47.785  21.808  37.271  1.00  0.00    -0.237 OA
ATOM     86  O   UNL A   1      45.682  20.516  37.189  1.00  0.00    -0.237 OA
ATOM     87  O   UNL A   1      47.513  19.980  35.631  1.00  0.00    -0.744 OA
ENDBRANCH  83  84
ENDBRANCH  57  78
ENDBRANCH  31  32
ENDBRANCH  24  26
ENDBRANCH  23  24
ENDBRANCH  22  23
ENDBRANCH   1  22
TORSDOF 18
ENDMDL
MODEL 2
REMARK VINA RESULT:     -11.9      1.341      2.506
REMARK SMILES COc1cc(CC(=O)N2CCC[C@H]2C(=O)OCCOC(=O)c2ccc(-c3c4nc(c(-c5ccc(S(=O)(=O)[O-])cc5)c5ccc([nH]5)c(-c5ccc(S(=O)(=O)[O-])cc5)c5nc(c(-c6ccc(S(=O)(=O)[O-])cc6)c6ccc3[nH]6)C=C5)C=C4)cc2)ccc1C
REMARK SMILES IDX 17 1 16 2 14 3 15 4 13 5 9 6 10 7 11 8 12 9 7 10 8 11 6 12
REMARK SMILES IDX 5 13 3 14 4 15 84 16 83 17 85 18 82 19 2 20 1 21 18 22 19 23
REMARK SMILES IDX 20 24 21 25 22 26 23 27 81 28 24 29 80 30 25 31 26 32 27 33
REMARK SMILES IDX 74 34 28 35 79 36 73 37 75 38 29 39 78 40 72 41 71 42 30 44
REMARK SMILES IDX 60 45 41 46 59 47 42 48 45 49 58 50 76 51 43 52 44 53 57 55
REMARK SMILES IDX 77 56 46 57 31 58 32 59 40 60 33 61 39 62 34 63 35 64 36 65
REMARK SMILES IDX 37 66 38 67 61 68 62 69 70 70 63 71 69 72 64 73 65 74 66 75
REMARK SMILES IDX 67 76 68 77 47 78 48 79 56 80 49 81 55 82 50 83 51 84 52 85
REMARK SMILES IDX 53 86 54 87
REMARK H PARENT 75 43 45 54
REMARK Flexibility Score: inf
ROOT
ATOM      1  C   UNL A   1      32.690  30.118  27.243  1.00  0.00     0.274 C 
ENDROOT
BRANCH   1   2
ATOM      2  O   UNL A   1      33.045  28.723  27.217  1.00  0.00    -0.461 OA
BRANCH   2   3
ATOM      3  C   UNL A   1      31.988  27.863  27.238  1.00  0.00     0.328 C 
ATOM      4  O   UNL A   1      31.046  27.981  28.015  1.00  0.00    -0.250 OA
BRANCH   3   5
ATOM      5  C   UNL A   1      32.060  26.763  26.155  1.00  0.00     0.195 C 
ATOM      6  N   UNL A   1      31.448  25.483  26.531  1.00  0.00    -0.329 N 
ATOM      7  C   UNL A   1      30.038  25.604  26.236  1.00  0.00     0.120 C 
ATOM      8  C   UNL A   1      30.055  26.267  24.869  1.00  0.00     0.024 C 
ATOM      9  C   UNL A   1      31.271  27.191  24.908  1.00  0.00     0.039 C 
BRANCH   6  10
ATOM     10  C   UNL A   1      32.205  24.325  26.529  1.00  0.00     0.227 C 
ATOM     11  O   UNL A   1      31.862  23.383  27.258  1.00  0.00    -0.275 OA
BRANCH  10  12
ATOM     12  C   UNL A   1      33.459  24.118  25.671  1.00  0.00     0.135 C 
BRANCH  12  13
ATOM     13  C   UNL A   1      33.406  24.379  24.188  1.00  0.00    -0.035 A 
ATOM     14  C   UNL A   1      33.681  25.939  22.332  1.00  0.00     0.122 A 
ATOM     15  C   UNL A   1      33.956  25.560  23.652  1.00  0.00     0.051 A 
ATOM     16  C   UNL A   1      32.903  25.092  21.522  1.00  0.00    -0.009 A 
ATOM     17  C   UNL A   1      32.475  23.852  22.026  1.00  0.00     0.007 A 
ATOM     18  C   UNL A   1      32.471  25.476  20.134  1.00  0.00     0.048 C 
ATOM     19  C   UNL A   1      32.714  23.501  23.352  1.00  0.00     0.005 A 
BRANCH  14  20
ATOM     20  O   UNL A   1      34.054  27.136  21.776  1.00  0.00    -0.496 OA
ATOM     21  C   UNL A   1      33.592  28.324  22.403  1.00  0.00     0.278 C 
ENDBRANCH  14  20
ENDBRANCH  12  13
ENDBRANCH  10  12
ENDBRANCH   6  10
ENDBRANCH   3   5
ENDBRANCH   2   3
ENDBRANCH   1   2
BRANCH   1  22
ATOM     22  C   UNL A   1      33.898  30.991  27.635  1.00  0.00     0.275 C 
BRANCH  22  23
ATOM     23  O   UNL A   1      35.204  30.417  27.410  1.00  0.00    -0.458 OA
BRANCH  23  24
ATOM     24  C   UNL A   1      36.168  30.717  28.320  1.00  0.00     0.338 C 
ATOM     25  O   UNL A   1      35.989  31.483  29.276  1.00  0.00    -0.246 OA
BRANCH  24  26
ATOM     26  C   UNL A   1      37.252  29.705  28.192  1.00  0.00     0.060 A 
ATOM     27  C   UNL A   1      38.154  29.751  27.121  1.00  0.00     0.016 A 
ATOM     28  C   UNL A   1      37.558  28.935  29.316  1.00  0.00     0.016 A 
ATOM     29  C   UNL A   1      39.417  29.151  27.238  1.00  0.00     0.010 A 
ATOM     30  C   UNL A   1      38.838  28.465  29.485  1.00  0.00     0.010 A 
ATOM     31  C   UNL A   1      39.779  28.562  28.451  1.00  0.00    -0.014 A 
BRANCH  31  32
ATOM     32  C   UNL A   1      40.978  27.756  28.675  1.00  0.00     0.031 A 
ATOM     33  C   UNL A   1      41.134  26.326  28.330  1.00  0.00     0.074 A 
ATOM     34  C   UNL A   1      42.019  28.488  29.136  1.00  0.00     0.049 A 
ATOM     35  N   UNL A   1      42.058  25.573  28.831  1.00  0.00    -0.248 NA
ATOM     36  C   UNL A   1      40.278  25.601  27.397  1.00  0.00     0.031 C 
ATOM     37  C   UNL A   1      43.425  28.148  29.251  1.00  0.00     0.029 A 
ATOM     38  N   UNL A   1      41.913  29.717  29.802  1.00  0.00    -0.354 N 
ATOM     39  C   UNL A   1      42.112  24.413  28.086  1.00  0.00     0.074 A 
ATOM     40  C   UNL A   1      40.933  24.440  27.257  1.00  0.00     0.031 C 
ATOM     41  C   UNL A   1      43.963  28.931  30.205  1.00  0.00     0.029 A 
ATOM     42  C   UNL A   1      42.867  29.686  30.811  1.00  0.00     0.049 A 
ATOM     43  H   UNL A   1      41.292  30.452  29.595  1.00  0.00     0.167 HD
ATOM     44  C   UNL A   1      43.228  23.631  28.142  1.00  0.00     0.031 A 
ATOM     45  C   UNL A   1      42.495  29.662  32.123  1.00  0.00     0.031 A 
ATOM     46  C   UNL A   1      44.174  24.139  29.128  1.00  0.00     0.049 A 
ATOM     47  C   UNL A   1      43.013  28.411  32.788  1.00  0.00     0.074 A 
ATOM     48  C   UNL A   1      45.297  24.942  29.017  1.00  0.00     0.029 A 
ATOM     49  N   UNL A   1      43.820  24.132  30.472  1.00  0.00    -0.354 N 
ATOM     50  N   UNL A   1      43.227  27.285  32.162  1.00  0.00    -0.248 NA
ATOM     51  C   UNL A   1      43.390  28.360  34.194  1.00  0.00     0.031 C 
ATOM     52  C   UNL A   1      45.538  25.523  30.289  1.00  0.00     0.029 A 
ATOM     53  C   UNL A   1      44.586  25.041  31.173  1.00  0.00     0.049 A 
ATOM     54  H   UNL A   1      43.122  23.560  30.867  1.00  0.00     0.167 HD
ATOM     55  C   UNL A   1      43.873  26.423  33.007  1.00  0.00     0.074 A 
ATOM     56  C   UNL A   1      43.910  27.123  34.281  1.00  0.00     0.031 C 
ATOM     57  C   UNL A   1      44.395  25.229  32.602  1.00  0.00     0.031 A 
BRANCH  44  58
ATOM     58  C   UNL A   1      43.583  22.597  27.097  1.00  0.00    -0.014 A 
ATOM     59  C   UNL A   1      42.782  21.438  26.979  1.00  0.00     0.010 A 
ATOM     60  C   UNL A   1      44.691  22.682  26.234  1.00  0.00     0.010 A 
ATOM     61  C   UNL A   1      43.103  20.390  26.105  1.00  0.00     0.020 A 
ATOM     62  C   UNL A   1      45.033  21.628  25.362  1.00  0.00     0.020 A 
ATOM     63  C   UNL A   1      44.240  20.482  25.311  1.00  0.00     0.054 A 
BRANCH  63  64
ATOM     64  S   UNL A   1      44.658  19.084  24.231  1.00  0.00     0.124 S 
ATOM     65  O   UNL A   1      43.642  18.095  24.587  1.00  0.00    -0.237 OA
ATOM     66  O   UNL A   1      44.528  19.663  22.898  1.00  0.00    -0.237 OA
ATOM     67  O   UNL A   1      46.021  18.734  24.627  1.00  0.00    -0.744 OA
ENDBRANCH  63  64
ENDBRANCH  44  58
BRANCH  45  68
ATOM     68  C   UNL A   1      41.196  30.348  32.433  1.00  0.00    -0.014 A 
ATOM     69  C   UNL A   1      40.136  29.549  32.926  1.00  0.00     0.010 A 
ATOM     70  C   UNL A   1      41.096  31.743  32.585  1.00  0.00     0.010 A 
ATOM     71  C   UNL A   1      39.073  30.110  33.645  1.00  0.00     0.020 A 
ATOM     72  C   UNL A   1      40.017  32.312  33.291  1.00  0.00     0.020 A 
ATOM     73  C   UNL A   1      39.034  31.488  33.848  1.00  0.00     0.054 A 
BRANCH  73  74
ATOM     74  S   UNL A   1      37.766  32.144  34.978  1.00  0.00     0.124 S 
ATOM     75  O   UNL A   1      38.304  33.459  35.315  1.00  0.00    -0.237 OA
ATOM     76  O   UNL A   1      36.576  32.152  34.130  1.00  0.00    -0.237 OA
ATOM     77  O   UNL A   1      37.745  31.176  36.071  1.00  0.00    -0.744 OA
ENDBRANCH  73  74
ENDBRANCH  45  68
BRANCH  57  78
ATOM     78  C   UNL A   1      44.915  24.160  33.525  1.00  0.00    -0.014 A 
ATOM     79  C   UNL A   1      44.182  23.015  33.866  1.00  0.00     0.010 A 
ATOM     80  C   UNL A   1      46.261  24.223  33.959  1.00  0.00     0.010 A 
ATOM     81  C   UNL A   1      44.739  22.014  34.670  1.00  0.00     0.020 A 
ATOM     82  C   UNL A   1      46.841  23.207  34.719  1.00  0.00     0.020 A 
ATOM     83  C   UNL A   1      46.064  22.117  35.093  1.00  0.00     0.054 A 
BRANCH  83  84
ATOM     84  S   UNL A   1      46.797  20.785  36.071  1.00  0.00     0.124 S 
ATOM     85  O   UNL A   1      48.192  21.208  36.154  1.00  0.00    -0.237 OA
ATOM     86  O   UNL A   1      46.048  20.849  37.325  1.00  0.00    -0.237 OA
ATOM     87  O   UNL A   1      46.546  19.593  35.266  1.00  0.00    -0.744 OA
ENDBRANCH  83  84
ENDBRANCH  57  78
ENDBRANCH  31  32
ENDBRANCH  24  26
ENDBRANCH  23  24
ENDBRANCH  22  23
ENDBRANCH   1  22
TORSDOF 18
ENDMDL
MODEL 3
REMARK VINA RESULT:     -11.9      1.225      1.780
REMARK SMILES COc1cc(CC(=O)N2CCC[C@H]2C(=O)OCCOC(=O)c2ccc(-c3c4nc(c(-c5ccc(S(=O)(=O)[O-])cc5)c5ccc([nH]5)c(-c5ccc(S(=O)(=O)[O-])cc5)c5nc(c(-c6ccc(S(=O)(=O)[O-])cc6)c6ccc3[nH]6)C=C5)C=C4)cc2)ccc1C
REMARK SMILES IDX 17 1 16 2 14 3 15 4 13 5 9 6 10 7 11 8 12 9 7 10 8 11 6 12
REMARK SMILES IDX 5 13 3 14 4 15 84 16 83 17 85 18 82 19 2 20 1 21 18 22 19 23
REMARK SMILES IDX 20 24 21 25 22 26 23 27 81 28 24 29 80 30 25 31 26 32 27 33
REMARK SMILES IDX 74 34 28 35 79 36 73 37 75 38 29 39 78 40 72 41 71 42 30 44
REMARK SMILES IDX 60 45 41 46 59 47 42 48 45 49 58 50 76 51 43 52 44 53 57 55
REMARK SMILES IDX 77 56 46 57 31 58 32 59 40 60 33 61 39 62 34 63 35 64 36 65
REMARK SMILES IDX 37 66 38 67 61 68 62 69 70 70 63 71 69 72 64 73 65 74 66 75
REMARK SMILES IDX 67 76 68 77 47 78 48 79 56 80 49 81 55 82 50 83 51 84 52 85
REMARK SMILES IDX 53 86 54 87
REMARK H PARENT 75 43 45 54
REMARK Flexibility Score: inf
ROOT
ATOM      1  C   UNL A   1      32.752  30.285  27.299  1.00  0.00     0.274 C 
ENDROOT
BRANCH   1   2
ATOM      2  O   UNL A   1      33.046  28.899  27.550  1.00  0.00    -0.461 OA
BRANCH   2   3
ATOM      3  C   UNL A   1      32.051  28.032  27.208  1.00  0.00     0.328 C 
ATOM      4  O   UNL A   1      31.006  27.930  27.844  1.00  0.00    -0.250 OA
BRANCH   3   5
ATOM      5  C   UNL A   1      32.338  27.233  25.916  1.00  0.00     0.195 C 
ATOM      6  N   UNL A   1      31.551  27.643  24.747  1.00  0.00    -0.329 N 
ATOM      7  C   UNL A   1      32.256  28.755  24.151  1.00  0.00     0.120 C 
ATOM      8  C   UNL A   1      33.697  28.273  24.188  1.00  0.00     0.024 C 
ATOM      9  C   UNL A   1      33.792  27.448  25.469  1.00  0.00     0.039 C 
BRANCH   6  10
ATOM     10  C   UNL A   1      30.738  26.728  24.103  1.00  0.00     0.227 C 
ATOM     11  O   UNL A   1      29.915  27.138  23.272  1.00  0.00    -0.275 OA
BRANCH  10  12
ATOM     12  C   UNL A   1      30.787  25.215  24.343  1.00  0.00     0.135 C 
BRANCH  12  13
ATOM     13  C   UNL A   1      32.028  24.437  23.988  1.00  0.00    -0.035 A 
ATOM     14  C   UNL A   1      33.685  22.755  24.603  1.00  0.00     0.122 A 
ATOM     15  C   UNL A   1      32.411  23.318  24.752  1.00  0.00     0.051 A 
ATOM     16  C   UNL A   1      34.557  23.278  23.631  1.00  0.00    -0.009 A 
ATOM     17  C   UNL A   1      34.112  24.305  22.781  1.00  0.00     0.007 A 
ATOM     18  C   UNL A   1      35.976  22.805  23.482  1.00  0.00     0.048 C 
ATOM     19  C   UNL A   1      32.862  24.889  22.963  1.00  0.00     0.005 A 
BRANCH  14  20
ATOM     20  O   UNL A   1      34.191  21.761  25.400  1.00  0.00    -0.496 OA
ATOM     21  C   UNL A   1      34.594  22.116  26.717  1.00  0.00     0.278 C 
ENDBRANCH  14  20
ENDBRANCH  12  13
ENDBRANCH  10  12
ENDBRANCH   6  10
ENDBRANCH   3   5
ENDBRANCH   2   3
ENDBRANCH   1   2
BRANCH   1  22
ATOM     22  C   UNL A   1      33.983  31.172  27.569  1.00  0.00     0.275 C 
BRANCH  22  23
ATOM     23  O   UNL A   1      35.273  30.531  27.454  1.00  0.00    -0.458 OA
BRANCH  23  24
ATOM     24  C   UNL A   1      36.126  30.682  28.500  1.00  0.00     0.338 C 
ATOM     25  O   UNL A   1      35.837  31.301  29.533  1.00  0.00    -0.246 OA
BRANCH  24  26
ATOM     26  C   UNL A   1      37.222  29.686  28.347  1.00  0.00     0.060 A 
ATOM     27  C   UNL A   1      38.145  29.791  27.298  1.00  0.00     0.016 A 
ATOM     28  C   UNL A   1      37.514  28.867  29.440  1.00  0.00     0.016 A 
ATOM     29  C   UNL A   1      39.411  29.198  27.412  1.00  0.00     0.010 A 
ATOM     30  C   UNL A   1      38.795  28.401  29.613  1.00  0.00     0.010 A 
ATOM     31  C   UNL A   1      39.755  28.556  28.603  1.00  0.00    -0.014 A 
BRANCH  31  32
ATOM     32  C   UNL A   1      40.957  27.751  28.814  1.00  0.00     0.031 A 
ATOM     33  C   UNL A   1      41.122  26.329  28.437  1.00  0.00     0.074 A 
ATOM     34  C   UNL A   1      41.992  28.477  29.294  1.00  0.00     0.049 A 
ATOM     35  N   UNL A   1      42.047  25.570  28.924  1.00  0.00    -0.248 NA
ATOM     36  C   UNL A   1      40.273  25.622  27.484  1.00  0.00     0.031 C 
ATOM     37  C   UNL A   1      43.400  28.142  29.408  1.00  0.00     0.029 A 
ATOM     38  N   UNL A   1      41.878  29.690  29.988  1.00  0.00    -0.354 N 
ATOM     39  C   UNL A   1      42.110  24.427  28.153  1.00  0.00     0.074 A 
ATOM     40  C   UNL A   1      40.934  24.468  27.321  1.00  0.00     0.031 C 
ATOM     41  C   UNL A   1      43.930  28.906  30.381  1.00  0.00     0.029 A 
ATOM     42  C   UNL A   1      42.829  29.641  30.999  1.00  0.00     0.049 A 
ATOM     43  H   UNL A   1      41.254  30.427  29.796  1.00  0.00     0.167 HD
ATOM     44  C   UNL A   1      43.230  23.650  28.195  1.00  0.00     0.031 A 
ATOM     45  C   UNL A   1      42.452  29.585  32.310  1.00  0.00     0.031 A 
ATOM     46  C   UNL A   1      44.170  24.141  29.197  1.00  0.00     0.049 A 
ATOM     47  C   UNL A   1      42.974  28.323  32.947  1.00  0.00     0.074 A 
ATOM     48  C   UNL A   1      45.289  24.951  29.108  1.00  0.00     0.029 A 
ATOM     49  N   UNL A   1      43.810  24.101  30.539  1.00  0.00    -0.354 N 
ATOM     50  N   UNL A   1      43.196  27.212  32.297  1.00  0.00    -0.248 NA
ATOM     51  C   UNL A   1      43.346  28.242  34.354  1.00  0.00     0.031 C 
ATOM     52  C   UNL A   1      45.522  25.504  30.394  1.00  0.00     0.029 A 
ATOM     53  C   UNL A   1      44.569  24.998  31.263  1.00  0.00     0.049 A 
ATOM     54  H   UNL A   1      43.114  23.517  30.918  1.00  0.00     0.167 HD
ATOM     55  C   UNL A   1      43.843  26.335  33.124  1.00  0.00     0.074 A 
ATOM     56  C   UNL A   1      43.871  27.006  34.414  1.00  0.00     0.031 C 
ATOM     57  C   UNL A   1      44.373  25.152  32.695  1.00  0.00     0.031 A 
BRANCH  44  58
ATOM     58  C   UNL A   1      43.594  22.642  27.129  1.00  0.00    -0.014 A 
ATOM     59  C   UNL A   1      42.743  21.534  26.912  1.00  0.00     0.010 A 
ATOM     60  C   UNL A   1      44.756  22.701  26.337  1.00  0.00     0.010 A 
ATOM     61  C   UNL A   1      43.061  20.507  26.014  1.00  0.00     0.020 A 
ATOM     62  C   UNL A   1      45.095  21.667  25.441  1.00  0.00     0.020 A 
ATOM     63  C   UNL A   1      44.248  20.569  25.293  1.00  0.00     0.054 A 
BRANCH  63  64
ATOM     64  S   UNL A   1      44.658  19.195  24.179  1.00  0.00     0.124 S 
ATOM     65  O   UNL A   1      43.699  18.168  24.578  1.00  0.00    -0.237 OA
ATOM     66  O   UNL A   1      44.437  19.780  22.860  1.00  0.00    -0.237 OA
ATOM     67  O   UNL A   1      46.052  18.892  24.499  1.00  0.00    -0.744 OA
ENDBRANCH  63  64
ENDBRANCH  44  58
BRANCH  45  68
ATOM     68  C   UNL A   1      41.148  30.258  32.630  1.00  0.00    -0.014 A 
ATOM     69  C   UNL A   1      40.187  29.510  33.351  1.00  0.00     0.010 A 
ATOM     70  C   UNL A   1      40.981  31.653  32.559  1.00  0.00     0.010 A 
ATOM     71  C   UNL A   1      39.162  30.138  34.070  1.00  0.00     0.020 A 
ATOM     72  C   UNL A   1      39.938  32.287  33.265  1.00  0.00     0.020 A 
ATOM     73  C   UNL A   1      39.061  31.527  34.046  1.00  0.00     0.054 A 
BRANCH  73  74
ATOM     74  S   UNL A   1      37.864  32.311  35.173  1.00  0.00     0.124 S 
ATOM     75  O   UNL A   1      36.689  32.458  34.320  1.00  0.00    -0.237 OA
ATOM     76  O   UNL A   1      37.748  31.314  36.236  1.00  0.00    -0.237 OA
ATOM     77  O   UNL A   1      38.519  33.558  35.558  1.00  0.00    -0.744 OA
ENDBRANCH  73  74
ENDBRANCH  45  68
BRANCH  57  78
ATOM     78  C   UNL A   1      44.894  24.065  33.595  1.00  0.00    -0.014 A 
ATOM     79  C   UNL A   1      44.136  22.950  33.974  1.00  0.00     0.010 A 
ATOM     80  C   UNL A   1      46.261  24.078  33.965  1.00  0.00     0.010 A 
ATOM     81  C   UNL A   1      44.691  21.929  34.753  1.00  0.00     0.020 A 
ATOM     82  C   UNL A   1      46.837  23.041  34.699  1.00  0.00     0.020 A 
ATOM     83  C   UNL A   1      46.038  21.982  35.113  1.00  0.00     0.054 A 
BRANCH  83  84
ATOM     84  S   UNL A   1      46.765  20.624  36.060  1.00  0.00     0.124 S 
ATOM     85  O   UNL A   1      48.086  20.509  35.450  1.00  0.00    -0.237 OA
ATOM     86  O   UNL A   1      46.750  21.134  37.430  1.00  0.00    -0.237 OA
ATOM     87  O   UNL A   1      45.856  19.509  35.810  1.00  0.00    -0.744 OA
ENDBRANCH  83  84
ENDBRANCH  57  78
ENDBRANCH  31  32
ENDBRANCH  24  26
ENDBRANCH  23  24
ENDBRANCH  22  23
ENDBRANCH   1  22
TORSDOF 18
ENDMDL
