MODEL 1
REMARK VINA RESULT:     -12.2      0.000      0.000
REMARK SMILES O=C(OCCOC(=O)[C@@H]1CCCN1S(=O)(=O)c1ccc2c3c(cccc13)C(=O)N2)c1ccc(-c2c3nc(c(-c4ccc(S(=O)(=O)[O-])cc4)c4ccc([nH]4)c(-c4ccc(S(=O)(=O)[O-])cc4)c4nc(c(-c5ccc(S(=O)(=O)[O-])cc5)c5ccc2[nH]5)C=C4)C=C3)cc1
REMARK SMILES IDX 4 1 3 2 2 3 1 4 30 5 31 6 89 7 32 8 88 9 33 10 34 11 35 12
REMARK SMILES IDX 82 13 36 14 87 15 81 16 83 17 37 18 86 19 80 20 79 21 38 23
REMARK SMILES IDX 68 24 49 25 67 26 50 27 53 28 66 29 84 30 51 31 52 32 65 34
REMARK SMILES IDX 85 35 54 36 39 37 40 38 48 39 41 40 47 41 42 42 43 43 44 44
REMARK SMILES IDX 45 45 46 46 69 47 70 48 78 49 71 50 77 51 72 52 73 53 74 54
REMARK SMILES IDX 75 55 76 56 55 57 56 58 64 59 57 60 63 61 58 62 59 63 60 64
REMARK SMILES IDX 61 65 62 66 5 67 6 68 7 69 8 70 9 71 10 72 13 73 11 74 12 75
REMARK SMILES IDX 14 76 15 77 16 78 17 79 18 80 26 81 19 82 21 83 25 84 20 85
REMARK SMILES IDX 22 86 24 87 29 88 23 89 27 90 28 92
REMARK H PARENT 83 22 53 33 29 91
REMARK Flexibility Score: inf
ROOT
ATOM      1  C   UNL A   1      36.194  22.913  25.370  1.00  0.00     0.275 C 
ENDROOT
BRANCH   1   2
ATOM      2  O   UNL A   1      37.349  23.754  25.261  1.00  0.00    -0.458 OA
BRANCH   2   3
ATOM      3  C   UNL A   1      38.420  23.355  25.998  1.00  0.00     0.338 C 
ATOM      4  O   UNL A   1      38.753  22.204  26.182  1.00  0.00    -0.246 OA
BRANCH   3   5
ATOM      5  C   UNL A   1      38.952  24.560  26.685  1.00  0.00     0.060 A 
ATOM      6  C   UNL A   1      38.602  24.766  28.032  1.00  0.00     0.016 A 
ATOM      7  C   UNL A   1      39.933  25.353  26.083  1.00  0.00     0.016 A 
ATOM      8  C   UNL A   1      39.307  25.646  28.818  1.00  0.00     0.010 A 
ATOM      9  C   UNL A   1      40.600  26.310  26.857  1.00  0.00     0.010 A 
ATOM     10  C   UNL A   1      40.286  26.439  28.225  1.00  0.00    -0.014 A 
BRANCH  10  11
ATOM     11  C   UNL A   1      40.590  27.674  28.956  1.00  0.00     0.031 A 
ATOM     12  C   UNL A   1      42.004  27.742  29.448  1.00  0.00     0.074 A 
ATOM     13  C   UNL A   1      39.734  28.710  28.992  1.00  0.00     0.049 A 
ATOM     14  N   UNL A   1      42.625  28.717  30.041  1.00  0.00    -0.248 NA
ATOM     15  C   UNL A   1      42.851  26.550  29.207  1.00  0.00     0.031 C 
ATOM     16  C   UNL A   1      38.397  28.742  28.397  1.00  0.00     0.029 A 
ATOM     17  N   UNL A   1      39.871  29.958  29.533  1.00  0.00    -0.354 N 
ATOM     18  C   UNL A   1      43.922  28.257  30.221  1.00  0.00     0.074 A 
ATOM     19  C   UNL A   1      43.997  26.901  29.752  1.00  0.00     0.031 C 
ATOM     20  C   UNL A   1      37.818  29.929  28.644  1.00  0.00     0.029 A 
ATOM     21  C   UNL A   1      38.756  30.751  29.391  1.00  0.00     0.049 A 
ATOM     22  H   UNL A   1      40.693  30.261  29.982  1.00  0.00     0.167 HD
ATOM     23  C   UNL A   1      44.984  28.939  30.689  1.00  0.00     0.031 A 
ATOM     24  C   UNL A   1      38.541  32.013  29.808  1.00  0.00     0.031 A 
ATOM     25  C   UNL A   1      44.875  30.293  31.124  1.00  0.00     0.049 A 
ATOM     26  C   UNL A   1      39.704  32.712  30.453  1.00  0.00     0.074 A 
ATOM     27  C   UNL A   1      45.843  31.105  31.669  1.00  0.00     0.029 A 
ATOM     28  N   UNL A   1      43.700  31.031  31.046  1.00  0.00    -0.354 N 
ATOM     29  N   UNL A   1      40.923  32.257  30.646  1.00  0.00    -0.248 NA
ATOM     30  C   UNL A   1      39.487  34.087  30.914  1.00  0.00     0.031 C 
ATOM     31  C   UNL A   1      45.240  32.334  31.954  1.00  0.00     0.029 A 
ATOM     32  C   UNL A   1      43.910  32.295  31.547  1.00  0.00     0.049 A 
ATOM     33  H   UNL A   1      42.846  30.700  30.687  1.00  0.00     0.167 HD
ATOM     34  C   UNL A   1      41.629  33.295  31.230  1.00  0.00     0.074 A 
ATOM     35  C   UNL A   1      40.698  34.405  31.355  1.00  0.00     0.031 C 
ATOM     36  C   UNL A   1      42.923  33.342  31.629  1.00  0.00     0.031 A 
BRANCH  23  37
ATOM     37  C   UNL A   1      46.285  28.201  30.739  1.00  0.00    -0.014 A 
ATOM     38  C   UNL A   1      47.166  28.229  29.640  1.00  0.00     0.010 A 
ATOM     39  C   UNL A   1      46.586  27.390  31.844  1.00  0.00     0.010 A 
ATOM     40  C   UNL A   1      48.314  27.436  29.637  1.00  0.00     0.020 A 
ATOM     41  C   UNL A   1      47.747  26.613  31.854  1.00  0.00     0.020 A 
ATOM     42  C   UNL A   1      48.600  26.637  30.748  1.00  0.00     0.054 A 
BRANCH  42  43
ATOM     43  S   UNL A   1      50.107  25.629  30.717  1.00  0.00     0.124 S 
ATOM     44  O   UNL A   1      51.152  26.636  30.888  1.00  0.00    -0.237 OA
ATOM     45  O   UNL A   1      49.905  24.734  31.852  1.00  0.00    -0.237 OA
ATOM     46  O   UNL A   1      50.071  24.989  29.404  1.00  0.00    -0.744 OA
ENDBRANCH  42  43
ENDBRANCH  23  37
BRANCH  24  47
ATOM     47  C   UNL A   1      37.218  32.667  29.607  1.00  0.00    -0.014 A 
ATOM     48  C   UNL A   1      36.260  32.701  30.634  1.00  0.00     0.010 A 
ATOM     49  C   UNL A   1      36.922  33.303  28.385  1.00  0.00     0.010 A 
ATOM     50  C   UNL A   1      35.034  33.353  30.446  1.00  0.00     0.020 A 
ATOM     51  C   UNL A   1      35.702  33.968  28.196  1.00  0.00     0.020 A 
ATOM     52  C   UNL A   1      34.766  33.989  29.230  1.00  0.00     0.054 A 
BRANCH  52  53
ATOM     53  S   UNL A   1      33.181  34.854  29.028  1.00  0.00     0.124 S 
ATOM     54  O   UNL A   1      32.617  34.786  30.372  1.00  0.00    -0.237 OA
ATOM     55  O   UNL A   1      33.612  36.179  28.588  1.00  0.00    -0.237 OA
ATOM     56  O   UNL A   1      32.482  34.063  28.018  1.00  0.00    -0.744 OA
ENDBRANCH  52  53
ENDBRANCH  24  47
BRANCH  36  57
ATOM     57  C   UNL A   1      43.401  34.624  32.230  1.00  0.00    -0.014 A 
ATOM     58  C   UNL A   1      43.950  35.620  31.409  1.00  0.00     0.010 A 
ATOM     59  C   UNL A   1      43.135  34.888  33.585  1.00  0.00     0.010 A 
ATOM     60  C   UNL A   1      44.218  36.878  31.937  1.00  0.00     0.020 A 
ATOM     61  C   UNL A   1      43.380  36.154  34.109  1.00  0.00     0.020 A 
ATOM     62  C   UNL A   1      43.916  37.141  33.278  1.00  0.00     0.054 A 
BRANCH  62  63
ATOM     63  S   UNL A   1      44.186  38.817  33.903  1.00  0.00     0.124 S 
ATOM     64  O   UNL A   1      42.861  39.413  33.758  1.00  0.00    -0.237 OA
ATOM     65  O   UNL A   1      44.621  38.573  35.275  1.00  0.00    -0.237 OA
ATOM     66  O   UNL A   1      45.212  39.358  33.014  1.00  0.00    -0.744 OA
ENDBRANCH  62  63
ENDBRANCH  36  57
ENDBRANCH  10  11
ENDBRANCH   3   5
ENDBRANCH   2   3
ENDBRANCH   1   2
BRANCH   1  67
ATOM     67  C   UNL A   1      35.442  22.656  24.031  1.00  0.00     0.274 C 
BRANCH  67  68
ATOM     68  O   UNL A   1      35.408  23.797  23.128  1.00  0.00    -0.461 OA
BRANCH  68  69
ATOM     69  C   UNL A   1      34.206  24.394  22.847  1.00  0.00     0.324 C 
ATOM     70  O   UNL A   1      34.082  25.278  22.004  1.00  0.00    -0.250 OA
BRANCH  69  71
ATOM     71  C   UNL A   1      33.039  23.848  23.653  1.00  0.00     0.183 C 
ATOM     72  C   UNL A   1      31.746  23.947  22.877  1.00  0.00     0.034 C 
ATOM     73  N   UNL A   1      32.610  24.132  25.071  1.00  0.00    -0.184 NA
ATOM     74  C   UNL A   1      30.745  23.218  23.732  1.00  0.00     0.019 C 
ATOM     75  C   UNL A   1      31.167  23.595  25.147  1.00  0.00     0.103 C 
BRANCH  73  76
ATOM     76  S   UNL A   1      32.648  25.686  25.821  1.00  0.00     0.244 S 
ATOM     77  O   UNL A   1      31.680  25.655  26.893  1.00  0.00    -0.207 OA
ATOM     78  O   UNL A   1      34.050  25.902  26.126  1.00  0.00    -0.207 OA
BRANCH  76  79
ATOM     79  C   UNL A   1      32.148  26.945  24.672  1.00  0.00     0.090 A 
ATOM     80  C   UNL A   1      33.179  27.609  23.996  1.00  0.00     0.024 A 
ATOM     81  C   UNL A   1      30.809  27.191  24.262  1.00  0.00     0.005 A 
ATOM     82  C   UNL A   1      32.994  28.720  23.162  1.00  0.00     0.028 A 
ATOM     83  C   UNL A   1      30.664  28.224  23.371  1.00  0.00     0.019 A 
ATOM     84  C   UNL A   1      29.599  26.504  24.534  1.00  0.00     0.010 A 
ATOM     85  C   UNL A   1      31.687  28.990  22.866  1.00  0.00     0.050 A 
ATOM     86  C   UNL A   1      29.498  28.625  22.739  1.00  0.00     0.050 A 
ATOM     87  C   UNL A   1      28.392  26.869  23.896  1.00  0.00     0.002 A 
ATOM     88  N   UNL A   1      31.155  29.897  21.977  1.00  0.00    -0.321 N 
ATOM     89  C   UNL A   1      28.317  27.939  22.988  1.00  0.00     0.014 A 
ATOM     90  C   UNL A   1      29.776  29.725  21.833  1.00  0.00     0.256 C 
ATOM     91  H   UNL A   1      31.680  30.580  21.502  1.00  0.00     0.170 HD
ATOM     92  O   UNL A   1      29.072  30.383  21.078  1.00  0.00    -0.269 OA
ENDBRANCH  76  79
ENDBRANCH  73  76
ENDBRANCH  69  71
ENDBRANCH  68  69
ENDBRANCH  67  68
ENDBRANCH   1  67
TORSDOF 16
ENDMDL
MODEL 2
REMARK VINA RESULT:     -12.2      2.753      9.363
REMARK SMILES O=C(OCCOC(=O)[C@@H]1CCCN1S(=O)(=O)c1ccc2c3c(cccc13)C(=O)N2)c1ccc(-c2c3nc(c(-c4ccc(S(=O)(=O)[O-])cc4)c4ccc([nH]4)c(-c4ccc(S(=O)(=O)[O-])cc4)c4nc(c(-c5ccc(S(=O)(=O)[O-])cc5)c5ccc2[nH]5)C=C4)C=C3)cc1
REMARK SMILES IDX 4 1 3 2 2 3 1 4 30 5 31 6 89 7 32 8 88 9 33 10 34 11 35 12
REMARK SMILES IDX 82 13 36 14 87 15 81 16 83 17 37 18 86 19 80 20 79 21 38 23
REMARK SMILES IDX 68 24 49 25 67 26 50 27 53 28 66 29 84 30 51 31 52 32 65 34
REMARK SMILES IDX 85 35 54 36 39 37 40 38 48 39 41 40 47 41 42 42 43 43 44 44
REMARK SMILES IDX 45 45 46 46 69 47 70 48 78 49 71 50 77 51 72 52 73 53 74 54
REMARK SMILES IDX 75 55 76 56 55 57 56 58 64 59 57 60 63 61 58 62 59 63 60 64
REMARK SMILES IDX 61 65 62 66 5 67 6 68 7 69 8 70 9 71 10 72 13 73 11 74 12 75
REMARK SMILES IDX 14 76 15 77 16 78 17 79 18 80 26 81 19 82 21 83 25 84 20 85
REMARK SMILES IDX 22 86 24 87 29 88 23 89 27 90 28 92
REMARK H PARENT 83 22 53 33 29 91
REMARK Flexibility Score: inf
ROOT
ATOM      1  C   UNL A   1      33.064  29.145  26.222  1.00  0.00     0.275 C 
ENDROOT
BRANCH   1   2
ATOM      2  O   UNL A   1      33.954  28.911  27.320  1.00  0.00    -0.458 OA
BRANCH   2   3
ATOM      3  C   UNL A   1      34.511  30.030  27.854  1.00  0.00     0.338 C 
ATOM      4  O   UNL A   1      34.005  31.132  27.854  1.00  0.00    -0.246 OA
BRANCH   3   5
ATOM      5  C   UNL A   1      35.907  29.688  28.232  1.00  0.00     0.060 A 
ATOM      6  C   UNL A   1      36.916  29.856  27.266  1.00  0.00     0.016 A 
ATOM      7  C   UNL A   1      36.242  29.407  29.559  1.00  0.00     0.016 A 
ATOM      8  C   UNL A   1      38.242  29.888  27.628  1.00  0.00     0.010 A 
ATOM      9  C   UNL A   1      37.593  29.356  29.921  1.00  0.00     0.010 A 
ATOM     10  C   UNL A   1      38.583  29.609  28.949  1.00  0.00    -0.014 A 
BRANCH  10  11
ATOM     11  C   UNL A   1      39.959  29.136  29.133  1.00  0.00     0.031 A 
ATOM     12  C   UNL A   1      40.824  30.100  29.887  1.00  0.00     0.074 A 
ATOM     13  C   UNL A   1      40.328  27.880  28.827  1.00  0.00     0.049 A 
ATOM     14  N   UNL A   1      42.048  29.960  30.300  1.00  0.00    -0.248 NA
ATOM     15  C   UNL A   1      40.210  31.395  30.261  1.00  0.00     0.031 C 
ATOM     16  C   UNL A   1      39.474  26.856  28.223  1.00  0.00     0.029 A 
ATOM     17  N   UNL A   1      41.518  27.234  29.008  1.00  0.00    -0.354 N 
ATOM     18  C   UNL A   1      42.330  31.134  30.985  1.00  0.00     0.074 A 
ATOM     19  C   UNL A   1      41.196  32.009  30.880  1.00  0.00     0.031 C 
ATOM     20  C   UNL A   1      40.178  25.727  28.040  1.00  0.00     0.029 A 
ATOM     21  C   UNL A   1      41.526  25.940  28.541  1.00  0.00     0.049 A 
ATOM     22  H   UNL A   1      42.300  27.656  29.434  1.00  0.00     0.167 HD
ATOM     23  C   UNL A   1      43.432  31.431  31.698  1.00  0.00     0.031 A 
ATOM     24  C   UNL A   1      42.519  25.032  28.544  1.00  0.00     0.031 A 
ATOM     25  C   UNL A   1      44.529  30.525  31.799  1.00  0.00     0.049 A 
ATOM     26  C   UNL A   1      43.794  25.436  29.230  1.00  0.00     0.074 A 
ATOM     27  C   UNL A   1      45.735  30.697  32.440  1.00  0.00     0.029 A 
ATOM     28  N   UNL A   1      44.530  29.257  31.231  1.00  0.00    -0.354 N 
ATOM     29  N   UNL A   1      44.062  26.563  29.852  1.00  0.00    -0.248 NA
ATOM     30  C   UNL A   1      44.886  24.458  29.244  1.00  0.00     0.031 C 
ATOM     31  C   UNL A   1      46.484  29.535  32.230  1.00  0.00     0.029 A 
ATOM     32  C   UNL A   1      45.726  28.629  31.495  1.00  0.00     0.049 A 
ATOM     33  H   UNL A   1      43.787  28.865  30.719  1.00  0.00     0.167 HD
ATOM     34  C   UNL A   1      45.346  26.426  30.353  1.00  0.00     0.074 A 
ATOM     35  C   UNL A   1      45.798  25.100  29.963  1.00  0.00     0.031 C 
ATOM     36  C   UNL A   1      46.091  27.302  31.069  1.00  0.00     0.031 A 
BRANCH  23  37
ATOM     37  C   UNL A   1      43.452  32.766  32.374  1.00  0.00    -0.014 A 
ATOM     38  C   UNL A   1      43.059  32.893  33.721  1.00  0.00     0.010 A 
ATOM     39  C   UNL A   1      43.765  33.918  31.635  1.00  0.00     0.010 A 
ATOM     40  C   UNL A   1      42.954  34.154  34.309  1.00  0.00     0.020 A 
ATOM     41  C   UNL A   1      43.683  35.181  32.228  1.00  0.00     0.020 A 
ATOM     42  C   UNL A   1      43.272  35.290  33.559  1.00  0.00     0.054 A 
BRANCH  42  43
ATOM     43  S   UNL A   1      43.137  36.913  34.357  1.00  0.00     0.124 S 
ATOM     44  O   UNL A   1      43.370  37.824  33.239  1.00  0.00    -0.237 OA
ATOM     45  O   UNL A   1      41.773  36.891  34.876  1.00  0.00    -0.237 OA
ATOM     46  O   UNL A   1      44.190  36.892  35.369  1.00  0.00    -0.744 OA
ENDBRANCH  42  43
ENDBRANCH  23  37
BRANCH  24  47
ATOM     47  C   UNL A   1      42.331  23.694  27.917  1.00  0.00    -0.014 A 
ATOM     48  C   UNL A   1      42.747  23.445  26.599  1.00  0.00     0.010 A 
ATOM     49  C   UNL A   1      41.765  22.637  28.659  1.00  0.00     0.010 A 
ATOM     50  C   UNL A   1      42.599  22.171  26.032  1.00  0.00     0.020 A 
ATOM     51  C   UNL A   1      41.628  21.359  28.101  1.00  0.00     0.020 A 
ATOM     52  C   UNL A   1      42.047  21.135  26.789  1.00  0.00     0.054 A 
BRANCH  52  53
ATOM     53  S   UNL A   1      41.900  19.487  26.038  1.00  0.00     0.124 S 
ATOM     54  O   UNL A   1      40.468  19.392  25.775  1.00  0.00    -0.237 OA
ATOM     55  O   UNL A   1      42.753  19.613  24.858  1.00  0.00    -0.237 OA
ATOM     56  O   UNL A   1      42.405  18.589  27.074  1.00  0.00    -0.744 OA
ENDBRANCH  52  53
ENDBRANCH  24  47
BRANCH  36  57
ATOM     57  C   UNL A   1      47.458  26.856  31.473  1.00  0.00    -0.014 A 
ATOM     58  C   UNL A   1      47.624  26.043  32.604  1.00  0.00     0.010 A 
ATOM     59  C   UNL A   1      48.544  27.111  30.617  1.00  0.00     0.010 A 
ATOM     60  C   UNL A   1      48.866  25.475  32.870  1.00  0.00     0.020 A 
ATOM     61  C   UNL A   1      49.781  26.524  30.868  1.00  0.00     0.020 A 
ATOM     62  C   UNL A   1      49.931  25.707  31.991  1.00  0.00     0.054 A 
BRANCH  62  63
ATOM     63  S   UNL A   1      51.503  24.872  32.315  1.00  0.00     0.124 S 
ATOM     64  O   UNL A   1      52.374  25.460  31.301  1.00  0.00    -0.237 OA
ATOM     65  O   UNL A   1      51.786  25.264  33.693  1.00  0.00    -0.237 OA
ATOM     66  O   UNL A   1      51.192  23.458  32.123  1.00  0.00    -0.744 OA
ENDBRANCH  62  63
ENDBRANCH  36  57
ENDBRANCH  10  11
ENDBRANCH   3   5
ENDBRANCH   2   3
ENDBRANCH   1   2
BRANCH   1  67
ATOM     67  C   UNL A   1      31.921  28.099  26.071  1.00  0.00     0.274 C 
BRANCH  67  68
ATOM     68  O   UNL A   1      32.057  26.926  26.922  1.00  0.00    -0.461 OA
BRANCH  68  69
ATOM     69  C   UNL A   1      31.607  25.712  26.469  1.00  0.00     0.324 C 
ATOM     70  O   UNL A   1      31.322  24.784  27.220  1.00  0.00    -0.250 OA
BRANCH  69  71
ATOM     71  C   UNL A   1      31.467  25.628  24.958  1.00  0.00     0.183 C 
ATOM     72  C   UNL A   1      30.534  24.509  24.557  1.00  0.00     0.034 C 
ATOM     73  N   UNL A   1      32.519  25.600  23.877  1.00  0.00    -0.184 NA
ATOM     74  C   UNL A   1      30.374  24.674  23.070  1.00  0.00     0.019 C 
ATOM     75  C   UNL A   1      31.766  25.109  22.625  1.00  0.00     0.103 C 
BRANCH  73  76
ATOM     76  S   UNL A   1      34.015  24.745  23.978  1.00  0.00     0.244 S 
ATOM     77  O   UNL A   1      34.488  24.573  22.623  1.00  0.00    -0.207 OA
ATOM     78  O   UNL A   1      34.804  25.513  24.922  1.00  0.00    -0.207 OA
BRANCH  76  79
ATOM     79  C   UNL A   1      33.764  23.131  24.676  1.00  0.00     0.090 A 
ATOM     80  C   UNL A   1      33.941  23.023  26.061  1.00  0.00     0.024 A 
ATOM     81  C   UNL A   1      33.229  22.014  23.977  1.00  0.00     0.005 A 
ATOM     82  C   UNL A   1      33.926  21.815  26.770  1.00  0.00     0.028 A 
ATOM     83  C   UNL A   1      33.136  20.866  24.722  1.00  0.00     0.019 A 
ATOM     84  C   UNL A   1      32.684  21.889  22.675  1.00  0.00     0.010 A 
ATOM     85  C   UNL A   1      33.500  20.739  26.041  1.00  0.00     0.050 A 
ATOM     86  C   UNL A   1      32.575  19.659  24.332  1.00  0.00     0.050 A 
ATOM     87  C   UNL A   1      32.087  20.683  22.245  1.00  0.00     0.002 A 
ATOM     88  N   UNL A   1      33.225  19.453  26.448  1.00  0.00    -0.321 N 
ATOM     89  C   UNL A   1      32.023  19.543  23.064  1.00  0.00     0.014 A 
ATOM     90  C   UNL A   1      32.630  18.708  25.428  1.00  0.00     0.256 C 
ATOM     91  H   UNL A   1      33.423  19.102  27.347  1.00  0.00     0.170 HD
ATOM     92  O   UNL A   1      32.259  17.547  25.544  1.00  0.00    -0.269 OA
ENDBRANCH  76  79
ENDBRANCH  73  76
ENDBRANCH  69  71
ENDBRANCH  68  69
ENDBRANCH  67  68
ENDBRANCH   1  67
TORSDOF 16
ENDMDL
MODEL 3
REMARK VINA RESULT:     -12.0      2.829      9.567
REMARK SMILES O=C(OCCOC(=O)[C@@H]1CCCN1S(=O)(=O)c1ccc2c3c(cccc13)C(=O)N2)c1ccc(-c2c3nc(c(-c4ccc(S(=O)(=O)[O-])cc4)c4ccc([nH]4)c(-c4ccc(S(=O)(=O)[O-])cc4)c4nc(c(-c5ccc(S(=O)(=O)[O-])cc5)c5ccc2[nH]5)C=C4)C=C3)cc1
REMARK SMILES IDX 4 1 3 2 2 3 1 4 30 5 31 6 89 7 32 8 88 9 33 10 34 11 35 12
REMARK SMILES IDX 82 13 36 14 87 15 81 16 83 17 37 18 86 19 80 20 79 21 38 23
REMARK SMILES IDX 68 24 49 25 67 26 50 27 53 28 66 29 84 30 51 31 52 32 65 34
REMARK SMILES IDX 85 35 54 36 39 37 40 38 48 39 41 40 47 41 42 42 43 43 44 44
REMARK SMILES IDX 45 45 46 46 69 47 70 48 78 49 71 50 77 51 72 52 73 53 74 54
REMARK SMILES IDX 75 55 76 56 55 57 56 58 64 59 57 60 63 61 58 62 59 63 60 64
REMARK SMILES IDX 61 65 62 66 5 67 6 68 7 69 8 70 9 71 10 72 13 73 11 74 12 75
REMARK SMILES IDX 14 76 15 77 16 78 17 79 18 80 26 81 19 82 21 83 25 84 20 85
REMARK SMILES IDX 22 86 24 87 29 88 23 89 27 90 28 92
REMARK H PARENT 83 22 53 33 29 91
REMARK Flexibility Score: inf
ROOT
ATOM      1  C   UNL A   1      32.591  30.288  26.738  1.00  0.00     0.275 C 
ENDROOT
BRANCH   1   2
ATOM      2  O   UNL A   1      33.652  29.957  27.642  1.00  0.00    -0.458 OA
BRANCH   2   3
ATOM      3  C   UNL A   1      34.430  31.005  28.021  1.00  0.00     0.338 C 
ATOM      4  O   UNL A   1      34.086  32.168  28.023  1.00  0.00    -0.246 OA
BRANCH   3   5
ATOM      5  C   UNL A   1      35.807  30.481  28.217  1.00  0.00     0.060 A 
ATOM      6  C   UNL A   1      36.092  29.796  29.412  1.00  0.00     0.016 A 
ATOM      7  C   UNL A   1      36.731  30.483  27.169  1.00  0.00     0.016 A 
ATOM      8  C   UNL A   1      37.210  29.004  29.523  1.00  0.00     0.010 A 
ATOM      9  C   UNL A   1      37.912  29.744  27.305  1.00  0.00     0.010 A 
ATOM     10  C   UNL A   1      38.135  29.001  28.482  1.00  0.00    -0.014 A 
BRANCH  10  11
ATOM     11  C   UNL A   1      39.490  28.601  28.877  1.00  0.00     0.031 A 
ATOM     12  C   UNL A   1      40.157  29.583  29.792  1.00  0.00     0.074 A 
ATOM     13  C   UNL A   1      39.983  27.381  28.599  1.00  0.00     0.049 A 
ATOM     14  N   UNL A   1      41.304  29.497  30.397  1.00  0.00    -0.248 NA
ATOM     15  C   UNL A   1      39.409  30.824  30.097  1.00  0.00     0.031 C 
ATOM     16  C   UNL A   1      39.306  26.335  27.832  1.00  0.00     0.029 A 
ATOM     17  N   UNL A   1      41.167  26.799  28.955  1.00  0.00    -0.354 N 
ATOM     18  C   UNL A   1      41.394  30.658  31.154  1.00  0.00     0.074 A 
ATOM     19  C   UNL A   1      40.239  31.469  30.889  1.00  0.00     0.031 C 
ATOM     20  C   UNL A   1      40.100  25.256  27.735  1.00  0.00     0.029 A 
ATOM     21  C   UNL A   1      41.333  25.527  28.458  1.00  0.00     0.049 A 
ATOM     22  H   UNL A   1      41.839  27.248  29.517  1.00  0.00     0.167 HD
ATOM     23  C   UNL A   1      42.344  30.989  32.048  1.00  0.00     0.031 A 
ATOM     24  C   UNL A   1      42.368  24.678  28.599  1.00  0.00     0.031 A 
ATOM     25  C   UNL A   1      43.465  30.145  32.302  1.00  0.00     0.049 A 
ATOM     26  C   UNL A   1      43.485  25.128  29.498  1.00  0.00     0.074 A 
ATOM     27  C   UNL A   1      44.537  30.361  33.138  1.00  0.00     0.029 A 
ATOM     28  N   UNL A   1      43.640  28.903  31.705  1.00  0.00    -0.354 N 
ATOM     29  N   UNL A   1      43.575  26.243  30.189  1.00  0.00    -0.248 NA
ATOM     30  C   UNL A   1      44.620  24.216  29.663  1.00  0.00     0.031 C 
ATOM     31  C   UNL A   1      45.382  29.254  33.021  1.00  0.00     0.029 A 
ATOM     32  C   UNL A   1      44.814  28.336  32.144  1.00  0.00     0.049 A 
ATOM     33  H   UNL A   1      43.016  28.489  31.066  1.00  0.00     0.167 HD
ATOM     34  C   UNL A   1      44.766  26.161  30.890  1.00  0.00     0.074 A 
ATOM     35  C   UNL A   1      45.360  24.880  30.541  1.00  0.00     0.031 C 
ATOM     36  C   UNL A   1      45.328  27.050  31.746  1.00  0.00     0.031 A 
BRANCH  23  37
ATOM     37  C   UNL A   1      42.169  32.296  32.758  1.00  0.00    -0.014 A 
ATOM     38  C   UNL A   1      42.742  33.473  32.240  1.00  0.00     0.010 A 
ATOM     39  C   UNL A   1      41.519  32.333  34.001  1.00  0.00     0.010 A 
ATOM     40  C   UNL A   1      42.689  34.662  32.968  1.00  0.00     0.020 A 
ATOM     41  C   UNL A   1      41.443  33.528  34.722  1.00  0.00     0.020 A 
ATOM     42  C   UNL A   1      42.035  34.683  34.203  1.00  0.00     0.054 A 
BRANCH  42  43
ATOM     43  S   UNL A   1      41.973  36.247  35.118  1.00  0.00     0.124 S 
ATOM     44  O   UNL A   1      42.792  35.949  36.291  1.00  0.00    -0.237 OA
ATOM     45  O   UNL A   1      42.557  37.187  34.166  1.00  0.00    -0.237 OA
ATOM     46  O   UNL A   1      40.550  36.436  35.388  1.00  0.00    -0.744 OA
ENDBRANCH  42  43
ENDBRANCH  23  37
BRANCH  24  47
ATOM     47  C   UNL A   1      42.370  23.358  27.910  1.00  0.00    -0.014 A 
ATOM     48  C   UNL A   1      43.102  23.156  26.727  1.00  0.00     0.010 A 
ATOM     49  C   UNL A   1      41.665  22.270  28.462  1.00  0.00     0.010 A 
ATOM     50  C   UNL A   1      43.127  21.899  26.108  1.00  0.00     0.020 A 
ATOM     51  C   UNL A   1      41.698  21.007  27.854  1.00  0.00     0.020 A 
ATOM     52  C   UNL A   1      42.431  20.831  26.680  1.00  0.00     0.054 A 
BRANCH  52  53
ATOM     53  S   UNL A   1      42.510  19.205  25.873  1.00  0.00     0.124 S 
ATOM     54  O   UNL A   1      43.072  18.363  26.924  1.00  0.00    -0.237 OA
ATOM     55  O   UNL A   1      41.107  18.958  25.546  1.00  0.00    -0.237 OA
ATOM     56  O   UNL A   1      43.382  19.432  24.722  1.00  0.00    -0.744 OA
ENDBRANCH  52  53
ENDBRANCH  24  47
BRANCH  36  57
ATOM     57  C   UNL A   1      46.636  26.667  32.357  1.00  0.00    -0.014 A 
ATOM     58  C   UNL A   1      46.663  25.899  33.530  1.00  0.00     0.010 A 
ATOM     59  C   UNL A   1      47.825  26.933  31.655  1.00  0.00     0.010 A 
ATOM     60  C   UNL A   1      47.872  25.387  33.991  1.00  0.00     0.020 A 
ATOM     61  C   UNL A   1      49.031  26.400  32.101  1.00  0.00     0.020 A 
ATOM     62  C   UNL A   1      49.044  25.628  33.265  1.00  0.00     0.054 A 
BRANCH  62  63
ATOM     63  S   UNL A   1      50.578  24.863  33.841  1.00  0.00     0.124 S 
ATOM     64  O   UNL A   1      50.813  23.845  32.821  1.00  0.00    -0.237 OA
ATOM     65  O   UNL A   1      51.509  25.988  33.835  1.00  0.00    -0.237 OA
ATOM     66  O   UNL A   1      50.235  24.348  35.165  1.00  0.00    -0.744 OA
ENDBRANCH  62  63
ENDBRANCH  36  57
ENDBRANCH  10  11
ENDBRANCH   3   5
ENDBRANCH   2   3
ENDBRANCH   1   2
BRANCH   1  67
ATOM     67  C   UNL A   1      32.581  29.472  25.412  1.00  0.00     0.274 C 
BRANCH  67  68
ATOM     68  O   UNL A   1      31.631  28.370  25.386  1.00  0.00    -0.461 OA
BRANCH  68  69
ATOM     69  C   UNL A   1      31.145  27.931  24.182  1.00  0.00     0.324 C 
ATOM     70  O   UNL A   1      30.052  28.271  23.739  1.00  0.00    -0.250 OA
BRANCH  69  71
ATOM     71  C   UNL A   1      32.091  27.006  23.433  1.00  0.00     0.183 C 
ATOM     72  C   UNL A   1      31.481  26.538  22.132  1.00  0.00     0.034 C 
ATOM     73  N   UNL A   1      32.857  25.797  23.907  1.00  0.00    -0.184 NA
ATOM     74  C   UNL A   1      32.593  25.790  21.449  1.00  0.00     0.019 C 
ATOM     75  C   UNL A   1      33.293  25.090  22.608  1.00  0.00     0.103 C 
BRANCH  73  76
ATOM     76  S   UNL A   1      32.244  24.603  24.992  1.00  0.00     0.244 S 
ATOM     77  O   UNL A   1      32.313  25.171  26.319  1.00  0.00    -0.207 OA
ATOM     78  O   UNL A   1      30.956  24.240  24.433  1.00  0.00    -0.207 OA
BRANCH  76  79
ATOM     79  C   UNL A   1      33.269  23.153  24.966  1.00  0.00     0.090 A 
ATOM     80  C   UNL A   1      32.670  21.981  24.486  1.00  0.00     0.024 A 
ATOM     81  C   UNL A   1      34.669  23.138  25.216  1.00  0.00     0.005 A 
ATOM     82  C   UNL A   1      33.266  20.714  24.520  1.00  0.00     0.028 A 
ATOM     83  C   UNL A   1      35.248  21.896  25.150  1.00  0.00     0.019 A 
ATOM     84  C   UNL A   1      35.599  24.186  25.430  1.00  0.00     0.010 A 
ATOM     85  C   UNL A   1      34.591  20.725  24.860  1.00  0.00     0.050 A 
ATOM     86  C   UNL A   1      36.596  21.596  25.259  1.00  0.00     0.050 A 
ATOM     87  C   UNL A   1      36.984  23.924  25.528  1.00  0.00     0.002 A 
ATOM     88  N   UNL A   1      35.510  19.700  24.850  1.00  0.00    -0.321 N 
ATOM     89  C   UNL A   1      37.510  22.624  25.448  1.00  0.00     0.014 A 
ATOM     90  C   UNL A   1      36.804  20.170  25.084  1.00  0.00     0.256 C 
ATOM     91  H   UNL A   1      35.285  18.754  24.695  1.00  0.00     0.170 HD
ATOM     92  O   UNL A   1      37.806  19.465  25.094  1.00  0.00    -0.269 OA
ENDBRANCH  76  79
ENDBRANCH  73  76
ENDBRANCH  69  71
ENDBRANCH  68  69
ENDBRANCH  67  68
ENDBRANCH   1  67
TORSDOF 16
ENDMDL
