MODEL 1
REMARK VINA RESULT:      -8.6      0.000      0.000
REMARK SMILES COc1ccc2cc([C@@H](C)C(=O)OCCOC(=O)c3ccc(-c4c5nc(c(-c6ccc(S(=O)(=O)[O-])cc6)c6ccc([nH]6)c(-c6ccc(S(=O)(=O)[O-])cc6)c6nc(c(-c7ccc(S(=O)(=O)[O-])cc7)c7ccc4[nH]7)C=C6)C=C5)cc3)ccc2c1
REMARK SMILES IDX 15 1 14 2 13 3 11 4 12 5 9 6 10 7 8 8 3 9 4 10 82 11 5 12
REMARK SMILES IDX 81 13 6 14 80 15 7 16 79 17 2 18 1 19 16 20 17 21 18 22
REMARK SMILES IDX 19 23 20 24 78 25 21 26 77 27 22 28 23 29 24 30 71 31 25 32
REMARK SMILES IDX 76 33 70 34 72 35 26 36 75 37 69 38 68 39 27 41 57 42 38 43
REMARK SMILES IDX 56 44 39 45 42 46 55 47 73 48 40 49 41 50 54 52 74 53 43 54
REMARK SMILES IDX 28 55 29 56 37 57 30 58 36 59 31 60 32 61 33 62 34 63 35 64
REMARK SMILES IDX 58 65 59 66 67 67 60 68 66 69 61 70 62 71 63 72 64 73 65 74
REMARK SMILES IDX 44 75 45 76 53 77 46 78 52 79 47 80 48 81 49 82 50 83 51 84
REMARK H PARENT 72 40 42 51
REMARK Flexibility Score: inf
ROOT
ATOM      1  C   UNL A   1      33.918  32.495  29.034  1.00  0.00     0.275 C 
ENDROOT
BRANCH   1   2
ATOM      2  C   UNL A   1      34.621  33.592  29.836  1.00  0.00     0.274 C 
BRANCH   2   3
ATOM      3  O   UNL A   1      34.791  33.209  31.213  1.00  0.00    -0.462 OA
BRANCH   3   4
ATOM      4  C   UNL A   1      36.035  32.812  31.590  1.00  0.00     0.313 C 
ATOM      5  O   UNL A   1      37.021  32.860  30.861  1.00  0.00    -0.252 OA
BRANCH   4   6
ATOM      6  C   UNL A   1      36.100  32.234  33.000  1.00  0.00     0.126 C 
ATOM      7  C   UNL A   1      35.701  33.305  34.016  1.00  0.00     0.025 C 
BRANCH   6   8
ATOM      8  C   UNL A   1      37.396  31.533  33.376  1.00  0.00    -0.033 A 
ATOM      9  C   UNL A   1      41.355  28.379  33.908  1.00  0.00     0.119 A 
ATOM     10  C   UNL A   1      40.435  27.717  33.097  1.00  0.00     0.047 A 
ATOM     11  C   UNL A   1      41.042  29.641  34.418  1.00  0.00     0.055 A 
ATOM     12  C   UNL A   1      39.225  28.334  32.766  1.00  0.00     0.012 A 
ATOM     13  C   UNL A   1      39.834  30.276  34.085  1.00  0.00    -0.015 A 
ATOM     14  C   UNL A   1      38.916  29.617  33.242  1.00  0.00    -0.018 A 
ATOM     15  C   UNL A   1      39.517  31.551  34.571  1.00  0.00     0.009 A 
ATOM     16  C   UNL A   1      37.713  30.253  32.895  1.00  0.00     0.013 A 
ATOM     17  C   UNL A   1      38.316  32.173  34.220  1.00  0.00     0.005 A 
BRANCH   9  18
ATOM     18  O   UNL A   1      42.571  27.879  34.289  1.00  0.00    -0.497 OA
ATOM     19  C   UNL A   1      42.556  26.547  34.787  1.00  0.00     0.278 C 
ENDBRANCH   9  18
ENDBRANCH   6   8
ENDBRANCH   4   6
ENDBRANCH   3   4
ENDBRANCH   2   3
ENDBRANCH   1   2
BRANCH   1  20
ATOM     20  O   UNL A   1      34.695  32.107  27.887  1.00  0.00    -0.458 OA
BRANCH  20  21
ATOM     21  C   UNL A   1      34.673  30.783  27.604  1.00  0.00     0.338 C 
ATOM     22  O   UNL A   1      33.772  30.153  27.081  1.00  0.00    -0.246 OA
BRANCH  21  23
ATOM     23  C   UNL A   1      35.980  30.195  27.922  1.00  0.00     0.060 A 
ATOM     24  C   UNL A   1      36.185  29.702  29.211  1.00  0.00     0.016 A 
ATOM     25  C   UNL A   1      37.018  30.210  26.990  1.00  0.00     0.016 A 
ATOM     26  C   UNL A   1      37.439  29.230  29.586  1.00  0.00     0.010 A 
ATOM     27  C   UNL A   1      38.276  29.727  27.364  1.00  0.00     0.010 A 
ATOM     28  C   UNL A   1      38.496  29.249  28.668  1.00  0.00    -0.014 A 
BRANCH  28  29
ATOM     29  C   UNL A   1      39.847  28.816  29.096  1.00  0.00     0.031 A 
ATOM     30  C   UNL A   1      40.698  29.734  29.926  1.00  0.00     0.074 A 
ATOM     31  C   UNL A   1      40.292  27.589  28.768  1.00  0.00     0.049 A 
ATOM     32  N   UNL A   1      41.921  29.560  30.357  1.00  0.00    -0.248 NA
ATOM     33  C   UNL A   1      40.091  31.013  30.325  1.00  0.00     0.031 C 
ATOM     34  C   UNL A   1      39.531  26.586  28.020  1.00  0.00     0.029 A 
ATOM     35  N   UNL A   1      41.490  26.974  29.031  1.00  0.00    -0.354 N 
ATOM     36  C   UNL A   1      42.238  30.713  31.064  1.00  0.00     0.074 A 
ATOM     37  C   UNL A   1      41.085  31.586  30.987  1.00  0.00     0.031 C 
ATOM     38  C   UNL A   1      40.275  25.474  27.901  1.00  0.00     0.029 A 
ATOM     39  C   UNL A   1      41.579  25.704  28.519  1.00  0.00     0.049 A 
ATOM     40  H   UNL A   1      42.216  27.405  29.539  1.00  0.00     0.167 HD
ATOM     41  C   UNL A   1      43.385  31.018  31.718  1.00  0.00     0.031 A 
ATOM     42  C   UNL A   1      42.602  24.828  28.530  1.00  0.00     0.031 A 
ATOM     43  C   UNL A   1      44.534  30.153  31.779  1.00  0.00     0.049 A 
ATOM     44  C   UNL A   1      43.896  25.221  29.187  1.00  0.00     0.074 A 
ATOM     45  C   UNL A   1      45.749  30.373  32.404  1.00  0.00     0.029 A 
ATOM     46  N   UNL A   1      44.610  28.900  31.189  1.00  0.00    -0.354 N 
ATOM     47  N   UNL A   1      44.191  26.327  29.828  1.00  0.00    -0.248 NA
ATOM     48  C   UNL A   1      44.996  24.251  29.113  1.00  0.00     0.031 C 
ATOM     49  C   UNL A   1      46.575  29.270  32.155  1.00  0.00     0.029 A 
ATOM     50  C   UNL A   1      45.857  28.343  31.417  1.00  0.00     0.049 A 
ATOM     51  H   UNL A   1      43.884  28.469  30.682  1.00  0.00     0.167 HD
ATOM     52  C   UNL A   1      45.507  26.180  30.250  1.00  0.00     0.074 A 
ATOM     53  C   UNL A   1      45.947  24.873  29.799  1.00  0.00     0.031 C 
ATOM     54  C   UNL A   1      46.281  27.046  30.949  1.00  0.00     0.031 A 
BRANCH  41  55
ATOM     55  C   UNL A   1      43.458  32.370  32.373  1.00  0.00    -0.014 A 
ATOM     56  C   UNL A   1      43.165  32.536  33.739  1.00  0.00     0.010 A 
ATOM     57  C   UNL A   1      43.807  33.497  31.607  1.00  0.00     0.010 A 
ATOM     58  C   UNL A   1      43.163  33.810  34.313  1.00  0.00     0.020 A 
ATOM     59  C   UNL A   1      43.829  34.770  32.182  1.00  0.00     0.020 A 
ATOM     60  C   UNL A   1      43.481  34.921  33.526  1.00  0.00     0.054 A 
BRANCH  60  61
ATOM     61  S   UNL A   1      43.446  36.570  34.282  1.00  0.00     0.124 S 
ATOM     62  O   UNL A   1      42.032  36.715  34.618  1.00  0.00    -0.237 OA
ATOM     63  O   UNL A   1      44.349  36.425  35.421  1.00  0.00    -0.237 OA
ATOM     64  O   UNL A   1      43.927  37.448  33.218  1.00  0.00    -0.744 OA
ENDBRANCH  60  61
ENDBRANCH  41  55
BRANCH  42  65
ATOM     65  C   UNL A   1      42.440  23.498  27.886  1.00  0.00    -0.014 A 
ATOM     66  C   UNL A   1      42.825  23.305  26.549  1.00  0.00     0.010 A 
ATOM     67  C   UNL A   1      41.937  22.408  28.620  1.00  0.00     0.010 A 
ATOM     68  C   UNL A   1      42.714  22.045  25.955  1.00  0.00     0.020 A 
ATOM     69  C   UNL A   1      41.844  21.141  28.037  1.00  0.00     0.020 A 
ATOM     70  C   UNL A   1      42.229  20.969  26.705  1.00  0.00     0.054 A 
BRANCH  70  71
ATOM     71  S   UNL A   1      42.170  19.323  25.942  1.00  0.00     0.124 S 
ATOM     72  O   UNL A   1      40.745  19.168  25.665  1.00  0.00    -0.237 OA
ATOM     73  O   UNL A   1      43.029  19.485  24.771  1.00  0.00    -0.237 OA
ATOM     74  O   UNL A   1      42.707  18.446  26.980  1.00  0.00    -0.744 OA
ENDBRANCH  70  71
ENDBRANCH  42  65
BRANCH  54  75
ATOM     75  C   UNL A   1      47.677  26.600  31.287  1.00  0.00    -0.014 A 
ATOM     76  C   UNL A   1      47.961  25.974  32.514  1.00  0.00     0.010 A 
ATOM     77  C   UNL A   1      48.709  26.773  30.348  1.00  0.00     0.010 A 
ATOM     78  C   UNL A   1      49.261  25.552  32.806  1.00  0.00     0.020 A 
ATOM     79  C   UNL A   1      50.005  26.333  30.628  1.00  0.00     0.020 A 
ATOM     80  C   UNL A   1      50.275  25.738  31.862  1.00  0.00     0.054 A 
BRANCH  80  81
ATOM     81  S   UNL A   1      51.947  25.145  32.244  1.00  0.00     0.124 S 
ATOM     82  O   UNL A   1      51.774  23.697  32.198  1.00  0.00    -0.237 OA
ATOM     83  O   UNL A   1      52.748  25.716  31.163  1.00  0.00    -0.237 OA
ATOM     84  O   UNL A   1      52.216  25.700  33.569  1.00  0.00    -0.744 OA
ENDBRANCH  80  81
ENDBRANCH  54  75
ENDBRANCH  28  29
ENDBRANCH  21  23
ENDBRANCH  20  21
ENDBRANCH   1  20
TORSDOF 16
ENDMDL
MODEL 2
REMARK VINA RESULT:      -8.5      2.895      5.618
REMARK SMILES COc1ccc2cc([C@@H](C)C(=O)OCCOC(=O)c3ccc(-c4c5nc(c(-c6ccc(S(=O)(=O)[O-])cc6)c6ccc([nH]6)c(-c6ccc(S(=O)(=O)[O-])cc6)c6nc(c(-c7ccc(S(=O)(=O)[O-])cc7)c7ccc4[nH]7)C=C6)C=C5)cc3)ccc2c1
REMARK SMILES IDX 15 1 14 2 13 3 11 4 12 5 9 6 10 7 8 8 3 9 4 10 82 11 5 12
REMARK SMILES IDX 81 13 6 14 80 15 7 16 79 17 2 18 1 19 16 20 17 21 18 22
REMARK SMILES IDX 19 23 20 24 78 25 21 26 77 27 22 28 23 29 24 30 71 31 25 32
REMARK SMILES IDX 76 33 70 34 72 35 26 36 75 37 69 38 68 39 27 41 57 42 38 43
REMARK SMILES IDX 56 44 39 45 42 46 55 47 73 48 40 49 41 50 54 52 74 53 43 54
REMARK SMILES IDX 28 55 29 56 37 57 30 58 36 59 31 60 32 61 33 62 34 63 35 64
REMARK SMILES IDX 58 65 59 66 67 67 60 68 66 69 61 70 62 71 63 72 64 73 65 74
REMARK SMILES IDX 44 75 45 76 53 77 46 78 52 79 47 80 48 81 49 82 50 83 51 84
REMARK H PARENT 72 40 42 51
REMARK Flexibility Score: inf
ROOT
ATOM      1  C   UNL A   1      32.291  30.102  27.002  1.00  0.00     0.275 C 
ENDROOT
BRANCH   1   2
ATOM      2  C   UNL A   1      31.927  29.998  25.521  1.00  0.00     0.274 C 
BRANCH   2   3
ATOM      3  O   UNL A   1      31.271  28.750  25.228  1.00  0.00    -0.462 OA
BRANCH   3   4
ATOM      4  C   UNL A   1      31.481  28.222  23.994  1.00  0.00     0.313 C 
ATOM      5  O   UNL A   1      31.905  28.862  23.036  1.00  0.00    -0.252 OA
BRANCH   4   6
ATOM      6  C   UNL A   1      31.083  26.754  23.872  1.00  0.00     0.126 C 
ATOM      7  C   UNL A   1      30.143  26.378  25.017  1.00  0.00     0.025 C 
BRANCH   6   8
ATOM      8  C   UNL A   1      32.226  25.763  23.712  1.00  0.00    -0.033 A 
ATOM      9  C   UNL A   1      36.348  22.822  24.222  1.00  0.00     0.119 A 
ATOM     10  C   UNL A   1      36.325  23.658  25.337  1.00  0.00     0.047 A 
ATOM     11  C   UNL A   1      35.365  22.955  23.239  1.00  0.00     0.055 A 
ATOM     12  C   UNL A   1      35.299  24.595  25.486  1.00  0.00     0.012 A 
ATOM     13  C   UNL A   1      34.323  23.887  23.381  1.00  0.00    -0.015 A 
ATOM     14  C   UNL A   1      34.285  24.713  24.523  1.00  0.00    -0.018 A 
ATOM     15  C   UNL A   1      33.317  24.016  22.414  1.00  0.00     0.009 A 
ATOM     16  C   UNL A   1      33.238  25.636  24.677  1.00  0.00     0.013 A 
ATOM     17  C   UNL A   1      32.282  24.939  22.578  1.00  0.00     0.005 A 
BRANCH   9  18
ATOM     18  O   UNL A   1      37.295  21.864  23.976  1.00  0.00    -0.497 OA
ATOM     19  C   UNL A   1      37.390  20.834  24.951  1.00  0.00     0.278 C 
ENDBRANCH   9  18
ENDBRANCH   6   8
ENDBRANCH   4   6
ENDBRANCH   3   4
ENDBRANCH   2   3
ENDBRANCH   1   2
BRANCH   1  20
ATOM     20  O   UNL A   1      33.657  29.715  27.232  1.00  0.00    -0.458 OA
BRANCH  20  21
ATOM     21  C   UNL A   1      34.419  30.650  27.849  1.00  0.00     0.338 C 
ATOM     22  O   UNL A   1      34.074  31.756  28.225  1.00  0.00    -0.246 OA
BRANCH  21  23
ATOM     23  C   UNL A   1      35.750  30.092  28.121  1.00  0.00     0.060 A 
ATOM     24  C   UNL A   1      36.011  29.607  29.404  1.00  0.00     0.016 A 
ATOM     25  C   UNL A   1      36.753  30.126  27.153  1.00  0.00     0.016 A 
ATOM     26  C   UNL A   1      37.288  29.165  29.735  1.00  0.00     0.010 A 
ATOM     27  C   UNL A   1      38.033  29.673  27.483  1.00  0.00     0.010 A 
ATOM     28  C   UNL A   1      38.311  29.204  28.780  1.00  0.00    -0.014 A 
BRANCH  28  29
ATOM     29  C   UNL A   1      39.685  28.803  29.161  1.00  0.00     0.031 A 
ATOM     30  C   UNL A   1      40.543  29.740  29.962  1.00  0.00     0.074 A 
ATOM     31  C   UNL A   1      40.147  27.587  28.817  1.00  0.00     0.049 A 
ATOM     32  N   UNL A   1      41.784  29.595  30.351  1.00  0.00    -0.248 NA
ATOM     33  C   UNL A   1      39.920  31.005  30.382  1.00  0.00     0.031 C 
ATOM     34  C   UNL A   1      39.385  26.566  28.096  1.00  0.00     0.029 A 
ATOM     35  N   UNL A   1      41.367  27.000  29.039  1.00  0.00    -0.354 N 
ATOM     36  C   UNL A   1      42.098  30.756  31.047  1.00  0.00     0.074 A 
ATOM     37  C   UNL A   1      40.923  31.601  31.010  1.00  0.00     0.031 C 
ATOM     38  C   UNL A   1      40.149  25.471  27.951  1.00  0.00     0.029 A 
ATOM     39  C   UNL A   1      41.468  25.731  28.523  1.00  0.00     0.049 A 
ATOM     40  H   UNL A   1      42.100  27.447  29.521  1.00  0.00     0.167 HD
ATOM     41  C   UNL A   1      43.260  31.087  31.661  1.00  0.00     0.031 A 
ATOM     42  C   UNL A   1      42.511  24.880  28.499  1.00  0.00     0.031 A 
ATOM     43  C   UNL A   1      44.429  30.249  31.682  1.00  0.00     0.049 A 
ATOM     44  C   UNL A   1      43.818  25.303  29.111  1.00  0.00     0.074 A 
ATOM     45  C   UNL A   1      45.660  30.498  32.265  1.00  0.00     0.029 A 
ATOM     46  N   UNL A   1      44.514  28.998  31.089  1.00  0.00    -0.354 N 
ATOM     47  N   UNL A   1      44.108  26.415  29.742  1.00  0.00    -0.248 NA
ATOM     48  C   UNL A   1      44.937  24.359  28.999  1.00  0.00     0.031 C 
ATOM     49  C   UNL A   1      46.502  29.414  31.987  1.00  0.00     0.029 A 
ATOM     50  C   UNL A   1      45.781  28.470  31.273  1.00  0.00     0.049 A 
ATOM     51  H   UNL A   1      43.781  28.550  30.608  1.00  0.00     0.167 HD
ATOM     52  C   UNL A   1      45.441  26.300  30.118  1.00  0.00     0.074 A 
ATOM     53  C   UNL A   1      45.896  25.003  29.652  1.00  0.00     0.031 C 
ATOM     54  C   UNL A   1      46.219  27.183  30.791  1.00  0.00     0.031 A 
BRANCH  41  55
ATOM     55  C   UNL A   1      43.323  32.441  32.314  1.00  0.00    -0.014 A 
ATOM     56  C   UNL A   1      43.094  32.597  33.693  1.00  0.00     0.010 A 
ATOM     57  C   UNL A   1      43.599  33.578  31.533  1.00  0.00     0.010 A 
ATOM     58  C   UNL A   1      43.081  33.871  34.268  1.00  0.00     0.020 A 
ATOM     59  C   UNL A   1      43.611  34.851  32.109  1.00  0.00     0.020 A 
ATOM     60  C   UNL A   1      43.326  34.991  33.469  1.00  0.00     0.054 A 
BRANCH  60  61
ATOM     61  S   UNL A   1      43.278  36.638  34.228  1.00  0.00     0.124 S 
ATOM     62  O   UNL A   1      44.367  36.552  35.198  1.00  0.00    -0.237 OA
ATOM     63  O   UNL A   1      43.518  37.527  33.094  1.00  0.00    -0.237 OA
ATOM     64  O   UNL A   1      41.937  36.715  34.803  1.00  0.00    -0.744 OA
ENDBRANCH  60  61
ENDBRANCH  41  55
BRANCH  42  65
ATOM     65  C   UNL A   1      42.358  23.546  27.860  1.00  0.00    -0.014 A 
ATOM     66  C   UNL A   1      42.889  23.306  26.582  1.00  0.00     0.010 A 
ATOM     67  C   UNL A   1      41.715  22.498  28.544  1.00  0.00     0.010 A 
ATOM     68  C   UNL A   1      42.783  22.041  25.998  1.00  0.00     0.020 A 
ATOM     69  C   UNL A   1      41.626  21.225  27.974  1.00  0.00     0.020 A 
ATOM     70  C   UNL A   1      42.157  21.006  26.701  1.00  0.00     0.054 A 
BRANCH  70  71
ATOM     71  S   UNL A   1      42.104  19.350  25.961  1.00  0.00     0.124 S 
ATOM     72  O   UNL A   1      42.932  19.523  24.771  1.00  0.00    -0.237 OA
ATOM     73  O   UNL A   1      42.675  18.513  27.014  1.00  0.00    -0.237 OA
ATOM     74  O   UNL A   1      40.681  19.134  25.710  1.00  0.00    -0.744 OA
ENDBRANCH  70  71
ENDBRANCH  42  65
BRANCH  54  75
ATOM     75  C   UNL A   1      47.635  26.770  31.081  1.00  0.00    -0.014 A 
ATOM     76  C   UNL A   1      48.675  27.061  30.180  1.00  0.00     0.010 A 
ATOM     77  C   UNL A   1      47.935  26.119  32.290  1.00  0.00     0.010 A 
ATOM     78  C   UNL A   1      49.988  26.684  30.473  1.00  0.00     0.020 A 
ATOM     79  C   UNL A   1      49.250  25.759  32.597  1.00  0.00     0.020 A 
ATOM     80  C   UNL A   1      50.266  26.031  31.678  1.00  0.00     0.054 A 
BRANCH  80  81
ATOM     81  S   UNL A   1      51.984  25.587  32.058  1.00  0.00     0.124 S 
ATOM     82  O   UNL A   1      51.901  24.135  32.183  1.00  0.00    -0.237 OA
ATOM     83  O   UNL A   1      52.712  26.076  30.889  1.00  0.00    -0.237 OA
ATOM     84  O   UNL A   1      52.260  26.305  33.300  1.00  0.00    -0.744 OA
ENDBRANCH  80  81
ENDBRANCH  54  75
ENDBRANCH  28  29
ENDBRANCH  21  23
ENDBRANCH  20  21
ENDBRANCH   1  20
TORSDOF 16
ENDMDL
MODEL 3
REMARK VINA RESULT:      -8.3      3.405      4.884
REMARK SMILES COc1ccc2cc([C@@H](C)C(=O)OCCOC(=O)c3ccc(-c4c5nc(c(-c6ccc(S(=O)(=O)[O-])cc6)c6ccc([nH]6)c(-c6ccc(S(=O)(=O)[O-])cc6)c6nc(c(-c7ccc(S(=O)(=O)[O-])cc7)c7ccc4[nH]7)C=C6)C=C5)cc3)ccc2c1
REMARK SMILES IDX 15 1 14 2 13 3 11 4 12 5 9 6 10 7 8 8 3 9 4 10 82 11 5 12
REMARK SMILES IDX 81 13 6 14 80 15 7 16 79 17 2 18 1 19 16 20 17 21 18 22
REMARK SMILES IDX 19 23 20 24 78 25 21 26 77 27 22 28 23 29 24 30 71 31 25 32
REMARK SMILES IDX 76 33 70 34 72 35 26 36 75 37 69 38 68 39 27 41 57 42 38 43
REMARK SMILES IDX 56 44 39 45 42 46 55 47 73 48 40 49 41 50 54 52 74 53 43 54
REMARK SMILES IDX 28 55 29 56 37 57 30 58 36 59 31 60 32 61 33 62 34 63 35 64
REMARK SMILES IDX 58 65 59 66 67 67 60 68 66 69 61 70 62 71 63 72 64 73 65 74
REMARK SMILES IDX 44 75 45 76 53 77 46 78 52 79 47 80 48 81 49 82 50 83 51 84
REMARK H PARENT 72 40 42 51
REMARK Flexibility Score: inf
ROOT
ATOM      1  C   UNL A   1      35.445  32.246  30.952  1.00  0.00     0.275 C 
ENDROOT
BRANCH   1   2
ATOM      2  C   UNL A   1      35.363  32.606  32.437  1.00  0.00     0.274 C 
BRANCH   2   3
ATOM      3  O   UNL A   1      36.554  32.207  33.141  1.00  0.00    -0.462 OA
BRANCH   3   4
ATOM      4  C   UNL A   1      37.564  33.113  33.197  1.00  0.00     0.313 C 
ATOM      5  O   UNL A   1      37.438  34.259  33.616  1.00  0.00    -0.252 OA
BRANCH   4   6
ATOM      6  C   UNL A   1      38.885  32.602  32.629  1.00  0.00     0.126 C 
ATOM      7  C   UNL A   1      39.890  32.398  33.764  1.00  0.00     0.025 C 
BRANCH   6   8
ATOM      8  C   UNL A   1      39.470  33.401  31.475  1.00  0.00    -0.033 A 
ATOM      9  C   UNL A   1      42.414  35.939  28.190  1.00  0.00     0.119 A 
ATOM     10  C   UNL A   1      43.228  35.615  29.273  1.00  0.00     0.047 A 
ATOM     11  C   UNL A   1      41.063  35.588  28.213  1.00  0.00     0.055 A 
ATOM     12  C   UNL A   1      42.700  34.908  30.357  1.00  0.00     0.012 A 
ATOM     13  C   UNL A   1      40.522  34.869  29.291  1.00  0.00    -0.015 A 
ATOM     14  C   UNL A   1      41.353  34.517  30.374  1.00  0.00    -0.018 A 
ATOM     15  C   UNL A   1      39.173  34.490  29.317  1.00  0.00     0.009 A 
ATOM     16  C   UNL A   1      40.820  33.787  31.449  1.00  0.00     0.013 A 
ATOM     17  C   UNL A   1      38.655  33.764  30.393  1.00  0.00     0.005 A 
BRANCH   9  18
ATOM     18  O   UNL A   1      42.823  36.619  27.074  1.00  0.00    -0.497 OA
ATOM     19  C   UNL A   1      44.077  37.280  27.185  1.00  0.00     0.278 C 
ENDBRANCH   9  18
ENDBRANCH   6   8
ENDBRANCH   4   6
ENDBRANCH   3   4
ENDBRANCH   2   3
ENDBRANCH   1   2
BRANCH   1  20
ATOM     20  O   UNL A   1      36.308  31.116  30.736  1.00  0.00    -0.458 OA
BRANCH  20  21
ATOM     21  C   UNL A   1      36.292  30.619  29.477  1.00  0.00     0.338 C 
ATOM     22  O   UNL A   1      35.394  30.701  28.659  1.00  0.00    -0.246 OA
BRANCH  21  23
ATOM     23  C   UNL A   1      37.604  30.035  29.167  1.00  0.00     0.060 A 
ATOM     24  C   UNL A   1      38.469  29.758  30.227  1.00  0.00     0.016 A 
ATOM     25  C   UNL A   1      38.010  29.847  27.846  1.00  0.00     0.016 A 
ATOM     26  C   UNL A   1      39.758  29.301  29.974  1.00  0.00     0.010 A 
ATOM     27  C   UNL A   1      39.303  29.379  27.592  1.00  0.00     0.010 A 
ATOM     28  C   UNL A   1      40.188  29.118  28.654  1.00  0.00    -0.014 A 
BRANCH  28  29
ATOM     29  C   UNL A   1      41.585  28.704  28.389  1.00  0.00     0.031 A 
ATOM     30  C   UNL A   1      42.698  29.705  28.512  1.00  0.00     0.074 A 
ATOM     31  C   UNL A   1      41.856  27.425  28.072  1.00  0.00     0.049 A 
ATOM     32  N   UNL A   1      43.975  29.553  28.275  1.00  0.00    -0.248 NA
ATOM     33  C   UNL A   1      42.322  31.054  28.964  1.00  0.00     0.031 C 
ATOM     34  C   UNL A   1      40.868  26.348  27.985  1.00  0.00     0.029 A 
ATOM     35  N   UNL A   1      43.046  26.812  27.774  1.00  0.00    -0.354 N 
ATOM     36  C   UNL A   1      44.556  30.789  28.532  1.00  0.00     0.074 A 
ATOM     37  C   UNL A   1      43.487  31.684  28.924  1.00  0.00     0.031 C 
ATOM     38  C   UNL A   1      41.496  25.202  27.674  1.00  0.00     0.029 A 
ATOM     39  C   UNL A   1      42.920  25.474  27.492  1.00  0.00     0.049 A 
ATOM     40  H   UNL A   1      43.909  27.287  27.764  1.00  0.00     0.167 HD
ATOM     41  C   UNL A   1      45.861  31.147  28.449  1.00  0.00     0.031 A 
ATOM     42  C   UNL A   1      43.844  24.571  27.111  1.00  0.00     0.031 A 
ATOM     43  C   UNL A   1      46.917  30.257  28.044  1.00  0.00     0.049 A 
ATOM     44  C   UNL A   1      45.272  25.010  26.941  1.00  0.00     0.074 A 
ATOM     45  C   UNL A   1      48.269  30.524  27.914  1.00  0.00     0.029 A 
ATOM     46  N   UNL A   1      46.738  28.925  27.700  1.00  0.00    -0.354 N 
ATOM     47  N   UNL A   1      45.801  26.190  27.161  1.00  0.00    -0.248 NA
ATOM     48  C   UNL A   1      46.222  23.998  26.463  1.00  0.00     0.031 C 
ATOM     49  C   UNL A   1      48.901  29.363  27.450  1.00  0.00     0.029 A 
ATOM     50  C   UNL A   1      47.950  28.362  27.337  1.00  0.00     0.049 A 
ATOM     51  H   UNL A   1      45.876  28.450  27.711  1.00  0.00     0.167 HD
ATOM     52  C   UNL A   1      47.153  26.059  26.864  1.00  0.00     0.074 A 
ATOM     53  C   UNL A   1      47.360  24.682  26.459  1.00  0.00     0.031 C 
ATOM     54  C   UNL A   1      48.134  26.992  26.924  1.00  0.00     0.031 A 
BRANCH  41  55
ATOM     55  C   UNL A   1      46.196  32.580  28.757  1.00  0.00    -0.014 A 
ATOM     56  C   UNL A   1      46.297  33.541  27.735  1.00  0.00     0.010 A 
ATOM     57  C   UNL A   1      46.431  32.969  30.088  1.00  0.00     0.010 A 
ATOM     58  C   UNL A   1      46.684  34.851  28.032  1.00  0.00     0.020 A 
ATOM     59  C   UNL A   1      46.796  34.283  30.391  1.00  0.00     0.020 A 
ATOM     60  C   UNL A   1      46.945  35.210  29.357  1.00  0.00     0.054 A 
BRANCH  60  61
ATOM     61  S   UNL A   1      47.473  36.907  29.719  1.00  0.00     0.124 S 
ATOM     62  O   UNL A   1      48.637  36.683  30.573  1.00  0.00    -0.237 OA
ATOM     63  O   UNL A   1      47.763  37.447  28.393  1.00  0.00    -0.237 OA
ATOM     64  O   UNL A   1      46.314  37.495  30.387  1.00  0.00    -0.744 OA
ENDBRANCH  60  61
ENDBRANCH  41  55
BRANCH  42  65
ATOM     65  C   UNL A   1      43.436  23.165  26.854  1.00  0.00    -0.014 A 
ATOM     66  C   UNL A   1      43.783  22.533  25.649  1.00  0.00     0.010 A 
ATOM     67  C   UNL A   1      42.734  22.437  27.833  1.00  0.00     0.010 A 
ATOM     68  C   UNL A   1      43.439  21.197  25.424  1.00  0.00     0.020 A 
ATOM     69  C   UNL A   1      42.406  21.095  27.622  1.00  0.00     0.020 A 
ATOM     70  C   UNL A   1      42.757  20.485  26.416  1.00  0.00     0.054 A 
BRANCH  70  71
ATOM     71  S   UNL A   1      42.391  18.728  26.139  1.00  0.00     0.124 S 
ATOM     72  O   UNL A   1      43.326  18.389  25.071  1.00  0.00    -0.237 OA
ATOM     73  O   UNL A   1      42.678  18.135  27.444  1.00  0.00    -0.237 OA
ATOM     74  O   UNL A   1      40.980  18.729  25.762  1.00  0.00    -0.744 OA
ENDBRANCH  70  71
ENDBRANCH  42  65
BRANCH  54  75
ATOM     75  C   UNL A   1      49.525  26.550  26.563  1.00  0.00    -0.014 A 
ATOM     76  C   UNL A   1      50.368  25.953  27.518  1.00  0.00     0.010 A 
ATOM     77  C   UNL A   1      49.979  26.695  25.240  1.00  0.00     0.010 A 
ATOM     78  C   UNL A   1      51.652  25.533  27.160  1.00  0.00     0.020 A 
ATOM     79  C   UNL A   1      51.255  26.258  24.874  1.00  0.00     0.020 A 
ATOM     80  C   UNL A   1      52.089  25.692  25.841  1.00  0.00     0.054 A 
BRANCH  80  81
ATOM     81  S   UNL A   1      53.744  25.103  25.388  1.00  0.00     0.124 S 
ATOM     82  O   UNL A   1      54.551  25.577  26.508  1.00  0.00    -0.237 OA
ATOM     83  O   UNL A   1      53.564  23.655  25.313  1.00  0.00    -0.237 OA
ATOM     84  O   UNL A   1      54.006  25.759  24.109  1.00  0.00    -0.744 OA
ENDBRANCH  80  81
ENDBRANCH  54  75
ENDBRANCH  28  29
ENDBRANCH  21  23
ENDBRANCH  20  21
ENDBRANCH   1  20
TORSDOF 16
ENDMDL
