MODEL 1
REMARK VINA RESULT:      -9.4      0.000      0.000
REMARK SMILES CN1C(=O)Cc2cc([C@@H](O)CCCCC(=O)OCCOC(=O)c3ccc(-c4c5nc(c(-c6ccc(S(=O)(=O)[O-])cc6)c6ccc([nH]6)c(-c6ccc(S(=O)(=O)[O-])cc6)c6nc(c(-c7ccc(S(=O)(=O)[O-])cc7)c7ccc4[nH]7)C=C6)C=C5)cc3)ccc21
REMARK SMILES IDX 18 1 17 2 15 3 16 4 14 5 13 6 12 7 11 8 9 9 8 10 1 11 2 12
REMARK SMILES IDX 3 13 85 14 4 15 5 16 6 17 84 18 7 19 83 20 10 21 19 23 20 24
REMARK SMILES IDX 21 25 22 26 23 27 24 28 82 29 25 30 81 31 26 32 27 33 28 34
REMARK SMILES IDX 75 35 29 36 80 37 74 38 76 39 30 40 79 41 73 42 72 43 31 45
REMARK SMILES IDX 61 46 42 47 60 48 43 49 46 50 59 51 77 52 44 53 45 54 58 56
REMARK SMILES IDX 78 57 47 58 32 59 33 60 41 61 34 62 40 63 35 64 36 65 37 66
REMARK SMILES IDX 38 67 39 68 62 69 63 70 71 71 64 72 70 73 65 74 66 75 67 76
REMARK SMILES IDX 68 77 69 78 48 79 49 80 57 81 50 82 56 83 51 84 52 85 53 86
REMARK SMILES IDX 54 87 55 88
REMARK H PARENT 10 22 76 44 46 55
REMARK Flexibility Score: inf
ROOT
ATOM      1  C   UNL A   1      40.909  19.844  26.235  1.00  0.00     0.274 C 
ENDROOT
BRANCH   1   2
ATOM      2  O   UNL A   1      41.899  19.206  27.061  1.00  0.00    -0.462 OA
BRANCH   2   3
ATOM      3  C   UNL A   1      42.957  18.644  26.428  1.00  0.00     0.305 C 
ATOM      4  O   UNL A   1      43.509  17.607  26.771  1.00  0.00    -0.252 OA
BRANCH   3   5
ATOM      5  C   UNL A   1      43.437  19.472  25.255  1.00  0.00     0.123 C 
BRANCH   5   6
ATOM      6  C   UNL A   1      44.725  18.991  24.581  1.00  0.00     0.012 C 
BRANCH   6   7
ATOM      7  C   UNL A   1      45.897  19.977  24.600  1.00  0.00     0.004 C 
BRANCH   7   8
ATOM      8  C   UNL A   1      45.650  21.251  25.414  1.00  0.00     0.037 C 
BRANCH   8   9
ATOM      9  C   UNL A   1      44.808  22.303  24.676  1.00  0.00     0.144 C 
BRANCH   9  10
ATOM     10  C   UNL A   1      44.917  23.663  25.335  1.00  0.00    -0.019 A 
ATOM     11  C   UNL A   1      46.242  28.250  27.440  1.00  0.00     0.153 C 
ATOM     12  N   UNL A   1      45.238  27.588  26.651  1.00  0.00    -0.315 N 
ATOM     13  C   UNL A   1      44.132  28.222  26.081  1.00  0.00     0.231 C 
ATOM     14  C   UNL A   1      45.266  26.228  26.328  1.00  0.00     0.047 A 
ATOM     15  O   UNL A   1      43.824  29.401  26.168  1.00  0.00    -0.274 OA
ATOM     16  C   UNL A   1      43.349  27.161  25.303  1.00  0.00     0.138 C 
ATOM     17  C   UNL A   1      44.162  25.928  25.535  1.00  0.00    -0.014 A 
ATOM     18  C   UNL A   1      46.198  25.268  26.667  1.00  0.00     0.027 A 
ATOM     19  C   UNL A   1      43.962  24.653  25.046  1.00  0.00     0.012 A 
ATOM     20  C   UNL A   1      46.020  23.975  26.160  1.00  0.00     0.008 A 
ENDBRANCH   9  10
BRANCH   9  21
ATOM     21  O   UNL A   1      45.276  22.396  23.331  1.00  0.00    -0.388 OA
ATOM     22  H   UNL A   1      46.037  21.807  23.212  1.00  0.00     0.211 HD
ENDBRANCH   9  21
ENDBRANCH   8   9
ENDBRANCH   7   8
ENDBRANCH   6   7
ENDBRANCH   5   6
ENDBRANCH   3   5
ENDBRANCH   2   3
ENDBRANCH   1   2
BRANCH   1  23
ATOM     23  C   UNL A   1      40.388  21.116  26.905  1.00  0.00     0.275 C 
BRANCH  23  24
ATOM     24  O   UNL A   1      40.134  22.139  25.924  1.00  0.00    -0.458 OA
BRANCH  24  25
ATOM     25  C   UNL A   1      38.998  22.852  26.104  1.00  0.00     0.338 C 
ATOM     26  O   UNL A   1      37.858  22.515  25.838  1.00  0.00    -0.246 OA
BRANCH  25  27
ATOM     27  C   UNL A   1      39.328  24.101  26.805  1.00  0.00     0.060 A 
ATOM     28  C   UNL A   1      40.111  25.049  26.143  1.00  0.00     0.016 A 
ATOM     29  C   UNL A   1      38.925  24.307  28.124  1.00  0.00     0.016 A 
ATOM     30  C   UNL A   1      40.495  26.217  26.796  1.00  0.00     0.010 A 
ATOM     31  C   UNL A   1      39.307  25.483  28.778  1.00  0.00     0.010 A 
ATOM     32  C   UNL A   1      40.101  26.440  28.121  1.00  0.00    -0.014 A 
BRANCH  32  33
ATOM     33  C   UNL A   1      40.561  27.655  28.834  1.00  0.00     0.031 A 
ATOM     34  C   UNL A   1      41.926  27.681  29.459  1.00  0.00     0.074 A 
ATOM     35  C   UNL A   1      39.756  28.730  28.916  1.00  0.00     0.049 A 
ATOM     36  N   UNL A   1      42.475  28.606  30.203  1.00  0.00    -0.248 NA
ATOM     37  C   UNL A   1      42.785  26.510  29.218  1.00  0.00     0.031 C 
ATOM     38  C   UNL A   1      38.427  28.840  28.312  1.00  0.00     0.029 A 
ATOM     39  N   UNL A   1      39.938  29.934  29.548  1.00  0.00    -0.354 N 
ATOM     40  C   UNL A   1      43.732  28.120  30.543  1.00  0.00     0.074 A 
ATOM     41  C   UNL A   1      43.861  26.815  29.930  1.00  0.00     0.031 C 
ATOM     42  C   UNL A   1      37.912  30.046  28.605  1.00  0.00     0.029 A 
ATOM     43  C   UNL A   1      38.852  30.773  29.456  1.00  0.00     0.049 A 
ATOM     44  H   UNL A   1      40.765  30.176  30.023  1.00  0.00     0.167 HD
ATOM     45  C   UNL A   1      44.688  28.708  31.300  1.00  0.00     0.031 A 
ATOM     46  C   UNL A   1      38.626  31.976  30.017  1.00  0.00     0.031 A 
ATOM     47  C   UNL A   1      44.555  30.006  31.907  1.00  0.00     0.049 A 
ATOM     48  C   UNL A   1      39.683  32.588  30.894  1.00  0.00     0.074 A 
ATOM     49  C   UNL A   1      45.472  30.692  32.683  1.00  0.00     0.029 A 
ATOM     50  N   UNL A   1      43.433  30.815  31.805  1.00  0.00    -0.354 N 
ATOM     51  N   UNL A   1      40.865  32.114  31.209  1.00  0.00    -0.248 NA
ATOM     52  C   UNL A   1      39.377  33.895  31.489  1.00  0.00     0.031 C 
ATOM     53  C   UNL A   1      44.888  31.898  33.086  1.00  0.00     0.029 A 
ATOM     54  C   UNL A   1      43.626  31.984  32.520  1.00  0.00     0.049 A 
ATOM     55  H   UNL A   1      42.619  30.591  31.298  1.00  0.00     0.167 HD
ATOM     56  C   UNL A   1      41.450  33.072  32.028  1.00  0.00     0.074 A 
ATOM     57  C   UNL A   1      40.499  34.159  32.147  1.00  0.00     0.031 C 
ATOM     58  C   UNL A   1      42.666  33.053  32.629  1.00  0.00     0.031 A 
BRANCH  45  59
ATOM     59  C   UNL A   1      45.948  27.924  31.553  1.00  0.00    -0.014 A 
ATOM     60  C   UNL A   1      46.031  26.993  32.604  1.00  0.00     0.010 A 
ATOM     61  C   UNL A   1      47.060  28.110  30.712  1.00  0.00     0.010 A 
ATOM     62  C   UNL A   1      47.218  26.293  32.835  1.00  0.00     0.020 A 
ATOM     63  C   UNL A   1      48.241  27.395  30.926  1.00  0.00     0.020 A 
ATOM     64  C   UNL A   1      48.319  26.505  31.998  1.00  0.00     0.054 A 
BRANCH  64  65
ATOM     65  S   UNL A   1      49.848  25.580  32.314  1.00  0.00     0.124 S 
ATOM     66  O   UNL A   1      50.725  26.624  32.838  1.00  0.00    -0.237 OA
ATOM     67  O   UNL A   1      49.422  24.574  33.283  1.00  0.00    -0.237 OA
ATOM     68  O   UNL A   1      50.214  25.059  31.000  1.00  0.00    -0.744 OA
ENDBRANCH  64  65
ENDBRANCH  45  59
BRANCH  46  69
ATOM     69  C   UNL A   1      37.326  32.663  29.790  1.00  0.00    -0.014 A 
ATOM     70  C   UNL A   1      36.314  32.622  30.763  1.00  0.00     0.010 A 
ATOM     71  C   UNL A   1      37.107  33.385  28.603  1.00  0.00     0.010 A 
ATOM     72  C   UNL A   1      35.103  33.288  30.553  1.00  0.00     0.020 A 
ATOM     73  C   UNL A   1      35.908  34.072  28.398  1.00  0.00     0.020 A 
ATOM     74  C   UNL A   1      34.908  34.012  29.371  1.00  0.00     0.054 A 
BRANCH  74  75
ATOM     75  S   UNL A   1      33.358  34.927  29.146  1.00  0.00     0.124 S 
ATOM     76  O   UNL A   1      33.836  36.229  28.695  1.00  0.00    -0.237 OA
ATOM     77  O   UNL A   1      32.658  34.127  28.143  1.00  0.00    -0.237 OA
ATOM     78  O   UNL A   1      32.754  34.906  30.477  1.00  0.00    -0.744 OA
ENDBRANCH  74  75
ENDBRANCH  46  69
BRANCH  58  79
ATOM     79  C   UNL A   1      43.049  34.256  33.448  1.00  0.00    -0.014 A 
ATOM     80  C   UNL A   1      42.447  34.508  34.693  1.00  0.00     0.010 A 
ATOM     81  C   UNL A   1      44.063  35.115  32.987  1.00  0.00     0.010 A 
ATOM     82  C   UNL A   1      42.835  35.616  35.452  1.00  0.00     0.020 A 
ATOM     83  C   UNL A   1      44.470  36.209  33.753  1.00  0.00     0.020 A 
ATOM     84  C   UNL A   1      43.843  36.460  34.975  1.00  0.00     0.054 A 
BRANCH  84  85
ATOM     85  S   UNL A   1      44.364  37.866  35.998  1.00  0.00     0.124 S 
ATOM     86  O   UNL A   1      45.819  37.759  35.943  1.00  0.00    -0.237 OA
ATOM     87  O   UNL A   1      43.790  39.010  35.293  1.00  0.00    -0.237 OA
ATOM     88  O   UNL A   1      43.766  37.583  37.302  1.00  0.00    -0.744 OA
ENDBRANCH  84  85
ENDBRANCH  58  79
ENDBRANCH  32  33
ENDBRANCH  25  27
ENDBRANCH  24  25
ENDBRANCH  23  24
ENDBRANCH   1  23
TORSDOF 20
ENDMDL
MODEL 2
REMARK VINA RESULT:      -9.3      4.093      6.210
REMARK SMILES CN1C(=O)Cc2cc([C@@H](O)CCCCC(=O)OCCOC(=O)c3ccc(-c4c5nc(c(-c6ccc(S(=O)(=O)[O-])cc6)c6ccc([nH]6)c(-c6ccc(S(=O)(=O)[O-])cc6)c6nc(c(-c7ccc(S(=O)(=O)[O-])cc7)c7ccc4[nH]7)C=C6)C=C5)cc3)ccc21
REMARK SMILES IDX 18 1 17 2 15 3 16 4 14 5 13 6 12 7 11 8 9 9 8 10 1 11 2 12
REMARK SMILES IDX 3 13 85 14 4 15 5 16 6 17 84 18 7 19 83 20 10 21 19 23 20 24
REMARK SMILES IDX 21 25 22 26 23 27 24 28 82 29 25 30 81 31 26 32 27 33 28 34
REMARK SMILES IDX 75 35 29 36 80 37 74 38 76 39 30 40 79 41 73 42 72 43 31 45
REMARK SMILES IDX 61 46 42 47 60 48 43 49 46 50 59 51 77 52 44 53 45 54 58 56
REMARK SMILES IDX 78 57 47 58 32 59 33 60 41 61 34 62 40 63 35 64 36 65 37 66
REMARK SMILES IDX 38 67 39 68 62 69 63 70 71 71 64 72 70 73 65 74 66 75 67 76
REMARK SMILES IDX 68 77 69 78 48 79 49 80 57 81 50 82 56 83 51 84 52 85 53 86
REMARK SMILES IDX 54 87 55 88
REMARK H PARENT 10 22 76 44 46 55
REMARK Flexibility Score: inf
ROOT
ATOM      1  C   UNL A   1      43.076  21.554  26.315  1.00  0.00     0.274 C 
ENDROOT
BRANCH   1   2
ATOM      2  O   UNL A   1      41.780  21.219  25.787  1.00  0.00    -0.462 OA
BRANCH   2   3
ATOM      3  C   UNL A   1      40.761  21.124  26.676  1.00  0.00     0.305 C 
ATOM      4  O   UNL A   1      40.669  20.271  27.548  1.00  0.00    -0.252 OA
BRANCH   3   5
ATOM      5  C   UNL A   1      39.693  22.171  26.445  1.00  0.00     0.123 C 
BRANCH   5   6
ATOM      6  C   UNL A   1      38.443  21.696  25.698  1.00  0.00     0.012 C 
BRANCH   6   7
ATOM      7  C   UNL A   1      37.466  22.795  25.264  1.00  0.00     0.004 C 
BRANCH   7   8
ATOM      8  C   UNL A   1      36.055  22.302  24.932  1.00  0.00     0.037 C 
BRANCH   8   9
ATOM      9  C   UNL A   1      35.542  22.768  23.561  1.00  0.00     0.144 C 
BRANCH   9  10
ATOM     10  C   UNL A   1      34.554  23.908  23.696  1.00  0.00    -0.019 A 
ATOM     11  C   UNL A   1      31.905  28.328  24.518  1.00  0.00     0.153 C 
ATOM     12  N   UNL A   1      32.048  27.219  23.614  1.00  0.00    -0.315 N 
ATOM     13  C   UNL A   1      31.356  27.082  22.409  1.00  0.00     0.231 C 
ATOM     14  C   UNL A   1      32.928  26.151  23.818  1.00  0.00     0.047 A 
ATOM     15  O   UNL A   1      30.523  27.844  21.940  1.00  0.00    -0.274 OA
ATOM     16  C   UNL A   1      31.833  25.783  21.753  1.00  0.00     0.138 C 
ATOM     17  C   UNL A   1      32.830  25.272  22.743  1.00  0.00    -0.014 A 
ATOM     18  C   UNL A   1      33.805  25.927  24.861  1.00  0.00     0.027 A 
ATOM     19  C   UNL A   1      33.619  24.141  22.673  1.00  0.00     0.012 A 
ATOM     20  C   UNL A   1      34.626  24.796  24.793  1.00  0.00     0.008 A 
ENDBRANCH   9  10
BRANCH   9  21
ATOM     21  O   UNL A   1      36.658  23.204  22.785  1.00  0.00    -0.388 OA
ATOM     22  H   UNL A   1      36.845  24.135  22.983  1.00  0.00     0.211 HD
ENDBRANCH   9  21
ENDBRANCH   8   9
ENDBRANCH   7   8
ENDBRANCH   6   7
ENDBRANCH   5   6
ENDBRANCH   3   5
ENDBRANCH   2   3
ENDBRANCH   1   2
BRANCH   1  23
ATOM     23  C   UNL A   1      43.434  23.003  25.981  1.00  0.00     0.275 C 
BRANCH  23  24
ATOM     24  O   UNL A   1      42.785  23.909  26.891  1.00  0.00    -0.458 OA
BRANCH  24  25
ATOM     25  C   UNL A   1      42.212  24.996  26.324  1.00  0.00     0.338 C 
ATOM     26  O   UNL A   1      41.891  25.146  25.158  1.00  0.00    -0.246 OA
BRANCH  25  27
ATOM     27  C   UNL A   1      41.907  25.975  27.377  1.00  0.00     0.060 A 
ATOM     28  C   UNL A   1      42.661  27.148  27.434  1.00  0.00     0.016 A 
ATOM     29  C   UNL A   1      40.931  25.710  28.338  1.00  0.00     0.016 A 
ATOM     30  C   UNL A   1      42.443  28.071  28.453  1.00  0.00     0.010 A 
ATOM     31  C   UNL A   1      40.708  26.639  29.358  1.00  0.00     0.010 A 
ATOM     32  C   UNL A   1      41.468  27.820  29.427  1.00  0.00    -0.014 A 
BRANCH  32  33
ATOM     33  C   UNL A   1      41.278  28.774  30.545  1.00  0.00     0.031 A 
ATOM     34  C   UNL A   1      42.177  28.705  31.745  1.00  0.00     0.074 A 
ATOM     35  C   UNL A   1      40.303  29.700  30.480  1.00  0.00     0.049 A 
ATOM     36  N   UNL A   1      42.116  29.383  32.863  1.00  0.00    -0.248 NA
ATOM     37  C   UNL A   1      43.291  27.745  31.682  1.00  0.00     0.031 C 
ATOM     38  C   UNL A   1      39.395  29.894  29.347  1.00  0.00     0.029 A 
ATOM     39  N   UNL A   1      39.911  30.648  31.391  1.00  0.00    -0.354 N 
ATOM     40  C   UNL A   1      43.162  28.913  33.647  1.00  0.00     0.074 A 
ATOM     41  C   UNL A   1      43.839  27.888  32.881  1.00  0.00     0.031 C 
ATOM     42  C   UNL A   1      38.550  30.898  29.633  1.00  0.00     0.029 A 
ATOM     43  C   UNL A   1      38.823  31.384  30.983  1.00  0.00     0.049 A 
ATOM     44  H   UNL A   1      40.363  30.788  32.253  1.00  0.00     0.167 HD
ATOM     45  C   UNL A   1      43.524  29.299  34.894  1.00  0.00     0.031 A 
ATOM     46  C   UNL A   1      38.109  32.322  31.634  1.00  0.00     0.031 A 
ATOM     47  C   UNL A   1      42.848  30.319  35.651  1.00  0.00     0.049 A 
ATOM     48  C   UNL A   1      38.499  32.701  33.036  1.00  0.00     0.074 A 
ATOM     49  C   UNL A   1      43.144  30.790  36.918  1.00  0.00     0.029 A 
ATOM     50  N   UNL A   1      41.740  31.028  35.211  1.00  0.00    -0.354 N 
ATOM     51  N   UNL A   1      39.489  32.245  33.766  1.00  0.00    -0.248 NA
ATOM     52  C   UNL A   1      37.676  33.720  33.702  1.00  0.00     0.031 C 
ATOM     53  C   UNL A   1      42.189  31.753  37.261  1.00  0.00     0.029 A 
ATOM     54  C   UNL A   1      41.328  31.918  36.188  1.00  0.00     0.049 A 
ATOM     55  H   UNL A   1      41.310  30.916  34.332  1.00  0.00     0.167 HD
ATOM     56  C   UNL A   1      39.418  32.932  34.972  1.00  0.00     0.074 A 
ATOM     57  C   UNL A   1      38.298  33.845  34.867  1.00  0.00     0.031 C 
ATOM     58  C   UNL A   1      40.208  32.816  36.067  1.00  0.00     0.031 A 
BRANCH  45  59
ATOM     59  C   UNL A   1      44.678  28.577  35.534  1.00  0.00    -0.014 A 
ATOM     60  C   UNL A   1      44.480  27.405  36.286  1.00  0.00     0.010 A 
ATOM     61  C   UNL A   1      45.984  29.070  35.363  1.00  0.00     0.010 A 
ATOM     62  C   UNL A   1      45.564  26.764  36.891  1.00  0.00     0.020 A 
ATOM     63  C   UNL A   1      47.073  28.418  35.947  1.00  0.00     0.020 A 
ATOM     64  C   UNL A   1      46.853  27.279  36.724  1.00  0.00     0.054 A 
BRANCH  64  65
ATOM     65  S   UNL A   1      48.246  26.425  37.515  1.00  0.00     0.124 S 
ATOM     66  O   UNL A   1      48.314  25.187  36.744  1.00  0.00    -0.237 OA
ATOM     67  O   UNL A   1      49.354  27.354  37.308  1.00  0.00    -0.237 OA
ATOM     68  O   UNL A   1      47.816  26.274  38.903  1.00  0.00    -0.744 OA
ENDBRANCH  64  65
ENDBRANCH  45  59
BRANCH  46  69
ATOM     69  C   UNL A   1      36.930  32.942  30.972  1.00  0.00    -0.014 A 
ATOM     70  C   UNL A   1      35.626  32.636  31.396  1.00  0.00     0.010 A 
ATOM     71  C   UNL A   1      37.111  33.865  29.926  1.00  0.00     0.010 A 
ATOM     72  C   UNL A   1      34.523  33.238  30.784  1.00  0.00     0.020 A 
ATOM     73  C   UNL A   1      36.014  34.488  29.327  1.00  0.00     0.020 A 
ATOM     74  C   UNL A   1      34.724  34.164  29.754  1.00  0.00     0.054 A 
BRANCH  74  75
ATOM     75  S   UNL A   1      33.284  34.987  29.019  1.00  0.00     0.124 S 
ATOM     76  O   UNL A   1      32.439  35.220  30.185  1.00  0.00    -0.237 OA
ATOM     77  O   UNL A   1      33.873  36.180  28.415  1.00  0.00    -0.237 OA
ATOM     78  O   UNL A   1      32.780  34.002  28.064  1.00  0.00    -0.744 OA
ENDBRANCH  74  75
ENDBRANCH  46  69
BRANCH  58  79
ATOM     79  C   UNL A   1      39.907  33.719  37.233  1.00  0.00    -0.014 A 
ATOM     80  C   UNL A   1      40.373  35.044  37.264  1.00  0.00     0.010 A 
ATOM     81  C   UNL A   1      39.103  33.247  38.286  1.00  0.00     0.010 A 
ATOM     82  C   UNL A   1      40.060  35.877  38.342  1.00  0.00     0.020 A 
ATOM     83  C   UNL A   1      38.769  34.083  39.354  1.00  0.00     0.020 A 
ATOM     84  C   UNL A   1      39.262  35.389  39.382  1.00  0.00     0.054 A 
BRANCH  84  85
ATOM     85  S   UNL A   1      38.830  36.500  40.750  1.00  0.00     0.124 S 
ATOM     86  O   UNL A   1      40.131  36.745  41.365  1.00  0.00    -0.237 OA
ATOM     87  O   UNL A   1      38.234  37.643  40.062  1.00  0.00    -0.237 OA
ATOM     88  O   UNL A   1      37.898  35.711  41.553  1.00  0.00    -0.744 OA
ENDBRANCH  84  85
ENDBRANCH  58  79
ENDBRANCH  32  33
ENDBRANCH  25  27
ENDBRANCH  24  25
ENDBRANCH  23  24
ENDBRANCH   1  23
TORSDOF 20
ENDMDL
MODEL 3
REMARK VINA RESULT:      -9.0      4.057     10.058
REMARK SMILES CN1C(=O)Cc2cc([C@@H](O)CCCCC(=O)OCCOC(=O)c3ccc(-c4c5nc(c(-c6ccc(S(=O)(=O)[O-])cc6)c6ccc([nH]6)c(-c6ccc(S(=O)(=O)[O-])cc6)c6nc(c(-c7ccc(S(=O)(=O)[O-])cc7)c7ccc4[nH]7)C=C6)C=C5)cc3)ccc21
REMARK SMILES IDX 18 1 17 2 15 3 16 4 14 5 13 6 12 7 11 8 9 9 8 10 1 11 2 12
REMARK SMILES IDX 3 13 85 14 4 15 5 16 6 17 84 18 7 19 83 20 10 21 19 23 20 24
REMARK SMILES IDX 21 25 22 26 23 27 24 28 82 29 25 30 81 31 26 32 27 33 28 34
REMARK SMILES IDX 75 35 29 36 80 37 74 38 76 39 30 40 79 41 73 42 72 43 31 45
REMARK SMILES IDX 61 46 42 47 60 48 43 49 46 50 59 51 77 52 44 53 45 54 58 56
REMARK SMILES IDX 78 57 47 58 32 59 33 60 41 61 34 62 40 63 35 64 36 65 37 66
REMARK SMILES IDX 38 67 39 68 62 69 63 70 71 71 64 72 70 73 65 74 66 75 67 76
REMARK SMILES IDX 68 77 69 78 48 79 49 80 57 81 50 82 56 83 51 84 52 85 53 86
REMARK SMILES IDX 54 87 55 88
REMARK H PARENT 10 22 76 44 46 55
REMARK Flexibility Score: inf
ROOT
ATOM      1  C   UNL A   1      43.526  22.163  25.509  1.00  0.00     0.274 C 
ENDROOT
BRANCH   1   2
ATOM      2  O   UNL A   1      42.904  21.526  26.639  1.00  0.00    -0.462 OA
BRANCH   2   3
ATOM      3  C   UNL A   1      41.683  20.971  26.436  1.00  0.00     0.305 C 
ATOM      4  O   UNL A   1      41.443  20.086  25.627  1.00  0.00    -0.252 OA
BRANCH   3   5
ATOM      5  C   UNL A   1      40.610  21.607  27.292  1.00  0.00     0.123 C 
BRANCH   5   6
ATOM      6  C   UNL A   1      39.759  22.681  26.608  1.00  0.00     0.012 C 
BRANCH   6   7
ATOM      7  C   UNL A   1      38.460  22.192  25.960  1.00  0.00     0.004 C 
BRANCH   7   8
ATOM      8  C   UNL A   1      37.555  23.304  25.421  1.00  0.00     0.037 C 
BRANCH   8   9
ATOM      9  C   UNL A   1      36.505  22.813  24.413  1.00  0.00     0.144 C 
BRANCH   9  10
ATOM     10  C   UNL A   1      35.309  23.741  24.360  1.00  0.00    -0.019 A 
ATOM     11  C   UNL A   1      31.745  27.537  24.702  1.00  0.00     0.153 C 
ATOM     12  N   UNL A   1      32.282  26.533  23.824  1.00  0.00    -0.315 N 
ATOM     13  C   UNL A   1      31.891  26.349  22.496  1.00  0.00     0.231 C 
ATOM     14  C   UNL A   1      33.290  25.634  24.185  1.00  0.00     0.047 A 
ATOM     15  O   UNL A   1      31.041  26.973  21.877  1.00  0.00    -0.274 OA
ATOM     16  C   UNL A   1      32.734  25.204  21.926  1.00  0.00     0.138 C 
ATOM     17  C   UNL A   1      33.587  24.823  23.093  1.00  0.00    -0.014 A 
ATOM     18  C   UNL A   1      33.961  25.509  25.385  1.00  0.00     0.027 A 
ATOM     19  C   UNL A   1      34.576  23.863  23.167  1.00  0.00     0.012 A 
ATOM     20  C   UNL A   1      34.982  24.555  25.468  1.00  0.00     0.008 A 
ENDBRANCH   9  10
BRANCH   9  21
ATOM     21  O   UNL A   1      37.109  22.755  23.121  1.00  0.00    -0.388 OA
ATOM     22  H   UNL A   1      36.435  22.544  22.457  1.00  0.00     0.211 HD
ENDBRANCH   9  21
ENDBRANCH   8   9
ENDBRANCH   7   8
ENDBRANCH   6   7
ENDBRANCH   5   6
ENDBRANCH   3   5
ENDBRANCH   2   3
ENDBRANCH   1   2
BRANCH   1  23
ATOM     23  C   UNL A   1      43.922  23.599  25.853  1.00  0.00     0.275 C 
BRANCH  23  24
ATOM     24  O   UNL A   1      42.811  24.306  26.437  1.00  0.00    -0.458 OA
BRANCH  24  25
ATOM     25  C   UNL A   1      42.671  25.595  26.052  1.00  0.00     0.338 C 
ATOM     26  O   UNL A   1      42.758  26.049  24.924  1.00  0.00    -0.246 OA
BRANCH  25  27
ATOM     27  C   UNL A   1      42.264  26.396  27.214  1.00  0.00     0.060 A 
ATOM     28  C   UNL A   1      42.940  27.592  27.468  1.00  0.00     0.016 A 
ATOM     29  C   UNL A   1      41.272  25.942  28.083  1.00  0.00     0.016 A 
ATOM     30  C   UNL A   1      42.625  28.347  28.594  1.00  0.00     0.010 A 
ATOM     31  C   UNL A   1      40.953  26.704  29.211  1.00  0.00     0.010 A 
ATOM     32  C   UNL A   1      41.633  27.905  29.478  1.00  0.00    -0.014 A 
BRANCH  32  33
ATOM     33  C   UNL A   1      41.340  28.680  30.707  1.00  0.00     0.031 A 
ATOM     34  C   UNL A   1      40.193  29.648  30.723  1.00  0.00     0.074 A 
ATOM     35  C   UNL A   1      42.100  28.510  31.805  1.00  0.00     0.049 A 
ATOM     36  N   UNL A   1      39.831  30.485  31.661  1.00  0.00    -0.248 NA
ATOM     37  C   UNL A   1      39.341  29.682  29.522  1.00  0.00     0.031 C 
ATOM     38  C   UNL A   1      43.213  27.567  31.926  1.00  0.00     0.029 A 
ATOM     39  N   UNL A   1      42.053  29.132  33.027  1.00  0.00    -0.354 N 
ATOM     40  C   UNL A   1      38.730  31.165  31.156  1.00  0.00     0.074 A 
ATOM     41  C   UNL A   1      38.486  30.649  29.826  1.00  0.00     0.031 C 
ATOM     42  C   UNL A   1      43.745  27.675  33.154  1.00  0.00     0.029 A 
ATOM     43  C   UNL A   1      43.044  28.725  33.889  1.00  0.00     0.049 A 
ATOM     44  H   UNL A   1      41.375  29.804  33.265  1.00  0.00     0.167 HD
ATOM     45  C   UNL A   1      37.992  32.134  31.748  1.00  0.00     0.031 A 
ATOM     46  C   UNL A   1      43.370  29.169  35.117  1.00  0.00     0.031 A 
ATOM     47  C   UNL A   1      38.238  32.644  33.071  1.00  0.00     0.049 A 
ATOM     48  C   UNL A   1      42.567  30.279  35.735  1.00  0.00     0.074 A 
ATOM     49  C   UNL A   1      37.540  33.618  33.763  1.00  0.00     0.029 A 
ATOM     50  N   UNL A   1      39.262  32.219  33.904  1.00  0.00    -0.354 N 
ATOM     51  N   UNL A   1      41.530  30.916  35.244  1.00  0.00    -0.248 NA
ATOM     52  C   UNL A   1      42.976  30.732  37.072  1.00  0.00     0.031 C 
ATOM     53  C   UNL A   1      38.168  33.812  34.998  1.00  0.00     0.029 A 
ATOM     54  C   UNL A   1      39.229  32.925  35.094  1.00  0.00     0.049 A 
ATOM     55  H   UNL A   1      39.918  31.518  33.681  1.00  0.00     0.167 HD
ATOM     56  C   UNL A   1      41.154  31.833  36.217  1.00  0.00     0.074 A 
ATOM     57  C   UNL A   1      42.063  31.659  37.331  1.00  0.00     0.031 C 
ATOM     58  C   UNL A   1      40.145  32.740  36.190  1.00  0.00     0.031 A 
BRANCH  45  59
ATOM     59  C   UNL A   1      36.874  32.740  30.943  1.00  0.00    -0.014 A 
ATOM     60  C   UNL A   1      37.122  33.740  29.986  1.00  0.00     0.010 A 
ATOM     61  C   UNL A   1      35.557  32.287  31.136  1.00  0.00     0.010 A 
ATOM     62  C   UNL A   1      36.067  34.305  29.265  1.00  0.00     0.020 A 
ATOM     63  C   UNL A   1      34.501  32.834  30.402  1.00  0.00     0.020 A 
ATOM     64  C   UNL A   1      34.761  33.853  29.484  1.00  0.00     0.054 A 
BRANCH  64  65
ATOM     65  S   UNL A   1      33.407  34.598  28.533  1.00  0.00     0.124 S 
ATOM     66  O   UNL A   1      32.481  34.995  29.591  1.00  0.00    -0.237 OA
ATOM     67  O   UNL A   1      34.069  35.697  27.835  1.00  0.00    -0.237 OA
ATOM     68  O   UNL A   1      32.945  33.509  27.676  1.00  0.00    -0.744 OA
ENDBRANCH  64  65
ENDBRANCH  45  59
BRANCH  46  69
ATOM     69  C   UNL A   1      44.538  28.580  35.828  1.00  0.00    -0.014 A 
ATOM     70  C   UNL A   1      45.811  29.164  35.722  1.00  0.00     0.010 A 
ATOM     71  C   UNL A   1      44.370  27.441  36.638  1.00  0.00     0.010 A 
ATOM     72  C   UNL A   1      46.898  28.617  36.410  1.00  0.00     0.020 A 
ATOM     73  C   UNL A   1      45.449  26.906  37.346  1.00  0.00     0.020 A 
ATOM     74  C   UNL A   1      46.710  27.493  37.221  1.00  0.00     0.054 A 
BRANCH  74  75
ATOM     75  S   UNL A   1      48.118  26.840  38.160  1.00  0.00     0.124 S 
ATOM     76  O   UNL A   1      48.428  25.615  37.431  1.00  0.00    -0.237 OA
ATOM     77  O   UNL A   1      49.104  27.912  38.044  1.00  0.00    -0.237 OA
ATOM     78  O   UNL A   1      47.573  26.650  39.503  1.00  0.00    -0.744 OA
ENDBRANCH  74  75
ENDBRANCH  46  69
BRANCH  58  79
ATOM     79  C   UNL A   1      39.955  33.596  37.413  1.00  0.00    -0.014 A 
ATOM     80  C   UNL A   1      40.612  34.831  37.544  1.00  0.00     0.010 A 
ATOM     81  C   UNL A   1      39.065  33.179  38.420  1.00  0.00     0.010 A 
ATOM     82  C   UNL A   1      40.401  35.625  38.675  1.00  0.00     0.020 A 
ATOM     83  C   UNL A   1      38.834  33.980  39.540  1.00  0.00     0.020 A 
ATOM     84  C   UNL A   1      39.514  35.193  39.667  1.00  0.00     0.054 A 
BRANCH  84  85
ATOM     85  S   UNL A   1      39.221  36.260  41.105  1.00  0.00     0.124 S 
ATOM     86  O   UNL A   1      38.218  35.502  41.846  1.00  0.00    -0.237 OA
ATOM     87  O   UNL A   1      40.541  36.336  41.727  1.00  0.00    -0.237 OA
ATOM     88  O   UNL A   1      38.746  37.510  40.514  1.00  0.00    -0.744 OA
ENDBRANCH  84  85
ENDBRANCH  58  79
ENDBRANCH  32  33
ENDBRANCH  25  27
ENDBRANCH  24  25
ENDBRANCH  23  24
ENDBRANCH   1  23
TORSDOF 20
ENDMDL
