MODEL 1
REMARK VINA RESULT:     -10.3      0.000      0.000
REMARK SMILES Cc1ccc(C[N@H+]2CCC[C@@H](C(=O)OCCOC(=O)c3ccc(-c4c5nc(c(-c6ccc(S(=O)(=O)[O-])cc6)c6ccc([nH]6)c(-c6ccc(S(=O)(=O)[O-])cc6)c6nc(c(-c7ccc(S(=O)(=O)[O-])cc7)c7ccc4[nH]7)C=C6)C=C5)cc3)C2)o1
REMARK SMILES IDX 16 1 15 2 14 3 12 4 13 5 11 6 7 7 8 8 80 9 9 11 10 12 6 13
REMARK SMILES IDX 5 14 1 15 2 16 3 17 81 18 4 19 17 20 18 21 19 22 20 23 21 24
REMARK SMILES IDX 79 25 22 26 78 27 23 28 24 29 25 30 72 31 26 32 77 33 71 34
REMARK SMILES IDX 73 35 27 36 76 37 70 38 69 39 28 41 58 42 39 43 57 44 40 45
REMARK SMILES IDX 43 46 56 47 74 48 41 49 42 50 55 52 75 53 44 54 29 55 30 56
REMARK SMILES IDX 38 57 31 58 37 59 32 60 33 61 34 62 35 63 36 64 59 65 60 66
REMARK SMILES IDX 68 67 61 68 67 69 62 70 63 71 64 72 65 73 66 74 45 75 46 76
REMARK SMILES IDX 54 77 47 78 53 79 48 80 49 81 50 82 51 83 52 84
REMARK H PARENT 7 10 73 40 43 51
REMARK Flexibility Score: inf
ROOT
ATOM      1  C   UNL A   1      36.769  32.026  33.505  1.00  0.00     0.275 C 
ENDROOT
BRANCH   1   2
ATOM      2  C   UNL A   1      36.441  33.484  33.818  1.00  0.00     0.274 C 
BRANCH   2   3
ATOM      3  O   UNL A   1      35.096  33.616  34.316  1.00  0.00    -0.462 OA
BRANCH   3   4
ATOM      4  C   UNL A   1      34.138  33.726  33.354  1.00  0.00     0.314 C 
ATOM      5  O   UNL A   1      33.217  32.930  33.213  1.00  0.00    -0.252 OA
BRANCH   4   6
ATOM      6  C   UNL A   1      34.375  34.924  32.444  1.00  0.00     0.154 C 
ATOM      7  N   UNL A   1      34.122  35.541  30.016  1.00  0.00    -0.328 N 
ATOM      8  C   UNL A   1      33.111  36.549  30.341  1.00  0.00     0.262 C 
ATOM      9  C   UNL A   1      34.111  34.453  31.004  1.00  0.00     0.278 C 
ATOM     10  H   UNL A   1      35.030  36.002  30.060  1.00  0.00     0.348 HD
ATOM     11  C   UNL A   1      33.426  37.166  31.704  1.00  0.00     0.062 C 
ATOM     12  C   UNL A   1      33.488  36.120  32.815  1.00  0.00     0.027 C 
BRANCH   7  13
ATOM     13  C   UNL A   1      33.985  35.024  28.633  1.00  0.00     0.338 C 
BRANCH  13  14
ATOM     14  C   UNL A   1      34.644  33.714  28.347  1.00  0.00     0.158 A 
ATOM     15  C   UNL A   1      33.899  30.380  27.303  1.00  0.00     0.087 C 
ATOM     16  C   UNL A   1      34.601  31.596  27.760  1.00  0.00     0.101 A 
ATOM     17  C   UNL A   1      35.923  31.907  27.988  1.00  0.00     0.046 A 
ATOM     18  O   UNL A   1      33.818  32.680  28.008  1.00  0.00    -0.460 OA
ATOM     19  C   UNL A   1      35.951  33.273  28.368  1.00  0.00     0.052 A 
ENDBRANCH  13  14
ENDBRANCH   7  13
ENDBRANCH   4   6
ENDBRANCH   3   4
ENDBRANCH   2   3
ENDBRANCH   1   2
BRANCH   1  20
ATOM     20  O   UNL A   1      36.913  31.822  32.088  1.00  0.00    -0.458 OA
BRANCH  20  21
ATOM     21  C   UNL A   1      37.158  30.545  31.714  1.00  0.00     0.338 C 
ATOM     22  O   UNL A   1      36.412  29.586  31.818  1.00  0.00    -0.246 OA
BRANCH  21  23
ATOM     23  C   UNL A   1      38.517  30.427  31.166  1.00  0.00     0.060 A 
ATOM     24  C   UNL A   1      38.782  30.838  29.860  1.00  0.00     0.016 A 
ATOM     25  C   UNL A   1      39.493  29.761  31.910  1.00  0.00     0.016 A 
ATOM     26  C   UNL A   1      39.999  30.512  29.266  1.00  0.00     0.010 A 
ATOM     27  C   UNL A   1      40.739  29.498  31.335  1.00  0.00     0.010 A 
ATOM     28  C   UNL A   1      40.990  29.835  29.995  1.00  0.00    -0.014 A 
BRANCH  28  29
ATOM     29  C   UNL A   1      42.269  29.453  29.344  1.00  0.00     0.031 A 
ATOM     30  C   UNL A   1      42.431  28.095  28.718  1.00  0.00     0.074 A 
ATOM     31  C   UNL A   1      43.285  30.337  29.294  1.00  0.00     0.049 A 
ATOM     32  N   UNL A   1      43.494  27.560  28.173  1.00  0.00    -0.248 NA
ATOM     33  C   UNL A   1      41.249  27.218  28.715  1.00  0.00     0.031 C 
ATOM     34  C   UNL A   1      43.252  31.690  29.847  1.00  0.00     0.029 A 
ATOM     35  N   UNL A   1      44.532  30.237  28.732  1.00  0.00    -0.354 N 
ATOM     36  C   UNL A   1      43.130  26.268  27.815  1.00  0.00     0.074 A 
ATOM     37  C   UNL A   1      41.740  26.103  28.190  1.00  0.00     0.031 C 
ATOM     38  C   UNL A   1      44.398  32.318  29.540  1.00  0.00     0.029 A 
ATOM     39  C   UNL A   1      45.269  31.392  28.822  1.00  0.00     0.049 A 
ATOM     40  H   UNL A   1      44.866  29.416  28.304  1.00  0.00     0.167 HD
ATOM     41  C   UNL A   1      43.887  25.300  27.243  1.00  0.00     0.031 A 
ATOM     42  C   UNL A   1      46.512  31.676  28.386  1.00  0.00     0.031 A 
ATOM     43  C   UNL A   1      45.260  25.468  26.852  1.00  0.00     0.049 A 
ATOM     44  C   UNL A   1      47.319  30.600  27.720  1.00  0.00     0.074 A 
ATOM     45  C   UNL A   1      46.120  24.538  26.292  1.00  0.00     0.029 A 
ATOM     46  N   UNL A   1      45.974  26.652  26.969  1.00  0.00    -0.354 N 
ATOM     47  N   UNL A   1      46.974  29.366  27.442  1.00  0.00    -0.248 NA
ATOM     48  C   UNL A   1      48.694  30.948  27.336  1.00  0.00     0.031 C 
ATOM     49  C   UNL A   1      47.362  25.154  26.092  1.00  0.00     0.029 A 
ATOM     50  C   UNL A   1      47.264  26.476  26.497  1.00  0.00     0.049 A 
ATOM     51  H   UNL A   1      45.616  27.493  27.333  1.00  0.00     0.167 HD
ATOM     52  C   UNL A   1      48.095  28.782  26.869  1.00  0.00     0.074 A 
ATOM     53  C   UNL A   1      49.117  29.809  26.802  1.00  0.00     0.031 C 
ATOM     54  C   UNL A   1      48.271  27.504  26.455  1.00  0.00     0.031 A 
BRANCH  41  55
ATOM     55  C   UNL A   1      43.251  23.950  27.068  1.00  0.00    -0.014 A 
ATOM     56  C   UNL A   1      43.113  23.058  28.146  1.00  0.00     0.010 A 
ATOM     57  C   UNL A   1      42.781  23.568  25.797  1.00  0.00     0.010 A 
ATOM     58  C   UNL A   1      42.560  21.789  27.946  1.00  0.00     0.020 A 
ATOM     59  C   UNL A   1      42.212  22.309  25.596  1.00  0.00     0.020 A 
ATOM     60  C   UNL A   1      42.126  21.418  26.669  1.00  0.00     0.054 A 
BRANCH  60  61
ATOM     61  S   UNL A   1      41.422  19.763  26.422  1.00  0.00     0.124 S 
ATOM     62  O   UNL A   1      41.662  19.141  27.722  1.00  0.00    -0.237 OA
ATOM     63  O   UNL A   1      40.024  20.047  26.111  1.00  0.00    -0.237 OA
ATOM     64  O   UNL A   1      42.205  19.218  25.315  1.00  0.00    -0.744 OA
ENDBRANCH  60  61
ENDBRANCH  41  55
BRANCH  42  65
ATOM     65  C   UNL A   1      47.062  33.043  28.574  1.00  0.00    -0.014 A 
ATOM     66  C   UNL A   1      46.866  34.022  27.585  1.00  0.00     0.010 A 
ATOM     67  C   UNL A   1      47.744  33.384  29.755  1.00  0.00     0.010 A 
ATOM     68  C   UNL A   1      47.339  35.324  27.777  1.00  0.00     0.020 A 
ATOM     69  C   UNL A   1      48.199  34.688  29.959  1.00  0.00     0.020 A 
ATOM     70  C   UNL A   1      48.000  35.649  28.965  1.00  0.00     0.054 A 
BRANCH  70  71
ATOM     71  S   UNL A   1      48.532  37.361  29.246  1.00  0.00     0.124 S 
ATOM     72  O   UNL A   1      47.376  38.118  28.774  1.00  0.00    -0.237 OA
ATOM     73  O   UNL A   1      48.765  37.396  30.688  1.00  0.00    -0.237 OA
ATOM     74  O   UNL A   1      49.738  37.475  28.428  1.00  0.00    -0.744 OA
ENDBRANCH  70  71
ENDBRANCH  42  65
BRANCH  54  75
ATOM     75  C   UNL A   1      49.626  27.143  25.915  1.00  0.00    -0.014 A 
ATOM     76  C   UNL A   1      50.593  26.555  26.750  1.00  0.00     0.010 A 
ATOM     77  C   UNL A   1      49.925  27.360  24.559  1.00  0.00     0.010 A 
ATOM     78  C   UNL A   1      51.849  26.213  26.243  1.00  0.00     0.020 A 
ATOM     79  C   UNL A   1      51.174  27.004  24.045  1.00  0.00     0.020 A 
ATOM     80  C   UNL A   1      52.133  26.446  24.894  1.00  0.00     0.054 A 
BRANCH  80  81
ATOM     81  S   UNL A   1      53.757  25.962  24.243  1.00  0.00     0.124 S 
ATOM     82  O   UNL A   1      53.913  24.618  24.791  1.00  0.00    -0.237 OA
ATOM     83  O   UNL A   1      53.563  26.032  22.797  1.00  0.00    -0.237 OA
ATOM     84  O   UNL A   1      54.661  26.970  24.793  1.00  0.00    -0.744 OA
ENDBRANCH  80  81
ENDBRANCH  54  75
ENDBRANCH  28  29
ENDBRANCH  21  23
ENDBRANCH  20  21
ENDBRANCH   1  20
TORSDOF 16
ENDMDL
MODEL 2
REMARK VINA RESULT:     -10.3      3.175     12.106
REMARK SMILES Cc1ccc(C[N@H+]2CCC[C@@H](C(=O)OCCOC(=O)c3ccc(-c4c5nc(c(-c6ccc(S(=O)(=O)[O-])cc6)c6ccc([nH]6)c(-c6ccc(S(=O)(=O)[O-])cc6)c6nc(c(-c7ccc(S(=O)(=O)[O-])cc7)c7ccc4[nH]7)C=C6)C=C5)cc3)C2)o1
REMARK SMILES IDX 16 1 15 2 14 3 12 4 13 5 11 6 7 7 8 8 80 9 9 11 10 12 6 13
REMARK SMILES IDX 5 14 1 15 2 16 3 17 81 18 4 19 17 20 18 21 19 22 20 23 21 24
REMARK SMILES IDX 79 25 22 26 78 27 23 28 24 29 25 30 72 31 26 32 77 33 71 34
REMARK SMILES IDX 73 35 27 36 76 37 70 38 69 39 28 41 58 42 39 43 57 44 40 45
REMARK SMILES IDX 43 46 56 47 74 48 41 49 42 50 55 52 75 53 44 54 29 55 30 56
REMARK SMILES IDX 38 57 31 58 37 59 32 60 33 61 34 62 35 63 36 64 59 65 60 66
REMARK SMILES IDX 68 67 61 68 67 69 62 70 63 71 64 72 65 73 66 74 45 75 46 76
REMARK SMILES IDX 54 77 47 78 53 79 48 80 49 81 50 82 51 83 52 84
REMARK H PARENT 7 10 73 40 43 51
REMARK Flexibility Score: inf
ROOT
ATOM      1  C   UNL A   1      40.364  20.164  26.135  1.00  0.00     0.275 C 
ENDROOT
BRANCH   1   2
ATOM      2  C   UNL A   1      41.310  19.612  27.198  1.00  0.00     0.274 C 
BRANCH   2   3
ATOM      3  O   UNL A   1      42.681  19.695  26.765  1.00  0.00    -0.462 OA
BRANCH   3   4
ATOM      4  C   UNL A   1      43.087  18.678  25.954  1.00  0.00     0.314 C 
ATOM      5  O   UNL A   1      42.693  17.522  26.059  1.00  0.00    -0.252 OA
BRANCH   4   6
ATOM      6  C   UNL A   1      44.124  19.135  24.937  1.00  0.00     0.154 C 
ATOM      7  N   UNL A   1      45.119  21.281  24.074  1.00  0.00    -0.328 N 
ATOM      8  C   UNL A   1      46.438  20.922  24.597  1.00  0.00     0.262 C 
ATOM      9  C   UNL A   1      44.052  20.670  24.880  1.00  0.00     0.278 C 
ATOM     10  H   UNL A   1      45.058  20.904  23.128  1.00  0.00     0.348 HD
ATOM     11  C   UNL A   1      46.620  19.405  24.522  1.00  0.00     0.062 C 
ATOM     12  C   UNL A   1      45.537  18.651  25.291  1.00  0.00     0.027 C 
BRANCH   7  13
ATOM     13  C   UNL A   1      44.936  22.747  23.949  1.00  0.00     0.338 C 
BRANCH  13  14
ATOM     14  C   UNL A   1      45.915  23.603  24.685  1.00  0.00     0.158 A 
ATOM     15  C   UNL A   1      48.511  25.992  24.124  1.00  0.00     0.087 C 
ATOM     16  C   UNL A   1      47.555  25.065  24.762  1.00  0.00     0.101 A 
ATOM     17  C   UNL A   1      47.245  24.762  26.069  1.00  0.00     0.046 A 
ATOM     18  O   UNL A   1      46.774  24.340  23.918  1.00  0.00    -0.460 OA
ATOM     19  C   UNL A   1      46.188  23.818  26.020  1.00  0.00     0.052 A 
ENDBRANCH  13  14
ENDBRANCH   7  13
ENDBRANCH   4   6
ENDBRANCH   3   4
ENDBRANCH   2   3
ENDBRANCH   1   2
BRANCH   1  20
ATOM     20  O   UNL A   1      40.517  21.588  25.997  1.00  0.00    -0.458 OA
BRANCH  20  21
ATOM     21  C   UNL A   1      39.409  22.314  26.275  1.00  0.00     0.338 C 
ATOM     22  O   UNL A   1      38.252  22.023  26.027  1.00  0.00    -0.246 OA
BRANCH  21  23
ATOM     23  C   UNL A   1      39.780  23.582  26.920  1.00  0.00     0.060 A 
ATOM     24  C   UNL A   1      39.364  24.793  26.370  1.00  0.00     0.016 A 
ATOM     25  C   UNL A   1      40.676  23.561  27.991  1.00  0.00     0.016 A 
ATOM     26  C   UNL A   1      39.906  25.989  26.839  1.00  0.00     0.010 A 
ATOM     27  C   UNL A   1      41.164  24.765  28.505  1.00  0.00     0.010 A 
ATOM     28  C   UNL A   1      40.815  25.988  27.909  1.00  0.00    -0.014 A 
BRANCH  28  29
ATOM     29  C   UNL A   1      41.421  27.260  28.377  1.00  0.00     0.031 A 
ATOM     30  C   UNL A   1      42.900  27.497  28.239  1.00  0.00     0.074 A 
ATOM     31  C   UNL A   1      40.638  28.219  28.909  1.00  0.00     0.049 A 
ATOM     32  N   UNL A   1      43.616  28.511  28.656  1.00  0.00    -0.248 NA
ATOM     33  C   UNL A   1      43.681  26.453  27.554  1.00  0.00     0.031 C 
ATOM     34  C   UNL A   1      39.190  28.123  29.083  1.00  0.00     0.029 A 
ATOM     35  N   UNL A   1      40.948  29.471  29.376  1.00  0.00    -0.354 N 
ATOM     36  C   UNL A   1      44.933  28.204  28.339  1.00  0.00     0.074 A 
ATOM     37  C   UNL A   1      44.918  26.915  27.678  1.00  0.00     0.031 C 
ATOM     38  C   UNL A   1      38.727  29.290  29.559  1.00  0.00     0.029 A 
ATOM     39  C   UNL A   1      39.852  30.194  29.778  1.00  0.00     0.049 A 
ATOM     40  H   UNL A   1      41.868  29.818  29.420  1.00  0.00     0.167 HD
ATOM     41  C   UNL A   1      46.055  28.921  28.590  1.00  0.00     0.031 A 
ATOM     42  C   UNL A   1      39.759  31.442  30.277  1.00  0.00     0.031 A 
ATOM     43  C   UNL A   1      46.070  30.209  29.229  1.00  0.00     0.049 A 
ATOM     44  C   UNL A   1      41.012  32.233  30.513  1.00  0.00     0.074 A 
ATOM     45  C   UNL A   1      47.160  31.001  29.554  1.00  0.00     0.029 A 
ATOM     46  N   UNL A   1      44.939  30.904  29.629  1.00  0.00    -0.354 N 
ATOM     47  N   UNL A   1      42.255  31.900  30.257  1.00  0.00    -0.248 NA
ATOM     48  C   UNL A   1      40.852  33.556  31.131  1.00  0.00     0.031 C 
ATOM     49  C   UNL A   1      46.686  32.164  30.173  1.00  0.00     0.029 A 
ATOM     50  C   UNL A   1      45.301  32.111  30.202  1.00  0.00     0.049 A 
ATOM     51  H   UNL A   1      44.014  30.586  29.521  1.00  0.00     0.167 HD
ATOM     52  C   UNL A   1      43.028  32.964  30.702  1.00  0.00     0.074 A 
ATOM     53  C   UNL A   1      42.112  33.969  31.205  1.00  0.00     0.031 C 
ATOM     54  C   UNL A   1      44.377  33.089  30.713  1.00  0.00     0.031 A 
BRANCH  41  55
ATOM     55  C   UNL A   1      47.368  28.284  28.226  1.00  0.00    -0.014 A 
ATOM     56  C   UNL A   1      48.055  28.638  27.052  1.00  0.00     0.010 A 
ATOM     57  C   UNL A   1      47.922  27.312  29.080  1.00  0.00     0.010 A 
ATOM     58  C   UNL A   1      49.251  27.997  26.714  1.00  0.00     0.020 A 
ATOM     59  C   UNL A   1      49.125  26.682  28.754  1.00  0.00     0.020 A 
ATOM     60  C   UNL A   1      49.770  27.013  27.560  1.00  0.00     0.054 A 
BRANCH  60  61
ATOM     61  S   UNL A   1      51.316  26.180  27.101  1.00  0.00     0.124 S 
ATOM     62  O   UNL A   1      52.194  26.550  28.208  1.00  0.00    -0.237 OA
ATOM     63  O   UNL A   1      50.927  24.773  27.052  1.00  0.00    -0.237 OA
ATOM     64  O   UNL A   1      51.656  26.774  25.810  1.00  0.00    -0.744 OA
ENDBRANCH  60  61
ENDBRANCH  41  55
BRANCH  42  65
ATOM     65  C   UNL A   1      38.423  32.010  30.590  1.00  0.00    -0.014 A 
ATOM     66  C   UNL A   1      37.801  31.715  31.815  1.00  0.00     0.010 A 
ATOM     67  C   UNL A   1      37.786  32.880  29.687  1.00  0.00     0.010 A 
ATOM     68  C   UNL A   1      36.566  32.286  32.136  1.00  0.00     0.020 A 
ATOM     69  C   UNL A   1      36.562  33.468  30.014  1.00  0.00     0.020 A 
ATOM     70  C   UNL A   1      35.956  33.161  31.234  1.00  0.00     0.054 A 
BRANCH  70  71
ATOM     71  S   UNL A   1      34.397  33.968  31.695  1.00  0.00     0.124 S 
ATOM     72  O   UNL A   1      34.868  35.185  32.349  1.00  0.00    -0.237 OA
ATOM     73  O   UNL A   1      33.736  34.157  30.406  1.00  0.00    -0.237 OA
ATOM     74  O   UNL A   1      33.760  32.987  32.571  1.00  0.00    -0.744 OA
ENDBRANCH  70  71
ENDBRANCH  42  65
BRANCH  54  75
ATOM     75  C   UNL A   1      44.939  34.348  31.309  1.00  0.00    -0.014 A 
ATOM     76  C   UNL A   1      45.263  34.408  32.677  1.00  0.00     0.010 A 
ATOM     77  C   UNL A   1      45.179  35.468  30.494  1.00  0.00     0.010 A 
ATOM     78  C   UNL A   1      45.794  35.577  33.226  1.00  0.00     0.020 A 
ATOM     79  C   UNL A   1      45.724  36.634  31.037  1.00  0.00     0.020 A 
ATOM     80  C   UNL A   1      46.015  36.685  32.402  1.00  0.00     0.054 A 
BRANCH  80  81
ATOM     81  S   UNL A   1      46.739  38.184  33.125  1.00  0.00     0.124 S 
ATOM     82  O   UNL A   1      46.269  38.112  34.505  1.00  0.00    -0.237 OA
ATOM     83  O   UNL A   1      48.173  37.977  32.938  1.00  0.00    -0.237 OA
ATOM     84  O   UNL A   1      46.165  39.263  32.325  1.00  0.00    -0.744 OA
ENDBRANCH  80  81
ENDBRANCH  54  75
ENDBRANCH  28  29
ENDBRANCH  21  23
ENDBRANCH  20  21
ENDBRANCH   1  20
TORSDOF 16
ENDMDL
MODEL 3
REMARK VINA RESULT:     -10.2      5.662     13.908
REMARK SMILES Cc1ccc(C[N@H+]2CCC[C@@H](C(=O)OCCOC(=O)c3ccc(-c4c5nc(c(-c6ccc(S(=O)(=O)[O-])cc6)c6ccc([nH]6)c(-c6ccc(S(=O)(=O)[O-])cc6)c6nc(c(-c7ccc(S(=O)(=O)[O-])cc7)c7ccc4[nH]7)C=C6)C=C5)cc3)C2)o1
REMARK SMILES IDX 16 1 15 2 14 3 12 4 13 5 11 6 7 7 8 8 80 9 9 11 10 12 6 13
REMARK SMILES IDX 5 14 1 15 2 16 3 17 81 18 4 19 17 20 18 21 19 22 20 23 21 24
REMARK SMILES IDX 79 25 22 26 78 27 23 28 24 29 25 30 72 31 26 32 77 33 71 34
REMARK SMILES IDX 73 35 27 36 76 37 70 38 69 39 28 41 58 42 39 43 57 44 40 45
REMARK SMILES IDX 43 46 56 47 74 48 41 49 42 50 55 52 75 53 44 54 29 55 30 56
REMARK SMILES IDX 38 57 31 58 37 59 32 60 33 61 34 62 35 63 36 64 59 65 60 66
REMARK SMILES IDX 68 67 61 68 67 69 62 70 63 71 64 72 65 73 66 74 45 75 46 76
REMARK SMILES IDX 54 77 47 78 53 79 48 80 49 81 50 82 51 83 52 84
REMARK H PARENT 7 10 73 40 43 51
REMARK Flexibility Score: inf
ROOT
ATOM      1  C   UNL A   1      45.338  25.267  26.260  1.00  0.00     0.275 C 
ENDROOT
BRANCH   1   2
ATOM      2  C   UNL A   1      45.891  23.916  25.817  1.00  0.00     0.274 C 
BRANCH   2   3
ATOM      3  O   UNL A   1      45.769  23.750  24.391  1.00  0.00    -0.462 OA
BRANCH   3   4
ATOM      4  C   UNL A   1      45.117  22.619  24.001  1.00  0.00     0.314 C 
ATOM      5  O   UNL A   1      44.460  22.530  22.971  1.00  0.00    -0.252 OA
BRANCH   4   6
ATOM      6  C   UNL A   1      45.259  21.495  25.020  1.00  0.00     0.154 C 
ATOM      7  N   UNL A   1      43.822  19.755  26.137  1.00  0.00    -0.328 N 
ATOM      8  C   UNL A   1      44.575  18.674  25.500  1.00  0.00     0.262 C 
ATOM      9  C   UNL A   1      43.843  20.967  25.305  1.00  0.00     0.278 C 
ATOM     10  H   UNL A   1      44.289  19.967  27.019  1.00  0.00     0.348 HD
ATOM     11  C   UNL A   1      46.037  19.094  25.343  1.00  0.00     0.062 C 
ATOM     12  C   UNL A   1      46.187  20.377  24.527  1.00  0.00     0.027 C 
BRANCH   7  13
ATOM     13  C   UNL A   1      42.437  19.356  26.485  1.00  0.00     0.338 C 
BRANCH  13  14
ATOM     14  C   UNL A   1      41.481  20.466  26.782  1.00  0.00     0.158 A 
ATOM     15  C   UNL A   1      38.383  21.855  25.676  1.00  0.00     0.087 C 
ATOM     16  C   UNL A   1      39.646  21.614  26.400  1.00  0.00     0.101 A 
ATOM     17  C   UNL A   1      40.257  22.209  27.482  1.00  0.00     0.046 A 
ATOM     18  O   UNL A   1      40.402  20.576  25.952  1.00  0.00    -0.460 OA
ATOM     19  C   UNL A   1      41.442  21.469  27.727  1.00  0.00     0.052 A 
ENDBRANCH  13  14
ENDBRANCH   7  13
ENDBRANCH   4   6
ENDBRANCH   3   4
ENDBRANCH   2   3
ENDBRANCH   1   2
BRANCH   1  20
ATOM     20  O   UNL A   1      44.202  25.647  25.463  1.00  0.00    -0.458 OA
BRANCH  20  21
ATOM     21  C   UNL A   1      43.007  25.205  25.921  1.00  0.00     0.338 C 
ATOM     22  O   UNL A   1      42.392  24.219  25.553  1.00  0.00    -0.246 OA
BRANCH  21  23
ATOM     23  C   UNL A   1      42.487  26.119  26.949  1.00  0.00     0.060 A 
ATOM     24  C   UNL A   1      42.809  27.474  26.907  1.00  0.00     0.016 A 
ATOM     25  C   UNL A   1      41.800  25.587  28.043  1.00  0.00     0.016 A 
ATOM     26  C   UNL A   1      42.516  28.289  27.999  1.00  0.00     0.010 A 
ATOM     27  C   UNL A   1      41.445  26.422  29.105  1.00  0.00     0.010 A 
ATOM     28  C   UNL A   1      41.834  27.771  29.112  1.00  0.00    -0.014 A 
BRANCH  28  29
ATOM     29  C   UNL A   1      41.561  28.634  30.290  1.00  0.00     0.031 A 
ATOM     30  C   UNL A   1      42.495  28.630  31.470  1.00  0.00     0.074 A 
ATOM     31  C   UNL A   1      40.483  29.441  30.294  1.00  0.00     0.049 A 
ATOM     32  N   UNL A   1      42.380  29.258  32.613  1.00  0.00    -0.248 NA
ATOM     33  C   UNL A   1      43.708  27.806  31.358  1.00  0.00     0.031 C 
ATOM     34  C   UNL A   1      39.510  29.551  29.208  1.00  0.00     0.029 A 
ATOM     35  N   UNL A   1      40.039  30.338  31.232  1.00  0.00    -0.354 N 
ATOM     36  C   UNL A   1      43.471  28.862  33.377  1.00  0.00     0.074 A 
ATOM     37  C   UNL A   1      44.247  27.951  32.561  1.00  0.00     0.031 C 
ATOM     38  C   UNL A   1      38.621  30.511  29.511  1.00  0.00     0.029 A 
ATOM     39  C   UNL A   1      38.926  31.039  30.837  1.00  0.00     0.049 A 
ATOM     40  H   UNL A   1      40.477  30.468  32.103  1.00  0.00     0.167 HD
ATOM     41  C   UNL A   1      43.789  29.209  34.648  1.00  0.00     0.031 A 
ATOM     42  C   UNL A   1      38.220  31.995  31.473  1.00  0.00     0.031 A 
ATOM     43  C   UNL A   1      43.030  30.128  35.452  1.00  0.00     0.049 A 
ATOM     44  C   UNL A   1      38.612  32.392  32.866  1.00  0.00     0.074 A 
ATOM     45  C   UNL A   1      43.255  30.522  36.761  1.00  0.00     0.029 A 
ATOM     46  N   UNL A   1      41.903  30.811  35.019  1.00  0.00    -0.354 N 
ATOM     47  N   UNL A   1      39.617  31.962  33.591  1.00  0.00    -0.248 NA
ATOM     48  C   UNL A   1      37.759  33.382  33.536  1.00  0.00     0.031 C 
ATOM     49  C   UNL A   1      42.249  31.424  37.126  1.00  0.00     0.029 A 
ATOM     50  C   UNL A   1      41.418  31.618  36.034  1.00  0.00     0.049 A 
ATOM     51  H   UNL A   1      41.506  30.733  34.122  1.00  0.00     0.167 HD
ATOM     52  C   UNL A   1      39.505  32.614  34.812  1.00  0.00     0.074 A 
ATOM     53  C   UNL A   1      38.359  33.498  34.714  1.00  0.00     0.031 C 
ATOM     54  C   UNL A   1      40.268  32.476  35.923  1.00  0.00     0.031 A 
BRANCH  41  55
ATOM     55  C   UNL A   1      44.982  28.533  35.262  1.00  0.00    -0.014 A 
ATOM     56  C   UNL A   1      46.267  29.099  35.186  1.00  0.00     0.010 A 
ATOM     57  C   UNL A   1      44.811  27.306  35.929  1.00  0.00     0.010 A 
ATOM     58  C   UNL A   1      47.368  28.426  35.726  1.00  0.00     0.020 A 
ATOM     59  C   UNL A   1      45.905  26.639  36.485  1.00  0.00     0.020 A 
ATOM     60  C   UNL A   1      47.181  27.193  36.359  1.00  0.00     0.054 A 
BRANCH  60  61
ATOM     61  S   UNL A   1      48.621  26.326  37.043  1.00  0.00     0.124 S 
ATOM     62  O   UNL A   1      49.523  27.435  37.341  1.00  0.00    -0.237 OA
ATOM     63  O   UNL A   1      48.066  25.639  38.207  1.00  0.00    -0.237 OA
ATOM     64  O   UNL A   1      49.046  25.451  35.953  1.00  0.00    -0.744 OA
ENDBRANCH  60  61
ENDBRANCH  41  55
BRANCH  42  65
ATOM     65  C   UNL A   1      37.067  32.634  30.789  1.00  0.00    -0.014 A 
ATOM     66  C   UNL A   1      35.757  32.213  31.076  1.00  0.00     0.010 A 
ATOM     67  C   UNL A   1      37.267  33.691  29.883  1.00  0.00     0.010 A 
ATOM     68  C   UNL A   1      34.665  32.843  30.473  1.00  0.00     0.020 A 
ATOM     69  C   UNL A   1      36.177  34.335  29.295  1.00  0.00     0.020 A 
ATOM     70  C   UNL A   1      34.882  33.902  29.588  1.00  0.00     0.054 A 
BRANCH  70  71
ATOM     71  S   UNL A   1      33.457  34.774  28.878  1.00  0.00     0.124 S 
ATOM     72  O   UNL A   1      34.079  35.980  28.340  1.00  0.00    -0.237 OA
ATOM     73  O   UNL A   1      32.958  33.824  27.886  1.00  0.00    -0.237 OA
ATOM     74  O   UNL A   1      32.580  34.974  30.029  1.00  0.00    -0.744 OA
ENDBRANCH  70  71
ENDBRANCH  42  65
BRANCH  54  75
ATOM     75  C   UNL A   1      39.872  33.285  37.126  1.00  0.00    -0.014 A 
ATOM     76  C   UNL A   1      38.905  32.801  38.025  1.00  0.00     0.010 A 
ATOM     77  C   UNL A   1      40.494  34.521  37.380  1.00  0.00     0.010 A 
ATOM     78  C   UNL A   1      38.546  33.552  39.146  1.00  0.00     0.020 A 
ATOM     79  C   UNL A   1      40.148  35.267  38.509  1.00  0.00     0.020 A 
ATOM     80  C   UNL A   1      39.166  34.784  39.378  1.00  0.00     0.054 A 
BRANCH  80  81
ATOM     81  S   UNL A   1      38.713  35.729  40.859  1.00  0.00     0.124 S 
ATOM     82  O   UNL A   1      38.459  37.056  40.306  1.00  0.00    -0.237 OA
ATOM     83  O   UNL A   1      37.537  35.018  41.353  1.00  0.00    -0.237 OA
ATOM     84  O   UNL A   1      39.898  35.623  41.709  1.00  0.00    -0.744 OA
ENDBRANCH  80  81
ENDBRANCH  54  75
ENDBRANCH  28  29
ENDBRANCH  21  23
ENDBRANCH  20  21
ENDBRANCH   1  20
TORSDOF 16
ENDMDL
