MODEL 1
REMARK VINA RESULT:     -10.5      0.000      0.000
REMARK SMILES O=C(Cc1ccccc1Nc1c(Cl)cccc1C(F)(F)F)OCCOC(=O)c1ccc(-c2c3nc(c(-c4ccc(S(=O)(=O)[O-])cc4)c4ccc([nH]4)c(-c4ccc(S(=O)(=O)[O-])cc4)c4nc(c(-c5ccc(S(=O)(=O)[O-])cc5)c5ccc2[nH]5)C=C4)C=C3)cc1
REMARK SMILES IDX 23 1 22 2 2 3 1 4 3 5 4 6 5 7 9 8 6 9 8 10 7 11 10 12 11 14
REMARK SMILES IDX 12 15 17 16 13 17 14 18 16 19 15 20 18 21 19 22 20 23 21 24
REMARK SMILES IDX 24 25 25 26 26 27 27 28 28 29 29 30 87 31 30 32 86 33 31 34
REMARK SMILES IDX 32 35 33 36 80 37 34 38 85 39 79 40 81 41 35 42 84 43 78 44
REMARK SMILES IDX 77 45 36 47 66 48 47 49 65 50 48 51 51 52 64 53 82 54 49 55
REMARK SMILES IDX 50 56 63 58 83 59 52 60 37 61 38 62 46 63 39 64 45 65 40 66
REMARK SMILES IDX 41 67 42 68 43 69 44 70 67 71 68 72 76 73 69 74 75 75 70 76
REMARK SMILES IDX 71 77 72 78 73 79 74 80 53 81 54 82 62 83 55 84 61 85 56 86
REMARK SMILES IDX 57 87 58 88 59 89 60 90
REMARK H PARENT 10 13 81 46 51 57
REMARK Flexibility Score: inf
ROOT
ATOM      1  C   UNL A   1      31.679  29.460  26.971  1.00  0.00     0.274 C 
ENDROOT
BRANCH   1   2
ATOM      2  O   UNL A   1      32.358  28.296  27.475  1.00  0.00    -0.462 OA
BRANCH   2   3
ATOM      3  C   UNL A   1      32.661  27.252  26.657  1.00  0.00     0.310 C 
ATOM      4  O   UNL A   1      33.831  27.022  26.357  1.00  0.00    -0.252 OA
BRANCH   3   5
ATOM      5  C   UNL A   1      31.509  26.521  25.999  1.00  0.00     0.160 C 
BRANCH   5   6
ATOM      6  C   UNL A   1      31.562  26.421  24.493  1.00  0.00    -0.013 A 
ATOM      7  C   UNL A   1      31.456  27.607  23.748  1.00  0.00     0.006 A 
ATOM      8  C   UNL A   1      31.685  25.185  23.818  1.00  0.00     0.042 A 
ATOM      9  C   UNL A   1      31.450  27.577  22.357  1.00  0.00     0.000 A 
ATOM     10  C   UNL A   1      31.670  25.176  22.416  1.00  0.00     0.026 A 
ATOM     11  C   UNL A   1      31.553  26.362  21.691  1.00  0.00     0.002 A 
BRANCH   8  12
ATOM     12  N   UNL A   1      31.774  23.976  24.538  1.00  0.00    -0.354 N 
ATOM     13  H   UNL A   1      31.093  23.309  24.289  1.00  0.00     0.167 HD
BRANCH  12  14
ATOM     14  C   UNL A   1      32.659  23.543  25.554  1.00  0.00     0.070 A 
ATOM     15  C   UNL A   1      32.095  23.108  26.782  1.00  0.00     0.065 A 
ATOM     16  C   UNL A   1      34.063  23.514  25.427  1.00  0.00     0.080 A 
ATOM     17  Cl  UNL A   1      30.384  23.213  27.048  1.00  0.00    -0.082 Cl
ATOM     18  C   UNL A   1      32.878  22.596  27.818  1.00  0.00     0.023 A 
ATOM     19  C   UNL A   1      34.836  22.964  26.480  1.00  0.00     0.015 A 
ATOM     20  C   UNL A   1      34.252  22.506  27.658  1.00  0.00     0.002 A 
BRANCH  16  21
ATOM     21  C   UNL A   1      34.832  24.085  24.255  1.00  0.00     0.418 C 
ATOM     22  F   UNL A   1      34.458  23.491  23.076  1.00  0.00    -0.166 F 
ATOM     23  F   UNL A   1      34.601  25.411  24.063  1.00  0.00    -0.166 F 
ATOM     24  F   UNL A   1      36.179  23.908  24.299  1.00  0.00    -0.166 F 
ENDBRANCH  16  21
ENDBRANCH  12  14
ENDBRANCH   8  12
ENDBRANCH   5   6
ENDBRANCH   3   5
ENDBRANCH   2   3
ENDBRANCH   1   2
BRANCH   1  25
ATOM     25  C   UNL A   1      32.526  30.733  27.064  1.00  0.00     0.275 C 
BRANCH  25  26
ATOM     26  O   UNL A   1      33.929  30.424  27.066  1.00  0.00    -0.458 OA
BRANCH  26  27
ATOM     27  C   UNL A   1      34.621  30.954  28.107  1.00  0.00     0.338 C 
ATOM     28  O   UNL A   1      34.200  31.761  28.919  1.00  0.00    -0.246 OA
BRANCH  27  29
ATOM     29  C   UNL A   1      35.928  30.271  28.246  1.00  0.00     0.060 A 
ATOM     30  C   UNL A   1      36.268  29.783  29.515  1.00  0.00     0.016 A 
ATOM     31  C   UNL A   1      36.810  30.100  27.172  1.00  0.00     0.016 A 
ATOM     32  C   UNL A   1      37.507  29.179  29.726  1.00  0.00     0.010 A 
ATOM     33  C   UNL A   1      38.054  29.492  27.386  1.00  0.00     0.010 A 
ATOM     34  C   UNL A   1      38.425  29.065  28.673  1.00  0.00    -0.014 A 
BRANCH  34  35
ATOM     35  C   UNL A   1      39.823  28.670  28.975  1.00  0.00     0.031 A 
ATOM     36  C   UNL A   1      40.699  29.633  29.733  1.00  0.00     0.074 A 
ATOM     37  C   UNL A   1      40.301  27.457  28.639  1.00  0.00     0.049 A 
ATOM     38  N   UNL A   1      41.912  29.466  30.192  1.00  0.00    -0.248 NA
ATOM     39  C   UNL A   1      40.125  30.959  30.014  1.00  0.00     0.031 C 
ATOM     40  C   UNL A   1      39.557  26.418  27.928  1.00  0.00     0.029 A 
ATOM     41  N   UNL A   1      41.533  26.893  28.869  1.00  0.00    -0.354 N 
ATOM     42  C   UNL A   1      42.242  30.658  30.827  1.00  0.00     0.074 A 
ATOM     43  C   UNL A   1      41.120  31.555  30.654  1.00  0.00     0.031 C 
ATOM     44  C   UNL A   1      40.348  25.338  27.788  1.00  0.00     0.029 A 
ATOM     45  C   UNL A   1      41.654  25.612  28.385  1.00  0.00     0.049 A 
ATOM     46  H   UNL A   1      42.261  27.363  29.336  1.00  0.00     0.167 HD
ATOM     47  C   UNL A   1      43.369  30.979  31.506  1.00  0.00     0.031 A 
ATOM     48  C   UNL A   1      42.696  24.758  28.424  1.00  0.00     0.031 A 
ATOM     49  C   UNL A   1      44.500  30.105  31.663  1.00  0.00     0.049 A 
ATOM     50  C   UNL A   1      43.971  25.165  29.120  1.00  0.00     0.074 A 
ATOM     51  C   UNL A   1      45.679  30.338  32.349  1.00  0.00     0.029 A 
ATOM     52  N   UNL A   1      44.601  28.837  31.112  1.00  0.00    -0.354 N 
ATOM     53  N   UNL A   1      44.244  26.275  29.765  1.00  0.00    -0.248 NA
ATOM     54  C   UNL A   1      45.075  24.192  29.105  1.00  0.00     0.031 C 
ATOM     55  C   UNL A   1      46.515  29.230  32.169  1.00  0.00     0.029 A 
ATOM     56  C   UNL A   1      45.835  28.287  31.417  1.00  0.00     0.049 A 
ATOM     57  H   UNL A   1      43.900  28.394  30.581  1.00  0.00     0.167 HD
ATOM     58  C   UNL A   1      45.535  26.118  30.261  1.00  0.00     0.074 A 
ATOM     59  C   UNL A   1      45.987  24.805  29.847  1.00  0.00     0.031 C 
ATOM     60  C   UNL A   1      46.277  26.979  31.001  1.00  0.00     0.031 A 
BRANCH  47  61
ATOM     61  C   UNL A   1      43.435  32.355  32.109  1.00  0.00    -0.014 A 
ATOM     62  C   UNL A   1      43.852  33.461  31.345  1.00  0.00     0.010 A 
ATOM     63  C   UNL A   1      43.072  32.545  33.453  1.00  0.00     0.010 A 
ATOM     64  C   UNL A   1      43.951  34.725  31.932  1.00  0.00     0.020 A 
ATOM     65  C   UNL A   1      43.146  33.813  34.036  1.00  0.00     0.020 A 
ATOM     66  C   UNL A   1      43.607  34.891  33.277  1.00  0.00     0.054 A 
BRANCH  66  67
ATOM     67  S   UNL A   1      43.752  36.540  34.017  1.00  0.00     0.124 S 
ATOM     68  O   UNL A   1      42.350  36.928  34.157  1.00  0.00    -0.237 OA
ATOM     69  O   UNL A   1      44.456  36.273  35.267  1.00  0.00    -0.237 OA
ATOM     70  O   UNL A   1      44.512  37.299  33.026  1.00  0.00    -0.744 OA
ENDBRANCH  66  67
ENDBRANCH  47  61
BRANCH  48  71
ATOM     71  C   UNL A   1      42.584  23.414  27.794  1.00  0.00    -0.014 A 
ATOM     72  C   UNL A   1      41.985  22.347  28.487  1.00  0.00     0.010 A 
ATOM     73  C   UNL A   1      43.096  23.191  26.505  1.00  0.00     0.010 A 
ATOM     74  C   UNL A   1      41.919  21.076  27.909  1.00  0.00     0.020 A 
ATOM     75  C   UNL A   1      43.012  21.926  25.914  1.00  0.00     0.020 A 
ATOM     76  C   UNL A   1      42.434  20.873  26.626  1.00  0.00     0.054 A 
BRANCH  76  77
ATOM     77  S   UNL A   1      42.305  19.225  25.879  1.00  0.00     0.124 S 
ATOM     78  O   UNL A   1      42.877  18.374  26.917  1.00  0.00    -0.237 OA
ATOM     79  O   UNL A   1      40.867  19.085  25.666  1.00  0.00    -0.237 OA
ATOM     80  O   UNL A   1      43.098  19.342  24.657  1.00  0.00    -0.744 OA
ENDBRANCH  76  77
ENDBRANCH  48  71
BRANCH  60  81
ATOM     81  C   UNL A   1      47.641  26.523  31.449  1.00  0.00    -0.014 A 
ATOM     82  C   UNL A   1      47.801  25.654  32.542  1.00  0.00     0.010 A 
ATOM     83  C   UNL A   1      48.779  26.932  30.727  1.00  0.00     0.010 A 
ATOM     84  C   UNL A   1      49.076  25.228  32.925  1.00  0.00     0.020 A 
ATOM     85  C   UNL A   1      50.052  26.486  31.090  1.00  0.00     0.020 A 
ATOM     86  C   UNL A   1      50.195  25.649  32.198  1.00  0.00     0.054 A 
BRANCH  86  87
ATOM     87  S   UNL A   1      51.836  25.050  32.689  1.00  0.00     0.124 S 
ATOM     88  O   UNL A   1      51.596  23.621  32.872  1.00  0.00    -0.237 OA
ATOM     89  O   UNL A   1      52.666  25.405  31.539  1.00  0.00    -0.237 OA
ATOM     90  O   UNL A   1      52.126  25.796  33.911  1.00  0.00    -0.744 OA
ENDBRANCH  86  87
ENDBRANCH  60  81
ENDBRANCH  34  35
ENDBRANCH  27  29
ENDBRANCH  26  27
ENDBRANCH  25  26
ENDBRANCH   1  25
TORSDOF 18
ENDMDL
MODEL 2
REMARK VINA RESULT:     -10.5      3.650      9.343
REMARK SMILES O=C(Cc1ccccc1Nc1c(Cl)cccc1C(F)(F)F)OCCOC(=O)c1ccc(-c2c3nc(c(-c4ccc(S(=O)(=O)[O-])cc4)c4ccc([nH]4)c(-c4ccc(S(=O)(=O)[O-])cc4)c4nc(c(-c5ccc(S(=O)(=O)[O-])cc5)c5ccc2[nH]5)C=C4)C=C3)cc1
REMARK SMILES IDX 23 1 22 2 2 3 1 4 3 5 4 6 5 7 9 8 6 9 8 10 7 11 10 12 11 14
REMARK SMILES IDX 12 15 17 16 13 17 14 18 16 19 15 20 18 21 19 22 20 23 21 24
REMARK SMILES IDX 24 25 25 26 26 27 27 28 28 29 29 30 87 31 30 32 86 33 31 34
REMARK SMILES IDX 32 35 33 36 80 37 34 38 85 39 79 40 81 41 35 42 84 43 78 44
REMARK SMILES IDX 77 45 36 47 66 48 47 49 65 50 48 51 51 52 64 53 82 54 49 55
REMARK SMILES IDX 50 56 63 58 83 59 52 60 37 61 38 62 46 63 39 64 45 65 40 66
REMARK SMILES IDX 41 67 42 68 43 69 44 70 67 71 68 72 76 73 69 74 75 75 70 76
REMARK SMILES IDX 71 77 72 78 73 79 74 80 53 81 54 82 62 83 55 84 61 85 56 86
REMARK SMILES IDX 57 87 58 88 59 89 60 90
REMARK H PARENT 10 13 81 46 51 57
REMARK Flexibility Score: inf
ROOT
ATOM      1  C   UNL A   1      38.031  21.791  25.779  1.00  0.00     0.274 C 
ENDROOT
BRANCH   1   2
ATOM      2  O   UNL A   1      37.940  22.707  24.674  1.00  0.00    -0.462 OA
BRANCH   2   3
ATOM      3  C   UNL A   1      36.759  22.914  24.032  1.00  0.00     0.310 C 
ATOM      4  O   UNL A   1      36.748  23.202  22.837  1.00  0.00    -0.252 OA
BRANCH   3   5
ATOM      5  C   UNL A   1      35.501  22.958  24.875  1.00  0.00     0.160 C 
BRANCH   5   6
ATOM      6  C   UNL A   1      34.280  22.299  24.278  1.00  0.00    -0.013 A 
ATOM      7  C   UNL A   1      34.049  20.944  24.572  1.00  0.00     0.006 A 
ATOM      8  C   UNL A   1      33.390  22.985  23.419  1.00  0.00     0.042 A 
ATOM      9  C   UNL A   1      32.969  20.268  24.014  1.00  0.00     0.000 A 
ATOM     10  C   UNL A   1      32.312  22.283  22.863  1.00  0.00     0.026 A 
ATOM     11  C   UNL A   1      32.103  20.936  23.156  1.00  0.00     0.002 A 
BRANCH   8  12
ATOM     12  N   UNL A   1      33.608  24.339  23.090  1.00  0.00    -0.354 N 
ATOM     13  H   UNL A   1      34.495  24.521  22.704  1.00  0.00     0.167 HD
BRANCH  12  14
ATOM     14  C   UNL A   1      32.787  25.485  23.211  1.00  0.00     0.070 A 
ATOM     15  C   UNL A   1      32.208  26.013  22.028  1.00  0.00     0.065 A 
ATOM     16  C   UNL A   1      32.505  26.137  24.430  1.00  0.00     0.080 A 
ATOM     17  Cl  UNL A   1      32.592  25.327  20.482  1.00  0.00    -0.082 Cl
ATOM     18  C   UNL A   1      31.328  27.096  22.052  1.00  0.00     0.023 A 
ATOM     19  C   UNL A   1      31.587  27.217  24.435  1.00  0.00     0.015 A 
ATOM     20  C   UNL A   1      31.001  27.687  23.263  1.00  0.00     0.002 A 
BRANCH  16  21
ATOM     21  C   UNL A   1      33.160  25.805  25.753  1.00  0.00     0.418 C 
ATOM     22  F   UNL A   1      32.772  26.682  26.735  1.00  0.00    -0.166 F 
ATOM     23  F   UNL A   1      32.810  24.579  26.227  1.00  0.00    -0.166 F 
ATOM     24  F   UNL A   1      34.517  25.874  25.767  1.00  0.00    -0.166 F 
ENDBRANCH  16  21
ENDBRANCH  12  14
ENDBRANCH   8  12
ENDBRANCH   5   6
ENDBRANCH   3   5
ENDBRANCH   2   3
ENDBRANCH   1   2
BRANCH   1  25
ATOM     25  C   UNL A   1      38.939  20.592  25.487  1.00  0.00     0.275 C 
BRANCH  25  26
ATOM     26  O   UNL A   1      39.787  20.297  26.609  1.00  0.00    -0.458 OA
BRANCH  26  27
ATOM     27  C   UNL A   1      41.091  20.089  26.290  1.00  0.00     0.338 C 
ATOM     28  O   UNL A   1      41.551  19.106  25.733  1.00  0.00    -0.246 OA
BRANCH  27  29
ATOM     29  C   UNL A   1      41.876  21.319  26.546  1.00  0.00     0.060 A 
ATOM     30  C   UNL A   1      42.191  21.616  27.878  1.00  0.00     0.016 A 
ATOM     31  C   UNL A   1      42.305  22.169  25.519  1.00  0.00     0.016 A 
ATOM     32  C   UNL A   1      42.880  22.787  28.193  1.00  0.00     0.010 A 
ATOM     33  C   UNL A   1      42.998  23.345  25.837  1.00  0.00     0.010 A 
ATOM     34  C   UNL A   1      43.253  23.679  27.179  1.00  0.00    -0.014 A 
BRANCH  34  35
ATOM     35  C   UNL A   1      43.740  25.031  27.551  1.00  0.00     0.031 A 
ATOM     36  C   UNL A   1      45.189  25.367  27.318  1.00  0.00     0.074 A 
ATOM     37  C   UNL A   1      42.906  25.972  28.033  1.00  0.00     0.049 A 
ATOM     38  N   UNL A   1      45.811  26.508  27.470  1.00  0.00    -0.248 NA
ATOM     39  C   UNL A   1      46.049  24.271  26.843  1.00  0.00     0.031 C 
ATOM     40  C   UNL A   1      41.477  25.793  28.284  1.00  0.00     0.029 A 
ATOM     41  N   UNL A   1      43.150  27.277  28.386  1.00  0.00    -0.354 N 
ATOM     42  C   UNL A   1      47.130  26.270  27.099  1.00  0.00     0.074 A 
ATOM     43  C   UNL A   1      47.228  24.868  26.758  1.00  0.00     0.031 C 
ATOM     44  C   UNL A   1      40.968  26.951  28.743  1.00  0.00     0.029 A 
ATOM     45  C   UNL A   1      42.036  27.948  28.831  1.00  0.00     0.049 A 
ATOM     46  H   UNL A   1      44.040  27.694  28.326  1.00  0.00     0.167 HD
ATOM     47  C   UNL A   1      48.167  27.140  27.032  1.00  0.00     0.031 A 
ATOM     48  C   UNL A   1      41.891  29.219  29.255  1.00  0.00     0.031 A 
ATOM     49  C   UNL A   1      48.087  28.529  27.394  1.00  0.00     0.049 A 
ATOM     50  C   UNL A   1      43.077  30.150  29.246  1.00  0.00     0.074 A 
ATOM     51  C   UNL A   1      49.082  29.490  27.342  1.00  0.00     0.029 A 
ATOM     52  N   UNL A   1      46.953  29.153  27.889  1.00  0.00    -0.354 N 
ATOM     53  N   UNL A   1      44.304  29.924  28.836  1.00  0.00    -0.248 NA
ATOM     54  C   UNL A   1      42.854  31.516  29.743  1.00  0.00     0.031 C 
ATOM     55  C   UNL A   1      48.563  30.683  27.857  1.00  0.00     0.029 A 
ATOM     56  C   UNL A   1      47.231  30.478  28.176  1.00  0.00     0.049 A 
ATOM     57  H   UNL A   1      46.079  28.717  28.018  1.00  0.00     0.167 HD
ATOM     58  C   UNL A   1      44.985  31.127  28.993  1.00  0.00     0.074 A 
ATOM     59  C   UNL A   1      44.035  32.080  29.530  1.00  0.00     0.031 C 
ATOM     60  C   UNL A   1      46.279  31.420  28.710  1.00  0.00     0.031 A 
BRANCH  47  61
ATOM     61  C   UNL A   1      49.489  26.591  26.572  1.00  0.00    -0.014 A 
ATOM     62  C   UNL A   1      50.370  25.969  27.476  1.00  0.00     0.010 A 
ATOM     63  C   UNL A   1      49.854  26.695  25.219  1.00  0.00     0.010 A 
ATOM     64  C   UNL A   1      51.614  25.506  27.043  1.00  0.00     0.020 A 
ATOM     65  C   UNL A   1      51.087  26.209  24.777  1.00  0.00     0.020 A 
ATOM     66  C   UNL A   1      51.969  25.638  25.697  1.00  0.00     0.054 A 
BRANCH  66  67
ATOM     67  S   UNL A   1      53.593  25.034  25.160  1.00  0.00     0.124 S 
ATOM     68  O   UNL A   1      53.674  25.566  23.801  1.00  0.00    -0.237 OA
ATOM     69  O   UNL A   1      54.500  25.644  26.126  1.00  0.00    -0.237 OA
ATOM     70  O   UNL A   1      53.470  23.581  25.254  1.00  0.00    -0.744 OA
ENDBRANCH  66  67
ENDBRANCH  47  61
BRANCH  48  71
ATOM     71  C   UNL A   1      40.563  29.705  29.719  1.00  0.00    -0.014 A 
ATOM     72  C   UNL A   1      40.217  29.653  31.081  1.00  0.00     0.010 A 
ATOM     73  C   UNL A   1      39.628  30.204  28.794  1.00  0.00     0.010 A 
ATOM     74  C   UNL A   1      38.953  30.071  31.507  1.00  0.00     0.020 A 
ATOM     75  C   UNL A   1      38.371  30.645  29.220  1.00  0.00     0.020 A 
ATOM     76  C   UNL A   1      38.037  30.563  30.573  1.00  0.00     0.054 A 
BRANCH  76  77
ATOM     77  S   UNL A   1      36.416  31.137  31.151  1.00  0.00     0.124 S 
ATOM     78  O   UNL A   1      35.595  30.987  29.955  1.00  0.00    -0.237 OA
ATOM     79  O   UNL A   1      36.122  30.211  32.241  1.00  0.00    -0.237 OA
ATOM     80  O   UNL A   1      36.671  32.514  31.567  1.00  0.00    -0.744 OA
ENDBRANCH  76  77
ENDBRANCH  48  71
BRANCH  60  81
ATOM     81  C   UNL A   1      46.742  32.837  28.935  1.00  0.00    -0.014 A 
ATOM     82  C   UNL A   1      46.617  33.816  27.934  1.00  0.00     0.010 A 
ATOM     83  C   UNL A   1      47.262  33.203  30.191  1.00  0.00     0.010 A 
ATOM     84  C   UNL A   1      47.034  35.129  28.174  1.00  0.00     0.020 A 
ATOM     85  C   UNL A   1      47.655  34.520  30.443  1.00  0.00     0.020 A 
ATOM     86  C   UNL A   1      47.553  35.472  29.427  1.00  0.00     0.054 A 
BRANCH  86  87
ATOM     87  S   UNL A   1      48.051  37.191  29.729  1.00  0.00     0.124 S 
ATOM     88  O   UNL A   1      48.679  37.098  31.044  1.00  0.00    -0.237 OA
ATOM     89  O   UNL A   1      48.959  37.465  28.617  1.00  0.00    -0.237 OA
ATOM     90  O   UNL A   1      46.790  37.928  29.690  1.00  0.00    -0.744 OA
ENDBRANCH  86  87
ENDBRANCH  60  81
ENDBRANCH  34  35
ENDBRANCH  27  29
ENDBRANCH  26  27
ENDBRANCH  25  26
ENDBRANCH   1  25
TORSDOF 18
ENDMDL
MODEL 3
REMARK VINA RESULT:     -10.4      3.158      3.702
REMARK SMILES O=C(Cc1ccccc1Nc1c(Cl)cccc1C(F)(F)F)OCCOC(=O)c1ccc(-c2c3nc(c(-c4ccc(S(=O)(=O)[O-])cc4)c4ccc([nH]4)c(-c4ccc(S(=O)(=O)[O-])cc4)c4nc(c(-c5ccc(S(=O)(=O)[O-])cc5)c5ccc2[nH]5)C=C4)C=C3)cc1
REMARK SMILES IDX 23 1 22 2 2 3 1 4 3 5 4 6 5 7 9 8 6 9 8 10 7 11 10 12 11 14
REMARK SMILES IDX 12 15 17 16 13 17 14 18 16 19 15 20 18 21 19 22 20 23 21 24
REMARK SMILES IDX 24 25 25 26 26 27 27 28 28 29 29 30 87 31 30 32 86 33 31 34
REMARK SMILES IDX 32 35 33 36 80 37 34 38 85 39 79 40 81 41 35 42 84 43 78 44
REMARK SMILES IDX 77 45 36 47 66 48 47 49 65 50 48 51 51 52 64 53 82 54 49 55
REMARK SMILES IDX 50 56 63 58 83 59 52 60 37 61 38 62 46 63 39 64 45 65 40 66
REMARK SMILES IDX 41 67 42 68 43 69 44 70 67 71 68 72 76 73 69 74 75 75 70 76
REMARK SMILES IDX 71 77 72 78 73 79 74 80 53 81 54 82 62 83 55 84 61 85 56 86
REMARK SMILES IDX 57 87 58 88 59 89 60 90
REMARK H PARENT 10 13 81 46 51 57
REMARK Flexibility Score: inf
ROOT
ATOM      1  C   UNL A   1      31.661  29.296  26.762  1.00  0.00     0.274 C 
ENDROOT
BRANCH   1   2
ATOM      2  O   UNL A   1      32.161  28.115  27.414  1.00  0.00    -0.462 OA
BRANCH   2   3
ATOM      3  C   UNL A   1      32.345  26.958  26.723  1.00  0.00     0.310 C 
ATOM      4  O   UNL A   1      31.568  26.017  26.876  1.00  0.00    -0.252 OA
BRANCH   3   5
ATOM      5  C   UNL A   1      33.622  26.817  25.921  1.00  0.00     0.160 C 
BRANCH   5   6
ATOM      6  C   UNL A   1      33.457  26.382  24.484  1.00  0.00    -0.013 A 
ATOM      7  C   UNL A   1      33.497  27.371  23.486  1.00  0.00     0.006 A 
ATOM      8  C   UNL A   1      33.237  25.035  24.118  1.00  0.00     0.042 A 
ATOM      9  C   UNL A   1      33.304  27.042  22.148  1.00  0.00     0.000 A 
ATOM     10  C   UNL A   1      33.038  24.725  22.766  1.00  0.00     0.026 A 
ATOM     11  C   UNL A   1      33.070  25.720  21.788  1.00  0.00     0.002 A 
BRANCH   8  12
ATOM     12  N   UNL A   1      33.172  24.023  25.099  1.00  0.00    -0.354 N 
ATOM     13  H   UNL A   1      32.819  24.328  25.967  1.00  0.00     0.167 HD
BRANCH  12  14
ATOM     14  C   UNL A   1      33.520  22.652  25.069  1.00  0.00     0.070 A 
ATOM     15  C   UNL A   1      32.496  21.704  25.327  1.00  0.00     0.065 A 
ATOM     16  C   UNL A   1      34.815  22.166  24.797  1.00  0.00     0.080 A 
ATOM     17  Cl  UNL A   1      30.904  22.230  25.770  1.00  0.00    -0.082 Cl
ATOM     18  C   UNL A   1      32.722  20.329  25.250  1.00  0.00     0.023 A 
ATOM     19  C   UNL A   1      35.016  20.766  24.696  1.00  0.00     0.015 A 
ATOM     20  C   UNL A   1      33.982  19.859  24.914  1.00  0.00     0.002 A 
BRANCH  16  21
ATOM     21  C   UNL A   1      36.047  23.033  24.656  1.00  0.00     0.418 C 
ATOM     22  F   UNL A   1      36.059  23.691  23.452  1.00  0.00    -0.166 F 
ATOM     23  F   UNL A   1      36.112  24.020  25.589  1.00  0.00    -0.166 F 
ATOM     24  F   UNL A   1      37.234  22.371  24.681  1.00  0.00    -0.166 F 
ENDBRANCH  16  21
ENDBRANCH  12  14
ENDBRANCH   8  12
ENDBRANCH   5   6
ENDBRANCH   3   5
ENDBRANCH   2   3
ENDBRANCH   1   2
BRANCH   1  25
ATOM     25  C   UNL A   1      32.736  30.367  26.562  1.00  0.00     0.275 C 
BRANCH  25  26
ATOM     26  O   UNL A   1      33.809  30.210  27.506  1.00  0.00    -0.458 OA
BRANCH  26  27
ATOM     27  C   UNL A   1      34.676  31.254  27.552  1.00  0.00     0.338 C 
ATOM     28  O   UNL A   1      34.403  32.429  27.370  1.00  0.00    -0.246 OA
BRANCH  27  29
ATOM     29  C   UNL A   1      35.995  30.795  28.045  1.00  0.00     0.060 A 
ATOM     30  C   UNL A   1      36.188  29.413  28.173  1.00  0.00     0.016 A 
ATOM     31  C   UNL A   1      37.029  31.679  28.376  1.00  0.00     0.016 A 
ATOM     32  C   UNL A   1      37.387  28.915  28.684  1.00  0.00     0.010 A 
ATOM     33  C   UNL A   1      38.233  31.177  28.888  1.00  0.00     0.010 A 
ATOM     34  C   UNL A   1      38.402  29.795  29.082  1.00  0.00    -0.014 A 
BRANCH  34  35
ATOM     35  C   UNL A   1      39.548  29.267  29.864  1.00  0.00     0.031 A 
ATOM     36  C   UNL A   1      39.733  29.739  31.283  1.00  0.00     0.074 A 
ATOM     37  C   UNL A   1      40.381  28.341  29.355  1.00  0.00     0.049 A 
ATOM     38  N   UNL A   1      40.596  29.343  32.182  1.00  0.00    -0.248 NA
ATOM     39  C   UNL A   1      38.818  30.793  31.748  1.00  0.00     0.031 C 
ATOM     40  C   UNL A   1      40.304  27.777  28.008  1.00  0.00     0.029 A 
ATOM     41  N   UNL A   1      41.456  27.703  29.927  1.00  0.00    -0.354 N 
ATOM     42  C   UNL A   1      40.320  30.088  33.323  1.00  0.00     0.074 A 
ATOM     43  C   UNL A   1      39.241  30.992  32.988  1.00  0.00     0.031 C 
ATOM     44  C   UNL A   1      41.286  26.868  27.861  1.00  0.00     0.029 A 
ATOM     45  C   UNL A   1      42.067  26.795  29.096  1.00  0.00     0.049 A 
ATOM     46  H   UNL A   1      41.759  27.879  30.847  1.00  0.00     0.167 HD
ATOM     47  C   UNL A   1      40.900  30.022  34.545  1.00  0.00     0.031 A 
ATOM     48  C   UNL A   1      43.131  25.995  29.306  1.00  0.00     0.031 A 
ATOM     49  C   UNL A   1      41.989  29.148  34.882  1.00  0.00     0.049 A 
ATOM     50  C   UNL A   1      43.811  25.993  30.653  1.00  0.00     0.074 A 
ATOM     51  C   UNL A   1      42.629  28.999  36.101  1.00  0.00     0.029 A 
ATOM     52  N   UNL A   1      42.612  28.284  33.995  1.00  0.00    -0.354 N 
ATOM     53  N   UNL A   1      43.499  26.663  31.738  1.00  0.00    -0.248 NA
ATOM     54  C   UNL A   1      44.979  25.112  30.806  1.00  0.00     0.031 C 
ATOM     55  C   UNL A   1      43.674  28.084  35.936  1.00  0.00     0.029 A 
ATOM     56  C   UNL A   1      43.649  27.622  34.631  1.00  0.00     0.049 A 
ATOM     57  H   UNL A   1      42.356  28.160  33.052  1.00  0.00     0.167 HD
ATOM     58  C   UNL A   1      44.410  26.257  32.709  1.00  0.00     0.074 A 
ATOM     59  C   UNL A   1      45.280  25.281  32.087  1.00  0.00     0.031 C 
ATOM     60  C   UNL A   1      44.511  26.651  34.003  1.00  0.00     0.031 A 
BRANCH  47  61
ATOM     61  C   UNL A   1      40.371  30.953  35.603  1.00  0.00    -0.014 A 
ATOM     62  C   UNL A   1      39.048  30.843  36.069  1.00  0.00     0.010 A 
ATOM     63  C   UNL A   1      41.209  31.946  36.138  1.00  0.00     0.010 A 
ATOM     64  C   UNL A   1      38.558  31.743  37.017  1.00  0.00     0.020 A 
ATOM     65  C   UNL A   1      40.729  32.833  37.106  1.00  0.00     0.020 A 
ATOM     66  C   UNL A   1      39.399  32.739  37.523  1.00  0.00     0.054 A 
BRANCH  66  67
ATOM     67  S   UNL A   1      38.737  33.900  38.749  1.00  0.00     0.124 S 
ATOM     68  O   UNL A   1      37.338  33.484  38.829  1.00  0.00    -0.237 OA
ATOM     69  O   UNL A   1      39.544  33.616  39.932  1.00  0.00    -0.237 OA
ATOM     70  O   UNL A   1      38.964  35.210  38.143  1.00  0.00    -0.744 OA
ENDBRANCH  66  67
ENDBRANCH  47  61
BRANCH  48  71
ATOM     71  C   UNL A   1      43.625  25.107  28.218  1.00  0.00    -0.014 A 
ATOM     72  C   UNL A   1      44.680  25.516  27.384  1.00  0.00     0.010 A 
ATOM     73  C   UNL A   1      43.025  23.854  28.000  1.00  0.00     0.010 A 
ATOM     74  C   UNL A   1      45.113  24.697  26.337  1.00  0.00     0.020 A 
ATOM     75  C   UNL A   1      43.471  23.022  26.968  1.00  0.00     0.020 A 
ATOM     76  C   UNL A   1      44.504  23.455  26.134  1.00  0.00     0.054 A 
BRANCH  76  77
ATOM     77  S   UNL A   1      45.106  22.391  24.794  1.00  0.00     0.124 S 
ATOM     78  O   UNL A   1      44.055  21.383  24.710  1.00  0.00    -0.237 OA
ATOM     79  O   UNL A   1      45.189  23.316  23.667  1.00  0.00    -0.237 OA
ATOM     80  O   UNL A   1      46.394  21.913  25.292  1.00  0.00    -0.744 OA
ENDBRANCH  76  77
ENDBRANCH  48  71
BRANCH  60  81
ATOM     81  C   UNL A   1      45.573  26.001  34.852  1.00  0.00    -0.014 A 
ATOM     82  C   UNL A   1      46.866  26.547  34.951  1.00  0.00     0.010 A 
ATOM     83  C   UNL A   1      45.254  24.855  35.604  1.00  0.00     0.010 A 
ATOM     84  C   UNL A   1      47.829  25.939  35.762  1.00  0.00     0.020 A 
ATOM     85  C   UNL A   1      46.206  24.261  36.436  1.00  0.00     0.020 A 
ATOM     86  C   UNL A   1      47.494  24.797  36.498  1.00  0.00     0.054 A 
BRANCH  86  87
ATOM     87  S   UNL A   1      48.748  24.049  37.575  1.00  0.00     0.124 S 
ATOM     88  O   UNL A   1      48.637  22.634  37.232  1.00  0.00    -0.237 OA
ATOM     89  O   UNL A   1      49.980  24.706  37.142  1.00  0.00    -0.237 OA
ATOM     90  O   UNL A   1      48.303  24.401  38.921  1.00  0.00    -0.744 OA
ENDBRANCH  86  87
ENDBRANCH  60  81
ENDBRANCH  34  35
ENDBRANCH  27  29
ENDBRANCH  26  27
ENDBRANCH  25  26
ENDBRANCH   1  25
TORSDOF 18
ENDMDL
