MODEL 1
REMARK VINA RESULT:     -11.6      0.000      0.000
REMARK SMILES CCc1sc(NC(=O)[C@H]2CC(C)=C(C)C[C@H]2C(=O)OCCOC(=O)c2ccc(-c3c4nc(c(-c5ccc(S(=O)(=O)[O-])cc5)c5ccc([nH]5)c(-c5ccc(S(=O)(=O)[O-])cc5)c5nc(c(-c6ccc(S(=O)(=O)[O-])cc6)c6ccc3[nH]6)C=C5)C=C4)cc2)nc1-c1ccccc1
REMARK SMILES IDX 20 1 19 2 17 3 18 4 16 5 9 6 10 7 11 8 15 9 12 10 13 11
REMARK SMILES IDX 14 12 7 13 6 14 8 16 5 17 3 18 4 19 86 20 85 21 2 22 1 23
REMARK SMILES IDX 87 24 88 25 92 26 89 27 91 28 90 29 21 30 22 31 23 32 24 33
REMARK SMILES IDX 25 34 26 35 84 36 27 37 83 38 28 39 29 40 30 41 77 42 31 43
REMARK SMILES IDX 82 44 76 45 78 46 32 47 81 48 75 49 74 50 33 52 63 53 44 54
REMARK SMILES IDX 62 55 45 56 48 57 61 58 79 59 46 60 47 61 60 63 80 64 49 65
REMARK SMILES IDX 34 66 35 67 43 68 36 69 42 70 37 71 38 72 39 73 40 74 41 75
REMARK SMILES IDX 64 76 65 77 73 78 66 79 72 80 67 81 68 82 69 83 70 84 71 85
REMARK SMILES IDX 50 86 51 87 59 88 52 89 58 90 53 91 54 92 55 93 56 94 57 95
REMARK H PARENT 6 15 78 51 48 62
REMARK Flexibility Score: inf
ROOT
ATOM      1  C   UNL A   1      33.309  27.624  26.437  1.00  0.00     0.274 C 
ENDROOT
BRANCH   1   2
ATOM      2  O   UNL A   1      33.844  27.261  25.150  1.00  0.00    -0.462 OA
BRANCH   2   3
ATOM      3  C   UNL A   1      33.848  25.954  24.851  1.00  0.00     0.310 C 
ATOM      4  O   UNL A   1      34.803  25.213  25.079  1.00  0.00    -0.252 OA
BRANCH   3   5
ATOM      5  C   UNL A   1      32.618  25.438  24.121  1.00  0.00     0.116 C 
ATOM      6  C   UNL A   1      31.516  24.570  24.786  1.00  0.00     0.097 C 
ATOM      7  C   UNL A   1      30.073  25.014  24.484  1.00  0.00     0.045 C 
ATOM      8  C   UNL A   1      29.804  26.342  23.852  1.00  0.00    -0.074 C 
ATOM      9  C   UNL A   1      32.177  26.550  23.152  1.00  0.00     0.046 C 
ATOM     10  C   UNL A   1      28.347  26.730  23.887  1.00  0.00     0.039 C 
ATOM     11  C   UNL A   1      30.766  27.048  23.238  1.00  0.00    -0.073 C 
ATOM     12  C   UNL A   1      30.494  28.335  22.506  1.00  0.00     0.039 C 
BRANCH   6  13
ATOM     13  C   UNL A   1      31.606  24.207  26.284  1.00  0.00     0.230 C 
ATOM     14  N   UNL A   1      32.835  23.871  26.827  1.00  0.00    -0.302 N 
ATOM     15  H   UNL A   1      33.276  24.460  27.482  1.00  0.00     0.172 HD
ATOM     16  O   UNL A   1      30.620  24.099  27.015  1.00  0.00    -0.274 OA
BRANCH  14  17
ATOM     17  C   UNL A   1      33.422  22.693  26.428  1.00  0.00     0.190 A 
ATOM     18  C   UNL A   1      35.073  21.151  25.609  1.00  0.00     0.034 A 
ATOM     19  S   UNL A   1      35.008  22.312  26.904  1.00  0.00    -0.101 S 
ATOM     20  C   UNL A   1      33.759  20.870  25.246  1.00  0.00     0.087 A 
ATOM     21  N   UNL A   1      32.816  21.775  25.720  1.00  0.00    -0.220 NA
BRANCH  18  22
ATOM     22  C   UNL A   1      36.431  20.705  25.148  1.00  0.00     0.046 C 
ATOM     23  C   UNL A   1      37.233  21.700  24.328  1.00  0.00     0.010 C 
ENDBRANCH  18  22
BRANCH  20  24
ATOM     24  C   UNL A   1      33.338  19.809  24.349  1.00  0.00     0.001 A 
ATOM     25  C   UNL A   1      33.723  18.484  24.583  1.00  0.00     0.010 A 
ATOM     26  C   UNL A   1      32.513  20.102  23.256  1.00  0.00     0.010 A 
ATOM     27  C   UNL A   1      33.329  17.471  23.707  1.00  0.00     0.001 A 
ATOM     28  C   UNL A   1      32.116  19.087  22.383  1.00  0.00     0.001 A 
ATOM     29  C   UNL A   1      32.531  17.774  22.604  1.00  0.00     0.000 A 
ENDBRANCH  20  24
ENDBRANCH  14  17
ENDBRANCH   6  13
ENDBRANCH   3   5
ENDBRANCH   2   3
ENDBRANCH   1   2
BRANCH   1  30
ATOM     30  C   UNL A   1      33.137  29.143  26.579  1.00  0.00     0.275 C 
BRANCH  30  31
ATOM     31  O   UNL A   1      33.587  29.636  27.860  1.00  0.00    -0.458 OA
BRANCH  31  32
ATOM     32  C   UNL A   1      34.514  30.618  27.821  1.00  0.00     0.338 C 
ATOM     33  O   UNL A   1      34.315  31.819  27.678  1.00  0.00    -0.246 OA
BRANCH  32  34
ATOM     34  C   UNL A   1      35.852  30.082  28.110  1.00  0.00     0.060 A 
ATOM     35  C   UNL A   1      36.114  29.631  29.407  1.00  0.00     0.016 A 
ATOM     36  C   UNL A   1      36.869  30.115  27.156  1.00  0.00     0.016 A 
ATOM     37  C   UNL A   1      37.391  29.216  29.764  1.00  0.00     0.010 A 
ATOM     38  C   UNL A   1      38.154  29.691  27.514  1.00  0.00     0.010 A 
ATOM     39  C   UNL A   1      38.422  29.247  28.821  1.00  0.00    -0.014 A 
BRANCH  39  40
ATOM     40  C   UNL A   1      39.786  28.833  29.221  1.00  0.00     0.031 A 
ATOM     41  C   UNL A   1      40.645  29.759  30.031  1.00  0.00     0.074 A 
ATOM     42  C   UNL A   1      40.232  27.609  28.883  1.00  0.00     0.049 A 
ATOM     43  N   UNL A   1      41.888  29.613  30.406  1.00  0.00    -0.248 NA
ATOM     44  C   UNL A   1      40.020  31.013  30.481  1.00  0.00     0.031 C 
ATOM     45  C   UNL A   1      39.455  26.596  28.164  1.00  0.00     0.029 A 
ATOM     46  N   UNL A   1      41.441  27.006  29.108  1.00  0.00    -0.354 N 
ATOM     47  C   UNL A   1      42.206  30.765  31.116  1.00  0.00     0.074 A 
ATOM     48  C   UNL A   1      41.025  31.603  31.111  1.00  0.00     0.031 C 
ATOM     49  C   UNL A   1      40.203  25.490  28.023  1.00  0.00     0.029 A 
ATOM     50  C   UNL A   1      41.527  25.737  28.588  1.00  0.00     0.049 A 
ATOM     51  H   UNL A   1      42.178  27.440  29.597  1.00  0.00     0.167 HD
ATOM     52  C   UNL A   1      43.379  31.093  31.711  1.00  0.00     0.031 A 
ATOM     53  C   UNL A   1      42.563  24.879  28.546  1.00  0.00     0.031 A 
ATOM     54  C   UNL A   1      44.550  30.257  31.697  1.00  0.00     0.049 A 
ATOM     55  C   UNL A   1      43.879  25.300  29.138  1.00  0.00     0.074 A 
ATOM     56  C   UNL A   1      45.797  30.506  32.244  1.00  0.00     0.029 A 
ATOM     57  N   UNL A   1      44.618  29.005  31.101  1.00  0.00    -0.354 N 
ATOM     58  N   UNL A   1      44.181  26.414  29.762  1.00  0.00    -0.248 NA
ATOM     59  C   UNL A   1      44.995  24.354  29.009  1.00  0.00     0.031 C 
ATOM     60  C   UNL A   1      46.630  29.420  31.946  1.00  0.00     0.029 A 
ATOM     61  C   UNL A   1      45.888  28.476  31.252  1.00  0.00     0.049 A 
ATOM     62  H   UNL A   1      43.872  28.560  30.639  1.00  0.00     0.167 HD
ATOM     63  C   UNL A   1      45.521  26.299  30.111  1.00  0.00     0.074 A 
ATOM     64  C   UNL A   1      45.965  25.002  29.641  1.00  0.00     0.031 C 
ATOM     65  C   UNL A   1      46.311  27.187  30.763  1.00  0.00     0.031 A 
BRANCH  52  66
ATOM     66  C   UNL A   1      43.454  32.442  32.374  1.00  0.00    -0.014 A 
ATOM     67  C   UNL A   1      44.011  33.552  31.712  1.00  0.00     0.010 A 
ATOM     68  C   UNL A   1      42.972  32.600  33.686  1.00  0.00     0.010 A 
ATOM     69  C   UNL A   1      44.134  34.780  32.370  1.00  0.00     0.020 A 
ATOM     70  C   UNL A   1      43.073  33.832  34.340  1.00  0.00     0.020 A 
ATOM     71  C   UNL A   1      43.677  34.908  33.685  1.00  0.00     0.054 A 
BRANCH  71  72
ATOM     72  S   UNL A   1      43.869  36.502  34.530  1.00  0.00     0.124 S 
ATOM     73  O   UNL A   1      42.645  37.198  34.140  1.00  0.00    -0.237 OA
ATOM     74  O   UNL A   1      43.950  36.116  35.936  1.00  0.00    -0.237 OA
ATOM     75  O   UNL A   1      45.102  37.046  33.964  1.00  0.00    -0.744 OA
ENDBRANCH  71  72
ENDBRANCH  52  66
BRANCH  53  76
ATOM     76  C   UNL A   1      42.393  23.552  27.900  1.00  0.00    -0.014 A 
ATOM     77  C   UNL A   1      42.719  23.374  26.545  1.00  0.00     0.010 A 
ATOM     78  C   UNL A   1      41.953  22.446  28.650  1.00  0.00     0.010 A 
ATOM     79  C   UNL A   1      42.614  22.112  25.952  1.00  0.00     0.020 A 
ATOM     80  C   UNL A   1      41.869  21.178  28.068  1.00  0.00     0.020 A 
ATOM     81  C   UNL A   1      42.197  21.020  26.719  1.00  0.00     0.054 A 
BRANCH  81  82
ATOM     82  S   UNL A   1      42.156  19.375  25.956  1.00  0.00     0.124 S 
ATOM     83  O   UNL A   1      40.734  19.205  25.676  1.00  0.00    -0.237 OA
ATOM     84  O   UNL A   1      43.016  19.545  24.786  1.00  0.00    -0.237 OA
ATOM     85  O   UNL A   1      42.699  18.503  26.996  1.00  0.00    -0.744 OA
ENDBRANCH  81  82
ENDBRANCH  53  76
BRANCH  65  86
ATOM     86  C   UNL A   1      47.732  26.771  31.021  1.00  0.00    -0.014 A 
ATOM     87  C   UNL A   1      48.752  27.071  30.101  1.00  0.00     0.010 A 
ATOM     88  C   UNL A   1      48.055  26.100  32.214  1.00  0.00     0.010 A 
ATOM     89  C   UNL A   1      50.068  26.679  30.357  1.00  0.00     0.020 A 
ATOM     90  C   UNL A   1      49.373  25.726  32.482  1.00  0.00     0.020 A 
ATOM     91  C   UNL A   1      50.370  26.004  31.545  1.00  0.00     0.054 A 
BRANCH  91  92
ATOM     92  S   UNL A   1      52.091  25.535  31.876  1.00  0.00     0.124 S 
ATOM     93  O   UNL A   1      51.957  24.123  32.223  1.00  0.00    -0.237 OA
ATOM     94  O   UNL A   1      52.752  25.810  30.602  1.00  0.00    -0.237 OA
ATOM     95  O   UNL A   1      52.483  26.414  32.974  1.00  0.00    -0.744 OA
ENDBRANCH  91  92
ENDBRANCH  65  86
ENDBRANCH  39  40
ENDBRANCH  32  34
ENDBRANCH  31  32
ENDBRANCH  30  31
ENDBRANCH   1  30
TORSDOF 18
ENDMDL
MODEL 2
REMARK VINA RESULT:     -11.6      2.882      8.319
REMARK SMILES CCc1sc(NC(=O)[C@H]2CC(C)=C(C)C[C@H]2C(=O)OCCOC(=O)c2ccc(-c3c4nc(c(-c5ccc(S(=O)(=O)[O-])cc5)c5ccc([nH]5)c(-c5ccc(S(=O)(=O)[O-])cc5)c5nc(c(-c6ccc(S(=O)(=O)[O-])cc6)c6ccc3[nH]6)C=C5)C=C4)cc2)nc1-c1ccccc1
REMARK SMILES IDX 20 1 19 2 17 3 18 4 16 5 9 6 10 7 11 8 15 9 12 10 13 11
REMARK SMILES IDX 14 12 7 13 6 14 8 16 5 17 3 18 4 19 86 20 85 21 2 22 1 23
REMARK SMILES IDX 87 24 88 25 92 26 89 27 91 28 90 29 21 30 22 31 23 32 24 33
REMARK SMILES IDX 25 34 26 35 84 36 27 37 83 38 28 39 29 40 30 41 77 42 31 43
REMARK SMILES IDX 82 44 76 45 78 46 32 47 81 48 75 49 74 50 33 52 63 53 44 54
REMARK SMILES IDX 62 55 45 56 48 57 61 58 79 59 46 60 47 61 60 63 80 64 49 65
REMARK SMILES IDX 34 66 35 67 43 68 36 69 42 70 37 71 38 72 39 73 40 74 41 75
REMARK SMILES IDX 64 76 65 77 73 78 66 79 72 80 67 81 68 82 69 83 70 84 71 85
REMARK SMILES IDX 50 86 51 87 59 88 52 89 58 90 53 91 54 92 55 93 56 94 57 95
REMARK H PARENT 6 15 78 51 48 62
REMARK Flexibility Score: inf
ROOT
ATOM      1  C   UNL A   1      31.720  29.586  25.902  1.00  0.00     0.274 C 
ENDROOT
BRANCH   1   2
ATOM      2  O   UNL A   1      32.504  29.571  24.694  1.00  0.00    -0.462 OA
BRANCH   2   3
ATOM      3  C   UNL A   1      32.837  28.366  24.210  1.00  0.00     0.310 C 
ATOM      4  O   UNL A   1      33.975  27.906  24.270  1.00  0.00    -0.252 OA
BRANCH   3   5
ATOM      5  C   UNL A   1      31.728  27.612  23.491  1.00  0.00     0.116 C 
ATOM      6  C   UNL A   1      30.876  26.491  24.145  1.00  0.00     0.097 C 
ATOM      7  C   UNL A   1      29.361  26.607  23.904  1.00  0.00     0.045 C 
ATOM      8  C   UNL A   1      28.775  27.863  23.342  1.00  0.00    -0.074 C 
ATOM      9  C   UNL A   1      31.011  28.632  22.588  1.00  0.00     0.046 C 
ATOM     10  C   UNL A   1      27.270  27.907  23.435  1.00  0.00     0.039 C 
ATOM     11  C   UNL A   1      29.529  28.792  22.736  1.00  0.00    -0.073 C 
ATOM     12  C   UNL A   1      28.946  30.011  22.072  1.00  0.00     0.039 C 
BRANCH   6  13
ATOM     13  C   UNL A   1      31.102  26.100  25.622  1.00  0.00     0.230 C 
ATOM     14  N   UNL A   1      32.393  25.883  26.075  1.00  0.00    -0.302 N 
ATOM     15  H   UNL A   1      32.812  26.497  26.721  1.00  0.00     0.172 HD
ATOM     16  O   UNL A   1      30.183  25.868  26.409  1.00  0.00    -0.274 OA
BRANCH  14  17
ATOM     17  C   UNL A   1      33.073  24.784  25.601  1.00  0.00     0.190 A 
ATOM     18  C   UNL A   1      34.660  23.462  24.375  1.00  0.00     0.034 A 
ATOM     19  S   UNL A   1      34.767  24.802  25.481  1.00  0.00    -0.101 S 
ATOM     20  C   UNL A   1      33.411  22.877  24.562  1.00  0.00     0.087 A 
ATOM     21  N   UNL A   1      32.501  23.657  25.266  1.00  0.00    -0.220 NA
BRANCH  18  22
ATOM     22  C   UNL A   1      35.841  23.206  23.483  1.00  0.00     0.046 C 
ATOM     23  C   UNL A   1      36.851  22.179  23.967  1.00  0.00     0.010 C 
ENDBRANCH  18  22
BRANCH  20  24
ATOM     24  C   UNL A   1      32.977  21.612  23.997  1.00  0.00     0.001 A 
ATOM     25  C   UNL A   1      33.129  20.421  24.715  1.00  0.00     0.010 A 
ATOM     26  C   UNL A   1      32.371  21.581  22.735  1.00  0.00     0.010 A 
ATOM     27  C   UNL A   1      32.725  19.206  24.157  1.00  0.00     0.001 A 
ATOM     28  C   UNL A   1      31.962  20.366  22.180  1.00  0.00     0.001 A 
ATOM     29  C   UNL A   1      32.148  19.179  22.889  1.00  0.00     0.000 A 
ENDBRANCH  20  24
ENDBRANCH  14  17
ENDBRANCH   6  13
ENDBRANCH   3   5
ENDBRANCH   2   3
ENDBRANCH   1   2
BRANCH   1  30
ATOM     30  C   UNL A   1      32.216  30.646  26.895  1.00  0.00     0.275 C 
BRANCH  30  31
ATOM     31  O   UNL A   1      33.640  30.571  27.122  1.00  0.00    -0.458 OA
BRANCH  31  32
ATOM     32  C   UNL A   1      34.205  31.661  27.686  1.00  0.00     0.338 C 
ATOM     33  O   UNL A   1      33.711  32.777  27.797  1.00  0.00    -0.246 OA
BRANCH  32  34
ATOM     34  C   UNL A   1      35.495  31.317  28.301  1.00  0.00     0.060 A 
ATOM     35  C   UNL A   1      35.608  30.082  28.947  1.00  0.00     0.016 A 
ATOM     36  C   UNL A   1      36.548  32.231  28.339  1.00  0.00     0.016 A 
ATOM     37  C   UNL A   1      36.768  29.752  29.638  1.00  0.00     0.010 A 
ATOM     38  C   UNL A   1      37.718  31.897  29.030  1.00  0.00     0.010 A 
ATOM     39  C   UNL A   1      37.830  30.659  29.689  1.00  0.00    -0.014 A 
BRANCH  39  40
ATOM     40  C   UNL A   1      39.048  30.311  30.455  1.00  0.00     0.031 A 
ATOM     41  C   UNL A   1      39.990  29.266  29.934  1.00  0.00     0.074 A 
ATOM     42  C   UNL A   1      39.320  30.967  31.598  1.00  0.00     0.049 A 
ATOM     43  N   UNL A   1      41.059  28.766  30.495  1.00  0.00    -0.248 NA
ATOM     44  C   UNL A   1      39.689  28.712  28.604  1.00  0.00     0.031 C 
ATOM     45  C   UNL A   1      38.517  32.055  32.159  1.00  0.00     0.029 A 
ATOM     46  N   UNL A   1      40.352  30.819  32.487  1.00  0.00    -0.354 N 
ATOM     47  C   UNL A   1      41.549  27.822  29.601  1.00  0.00     0.074 A 
ATOM     48  C   UNL A   1      40.653  27.814  28.463  1.00  0.00     0.031 C 
ATOM     49  C   UNL A   1      39.097  32.489  33.290  1.00  0.00     0.029 A 
ATOM     50  C   UNL A   1      40.277  31.672  33.561  1.00  0.00     0.049 A 
ATOM     51  H   UNL A   1      41.079  30.165  32.368  1.00  0.00     0.167 HD
ATOM     52  C   UNL A   1      42.643  27.031  29.723  1.00  0.00     0.031 A 
ATOM     53  C   UNL A   1      41.054  31.767  34.656  1.00  0.00     0.031 A 
ATOM     54  C   UNL A   1      43.517  27.039  30.866  1.00  0.00     0.049 A 
ATOM     55  C   UNL A   1      42.212  30.822  34.810  1.00  0.00     0.074 A 
ATOM     56  C   UNL A   1      44.637  26.260  31.104  1.00  0.00     0.029 A 
ATOM     57  N   UNL A   1      43.370  27.872  31.966  1.00  0.00    -0.354 N 
ATOM     58  N   UNL A   1      42.634  29.898  33.980  1.00  0.00    -0.248 NA
ATOM     59  C   UNL A   1      42.989  30.923  36.052  1.00  0.00     0.031 C 
ATOM     60  C   UNL A   1      45.143  26.596  32.365  1.00  0.00     0.029 A 
ATOM     61  C   UNL A   1      44.366  27.616  32.893  1.00  0.00     0.049 A 
ATOM     62  H   UNL A   1      42.661  28.546  32.071  1.00  0.00     0.167 HD
ATOM     63  C   UNL A   1      43.735  29.313  34.594  1.00  0.00     0.074 A 
ATOM     64  C   UNL A   1      43.920  29.999  35.858  1.00  0.00     0.031 C 
ATOM     65  C   UNL A   1      44.522  28.303  34.151  1.00  0.00     0.031 A 
BRANCH  52  66
ATOM     66  C   UNL A   1      42.908  26.054  28.609  1.00  0.00    -0.014 A 
ATOM     67  C   UNL A   1      42.331  24.771  28.609  1.00  0.00     0.010 A 
ATOM     68  C   UNL A   1      43.758  26.422  27.550  1.00  0.00     0.010 A 
ATOM     69  C   UNL A   1      42.644  23.854  27.601  1.00  0.00     0.020 A 
ATOM     70  C   UNL A   1      44.056  25.516  26.528  1.00  0.00     0.020 A 
ATOM     71  C   UNL A   1      43.516  24.228  26.573  1.00  0.00     0.054 A 
BRANCH  71  72
ATOM     72  S   UNL A   1      43.930  23.017  25.288  1.00  0.00     0.124 S 
ATOM     73  O   UNL A   1      44.546  23.861  24.267  1.00  0.00    -0.237 OA
ATOM     74  O   UNL A   1      44.836  22.105  25.981  1.00  0.00    -0.237 OA
ATOM     75  O   UNL A   1      42.635  22.444  24.924  1.00  0.00    -0.744 OA
ENDBRANCH  71  72
ENDBRANCH  52  66
BRANCH  53  76
ATOM     76  C   UNL A   1      40.740  32.783  35.694  1.00  0.00    -0.014 A 
ATOM     77  C   UNL A   1      39.958  32.441  36.811  1.00  0.00     0.010 A 
ATOM     78  C   UNL A   1      41.264  34.085  35.599  1.00  0.00     0.010 A 
ATOM     79  C   UNL A   1      39.712  33.380  37.816  1.00  0.00     0.020 A 
ATOM     80  C   UNL A   1      41.040  35.020  36.612  1.00  0.00     0.020 A 
ATOM     81  C   UNL A   1      40.260  34.662  37.715  1.00  0.00     0.054 A 
BRANCH  81  82
ATOM     82  S   UNL A   1      40.005  35.837  39.074  1.00  0.00     0.124 S 
ATOM     83  O   UNL A   1      38.936  35.196  39.832  1.00  0.00    -0.237 OA
ATOM     84  O   UNL A   1      41.314  35.863  39.722  1.00  0.00    -0.237 OA
ATOM     85  O   UNL A   1      39.635  37.075  38.389  1.00  0.00    -0.744 OA
ENDBRANCH  81  82
ENDBRANCH  53  76
BRANCH  65  86
ATOM     86  C   UNL A   1      45.666  27.894  35.036  1.00  0.00    -0.014 A 
ATOM     87  C   UNL A   1      45.512  26.878  35.995  1.00  0.00     0.010 A 
ATOM     88  C   UNL A   1      46.919  28.513  34.882  1.00  0.00     0.010 A 
ATOM     89  C   UNL A   1      46.588  26.508  36.807  1.00  0.00     0.020 A 
ATOM     90  C   UNL A   1      48.001  28.132  35.678  1.00  0.00     0.020 A 
ATOM     91  C   UNL A   1      47.824  27.141  36.647  1.00  0.00     0.054 A 
BRANCH  91  92
ATOM     92  S   UNL A   1      49.217  26.623  37.687  1.00  0.00     0.124 S 
ATOM     93  O   UNL A   1      49.255  27.682  38.691  1.00  0.00    -0.237 OA
ATOM     94  O   UNL A   1      48.789  25.312  38.171  1.00  0.00    -0.237 OA
ATOM     95  O   UNL A   1      50.347  26.598  36.763  1.00  0.00    -0.744 OA
ENDBRANCH  91  92
ENDBRANCH  65  86
ENDBRANCH  39  40
ENDBRANCH  32  34
ENDBRANCH  31  32
ENDBRANCH  30  31
ENDBRANCH   1  30
TORSDOF 18
ENDMDL
MODEL 3
REMARK VINA RESULT:     -11.1      3.671      9.234
REMARK SMILES CCc1sc(NC(=O)[C@H]2CC(C)=C(C)C[C@H]2C(=O)OCCOC(=O)c2ccc(-c3c4nc(c(-c5ccc(S(=O)(=O)[O-])cc5)c5ccc([nH]5)c(-c5ccc(S(=O)(=O)[O-])cc5)c5nc(c(-c6ccc(S(=O)(=O)[O-])cc6)c6ccc3[nH]6)C=C5)C=C4)cc2)nc1-c1ccccc1
REMARK SMILES IDX 20 1 19 2 17 3 18 4 16 5 9 6 10 7 11 8 15 9 12 10 13 11
REMARK SMILES IDX 14 12 7 13 6 14 8 16 5 17 3 18 4 19 86 20 85 21 2 22 1 23
REMARK SMILES IDX 87 24 88 25 92 26 89 27 91 28 90 29 21 30 22 31 23 32 24 33
REMARK SMILES IDX 25 34 26 35 84 36 27 37 83 38 28 39 29 40 30 41 77 42 31 43
REMARK SMILES IDX 82 44 76 45 78 46 32 47 81 48 75 49 74 50 33 52 63 53 44 54
REMARK SMILES IDX 62 55 45 56 48 57 61 58 79 59 46 60 47 61 60 63 80 64 49 65
REMARK SMILES IDX 34 66 35 67 43 68 36 69 42 70 37 71 38 72 39 73 40 74 41 75
REMARK SMILES IDX 64 76 65 77 73 78 66 79 72 80 67 81 68 82 69 83 70 84 71 85
REMARK SMILES IDX 50 86 51 87 59 88 52 89 58 90 53 91 54 92 55 93 56 94 57 95
REMARK H PARENT 6 15 78 51 48 62
REMARK Flexibility Score: inf
ROOT
ATOM      1  C   UNL A   1      34.270  30.142  27.044  1.00  0.00     0.274 C 
ENDROOT
BRANCH   1   2
ATOM      2  O   UNL A   1      33.644  28.924  27.487  1.00  0.00    -0.462 OA
BRANCH   2   3
ATOM      3  C   UNL A   1      33.464  27.971  26.559  1.00  0.00     0.310 C 
ATOM      4  O   UNL A   1      34.388  27.328  26.065  1.00  0.00    -0.252 OA
BRANCH   3   5
ATOM      5  C   UNL A   1      32.034  27.780  26.077  1.00  0.00     0.116 C 
ATOM      6  C   UNL A   1      31.559  28.083  24.630  1.00  0.00     0.097 C 
ATOM      7  C   UNL A   1      30.685  26.988  23.994  1.00  0.00     0.045 C 
ATOM      8  C   UNL A   1      30.577  25.638  24.629  1.00  0.00    -0.074 C 
ATOM      9  C   UNL A   1      31.500  26.509  26.762  1.00  0.00     0.046 C 
ATOM     10  C   UNL A   1      29.918  24.616  23.738  1.00  0.00     0.039 C 
ATOM     11  C   UNL A   1      30.948  25.416  25.900  1.00  0.00    -0.073 C 
ATOM     12  C   UNL A   1      30.749  24.093  26.589  1.00  0.00     0.039 C 
BRANCH   6  13
ATOM     13  C   UNL A   1      32.563  28.578  23.567  1.00  0.00     0.230 C 
ATOM     14  N   UNL A   1      32.644  27.920  22.352  1.00  0.00    -0.302 N 
ATOM     15  H   UNL A   1      32.350  28.357  21.520  1.00  0.00     0.172 HD
ATOM     16  O   UNL A   1      33.381  29.477  23.775  1.00  0.00    -0.274 OA
BRANCH  14  17
ATOM     17  C   UNL A   1      33.145  26.638  22.338  1.00  0.00     0.190 A 
ATOM     18  C   UNL A   1      33.235  24.245  22.144  1.00  0.00     0.034 A 
ATOM     19  S   UNL A   1      32.689  25.544  21.121  1.00  0.00    -0.101 S 
ATOM     20  C   UNL A   1      34.092  24.802  23.089  1.00  0.00     0.087 A 
ATOM     21  N   UNL A   1      34.024  26.186  23.195  1.00  0.00    -0.220 NA
BRANCH  18  22
ATOM     22  C   UNL A   1      32.714  22.868  21.849  1.00  0.00     0.046 C 
ATOM     23  C   UNL A   1      32.314  22.020  23.045  1.00  0.00     0.010 C 
ENDBRANCH  18  22
BRANCH  20  24
ATOM     24  C   UNL A   1      34.932  24.058  24.010  1.00  0.00     0.001 A 
ATOM     25  C   UNL A   1      36.068  23.382  23.552  1.00  0.00     0.010 A 
ATOM     26  C   UNL A   1      34.626  24.040  25.376  1.00  0.00     0.010 A 
ATOM     27  C   UNL A   1      36.861  22.654  24.441  1.00  0.00     0.001 A 
ATOM     28  C   UNL A   1      35.422  23.315  26.266  1.00  0.00     0.001 A 
ATOM     29  C   UNL A   1      36.534  22.616  25.796  1.00  0.00     0.000 A 
ENDBRANCH  20  24
ENDBRANCH  14  17
ENDBRANCH   6  13
ENDBRANCH   3   5
ENDBRANCH   2   3
ENDBRANCH   1   2
BRANCH   1  30
ATOM     30  C   UNL A   1      35.620  30.378  27.736  1.00  0.00     0.275 C 
BRANCH  30  31
ATOM     31  O   UNL A   1      36.383  29.162  27.893  1.00  0.00    -0.458 OA
BRANCH  31  32
ATOM     32  C   UNL A   1      37.198  29.112  28.970  1.00  0.00     0.338 C 
ATOM     33  O   UNL A   1      36.866  29.099  30.150  1.00  0.00    -0.246 OA
BRANCH  32  34
ATOM     34  C   UNL A   1      38.597  28.939  28.555  1.00  0.00     0.060 A 
ATOM     35  C   UNL A   1      39.533  28.578  29.529  1.00  0.00     0.016 A 
ATOM     36  C   UNL A   1      39.009  29.226  27.253  1.00  0.00     0.016 A 
ATOM     37  C   UNL A   1      40.885  28.507  29.215  1.00  0.00     0.010 A 
ATOM     38  C   UNL A   1      40.369  29.148  26.935  1.00  0.00     0.010 A 
ATOM     39  C   UNL A   1      41.314  28.796  27.916  1.00  0.00    -0.014 A 
BRANCH  39  40
ATOM     40  C   UNL A   1      42.760  28.749  27.600  1.00  0.00     0.031 A 
ATOM     41  C   UNL A   1      43.368  27.490  27.056  1.00  0.00     0.074 A 
ATOM     42  C   UNL A   1      43.511  29.853  27.769  1.00  0.00     0.049 A 
ATOM     43  N   UNL A   1      44.621  27.226  26.796  1.00  0.00    -0.248 NA
ATOM     44  C   UNL A   1      42.443  26.384  26.762  1.00  0.00     0.031 C 
ATOM     45  C   UNL A   1      43.010  31.154  28.217  1.00  0.00     0.029 A 
ATOM     46  N   UNL A   1      44.851  30.059  27.574  1.00  0.00    -0.354 N 
ATOM     47  C   UNL A   1      44.643  25.916  26.331  1.00  0.00     0.074 A 
ATOM     48  C   UNL A   1      43.276  25.439  26.353  1.00  0.00     0.031 C 
ATOM     49  C   UNL A   1      44.028  32.028  28.246  1.00  0.00     0.029 A 
ATOM     50  C   UNL A   1      45.259  31.335  27.876  1.00  0.00     0.049 A 
ATOM     51  H   UNL A   1      45.463  29.359  27.248  1.00  0.00     0.167 HD
ATOM     52  C   UNL A   1      45.708  25.180  25.929  1.00  0.00     0.031 A 
ATOM     53  C   UNL A   1      46.491  31.879  27.881  1.00  0.00     0.031 A 
ATOM     54  C   UNL A   1      47.064  25.663  25.925  1.00  0.00     0.049 A 
ATOM     55  C   UNL A   1      47.666  31.019  27.513  1.00  0.00     0.074 A 
ATOM     56  C   UNL A   1      48.220  24.992  25.564  1.00  0.00     0.029 A 
ATOM     57  N   UNL A   1      47.447  26.943  26.302  1.00  0.00    -0.354 N 
ATOM     58  N   UNL A   1      47.679  29.766  27.125  1.00  0.00    -0.248 NA
ATOM     59  C   UNL A   1      48.994  31.642  27.597  1.00  0.00     0.031 C 
ATOM     60  C   UNL A   1      49.305  25.855  25.759  1.00  0.00     0.029 A 
ATOM     61  C   UNL A   1      48.820  27.078  26.198  1.00  0.00     0.049 A 
ATOM     62  H   UNL A   1      46.830  27.651  26.598  1.00  0.00     0.167 HD
ATOM     63  C   UNL A   1      49.014  29.452  26.905  1.00  0.00     0.074 A 
ATOM     64  C   UNL A   1      49.778  30.651  27.192  1.00  0.00     0.031 C 
ATOM     65  C   UNL A   1      49.559  28.278  26.502  1.00  0.00     0.031 A 
BRANCH  52  66
ATOM     66  C   UNL A   1      45.439  23.758  25.518  1.00  0.00    -0.014 A 
ATOM     67  C   UNL A   1      45.204  23.416  24.174  1.00  0.00     0.010 A 
ATOM     68  C   UNL A   1      45.409  22.746  26.496  1.00  0.00     0.010 A 
ATOM     69  C   UNL A   1      44.889  22.100  23.823  1.00  0.00     0.020 A 
ATOM     70  C   UNL A   1      45.116  21.425  26.146  1.00  0.00     0.020 A 
ATOM     71  C   UNL A   1      44.833  21.115  24.813  1.00  0.00     0.054 A 
BRANCH  71  72
ATOM     72  S   UNL A   1      44.397  19.419  24.341  1.00  0.00     0.124 S 
ATOM     73  O   UNL A   1      43.069  19.274  24.934  1.00  0.00    -0.237 OA
ATOM     74  O   UNL A   1      44.430  19.469  22.882  1.00  0.00    -0.237 OA
ATOM     75  O   UNL A   1      45.446  18.609  24.957  1.00  0.00    -0.744 OA
ENDBRANCH  71  72
ENDBRANCH  52  66
BRANCH  53  76
ATOM     76  C   UNL A   1      46.663  33.303  28.269  1.00  0.00    -0.014 A 
ATOM     77  C   UNL A   1      46.594  34.318  27.299  1.00  0.00     0.010 A 
ATOM     78  C   UNL A   1      46.846  33.657  29.618  1.00  0.00     0.010 A 
ATOM     79  C   UNL A   1      46.698  35.661  27.672  1.00  0.00     0.020 A 
ATOM     80  C   UNL A   1      46.926  34.999  29.999  1.00  0.00     0.020 A 
ATOM     81  C   UNL A   1      46.856  35.994  29.021  1.00  0.00     0.054 A 
BRANCH  81  82
ATOM     82  S   UNL A   1      46.896  37.745  29.494  1.00  0.00     0.124 S 
ATOM     83  O   UNL A   1      48.301  37.934  29.839  1.00  0.00    -0.237 OA
ATOM     84  O   UNL A   1      46.447  38.415  28.276  1.00  0.00    -0.237 OA
ATOM     85  O   UNL A   1      45.960  37.816  30.615  1.00  0.00    -0.744 OA
ENDBRANCH  81  82
ENDBRANCH  53  76
BRANCH  65  86
ATOM     86  C   UNL A   1      51.052  28.245  26.330  1.00  0.00    -0.014 A 
ATOM     87  C   UNL A   1      51.881  27.677  27.313  1.00  0.00     0.010 A 
ATOM     88  C   UNL A   1      51.628  28.760  25.155  1.00  0.00     0.010 A 
ATOM     89  C   UNL A   1      53.267  27.652  27.136  1.00  0.00     0.020 A 
ATOM     90  C   UNL A   1      53.011  28.718  24.966  1.00  0.00     0.020 A 
ATOM     91  C   UNL A   1      53.823  28.177  25.965  1.00  0.00     0.054 A 
BRANCH  91  92
ATOM     92  S   UNL A   1      55.622  28.103  25.738  1.00  0.00     0.124 S 
ATOM     93  O   UNL A   1      55.964  29.514  25.581  1.00  0.00    -0.237 OA
ATOM     94  O   UNL A   1      56.079  27.480  26.978  1.00  0.00    -0.237 OA
ATOM     95  O   UNL A   1      55.785  27.284  24.540  1.00  0.00    -0.744 OA
ENDBRANCH  91  92
ENDBRANCH  65  86
ENDBRANCH  39  40
ENDBRANCH  32  34
ENDBRANCH  31  32
ENDBRANCH  30  31
ENDBRANCH   1  30
TORSDOF 18
ENDMDL
