MODEL 1
REMARK VINA RESULT:     -12.2      0.000      0.000
REMARK SMILES O=C(OCCOC(=O)C1CCN(c2nc(-c3ccc(F)cc3)cc(C(F)F)n2)CC1)c1ccc(-c2c3nc(c(-c4ccc(S(=O)(=O)[O-])cc4)c4ccc([nH]4)c(-c4ccc(S(=O)(=O)[O-])cc4)c4nc(c(-c5ccc(S(=O)(=O)[O-])cc5)c5ccc2[nH]5)C=C4)C=C3)cc1
REMARK SMILES IDX 4 1 3 2 2 3 1 4 31 5 32 6 90 7 33 8 89 9 34 10 35 11 36 12
REMARK SMILES IDX 83 13 37 14 88 15 82 16 84 17 38 18 87 19 81 20 80 21 39 23
REMARK SMILES IDX 69 24 50 25 68 26 51 27 54 28 67 29 85 30 52 31 53 32 66 34
REMARK SMILES IDX 86 35 55 36 40 37 41 38 49 39 42 40 48 41 43 42 44 43 45 44
REMARK SMILES IDX 46 45 47 46 70 47 71 48 79 49 72 50 78 51 73 52 74 53 75 54
REMARK SMILES IDX 76 55 77 56 56 57 57 58 65 59 58 60 64 61 59 62 60 63 61 64
REMARK SMILES IDX 62 65 63 66 5 67 6 68 7 69 8 70 9 71 10 72 30 73 11 74 29 75
REMARK SMILES IDX 12 76 13 77 14 78 28 79 15 80 24 81 23 82 16 83 17 84 22 85
REMARK SMILES IDX 18 86 21 87 19 88 20 89 25 90 26 91 27 92
REMARK H PARENT 84 22 54 33
REMARK Flexibility Score: inf
ROOT
ATOM      1  C   UNL A   1      43.481  24.383  25.051  1.00  0.00     0.275 C 
ENDROOT
BRANCH   1   2
ATOM      2  O   UNL A   1      42.790  25.057  26.130  1.00  0.00    -0.458 OA
BRANCH   2   3
ATOM      3  C   UNL A   1      41.728  25.888  26.033  1.00  0.00     0.338 C 
ATOM      4  O   UNL A   1      41.072  25.984  25.006  1.00  0.00    -0.246 OA
BRANCH   3   5
ATOM      5  C   UNL A   1      41.404  26.762  27.162  1.00  0.00     0.060 A 
ATOM      6  C   UNL A   1      41.955  28.382  27.331  1.00  0.00     0.016 A 
ATOM      7  C   UNL A   1      40.368  26.121  28.421  1.00  0.00     0.016 A 
ATOM      8  C   UNL A   1      41.465  29.422  28.627  1.00  0.00     0.010 A 
ATOM      9  C   UNL A   1      39.773  27.291  29.877  1.00  0.00     0.010 A 
ATOM     10  C   UNL A   1      40.438  28.944  29.950  1.00  0.00    -0.014 A 
BRANCH  10  11
ATOM     11  C   UNL A   1      40.428  29.791  31.173  1.00  0.00     0.031 A 
ATOM     12  C   UNL A   1      41.581  29.704  32.166  1.00  0.00     0.074 A 
ATOM     13  C   UNL A   1      39.397  30.618  31.409  1.00  0.00     0.049 A 
ATOM     14  N   UNL A   1      41.653  30.115  33.409  1.00  0.00    -0.248 NA
ATOM     15  C   UNL A   1      42.809  29.020  31.736  1.00  0.00     0.031 C 
ATOM     16  C   UNL A   1      38.292  30.881  30.489  1.00  0.00     0.029 A 
ATOM     17  N   UNL A   1      39.131  31.419  32.490  1.00  0.00    -0.354 N 
ATOM     18  C   UNL A   1      42.838  29.579  33.923  1.00  0.00     0.074 A 
ATOM     19  C   UNL A   1      43.457  28.832  32.868  1.00  0.00     0.031 C 
ATOM     20  C   UNL A   1      37.467  31.784  31.043  1.00  0.00     0.029 A 
ATOM     21  C   UNL A   1      37.961  32.130  32.373  1.00  0.00     0.049 A 
ATOM     22  H   UNL A   1      39.722  31.479  33.275  1.00  0.00     0.167 HD
ATOM     23  C   UNL A   1      43.358  29.693  35.167  1.00  0.00     0.031 A 
ATOM     24  C   UNL A   1      37.356  32.959  33.247  1.00  0.00     0.031 A 
ATOM     25  C   UNL A   1      42.797  30.580  36.148  1.00  0.00     0.049 A 
ATOM     26  C   UNL A   1      38.032  33.226  34.564  1.00  0.00     0.074 A 
ATOM     27  C   UNL A   1      43.228  30.837  37.433  1.00  0.00     0.029 A 
ATOM     28  N   UNL A   1      41.696  31.395  35.915  1.00  0.00    -0.354 N 
ATOM     29  N   UNL A   1      39.138  32.698  35.040  1.00  0.00    -0.248 NA
ATOM     30  C   UNL A   1      37.406  34.215  35.450  1.00  0.00     0.031 C 
ATOM     31  C   UNL A   1      42.347  31.762  38.002  1.00  0.00     0.029 A 
ATOM     32  C   UNL A   1      41.408  32.126  37.048  1.00  0.00     0.049 A 
ATOM     33  H   UNL A   1      41.197  31.444  35.067  1.00  0.00     0.167 HD
ATOM     34  C   UNL A   1      39.351  33.304  36.271  1.00  0.00     0.074 A 
ATOM     35  C   UNL A   1      38.270  34.252  36.459  1.00  0.00     0.031 C 
ATOM     36  C   UNL A   1      40.344  33.091  37.170  1.00  0.00     0.031 A 
BRANCH  23  37
ATOM     37  C   UNL A   1      44.506  28.781  35.554  1.00  0.00    -0.014 A 
ATOM     38  C   UNL A   1      45.850  29.195  35.567  1.00  0.00     0.010 A 
ATOM     39  C   UNL A   1      44.219  27.441  35.884  1.00  0.00     0.010 A 
ATOM     40  C   UNL A   1      46.882  28.277  35.801  1.00  0.00     0.020 A 
ATOM     41  C   UNL A   1      45.242  26.530  36.172  1.00  0.00     0.020 A 
ATOM     42  C   UNL A   1      46.570  26.946  36.093  1.00  0.00     0.054 A 
BRANCH  42  43
ATOM     43  S   UNL A   1      47.918  25.771  36.404  1.00  0.00     0.124 S 
ATOM     44  O   UNL A   1      47.910  25.683  37.861  1.00  0.00    -0.237 OA
ATOM     45  O   UNL A   1      47.470  24.574  35.697  1.00  0.00    -0.237 OA
ATOM     46  O   UNL A   1      49.086  26.433  35.826  1.00  0.00    -0.744 OA
ENDBRANCH  42  43
ENDBRANCH  23  37
BRANCH  24  47
ATOM     47  C   UNL A   1      36.075  33.609  32.851  1.00  0.00    -0.014 A 
ATOM     48  C   UNL A   1      34.843  33.086  33.282  1.00  0.00     0.010 A 
ATOM     49  C   UNL A   1      36.090  34.841  32.168  1.00  0.00     0.010 A 
ATOM     50  C   UNL A   1      33.658  33.802  33.077  1.00  0.00     0.020 A 
ATOM     51  C   UNL A   1      34.910  35.570  31.981  1.00  0.00     0.020 A 
ATOM     52  C   UNL A   1      33.701  35.051  32.449  1.00  0.00     0.054 A 
BRANCH  52  53
ATOM     53  S   UNL A   1      32.178  36.035  32.354  1.00  0.00     0.124 S 
ATOM     54  O   UNL A   1      32.180  36.469  30.960  1.00  0.00    -0.237 OA
ATOM     55  O   UNL A   1      31.151  35.059  32.711  1.00  0.00    -0.237 OA
ATOM     56  O   UNL A   1      32.390  37.092  33.340  1.00  0.00    -0.744 OA
ENDBRANCH  52  53
ENDBRANCH  24  47
BRANCH  36  57
ATOM     57  C   UNL A   1      40.348  33.918  38.421  1.00  0.00    -0.014 A 
ATOM     58  C   UNL A   1      40.949  35.186  38.444  1.00  0.00     0.010 A 
ATOM     59  C   UNL A   1      39.606  33.477  39.533  1.00  0.00     0.010 A 
ATOM     60  C   UNL A   1      40.817  36.001  39.569  1.00  0.00     0.020 A 
ATOM     61  C   UNL A   1      39.455  34.298  40.650  1.00  0.00     0.020 A 
ATOM     62  C   UNL A   1      40.066  35.554  40.663  1.00  0.00     0.054 A 
BRANCH  62  63
ATOM     63  S   UNL A   1      39.837  36.667  42.074  1.00  0.00     0.124 S 
ATOM     64  O   UNL A   1      41.171  36.680  42.668  1.00  0.00    -0.237 OA
ATOM     65  O   UNL A   1      39.420  37.912  41.434  1.00  0.00    -0.237 OA
ATOM     66  O   UNL A   1      38.806  36.008  42.872  1.00  0.00    -0.744 OA
ENDBRANCH  62  63
ENDBRANCH  36  57
ENDBRANCH  10  11
ENDBRANCH   3   5
ENDBRANCH   2   3
ENDBRANCH   1   2
BRANCH   1  67
ATOM     67  C   UNL A   1      43.195  22.871  25.004  1.00  0.00     0.274 C 
BRANCH  67  68
ATOM     68  O   UNL A   1      41.947  22.570  25.659  1.00  0.00    -0.462 OA
BRANCH  68  69
ATOM     69  C   UNL A   1      41.946  21.964  26.882  1.00  0.00     0.309 C 
ATOM     70  O   UNL A   1      42.934  21.800  27.580  1.00  0.00    -0.252 OA
BRANCH  69  71
ATOM     71  C   UNL A   1      40.486  21.650  27.281  1.00  0.00     0.103 C 
ATOM     72  C   UNL A   1      40.089  19.988  26.381  1.00  0.00     0.037 C 
ATOM     73  C   UNL A   1      39.345  23.059  26.943  1.00  0.00     0.037 C 
ATOM     74  C   UNL A   1      38.560  20.121  24.795  1.00  0.00     0.120 C 
ATOM     75  C   UNL A   1      38.012  23.069  25.670  1.00  0.00     0.120 C 
ATOM     76  N   UNL A   1      37.595  21.708  24.753  1.00  0.00    -0.341 N 
BRANCH  76  77
ATOM     77  C   UNL A   1      36.212  21.460  24.695  1.00  0.00     0.226 A 
ATOM     78  N   UNL A   1      35.753  20.202  24.870  1.00  0.00    -0.213 NA
ATOM     79  N   UNL A   1      35.414  22.490  24.398  1.00  0.00    -0.212 NA
ATOM     80  C   UNL A   1      34.427  19.964  24.698  1.00  0.00     0.076 A 
ATOM     81  C   UNL A   1      34.078  22.264  24.327  1.00  0.00     0.112 A 
ATOM     82  C   UNL A   1      33.544  20.999  24.463  1.00  0.00     0.059 A 
BRANCH  80  83
ATOM     83  C   UNL A   1      33.962  18.554  24.769  1.00  0.00     0.001 A 
ATOM     84  C   UNL A   1      32.649  18.232  25.181  1.00  0.00     0.013 A 
ATOM     85  C   UNL A   1      34.803  17.474  24.445  1.00  0.00     0.013 A 
ATOM     86  C   UNL A   1      32.201  16.910  25.285  1.00  0.00     0.040 A 
ATOM     87  C   UNL A   1      34.363  16.146  24.558  1.00  0.00     0.040 A 
ATOM     88  C   UNL A   1      33.067  15.877  24.979  1.00  0.00     0.123 A 
ATOM     89  F   UNL A   1      32.658  14.607  25.101  1.00  0.00    -0.207 F 
ENDBRANCH  80  83
BRANCH  81  90
ATOM     90  C   UNL A   1      33.160  23.452  24.121  1.00  0.00     0.391 C 
ATOM     91  F   UNL A   1      33.711  24.390  23.296  1.00  0.00    -0.203 F 
ATOM     92  F   UNL A   1      31.968  23.102  23.567  1.00  0.00    -0.203 F 
ENDBRANCH  81  90
ENDBRANCH  76  77
ENDBRANCH  69  71
ENDBRANCH  68  69
ENDBRANCH  67  68
ENDBRANCH   1  67
TORSDOF 17
ENDMDL
MODEL 2
REMARK VINA RESULT:     -11.9      7.117     13.979
REMARK SMILES O=C(OCCOC(=O)C1CCN(c2nc(-c3ccc(F)cc3)cc(C(F)F)n2)CC1)c1ccc(-c2c3nc(c(-c4ccc(S(=O)(=O)[O-])cc4)c4ccc([nH]4)c(-c4ccc(S(=O)(=O)[O-])cc4)c4nc(c(-c5ccc(S(=O)(=O)[O-])cc5)c5ccc2[nH]5)C=C4)C=C3)cc1
REMARK SMILES IDX 4 1 3 2 2 3 1 4 31 5 32 6 90 7 33 8 89 9 34 10 35 11 36 12
REMARK SMILES IDX 83 13 37 14 88 15 82 16 84 17 38 18 87 19 81 20 80 21 39 23
REMARK SMILES IDX 69 24 50 25 68 26 51 27 54 28 67 29 85 30 52 31 53 32 66 34
REMARK SMILES IDX 86 35 55 36 40 37 41 38 49 39 42 40 48 41 43 42 44 43 45 44
REMARK SMILES IDX 46 45 47 46 70 47 71 48 79 49 72 50 78 51 73 52 74 53 75 54
REMARK SMILES IDX 76 55 77 56 56 57 57 58 65 59 58 60 64 61 59 62 60 63 61 64
REMARK SMILES IDX 62 65 63 66 5 67 6 68 7 69 8 70 9 71 10 72 30 73 11 74 29 75
REMARK SMILES IDX 12 76 13 77 14 78 28 79 15 80 24 81 23 82 16 83 17 84 22 85
REMARK SMILES IDX 18 86 21 87 19 88 20 89 25 90 26 91 27 92
REMARK H PARENT 84 22 54 33
REMARK Flexibility Score: inf
ROOT
ATOM      1  C   UNL A   1      37.662  32.637  31.000  1.00  0.00     0.275 C 
ENDROOT
BRANCH   1   2
ATOM      2  O   UNL A   1      36.810  31.513  31.330  1.00  0.00    -0.458 OA
BRANCH   2   3
ATOM      3  C   UNL A   1      36.923  30.240  30.891  1.00  0.00     0.338 C 
ATOM      4  O   UNL A   1      36.008  29.435  30.996  1.00  0.00    -0.246 OA
BRANCH   3   5
ATOM      5  C   UNL A   1      38.206  29.785  30.353  1.00  0.00     0.060 A 
ATOM      6  C   UNL A   1      39.469  29.096  31.294  1.00  0.00     0.016 A 
ATOM      7  C   UNL A   1      38.467  29.936  28.627  1.00  0.00     0.016 A 
ATOM      8  C   UNL A   1      40.932  28.471  30.608  1.00  0.00     0.010 A 
ATOM      9  C   UNL A   1      40.100  29.203  27.826  1.00  0.00     0.010 A 
ATOM     10  C   UNL A   1      41.343  28.536  28.917  1.00  0.00    -0.014 A 
BRANCH  10  11
ATOM     11  C   UNL A   1      42.766  28.337  28.531  1.00  0.00     0.031 A 
ATOM     12  C   UNL A   1      43.793  29.424  28.827  1.00  0.00     0.074 A 
ATOM     13  C   UNL A   1      43.142  27.207  27.910  1.00  0.00     0.049 A 
ATOM     14  N   UNL A   1      44.998  29.598  28.340  1.00  0.00    -0.248 NA
ATOM     15  C   UNL A   1      43.409  30.498  29.754  1.00  0.00     0.031 C 
ATOM     16  C   UNL A   1      42.288  26.044  27.673  1.00  0.00     0.029 A 
ATOM     17  N   UNL A   1      44.358  26.840  27.394  1.00  0.00    -0.354 N 
ATOM     18  C   UNL A   1      45.405  30.865  28.766  1.00  0.00     0.074 A 
ATOM     19  C   UNL A   1      44.340  31.410  29.554  1.00  0.00     0.031 C 
ATOM     20  C   UNL A   1      43.007  25.090  27.060  1.00  0.00     0.029 A 
ATOM     21  C   UNL A   1      44.359  25.591  26.822  1.00  0.00     0.049 A 
ATOM     22  H   UNL A   1      45.156  27.417  27.429  1.00  0.00     0.167 HD
ATOM     23  C   UNL A   1      46.562  31.520  28.513  1.00  0.00     0.031 A 
ATOM     24  C   UNL A   1      45.340  24.932  26.172  1.00  0.00     0.031 A 
ATOM     25  C   UNL A   1      47.670  30.882  27.858  1.00  0.00     0.049 A 
ATOM     26  C   UNL A   1      46.686  25.593  26.051  1.00  0.00     0.074 A 
ATOM     27  C   UNL A   1      48.918  31.394  27.565  1.00  0.00     0.029 A 
ATOM     28  N   UNL A   1      47.663  29.558  27.439  1.00  0.00    -0.354 N 
ATOM     29  N   UNL A   1      47.046  26.795  26.441  1.00  0.00    -0.248 NA
ATOM     30  C   UNL A   1      47.763  24.810  25.436  1.00  0.00     0.031 C 
ATOM     31  C   UNL A   1      49.646  30.398  26.909  1.00  0.00     0.029 A 
ATOM     32  C   UNL A   1      48.872  29.247  26.852  1.00  0.00     0.049 A 
ATOM     33  H   UNL A   1      46.909  28.934  27.546  1.00  0.00     0.167 HD
ATOM     34  C   UNL A   1      48.397  26.906  26.136  1.00  0.00     0.074 A 
ATOM     35  C   UNL A   1      48.793  25.641  25.546  1.00  0.00     0.031 C 
ATOM     36  C   UNL A   1      49.233  27.959  26.317  1.00  0.00     0.031 A 
BRANCH  23  37
ATOM     37  C   UNL A   1      46.642  32.997  28.850  1.00  0.00    -0.014 A 
ATOM     38  C   UNL A   1      46.237  34.013  27.967  1.00  0.00     0.010 A 
ATOM     39  C   UNL A   1      47.181  33.374  30.097  1.00  0.00     0.010 A 
ATOM     40  C   UNL A   1      46.457  35.362  28.275  1.00  0.00     0.020 A 
ATOM     41  C   UNL A   1      47.354  34.721  30.434  1.00  0.00     0.020 A 
ATOM     42  C   UNL A   1      47.024  35.706  29.505  1.00  0.00     0.054 A 
BRANCH  42  43
ATOM     43  S   UNL A   1      47.293  37.459  29.894  1.00  0.00     0.124 S 
ATOM     44  O   UNL A   1      48.558  37.726  29.219  1.00  0.00    -0.237 OA
ATOM     45  O   UNL A   1      46.118  38.101  29.310  1.00  0.00    -0.237 OA
ATOM     46  O   UNL A   1      47.349  37.478  31.354  1.00  0.00    -0.744 OA
ENDBRANCH  42  43
ENDBRANCH  23  37
BRANCH  24  47
ATOM     47  C   UNL A   1      45.061  23.565  25.649  1.00  0.00    -0.014 A 
ATOM     48  C   UNL A   1      44.757  23.367  24.291  1.00  0.00     0.010 A 
ATOM     49  C   UNL A   1      45.250  22.440  26.475  1.00  0.00     0.010 A 
ATOM     50  C   UNL A   1      44.691  22.073  23.760  1.00  0.00     0.020 A 
ATOM     51  C   UNL A   1      45.206  21.147  25.944  1.00  0.00     0.020 A 
ATOM     52  C   UNL A   1      44.939  20.971  24.585  1.00  0.00     0.054 A 
BRANCH  52  53
ATOM     53  S   UNL A   1      45.019  19.318  23.836  1.00  0.00     0.124 S 
ATOM     54  O   UNL A   1      46.457  19.075  23.785  1.00  0.00    -0.237 OA
ATOM     55  O   UNL A   1      44.273  18.504  24.793  1.00  0.00    -0.237 OA
ATOM     56  O   UNL A   1      44.366  19.496  22.542  1.00  0.00    -0.744 OA
ENDBRANCH  52  53
ENDBRANCH  24  47
BRANCH  36  57
ATOM     57  C   UNL A   1      50.669  27.790  25.920  1.00  0.00    -0.014 A 
ATOM     58  C   UNL A   1      51.594  27.198  26.794  1.00  0.00     0.010 A 
ATOM     59  C   UNL A   1      51.052  28.094  24.600  1.00  0.00     0.010 A 
ATOM     60  C   UNL A   1      52.889  26.917  26.355  1.00  0.00     0.020 A 
ATOM     61  C   UNL A   1      52.339  27.796  24.153  1.00  0.00     0.020 A 
ATOM     62  C   UNL A   1      53.251  27.213  25.036  1.00  0.00     0.054 A 
BRANCH  62  63
ATOM     63  S   UNL A   1      54.910  26.759  24.467  1.00  0.00     0.124 S 
ATOM     64  O   UNL A   1      55.635  28.018  24.614  1.00  0.00    -0.237 OA
ATOM     65  O   UNL A   1      55.289  25.701  25.402  1.00  0.00    -0.237 OA
ATOM     66  O   UNL A   1      54.696  26.318  23.091  1.00  0.00    -0.744 OA
ENDBRANCH  62  63
ENDBRANCH  36  57
ENDBRANCH  10  11
ENDBRANCH   3   5
ENDBRANCH   2   3
ENDBRANCH   1   2
BRANCH   1  67
ATOM     67  C   UNL A   1      37.391  33.208  29.597  1.00  0.00     0.274 C 
BRANCH  67  68
ATOM     68  O   UNL A   1      36.156  33.952  29.582  1.00  0.00    -0.462 OA
BRANCH  68  69
ATOM     69  C   UNL A   1      34.964  33.293  29.495  1.00  0.00     0.309 C 
ATOM     70  O   UNL A   1      34.175  33.154  30.416  1.00  0.00    -0.252 OA
BRANCH  69  71
ATOM     71  C   UNL A   1      34.730  32.880  28.023  1.00  0.00     0.103 C 
ATOM     72  C   UNL A   1      32.962  33.541  27.615  1.00  0.00     0.037 C 
ATOM     73  C   UNL A   1      35.018  31.080  27.742  1.00  0.00     0.037 C 
ATOM     74  C   UNL A   1      31.443  31.986  27.234  1.00  0.00     0.120 C 
ATOM     75  C   UNL A   1      33.717  29.846  27.320  1.00  0.00     0.120 C 
ATOM     76  N   UNL A   1      32.107  30.266  27.003  1.00  0.00    -0.341 N 
BRANCH  76  77
ATOM     77  C   UNL A   1      31.578  29.668  25.845  1.00  0.00     0.226 A 
ATOM     78  N   UNL A   1      30.915  30.429  24.946  1.00  0.00    -0.213 NA
ATOM     79  N   UNL A   1      31.704  28.344  25.724  1.00  0.00    -0.212 NA
ATOM     80  C   UNL A   1      30.315  29.815  23.894  1.00  0.00     0.076 A 
ATOM     81  C   UNL A   1      31.189  27.751  24.617  1.00  0.00     0.112 A 
ATOM     82  C   UNL A   1      30.473  28.461  23.676  1.00  0.00     0.059 A 
BRANCH  80  83
ATOM     83  C   UNL A   1      29.484  30.652  22.989  1.00  0.00     0.001 A 
ATOM     84  C   UNL A   1      28.984  30.142  21.769  1.00  0.00     0.013 A 
ATOM     85  C   UNL A   1      29.166  31.988  23.290  1.00  0.00     0.013 A 
ATOM     86  C   UNL A   1      28.226  30.921  20.888  1.00  0.00     0.040 A 
ATOM     87  C   UNL A   1      28.416  32.778  22.404  1.00  0.00     0.040 A 
ATOM     88  C   UNL A   1      27.955  32.237  21.211  1.00  0.00     0.123 A 
ATOM     89  F   UNL A   1      27.254  33.000  20.362  1.00  0.00    -0.207 F 
ENDBRANCH  80  83
BRANCH  81  90
ATOM     90  C   UNL A   1      31.444  26.271  24.412  1.00  0.00     0.391 C 
ATOM     91  F   UNL A   1      30.371  25.638  23.852  1.00  0.00    -0.203 F 
ATOM     92  F   UNL A   1      32.504  26.032  23.593  1.00  0.00    -0.203 F 
ENDBRANCH  81  90
ENDBRANCH  76  77
ENDBRANCH  69  71
ENDBRANCH  68  69
ENDBRANCH  67  68
ENDBRANCH   1  67
TORSDOF 17
ENDMDL
MODEL 3
REMARK VINA RESULT:     -11.8      6.798     13.478
REMARK SMILES O=C(OCCOC(=O)C1CCN(c2nc(-c3ccc(F)cc3)cc(C(F)F)n2)CC1)c1ccc(-c2c3nc(c(-c4ccc(S(=O)(=O)[O-])cc4)c4ccc([nH]4)c(-c4ccc(S(=O)(=O)[O-])cc4)c4nc(c(-c5ccc(S(=O)(=O)[O-])cc5)c5ccc2[nH]5)C=C4)C=C3)cc1
REMARK SMILES IDX 4 1 3 2 2 3 1 4 31 5 32 6 90 7 33 8 89 9 34 10 35 11 36 12
REMARK SMILES IDX 83 13 37 14 88 15 82 16 84 17 38 18 87 19 81 20 80 21 39 23
REMARK SMILES IDX 69 24 50 25 68 26 51 27 54 28 67 29 85 30 52 31 53 32 66 34
REMARK SMILES IDX 86 35 55 36 40 37 41 38 49 39 42 40 48 41 43 42 44 43 45 44
REMARK SMILES IDX 46 45 47 46 70 47 71 48 79 49 72 50 78 51 73 52 74 53 75 54
REMARK SMILES IDX 76 55 77 56 56 57 57 58 65 59 58 60 64 61 59 62 60 63 61 64
REMARK SMILES IDX 62 65 63 66 5 67 6 68 7 69 8 70 9 71 10 72 30 73 11 74 29 75
REMARK SMILES IDX 12 76 13 77 14 78 28 79 15 80 24 81 23 82 16 83 17 84 22 85
REMARK SMILES IDX 18 86 21 87 19 88 20 89 25 90 26 91 27 92
REMARK H PARENT 84 22 54 33
REMARK Flexibility Score: inf
ROOT
ATOM      1  C   UNL A   1      37.576  32.638  30.844  1.00  0.00     0.275 C 
ENDROOT
BRANCH   1   2
ATOM      2  O   UNL A   1      36.704  31.527  31.165  1.00  0.00    -0.458 OA
BRANCH   2   3
ATOM      3  C   UNL A   1      36.833  30.240  30.770  1.00  0.00     0.338 C 
ATOM      4  O   UNL A   1      35.935  29.424  30.918  1.00  0.00    -0.246 OA
BRANCH   3   5
ATOM      5  C   UNL A   1      38.116  29.789  30.228  1.00  0.00     0.060 A 
ATOM      6  C   UNL A   1      39.354  29.032  31.151  1.00  0.00     0.016 A 
ATOM      7  C   UNL A   1      38.405  30.018  28.515  1.00  0.00     0.016 A 
ATOM      8  C   UNL A   1      40.815  28.415  30.455  1.00  0.00     0.010 A 
ATOM      9  C   UNL A   1      40.036  29.296  27.701  1.00  0.00     0.010 A 
ATOM     10  C   UNL A   1      41.251  28.555  28.775  1.00  0.00    -0.014 A 
BRANCH  10  11
ATOM     11  C   UNL A   1      42.676  28.348  28.399  1.00  0.00     0.031 A 
ATOM     12  C   UNL A   1      43.704  29.435  28.692  1.00  0.00     0.074 A 
ATOM     13  C   UNL A   1      43.053  27.213  27.790  1.00  0.00     0.049 A 
ATOM     14  N   UNL A   1      44.912  29.602  28.211  1.00  0.00    -0.248 NA
ATOM     15  C   UNL A   1      43.317  30.518  29.608  1.00  0.00     0.031 C 
ATOM     16  C   UNL A   1      42.197  26.050  27.557  1.00  0.00     0.029 A 
ATOM     17  N   UNL A   1      44.271  26.839  27.283  1.00  0.00    -0.354 N 
ATOM     18  C   UNL A   1      45.320  30.872  28.629  1.00  0.00     0.074 A 
ATOM     19  C   UNL A   1      44.252  31.425  29.407  1.00  0.00     0.031 C 
ATOM     20  C   UNL A   1      42.918  25.090  26.956  1.00  0.00     0.029 A 
ATOM     21  C   UNL A   1      44.272  25.585  26.721  1.00  0.00     0.049 A 
ATOM     22  H   UNL A   1      45.070  27.414  27.319  1.00  0.00     0.167 HD
ATOM     23  C   UNL A   1      46.481  31.522  28.378  1.00  0.00     0.031 A 
ATOM     24  C   UNL A   1      45.255  24.918  26.083  1.00  0.00     0.031 A 
ATOM     25  C   UNL A   1      47.591  30.875  27.736  1.00  0.00     0.049 A 
ATOM     26  C   UNL A   1      46.603  25.575  25.965  1.00  0.00     0.074 A 
ATOM     27  C   UNL A   1      48.841  31.382  27.446  1.00  0.00     0.029 A 
ATOM     28  N   UNL A   1      47.583  29.548  27.327  1.00  0.00    -0.354 N 
ATOM     29  N   UNL A   1      46.965  26.779  26.347  1.00  0.00    -0.248 NA
ATOM     30  C   UNL A   1      47.682  24.784  25.362  1.00  0.00     0.031 C 
ATOM     31  C   UNL A   1      49.571  30.378  26.802  1.00  0.00     0.029 A 
ATOM     32  C   UNL A   1      48.794  29.229  26.749  1.00  0.00     0.049 A 
ATOM     33  H   UNL A   1      46.826  28.927  27.434  1.00  0.00     0.167 HD
ATOM     34  C   UNL A   1      48.317  26.884  26.049  1.00  0.00     0.074 A 
ATOM     35  C   UNL A   1      48.713  25.614  25.471  1.00  0.00     0.031 C 
ATOM     36  C   UNL A   1      49.155  27.936  26.227  1.00  0.00     0.031 A 
BRANCH  23  37
ATOM     37  C   UNL A   1      46.563  33.001  28.704  1.00  0.00    -0.014 A 
ATOM     38  C   UNL A   1      47.027  33.496  29.935  1.00  0.00     0.010 A 
ATOM     39  C   UNL A   1      46.119  33.928  27.738  1.00  0.00     0.010 A 
ATOM     40  C   UNL A   1      46.955  34.863  30.233  1.00  0.00     0.020 A 
ATOM     41  C   UNL A   1      46.095  35.300  28.009  1.00  0.00     0.020 A 
ATOM     42  C   UNL A   1      46.480  35.756  29.269  1.00  0.00     0.054 A 
BRANCH  42  43
ATOM     43  S   UNL A   1      46.403  37.525  29.666  1.00  0.00     0.124 S 
ATOM     44  O   UNL A   1      46.402  37.507  31.125  1.00  0.00    -0.237 OA
ATOM     45  O   UNL A   1      47.618  38.047  29.043  1.00  0.00    -0.237 OA
ATOM     46  O   UNL A   1      45.153  37.958  29.047  1.00  0.00    -0.744 OA
ENDBRANCH  42  43
ENDBRANCH  23  37
BRANCH  24  47
ATOM     47  C   UNL A   1      44.976  23.548  25.569  1.00  0.00    -0.014 A 
ATOM     48  C   UNL A   1      44.810  23.320  24.192  1.00  0.00     0.010 A 
ATOM     49  C   UNL A   1      45.027  22.443  26.440  1.00  0.00     0.010 A 
ATOM     50  C   UNL A   1      44.745  22.014  23.692  1.00  0.00     0.020 A 
ATOM     51  C   UNL A   1      44.985  21.136  25.942  1.00  0.00     0.020 A 
ATOM     52  C   UNL A   1      44.857  20.929  24.567  1.00  0.00     0.054 A 
BRANCH  52  53
ATOM     53  S   UNL A   1      44.946  19.252  23.875  1.00  0.00     0.124 S 
ATOM     54  O   UNL A   1      44.204  18.474  24.862  1.00  0.00    -0.237 OA
ATOM     55  O   UNL A   1      44.296  19.414  22.577  1.00  0.00    -0.237 OA
ATOM     56  O   UNL A   1      46.381  18.983  23.813  1.00  0.00    -0.744 OA
ENDBRANCH  52  53
ENDBRANCH  24  47
BRANCH  36  57
ATOM     57  C   UNL A   1      50.593  27.761  25.840  1.00  0.00    -0.014 A 
ATOM     58  C   UNL A   1      51.544  27.331  26.778  1.00  0.00     0.010 A 
ATOM     59  C   UNL A   1      50.955  27.884  24.486  1.00  0.00     0.010 A 
ATOM     60  C   UNL A   1      52.845  27.034  26.367  1.00  0.00     0.020 A 
ATOM     61  C   UNL A   1      52.248  27.568  24.070  1.00  0.00     0.020 A 
ATOM     62  C   UNL A   1      53.186  27.149  25.015  1.00  0.00     0.054 A 
BRANCH  62  63
ATOM     63  S   UNL A   1      54.856  26.674  24.496  1.00  0.00     0.124 S 
ATOM     64  O   UNL A   1      55.671  27.724  25.100  1.00  0.00    -0.237 OA
ATOM     65  O   UNL A   1      55.005  25.344  25.083  1.00  0.00    -0.237 OA
ATOM     66  O   UNL A   1      54.786  26.700  23.037  1.00  0.00    -0.744 OA
ENDBRANCH  62  63
ENDBRANCH  36  57
ENDBRANCH  10  11
ENDBRANCH   3   5
ENDBRANCH   2   3
ENDBRANCH   1   2
BRANCH   1  67
ATOM     67  C   UNL A   1      37.226  33.312  29.506  1.00  0.00     0.274 C 
BRANCH  67  68
ATOM     68  O   UNL A   1      35.962  33.998  29.598  1.00  0.00    -0.462 OA
BRANCH  68  69
ATOM     69  C   UNL A   1      34.796  33.305  29.446  1.00  0.00     0.309 C 
ATOM     70  O   UNL A   1      33.940  33.184  30.307  1.00  0.00    -0.252 OA
BRANCH  69  71
ATOM     71  C   UNL A   1      34.691  32.824  27.981  1.00  0.00     0.103 C 
ATOM     72  C   UNL A   1      32.918  33.355  27.428  1.00  0.00     0.037 C 
ATOM     73  C   UNL A   1      35.108  31.037  27.794  1.00  0.00     0.037 C 
ATOM     74  C   UNL A   1      31.528  31.692  27.011  1.00  0.00     0.120 C 
ATOM     75  C   UNL A   1      33.918  29.707  27.336  1.00  0.00     0.120 C 
ATOM     76  N   UNL A   1      32.311  30.011  26.895  1.00  0.00    -0.341 N 
BRANCH  76  77
ATOM     77  C   UNL A   1      31.902  29.338  25.730  1.00  0.00     0.226 A 
ATOM     78  N   UNL A   1      32.456  28.144  25.423  1.00  0.00    -0.213 NA
ATOM     79  N   UNL A   1      31.021  29.955  24.940  1.00  0.00    -0.212 NA
ATOM     80  C   UNL A   1      32.132  27.565  24.238  1.00  0.00     0.076 A 
ATOM     81  C   UNL A   1      30.625  29.323  23.806  1.00  0.00     0.112 A 
ATOM     82  C   UNL A   1      31.173  28.119  23.414  1.00  0.00     0.059 A 
BRANCH  80  83
ATOM     83  C   UNL A   1      32.848  26.318  23.860  1.00  0.00     0.001 A 
ATOM     84  C   UNL A   1      32.493  25.587  22.703  1.00  0.00     0.013 A 
ATOM     85  C   UNL A   1      33.898  25.796  24.636  1.00  0.00     0.013 A 
ATOM     86  C   UNL A   1      33.131  24.395  22.346  1.00  0.00     0.040 A 
ATOM     87  C   UNL A   1      34.535  24.594  24.289  1.00  0.00     0.040 A 
ATOM     88  C   UNL A   1      34.144  23.904  23.148  1.00  0.00     0.123 A 
ATOM     89  F   UNL A   1      34.744  22.749  22.832  1.00  0.00    -0.207 F 
ENDBRANCH  80  83
BRANCH  81  90
ATOM     90  C   UNL A   1      29.529  29.959  22.974  1.00  0.00     0.391 C 
ATOM     91  F   UNL A   1      29.281  31.247  23.353  1.00  0.00    -0.203 F 
ATOM     92  F   UNL A   1      29.834  29.998  21.649  1.00  0.00    -0.203 F 
ENDBRANCH  81  90
ENDBRANCH  76  77
ENDBRANCH  69  71
ENDBRANCH  68  69
ENDBRANCH  67  68
ENDBRANCH   1  67
TORSDOF 17
ENDMDL
