MODEL 1
REMARK VINA RESULT:     -14.1      0.000      0.000
REMARK SMILES O=C(OCCOC(=O)c1ccc(-c2c3nc(c(-c4ccc(S(=O)(=O)[O-])cc4)c4ccc([nH]4)c(-c4ccc(S(=O)(=O)[O-])cc4)c4nc(c(-c5ccc(S(=O)(=O)[O-])cc5)c5ccc2[nH]5)C=C4)C=C3)cc1)C1=Cc2cc(Cl)cc(-c3ccc(Cl)cc3)c2O[C@@H]1C(F)(F)F
REMARK SMILES IDX 5 1 4 2 3 3 2 4 1 5 69 6 70 7 86 8 71 9 85 10 72 11 84 12
REMARK SMILES IDX 73 13 76 14 74 15 75 16 87 17 88 18 89 19 90 20 77 21 78 22
REMARK SMILES IDX 83 23 79 24 82 25 80 26 81 27 6 28 7 29 8 30 9 31 10 32
REMARK SMILES IDX 68 33 11 34 67 35 12 36 13 37 14 38 61 39 15 40 66 41 60 42
REMARK SMILES IDX 62 43 16 44 65 45 59 46 58 47 17 49 47 50 28 51 46 52 29 53
REMARK SMILES IDX 32 54 45 55 63 56 30 57 31 58 44 60 64 61 33 62 18 63 19 64
REMARK SMILES IDX 27 65 20 66 26 67 21 68 22 69 23 70 24 71 25 72 48 73 49 74
REMARK SMILES IDX 57 75 50 76 56 77 51 78 52 79 53 80 54 81 55 82 34 83 35 84
REMARK SMILES IDX 43 85 36 86 42 87 37 88 38 89 39 90 40 91 41 92
REMARK H PARENT 62 48 32 59
REMARK Flexibility Score: inf
ROOT
ATOM      1  C   UNL A   1      32.635  29.670  26.568  1.00  0.00     0.275 C 
ENDROOT
BRANCH   1   2
ATOM      2  C   UNL A   1      31.957  27.617  26.454  1.00  0.00     0.275 C 
BRANCH   2   3
ATOM      3  O   UNL A   1      32.840  26.340  26.656  1.00  0.00    -0.459 OA
BRANCH   3   4
ATOM      4  C   UNL A   1      32.185  25.194  26.439  1.00  0.00     0.338 C 
ATOM      5  O   UNL A   1      31.533  24.507  27.181  1.00  0.00    -0.246 OA
BRANCH   4   6
ATOM      6  C   UNL A   1      32.766  24.966  25.144  1.00  0.00     0.087 C 
ATOM      7  C   UNL A   1      34.220  24.755  25.272  1.00  0.00     0.027 C 
ATOM      8  C   UNL A   1      31.501  23.638  24.534  1.00  0.00     0.316 C 
ATOM      9  C   UNL A   1      35.014  23.154  25.005  1.00  0.00     0.019 A 
ATOM     10  O   UNL A   1      32.327  21.911  24.284  1.00  0.00    -0.475 OA
ATOM     11  C   UNL A   1      36.336  23.073  25.351  1.00  0.00     0.032 A 
ATOM     12  C   UNL A   1      34.109  21.705  24.622  1.00  0.00     0.135 A 
ATOM     13  C   UNL A   1      36.855  21.781  25.365  1.00  0.00     0.042 A 
ATOM     14  C   UNL A   1      34.702  20.465  24.725  1.00  0.00     0.026 A 
ATOM     15  Cl  UNL A   1      38.509  21.593  25.847  1.00  0.00    -0.084 Cl
ATOM     16  C   UNL A   1      36.098  20.583  25.073  1.00  0.00     0.033 A 
BRANCH   8  17
ATOM     17  C   UNL A   1      30.623  24.566  23.618  1.00  0.00     0.430 C 
ATOM     18  F   UNL A   1      29.843  23.859  22.791  1.00  0.00    -0.167 F 
ATOM     19  F   UNL A   1      29.744  25.239  24.422  1.00  0.00    -0.167 F 
ATOM     20  F   UNL A   1      31.257  25.559  22.973  1.00  0.00    -0.167 F 
ENDBRANCH   8  17
BRANCH  14  21
ATOM     21  C   UNL A   1      34.178  19.103  24.672  1.00  0.00    -0.015 A 
ATOM     22  C   UNL A   1      32.933  18.840  25.293  1.00  0.00     0.010 A 
ATOM     23  C   UNL A   1      34.978  18.012  24.320  1.00  0.00     0.010 A 
ATOM     24  C   UNL A   1      32.530  17.541  25.608  1.00  0.00     0.021 A 
ATOM     25  C   UNL A   1      34.572  16.705  24.629  1.00  0.00     0.021 A 
ATOM     26  C   UNL A   1      33.361  16.477  25.285  1.00  0.00     0.041 A 
ATOM     27  Cl  UNL A   1      32.908  14.880  25.740  1.00  0.00    -0.084 Cl
ENDBRANCH  14  21
ENDBRANCH   4   6
ENDBRANCH   3   4
ENDBRANCH   2   3
ENDBRANCH   1   2
BRANCH   1  28
ATOM     28  O   UNL A   1      33.342  30.439  27.909  1.00  0.00    -0.458 OA
BRANCH  28  29
ATOM     29  C   UNL A   1      34.414  31.165  28.346  1.00  0.00     0.338 C 
ATOM     30  O   UNL A   1      34.449  32.279  28.831  1.00  0.00    -0.246 OA
BRANCH  29  31
ATOM     31  C   UNL A   1      35.537  30.174  28.448  1.00  0.00     0.060 A 
ATOM     32  C   UNL A   1      36.401  30.021  27.350  1.00  0.00     0.016 A 
ATOM     33  C   UNL A   1      35.945  29.737  29.709  1.00  0.00     0.016 A 
ATOM     34  C   UNL A   1      37.750  29.685  27.564  1.00  0.00     0.010 A 
ATOM     35  C   UNL A   1      37.275  29.352  29.909  1.00  0.00     0.010 A 
ATOM     36  C   UNL A   1      38.209  29.403  28.859  1.00  0.00    -0.014 A 
BRANCH  36  37
ATOM     37  C   UNL A   1      39.599  28.940  29.121  1.00  0.00     0.031 A 
ATOM     38  C   UNL A   1      40.555  29.982  29.621  1.00  0.00     0.074 A 
ATOM     39  C   UNL A   1      40.047  27.702  28.819  1.00  0.00     0.049 A 
ATOM     40  N   UNL A   1      41.849  29.921  29.778  1.00  0.00    -0.248 NA
ATOM     41  C   UNL A   1      39.958  31.288  29.950  1.00  0.00     0.031 C 
ATOM     42  C   UNL A   1      39.234  26.588  28.329  1.00  0.00     0.029 A 
ATOM     43  N   UNL A   1      41.323  27.180  28.856  1.00  0.00    -0.354 N 
ATOM     44  C   UNL A   1      42.222  31.189  30.205  1.00  0.00     0.074 A 
ATOM     45  C   UNL A   1      41.028  32.002  30.243  1.00  0.00     0.031 C 
ATOM     46  C   UNL A   1      40.034  25.528  28.088  1.00  0.00     0.029 A 
ATOM     47  C   UNL A   1      41.421  25.888  28.381  1.00  0.00     0.049 A 
ATOM     48  H   UNL A   1      42.099  27.686  29.191  1.00  0.00     0.167 HD
ATOM     49  C   UNL A   1      43.449  31.644  30.541  1.00  0.00     0.031 A 
ATOM     50  C   UNL A   1      42.505  25.100  28.190  1.00  0.00     0.031 A 
ATOM     51  C   UNL A   1      44.644  30.859  30.460  1.00  0.00     0.049 A 
ATOM     52  C   UNL A   1      43.879  25.643  28.532  1.00  0.00     0.074 A 
ATOM     53  C   UNL A   1      45.937  31.226  30.780  1.00  0.00     0.029 A 
ATOM     54  N   UNL A   1      44.690  29.548  30.012  1.00  0.00    -0.354 N 
ATOM     55  N   UNL A   1      44.207  26.824  29.004  1.00  0.00    -0.248 NA
ATOM     56  C   UNL A   1      45.028  24.746  28.321  1.00  0.00     0.031 C 
ATOM     57  C   UNL A   1      46.776  30.147  30.481  1.00  0.00     0.029 A 
ATOM     58  C   UNL A   1      45.994  29.092  30.032  1.00  0.00     0.049 A 
ATOM     59  H   UNL A   1      43.910  29.021  29.723  1.00  0.00     0.167 HD
ATOM     60  C   UNL A   1      45.590  26.796  29.181  1.00  0.00     0.074 A 
ATOM     61  C   UNL A   1      46.037  25.482  28.770  1.00  0.00     0.031 C 
ATOM     62  C   UNL A   1      46.414  27.767  29.645  1.00  0.00     0.031 A 
BRANCH  49  63
ATOM     63  C   UNL A   1      43.523  33.079  30.977  1.00  0.00    -0.014 A 
ATOM     64  C   UNL A   1      43.714  34.107  30.033  1.00  0.00     0.010 A 
ATOM     65  C   UNL A   1      43.494  33.396  32.345  1.00  0.00     0.010 A 
ATOM     66  C   UNL A   1      43.956  35.414  30.455  1.00  0.00     0.020 A 
ATOM     67  C   UNL A   1      43.701  34.710  32.770  1.00  0.00     0.020 A 
ATOM     68  C   UNL A   1      43.961  35.704  31.822  1.00  0.00     0.054 A 
BRANCH  68  69
ATOM     69  S   UNL A   1      44.319  37.401  32.347  1.00  0.00     0.124 S 
ATOM     70  O   UNL A   1      45.727  37.306  32.727  1.00  0.00    -0.237 OA
ATOM     71  O   UNL A   1      44.047  38.175  31.138  1.00  0.00    -0.237 OA
ATOM     72  O   UNL A   1      43.389  37.626  33.450  1.00  0.00    -0.744 OA
ENDBRANCH  68  69
ENDBRANCH  49  63
BRANCH  50  73
ATOM     73  C   UNL A   1      42.372  23.712  27.643  1.00  0.00    -0.014 A 
ATOM     74  C   UNL A   1      42.154  22.619  28.504  1.00  0.00     0.010 A 
ATOM     75  C   UNL A   1      42.519  23.462  26.266  1.00  0.00     0.010 A 
ATOM     76  C   UNL A   1      42.110  21.309  28.007  1.00  0.00     0.020 A 
ATOM     77  C   UNL A   1      42.452  22.156  25.760  1.00  0.00     0.020 A 
ATOM     78  C   UNL A   1      42.258  21.085  26.636  1.00  0.00     0.054 A 
BRANCH  78  79
ATOM     79  S   UNL A   1      42.163  19.381  26.008  1.00  0.00     0.124 S 
ATOM     80  O   UNL A   1      43.042  19.434  24.844  1.00  0.00    -0.237 OA
ATOM     81  O   UNL A   1      42.658  18.600  27.139  1.00  0.00    -0.237 OA
ATOM     82  O   UNL A   1      40.743  19.205  25.712  1.00  0.00    -0.744 OA
ENDBRANCH  78  79
ENDBRANCH  50  73
BRANCH  62  83
ATOM     83  C   UNL A   1      47.879  27.454  29.797  1.00  0.00    -0.014 A 
ATOM     84  C   UNL A   1      48.822  27.875  28.844  1.00  0.00     0.010 A 
ATOM     85  C   UNL A   1      48.329  26.850  30.987  1.00  0.00     0.010 A 
ATOM     86  C   UNL A   1      50.189  27.700  29.080  1.00  0.00     0.020 A 
ATOM     87  C   UNL A   1      49.694  26.697  31.237  1.00  0.00     0.020 A 
ATOM     88  C   UNL A   1      50.616  27.122  30.280  1.00  0.00     0.054 A 
BRANCH  88  89
ATOM     89  S   UNL A   1      52.397  27.001  30.608  1.00  0.00     0.124 S 
ATOM     90  O   UNL A   1      52.422  26.368  31.924  1.00  0.00    -0.237 OA
ATOM     91  O   UNL A   1      52.871  26.171  29.502  1.00  0.00    -0.237 OA
ATOM     92  O   UNL A   1      52.852  28.389  30.575  1.00  0.00    -0.744 OA
ENDBRANCH  88  89
ENDBRANCH  62  83
ENDBRANCH  36  37
ENDBRANCH  29  31
ENDBRANCH  28  29
ENDBRANCH   1  28
TORSDOF 16
ENDMDL
MODEL 2
REMARK VINA RESULT:     -13.7      3.470      9.877
REMARK SMILES O=C(OCCOC(=O)c1ccc(-c2c3nc(c(-c4ccc(S(=O)(=O)[O-])cc4)c4ccc([nH]4)c(-c4ccc(S(=O)(=O)[O-])cc4)c4nc(c(-c5ccc(S(=O)(=O)[O-])cc5)c5ccc2[nH]5)C=C4)C=C3)cc1)C1=Cc2cc(Cl)cc(-c3ccc(Cl)cc3)c2O[C@@H]1C(F)(F)F
REMARK SMILES IDX 5 1 4 2 3 3 2 4 1 5 69 6 70 7 86 8 71 9 85 10 72 11 84 12
REMARK SMILES IDX 73 13 76 14 74 15 75 16 87 17 88 18 89 19 90 20 77 21 78 22
REMARK SMILES IDX 83 23 79 24 82 25 80 26 81 27 6 28 7 29 8 30 9 31 10 32
REMARK SMILES IDX 68 33 11 34 67 35 12 36 13 37 14 38 61 39 15 40 66 41 60 42
REMARK SMILES IDX 62 43 16 44 65 45 59 46 58 47 17 49 47 50 28 51 46 52 29 53
REMARK SMILES IDX 32 54 45 55 63 56 30 57 31 58 44 60 64 61 33 62 18 63 19 64
REMARK SMILES IDX 27 65 20 66 26 67 21 68 22 69 23 70 24 71 25 72 48 73 49 74
REMARK SMILES IDX 57 75 50 76 56 77 51 78 52 79 53 80 54 81 55 82 34 83 35 84
REMARK SMILES IDX 43 85 36 86 42 87 37 88 38 89 39 90 40 91 41 92
REMARK H PARENT 62 48 32 59
REMARK Flexibility Score: inf
ROOT
ATOM      1  C   UNL A   1      37.262  21.742  24.655  1.00  0.00     0.275 C 
ENDROOT
BRANCH   1   2
ATOM      2  C   UNL A   1      36.020  23.171  23.605  1.00  0.00     0.275 C 
BRANCH   2   3
ATOM      3  O   UNL A   1      35.246  24.371  24.249  1.00  0.00    -0.459 OA
BRANCH   3   4
ATOM      4  C   UNL A   1      34.258  24.845  23.482  1.00  0.00     0.338 C 
ATOM      5  O   UNL A   1      34.267  25.266  22.355  1.00  0.00    -0.246 OA
BRANCH   4   6
ATOM      6  C   UNL A   1      33.303  24.927  24.554  1.00  0.00     0.087 C 
ATOM      7  C   UNL A   1      33.704  25.974  25.511  1.00  0.00     0.027 C 
ATOM      8  C   UNL A   1      31.708  24.971  23.463  1.00  0.00     0.316 C 
ATOM      9  C   UNL A   1      32.817  27.537  25.695  1.00  0.00     0.019 A 
ATOM     10  O   UNL A   1      30.771  26.653  23.618  1.00  0.00    -0.475 OA
ATOM     11  C   UNL A   1      33.422  28.483  26.479  1.00  0.00     0.032 A 
ATOM     12  C   UNL A   1      31.432  27.957  24.710  1.00  0.00     0.135 A 
ATOM     13  C   UNL A   1      32.846  29.749  26.410  1.00  0.00     0.042 A 
ATOM     14  C   UNL A   1      30.976  29.257  24.667  1.00  0.00     0.026 A 
ATOM     15  Cl  UNL A   1      33.591  31.013  27.332  1.00  0.00    -0.084 Cl
ATOM     16  C   UNL A   1      31.718  30.099  25.575  1.00  0.00     0.033 A 
BRANCH   8  17
ATOM     17  C   UNL A   1      31.279  23.468  23.628  1.00  0.00     0.430 C 
ATOM     18  F   UNL A   1      30.070  23.233  23.101  1.00  0.00    -0.167 F 
ATOM     19  F   UNL A   1      32.131  22.704  22.878  1.00  0.00    -0.167 F 
ATOM     20  F   UNL A   1      31.398  22.932  24.854  1.00  0.00    -0.167 F 
ENDBRANCH   8  17
BRANCH  14  21
ATOM     21  C   UNL A   1      30.006  29.944  23.819  1.00  0.00    -0.015 A 
ATOM     22  C   UNL A   1      29.941  29.588  22.451  1.00  0.00     0.010 A 
ATOM     23  C   UNL A   1      29.375  31.126  24.219  1.00  0.00     0.010 A 
ATOM     24  C   UNL A   1      29.324  30.411  21.506  1.00  0.00     0.021 A 
ATOM     25  C   UNL A   1      28.749  31.952  23.272  1.00  0.00     0.021 A 
ATOM     26  C   UNL A   1      28.741  31.600  21.922  1.00  0.00     0.041 A 
ATOM     27  Cl  UNL A   1      28.049  32.658  20.754  1.00  0.00    -0.084 Cl
ENDBRANCH  14  21
ENDBRANCH   4   6
ENDBRANCH   3   4
ENDBRANCH   2   3
ENDBRANCH   1   2
BRANCH   1  28
ATOM     28  O   UNL A   1      38.266  22.050  25.992  1.00  0.00    -0.458 OA
BRANCH  28  29
ATOM     29  C   UNL A   1      39.509  22.458  26.388  1.00  0.00     0.338 C 
ATOM     30  O   UNL A   1      40.581  21.896  26.273  1.00  0.00    -0.246 OA
BRANCH  29  31
ATOM     31  C   UNL A   1      39.360  23.923  26.681  1.00  0.00     0.060 A 
ATOM     32  C   UNL A   1      38.845  24.309  27.931  1.00  0.00     0.016 A 
ATOM     33  C   UNL A   1      40.080  24.845  25.920  1.00  0.00     0.016 A 
ATOM     34  C   UNL A   1      39.275  25.511  28.522  1.00  0.00     0.010 A 
ATOM     35  C   UNL A   1      40.462  26.063  26.492  1.00  0.00     0.010 A 
ATOM     36  C   UNL A   1      40.136  26.371  27.825  1.00  0.00    -0.014 A 
BRANCH  36  37
ATOM     37  C   UNL A   1      40.532  27.700  28.365  1.00  0.00     0.031 A 
ATOM     38  C   UNL A   1      41.917  27.791  28.933  1.00  0.00     0.074 A 
ATOM     39  C   UNL A   1      39.687  28.748  28.474  1.00  0.00     0.049 A 
ATOM     40  N   UNL A   1      42.478  28.753  29.613  1.00  0.00    -0.248 NA
ATOM     41  C   UNL A   1      42.767  26.606  28.733  1.00  0.00     0.031 C 
ATOM     42  C   UNL A   1      38.316  28.804  27.965  1.00  0.00     0.029 A 
ATOM     43  N   UNL A   1      39.856  29.973  29.084  1.00  0.00    -0.354 N 
ATOM     44  C   UNL A   1      43.741  28.277  29.939  1.00  0.00     0.074 A 
ATOM     45  C   UNL A   1      43.846  26.934  29.418  1.00  0.00     0.031 C 
ATOM     46  C   UNL A   1      37.764  29.988  28.307  1.00  0.00     0.029 A 
ATOM     47  C   UNL A   1      38.729  30.769  29.080  1.00  0.00     0.049 A 
ATOM     48  H   UNL A   1      40.708  30.256  29.490  1.00  0.00     0.167 HD
ATOM     49  C   UNL A   1      44.735  28.899  30.612  1.00  0.00     0.031 A 
ATOM     50  C   UNL A   1      38.502  31.975  29.650  1.00  0.00     0.031 A 
ATOM     51  C   UNL A   1      44.623  30.211  31.173  1.00  0.00     0.049 A 
ATOM     52  C   UNL A   1      39.616  32.639  30.438  1.00  0.00     0.074 A 
ATOM     53  C   UNL A   1      45.572  30.932  31.870  1.00  0.00     0.029 A 
ATOM     54  N   UNL A   1      43.479  30.993  31.111  1.00  0.00    -0.354 N 
ATOM     55  N   UNL A   1      40.832  32.205  30.676  1.00  0.00    -0.248 NA
ATOM     56  C   UNL A   1      39.328  33.958  31.028  1.00  0.00     0.031 C 
ATOM     57  C   UNL A   1      44.988  32.137  32.272  1.00  0.00     0.029 A 
ATOM     58  C   UNL A   1      43.694  32.188  31.772  1.00  0.00     0.049 A 
ATOM     59  H   UNL A   1      42.642  30.737  30.664  1.00  0.00     0.167 HD
ATOM     60  C   UNL A   1      41.462  33.210  31.407  1.00  0.00     0.074 A 
ATOM     61  C   UNL A   1      40.497  34.277  31.570  1.00  0.00     0.031 C 
ATOM     62  C   UNL A   1      42.726  33.250  31.897  1.00  0.00     0.031 A 
BRANCH  49  63
ATOM     63  C   UNL A   1      46.000  28.111  30.796  1.00  0.00    -0.014 A 
ATOM     64  C   UNL A   1      46.162  27.263  31.909  1.00  0.00     0.010 A 
ATOM     65  C   UNL A   1      47.069  28.287  29.902  1.00  0.00     0.010 A 
ATOM     66  C   UNL A   1      47.397  26.670  32.169  1.00  0.00     0.020 A 
ATOM     67  C   UNL A   1      48.297  27.667  30.139  1.00  0.00     0.020 A 
ATOM     68  C   UNL A   1      48.461  26.887  31.289  1.00  0.00     0.054 A 
BRANCH  68  69
ATOM     69  S   UNL A   1      50.067  26.140  31.671  1.00  0.00     0.124 S 
ATOM     70  O   UNL A   1      50.645  25.979  30.338  1.00  0.00    -0.237 OA
ATOM     71  O   UNL A   1      50.701  27.152  32.511  1.00  0.00    -0.237 OA
ATOM     72  O   UNL A   1      49.717  24.896  32.353  1.00  0.00    -0.744 OA
ENDBRANCH  68  69
ENDBRANCH  49  63
BRANCH  50  73
ATOM     73  C   UNL A   1      37.176  32.660  29.523  1.00  0.00    -0.014 A 
ATOM     74  C   UNL A   1      36.962  33.634  28.528  1.00  0.00     0.010 A 
ATOM     75  C   UNL A   1      36.134  32.387  30.428  1.00  0.00     0.010 A 
ATOM     76  C   UNL A   1      35.751  34.335  28.455  1.00  0.00     0.020 A 
ATOM     77  C   UNL A   1      34.911  33.068  30.345  1.00  0.00     0.020 A 
ATOM     78  C   UNL A   1      34.730  34.047  29.365  1.00  0.00     0.054 A 
BRANCH  78  79
ATOM     79  S   UNL A   1      33.154  34.943  29.230  1.00  0.00     0.124 S 
ATOM     80  O   UNL A   1      33.576  36.223  28.669  1.00  0.00    -0.237 OA
ATOM     81  O   UNL A   1      32.379  34.086  28.337  1.00  0.00    -0.237 OA
ATOM     82  O   UNL A   1      32.671  34.994  30.608  1.00  0.00    -0.744 OA
ENDBRANCH  78  79
ENDBRANCH  50  73
BRANCH  62  83
ATOM     83  C   UNL A   1      43.181  34.496  32.609  1.00  0.00    -0.014 A 
ATOM     84  C   UNL A   1      43.671  35.607  31.901  1.00  0.00     0.010 A 
ATOM     85  C   UNL A   1      42.980  34.602  33.999  1.00  0.00     0.010 A 
ATOM     86  C   UNL A   1      43.950  36.802  32.571  1.00  0.00     0.020 A 
ATOM     87  C   UNL A   1      43.232  35.802  34.667  1.00  0.00     0.020 A 
ATOM     88  C   UNL A   1      43.718  36.895  33.948  1.00  0.00     0.054 A 
BRANCH  88  89
ATOM     89  S   UNL A   1      43.988  38.487  34.776  1.00  0.00     0.124 S 
ATOM     90  O   UNL A   1      43.661  38.169  36.163  1.00  0.00    -0.237 OA
ATOM     91  O   UNL A   1      45.400  38.753  34.508  1.00  0.00    -0.237 OA
ATOM     92  O   UNL A   1      43.054  39.390  34.107  1.00  0.00    -0.744 OA
ENDBRANCH  88  89
ENDBRANCH  62  83
ENDBRANCH  36  37
ENDBRANCH  29  31
ENDBRANCH  28  29
ENDBRANCH   1  28
TORSDOF 16
ENDMDL
MODEL 3
REMARK VINA RESULT:     -13.6      2.433      3.127
REMARK SMILES O=C(OCCOC(=O)c1ccc(-c2c3nc(c(-c4ccc(S(=O)(=O)[O-])cc4)c4ccc([nH]4)c(-c4ccc(S(=O)(=O)[O-])cc4)c4nc(c(-c5ccc(S(=O)(=O)[O-])cc5)c5ccc2[nH]5)C=C4)C=C3)cc1)C1=Cc2cc(Cl)cc(-c3ccc(Cl)cc3)c2O[C@@H]1C(F)(F)F
REMARK SMILES IDX 5 1 4 2 3 3 2 4 1 5 69 6 70 7 86 8 71 9 85 10 72 11 84 12
REMARK SMILES IDX 73 13 76 14 74 15 75 16 87 17 88 18 89 19 90 20 77 21 78 22
REMARK SMILES IDX 83 23 79 24 82 25 80 26 81 27 6 28 7 29 8 30 9 31 10 32
REMARK SMILES IDX 68 33 11 34 67 35 12 36 13 37 14 38 61 39 15 40 66 41 60 42
REMARK SMILES IDX 62 43 16 44 65 45 59 46 58 47 17 49 47 50 28 51 46 52 29 53
REMARK SMILES IDX 32 54 45 55 63 56 30 57 31 58 44 60 64 61 33 62 18 63 19 64
REMARK SMILES IDX 27 65 20 66 26 67 21 68 22 69 23 70 24 71 25 72 48 73 49 74
REMARK SMILES IDX 57 75 50 76 56 77 51 78 52 79 53 80 54 81 55 82 34 83 35 84
REMARK SMILES IDX 43 85 36 86 42 87 37 88 38 89 39 90 40 91 41 92
REMARK H PARENT 62 48 32 59
REMARK Flexibility Score: inf
ROOT
ATOM      1  C   UNL A   1      34.129  29.518  27.458  1.00  0.00     0.275 C 
ENDROOT
BRANCH   1   2
ATOM      2  C   UNL A   1      32.821  27.812  27.202  1.00  0.00     0.275 C 
BRANCH   2   3
ATOM      3  O   UNL A   1      32.596  27.011  25.876  1.00  0.00    -0.459 OA
BRANCH   3   4
ATOM      4  C   UNL A   1      32.499  25.689  26.058  1.00  0.00     0.338 C 
ATOM      5  O   UNL A   1      32.227  25.046  27.038  1.00  0.00    -0.246 OA
BRANCH   4   6
ATOM      6  C   UNL A   1      33.093  25.349  24.793  1.00  0.00     0.087 C 
ATOM      7  C   UNL A   1      34.528  25.061  24.970  1.00  0.00     0.027 C 
ATOM      8  C   UNL A   1      31.764  24.065  24.230  1.00  0.00     0.316 C 
ATOM      9  C   UNL A   1      35.230  23.403  24.818  1.00  0.00     0.019 A 
ATOM     10  O   UNL A   1      32.489  22.280  24.103  1.00  0.00    -0.475 OA
ATOM     11  C   UNL A   1      36.537  23.265  25.201  1.00  0.00     0.032 A 
ATOM     12  C   UNL A   1      34.247  21.989  24.497  1.00  0.00     0.135 A 
ATOM     13  C   UNL A   1      36.977  21.948  25.303  1.00  0.00     0.042 A 
ATOM     14  C   UNL A   1      34.763  20.726  24.687  1.00  0.00     0.026 A 
ATOM     15  Cl  UNL A   1      38.605  21.692  25.837  1.00  0.00    -0.084 Cl
ATOM     16  C   UNL A   1      36.155  20.781  25.063  1.00  0.00     0.033 A 
BRANCH   8  17
ATOM     17  C   UNL A   1      30.964  24.987  23.240  1.00  0.00     0.430 C 
ATOM     18  F   UNL A   1      31.643  25.212  22.107  1.00  0.00    -0.167 F 
ATOM     19  F   UNL A   1      29.849  24.304  22.838  1.00  0.00    -0.167 F 
ATOM     20  F   UNL A   1      30.453  26.123  23.744  1.00  0.00    -0.167 F 
ENDBRANCH   8  17
BRANCH  14  21
ATOM     21  C   UNL A   1      34.158  19.396  24.700  1.00  0.00    -0.015 A 
ATOM     22  C   UNL A   1      32.962  19.212  25.436  1.00  0.00     0.010 A 
ATOM     23  C   UNL A   1      34.858  18.257  24.292  1.00  0.00     0.010 A 
ATOM     24  C   UNL A   1      32.515  17.941  25.803  1.00  0.00     0.021 A 
ATOM     25  C   UNL A   1      34.407  16.978  24.654  1.00  0.00     0.021 A 
ATOM     26  C   UNL A   1      33.251  16.827  25.420  1.00  0.00     0.041 A 
ATOM     27  Cl  UNL A   1      32.751  15.263  25.936  1.00  0.00    -0.084 Cl
ENDBRANCH  14  21
ENDBRANCH   4   6
ENDBRANCH   3   4
ENDBRANCH   2   3
ENDBRANCH   1   2
BRANCH   1  28
ATOM     28  O   UNL A   1      35.766  29.489  27.917  1.00  0.00    -0.458 OA
BRANCH  28  29
ATOM     29  C   UNL A   1      36.643  29.697  28.945  1.00  0.00     0.338 C 
ATOM     30  O   UNL A   1      36.443  30.156  30.053  1.00  0.00    -0.246 OA
BRANCH  29  31
ATOM     31  C   UNL A   1      37.865  28.907  28.576  1.00  0.00     0.060 A 
ATOM     32  C   UNL A   1      38.439  29.110  27.309  1.00  0.00     0.016 A 
ATOM     33  C   UNL A   1      38.624  28.316  29.587  1.00  0.00     0.016 A 
ATOM     34  C   UNL A   1      39.830  28.971  27.142  1.00  0.00     0.010 A 
ATOM     35  C   UNL A   1      39.997  28.129  29.399  1.00  0.00     0.010 A 
ATOM     36  C   UNL A   1      40.627  28.532  28.209  1.00  0.00    -0.014 A 
BRANCH  36  37
ATOM     37  C   UNL A   1      42.083  28.269  28.050  1.00  0.00     0.031 A 
ATOM     38  C   UNL A   1      42.994  29.431  28.314  1.00  0.00     0.074 A 
ATOM     39  C   UNL A   1      42.588  27.109  27.575  1.00  0.00     0.049 A 
ATOM     40  N   UNL A   1      44.275  29.552  28.101  1.00  0.00    -0.248 NA
ATOM     41  C   UNL A   1      42.346  30.635  28.859  1.00  0.00     0.031 C 
ATOM     42  C   UNL A   1      41.826  25.896  27.277  1.00  0.00     0.029 A 
ATOM     43  N   UNL A   1      43.880  26.772  27.229  1.00  0.00    -0.354 N 
ATOM     44  C   UNL A   1      44.581  30.856  28.468  1.00  0.00     0.074 A 
ATOM     45  C   UNL A   1      43.350  31.491  28.877  1.00  0.00     0.031 C 
ATOM     46  C   UNL A   1      42.658  24.961  26.772  1.00  0.00     0.029 A 
ATOM     47  C   UNL A   1      44.011  25.512  26.684  1.00  0.00     0.049 A 
ATOM     48  H   UNL A   1      44.645  27.380  27.359  1.00  0.00     0.167 HD
ATOM     49  C   UNL A   1      45.781  31.477  28.471  1.00  0.00     0.031 A 
ATOM     50  C   UNL A   1      45.091  24.887  26.160  1.00  0.00     0.031 A 
ATOM     51  C   UNL A   1      46.998  30.870  28.022  1.00  0.00     0.049 A 
ATOM     52  C   UNL A   1      46.421  25.616  26.131  1.00  0.00     0.074 A 
ATOM     53  C   UNL A   1      48.268  31.413  27.986  1.00  0.00     0.029 A 
ATOM     54  N   UNL A   1      47.089  29.582  27.515  1.00  0.00    -0.354 N 
ATOM     55  N   UNL A   1      46.709  26.827  26.550  1.00  0.00    -0.248 NA
ATOM     56  C   UNL A   1      47.573  24.893  25.565  1.00  0.00     0.031 C 
ATOM     57  C   UNL A   1      49.124  30.467  27.413  1.00  0.00     0.029 A 
ATOM     58  C   UNL A   1      48.395  29.316  27.149  1.00  0.00     0.049 A 
ATOM     59  H   UNL A   1      46.338  28.953  27.430  1.00  0.00     0.167 HD
ATOM     60  C   UNL A   1      48.076  26.993  26.333  1.00  0.00     0.074 A 
ATOM     61  C   UNL A   1      48.560  25.760  25.751  1.00  0.00     0.031 C 
ATOM     62  C   UNL A   1      48.861  28.067  26.596  1.00  0.00     0.031 A 
BRANCH  49  63
ATOM     63  C   UNL A   1      45.784  32.904  28.938  1.00  0.00    -0.014 A 
ATOM     64  C   UNL A   1      45.605  33.959  28.022  1.00  0.00     0.010 A 
ATOM     65  C   UNL A   1      46.058  33.197  30.284  1.00  0.00     0.010 A 
ATOM     66  C   UNL A   1      45.780  35.282  28.430  1.00  0.00     0.020 A 
ATOM     67  C   UNL A   1      46.200  34.522  30.703  1.00  0.00     0.020 A 
ATOM     68  C   UNL A   1      46.091  35.553  29.765  1.00  0.00     0.054 A 
BRANCH  68  69
ATOM     69  S   UNL A   1      46.355  37.276  30.260  1.00  0.00     0.124 S 
ATOM     70  O   UNL A   1      45.484  37.389  31.427  1.00  0.00    -0.237 OA
ATOM     71  O   UNL A   1      47.788  37.314  30.541  1.00  0.00    -0.237 OA
ATOM     72  O   UNL A   1      45.932  38.041  29.090  1.00  0.00    -0.744 OA
ENDBRANCH  68  69
ENDBRANCH  49  63
BRANCH  50  73
ATOM     73  C   UNL A   1      44.996  23.499  25.605  1.00  0.00    -0.014 A 
ATOM     74  C   UNL A   1      45.267  22.381  26.416  1.00  0.00     0.010 A 
ATOM     75  C   UNL A   1      44.689  23.284  24.248  1.00  0.00     0.010 A 
ATOM     76  C   UNL A   1      45.258  21.085  25.882  1.00  0.00     0.020 A 
ATOM     77  C   UNL A   1      44.655  21.988  23.714  1.00  0.00     0.020 A 
ATOM     78  C   UNL A   1      44.951  20.896  24.533  1.00  0.00     0.054 A 
BRANCH  78  79
ATOM     79  S   UNL A   1      44.911  19.203  23.869  1.00  0.00     0.124 S 
ATOM     80  O   UNL A   1      44.488  19.425  22.490  1.00  0.00    -0.237 OA
ATOM     81  O   UNL A   1      46.293  18.764  24.043  1.00  0.00    -0.237 OA
ATOM     82  O   UNL A   1      43.936  18.525  24.720  1.00  0.00    -0.744 OA
ENDBRANCH  78  79
ENDBRANCH  50  73
BRANCH  62  83
ATOM     83  C   UNL A   1      50.337  27.963  26.318  1.00  0.00    -0.014 A 
ATOM     84  C   UNL A   1      51.240  27.533  27.306  1.00  0.00     0.010 A 
ATOM     85  C   UNL A   1      50.802  28.164  25.004  1.00  0.00     0.010 A 
ATOM     86  C   UNL A   1      52.581  27.305  26.983  1.00  0.00     0.020 A 
ATOM     87  C   UNL A   1      52.135  27.913  24.672  1.00  0.00     0.020 A 
ATOM     88  C   UNL A   1      53.017  27.486  25.665  1.00  0.00     0.054 A 
BRANCH  88  89
ATOM     89  S   UNL A   1      54.737  27.083  25.249  1.00  0.00     0.124 S 
ATOM     90  O   UNL A   1      55.322  26.848  26.566  1.00  0.00    -0.237 OA
ATOM     91  O   UNL A   1      54.593  25.899  24.405  1.00  0.00    -0.237 OA
ATOM     92  O   UNL A   1      55.216  28.278  24.558  1.00  0.00    -0.744 OA
ENDBRANCH  88  89
ENDBRANCH  62  83
ENDBRANCH  36  37
ENDBRANCH  29  31
ENDBRANCH  28  29
ENDBRANCH   1  28
TORSDOF 16
ENDMDL
