MODEL 1
REMARK VINA RESULT:     -11.7      0.000      0.000
REMARK SMILES C[C@H]1[C@@H](C(=O)OCCOC(=O)c2ccc(-c3c4nc(c(-c5ccc(S(=O)(=O)[O-])cc5)c5ccc([nH]5)c(-c5ccc(S(=O)(=O)[O-])cc5)c5nc(c(-c6ccc(S(=O)(=O)[O-])cc6)c6ccc3[nH]6)C=C5)C=C4)cc2)CCN1C(=O)c1cc2cc(F)ccc2s1
REMARK SMILES IDX 8 1 7 2 6 3 4 4 5 5 3 6 1 7 2 8 74 9 72 10 73 11 75 12 76 13
REMARK SMILES IDX 77 14 78 15 86 16 79 17 85 18 80 19 84 20 81 21 83 22 82 23
REMARK SMILES IDX 9 24 10 25 11 26 12 27 13 28 71 29 14 30 70 31 15 32 16 33
REMARK SMILES IDX 17 34 64 35 18 36 69 37 63 38 65 39 19 40 68 41 62 42 61 43
REMARK SMILES IDX 20 45 50 46 31 47 49 48 32 49 35 50 48 51 66 52 33 53 34 54
REMARK SMILES IDX 47 56 67 57 36 58 21 59 22 60 30 61 23 62 29 63 24 64 25 65
REMARK SMILES IDX 26 66 27 67 28 68 51 69 52 70 60 71 53 72 59 73 54 74 55 75
REMARK SMILES IDX 56 76 57 77 58 78 37 79 38 80 46 81 39 82 45 83 40 84 41 85
REMARK SMILES IDX 42 86 43 87 44 88
REMARK H PARENT 65 44 35 55
REMARK Flexibility Score: inf
ROOT
ATOM      1  C   UNL A   1      32.322  29.869  27.243  1.00  0.00     0.275 C 
ENDROOT
BRANCH   1   2
ATOM      2  C   UNL A   1      31.861  30.239  25.838  1.00  0.00     0.274 C 
BRANCH   2   3
ATOM      3  O   UNL A   1      31.117  29.161  25.238  1.00  0.00    -0.462 OA
BRANCH   3   4
ATOM      4  C   UNL A   1      30.697  29.338  23.968  1.00  0.00     0.311 C 
ATOM      5  O   UNL A   1      29.834  30.145  23.636  1.00  0.00    -0.252 OA
BRANCH   4   6
ATOM      6  C   UNL A   1      31.351  28.427  22.949  1.00  0.00     0.123 C 
ATOM      7  C   UNL A   1      30.641  26.196  24.210  1.00  0.00     0.032 C 
ATOM      8  C   UNL A   1      31.474  26.904  23.155  1.00  0.00     0.096 C 
ATOM      9  N   UNL A   1      32.900  26.634  23.340  1.00  0.00    -0.334 N 
ATOM     10  C   UNL A   1      32.797  28.865  22.679  1.00  0.00     0.039 C 
ATOM     11  C   UNL A   1      33.607  27.889  23.510  1.00  0.00     0.121 C 
BRANCH   9  12
ATOM     12  C   UNL A   1      33.445  25.737  22.429  1.00  0.00     0.264 C 
ATOM     13  O   UNL A   1      33.532  26.026  21.236  1.00  0.00    -0.268 OA
BRANCH  12  14
ATOM     14  C   UNL A   1      33.886  24.463  22.945  1.00  0.00     0.093 A 
ATOM     15  C   UNL A   1      34.752  24.282  24.001  1.00  0.00     0.034 A 
ATOM     16  S   UNL A   1      33.218  22.978  22.442  1.00  0.00    -0.130 S 
ATOM     17  C   UNL A   1      34.436  23.084  24.712  1.00  0.00    -0.004 A 
ATOM     18  C   UNL A   1      33.545  22.285  23.988  1.00  0.00     0.035 A 
ATOM     19  C   UNL A   1      34.783  22.696  26.024  1.00  0.00     0.048 A 
ATOM     20  C   UNL A   1      32.983  21.118  24.535  1.00  0.00     0.022 A 
ATOM     21  C   UNL A   1      34.150  21.596  26.592  1.00  0.00     0.123 A 
ATOM     22  C   UNL A   1      33.261  20.818  25.870  1.00  0.00     0.041 A 
ATOM     23  F   UNL A   1      34.374  21.315  27.883  1.00  0.00    -0.207 F 
ENDBRANCH  12  14
ENDBRANCH   9  12
ENDBRANCH   4   6
ENDBRANCH   3   4
ENDBRANCH   2   3
ENDBRANCH   1   2
BRANCH   1  24
ATOM     24  O   UNL A   1      33.749  29.709  27.263  1.00  0.00    -0.458 OA
BRANCH  24  25
ATOM     25  C   UNL A   1      34.415  30.563  28.067  1.00  0.00     0.338 C 
ATOM     26  O   UNL A   1      33.992  31.586  28.587  1.00  0.00    -0.246 OA
BRANCH  25  27
ATOM     27  C   UNL A   1      35.778  30.067  28.274  1.00  0.00     0.060 A 
ATOM     28  C   UNL A   1      36.177  29.675  29.551  1.00  0.00     0.016 A 
ATOM     29  C   UNL A   1      36.690  30.091  27.222  1.00  0.00     0.016 A 
ATOM     30  C   UNL A   1      37.515  29.385  29.803  1.00  0.00     0.010 A 
ATOM     31  C   UNL A   1      38.011  29.704  27.456  1.00  0.00     0.010 A 
ATOM     32  C   UNL A   1      38.445  29.371  28.754  1.00  0.00    -0.014 A 
BRANCH  32  33
ATOM     33  C   UNL A   1      39.871  29.017  28.985  1.00  0.00     0.031 A 
ATOM     34  C   UNL A   1      40.835  30.070  29.462  1.00  0.00     0.074 A 
ATOM     35  C   UNL A   1      40.317  27.773  28.716  1.00  0.00     0.049 A 
ATOM     36  N   UNL A   1      42.141  30.062  29.445  1.00  0.00    -0.248 NA
ATOM     37  C   UNL A   1      40.248  31.303  30.013  1.00  0.00     0.031 C 
ATOM     38  C   UNL A   1      39.486  26.640  28.306  1.00  0.00     0.029 A 
ATOM     39  N   UNL A   1      41.591  27.260  28.733  1.00  0.00    -0.354 N 
ATOM     40  C   UNL A   1      42.535  31.309  29.919  1.00  0.00     0.074 A 
ATOM     41  C   UNL A   1      41.327  32.044  30.228  1.00  0.00     0.031 C 
ATOM     42  C   UNL A   1      40.266  25.564  28.122  1.00  0.00     0.029 A 
ATOM     43  C   UNL A   1      41.659  25.954  28.308  1.00  0.00     0.049 A 
ATOM     44  H   UNL A   1      42.377  27.777  29.021  1.00  0.00     0.167 HD
ATOM     45  C   UNL A   1      43.790  31.798  30.064  1.00  0.00     0.031 A 
ATOM     46  C   UNL A   1      42.720  25.171  28.033  1.00  0.00     0.031 A 
ATOM     47  C   UNL A   1      44.982  31.042  29.787  1.00  0.00     0.049 A 
ATOM     48  C   UNL A   1      44.102  25.741  28.167  1.00  0.00     0.074 A 
ATOM     49  C   UNL A   1      46.302  31.443  29.900  1.00  0.00     0.029 A 
ATOM     50  N   UNL A   1      44.999  29.723  29.358  1.00  0.00    -0.354 N 
ATOM     51  N   UNL A   1      44.460  26.946  28.542  1.00  0.00    -0.248 NA
ATOM     52  C   UNL A   1      45.223  24.857  27.822  1.00  0.00     0.031 C 
ATOM     53  C   UNL A   1      47.117  30.374  29.511  1.00  0.00     0.029 A 
ATOM     54  C   UNL A   1      46.305  29.296  29.196  1.00  0.00     0.049 A 
ATOM     55  H   UNL A   1      44.200  29.172  29.194  1.00  0.00     0.167 HD
ATOM     56  C   UNL A   1      45.847  26.960  28.491  1.00  0.00     0.074 A 
ATOM     57  C   UNL A   1      46.266  25.643  28.058  1.00  0.00     0.031 C 
ATOM     58  C   UNL A   1      46.697  27.976  28.776  1.00  0.00     0.031 A 
BRANCH  45  59
ATOM     59  C   UNL A   1      43.936  33.232  30.493  1.00  0.00    -0.014 A 
ATOM     60  C   UNL A   1      43.926  34.286  29.563  1.00  0.00     0.010 A 
ATOM     61  C   UNL A   1      44.044  33.531  31.864  1.00  0.00     0.010 A 
ATOM     62  C   UNL A   1      44.060  35.610  29.994  1.00  0.00     0.020 A 
ATOM     63  C   UNL A   1      44.156  34.854  32.300  1.00  0.00     0.020 A 
ATOM     64  C   UNL A   1      44.182  35.885  31.360  1.00  0.00     0.054 A 
BRANCH  64  65
ATOM     65  S   UNL A   1      44.340  37.611  31.897  1.00  0.00     0.124 S 
ATOM     66  O   UNL A   1      45.763  37.697  32.213  1.00  0.00    -0.237 OA
ATOM     67  O   UNL A   1      43.913  38.359  30.718  1.00  0.00    -0.237 OA
ATOM     68  O   UNL A   1      43.441  37.698  33.045  1.00  0.00    -0.744 OA
ENDBRANCH  64  65
ENDBRANCH  45  59
BRANCH  46  69
ATOM     69  C   UNL A   1      42.499  23.785  27.541  1.00  0.00    -0.014 A 
ATOM     70  C   UNL A   1      42.505  23.507  26.164  1.00  0.00     0.010 A 
ATOM     71  C   UNL A   1      42.338  22.726  28.455  1.00  0.00     0.010 A 
ATOM     72  C   UNL A   1      42.358  22.193  25.709  1.00  0.00     0.020 A 
ATOM     73  C   UNL A   1      42.217  21.409  28.004  1.00  0.00     0.020 A 
ATOM     74  C   UNL A   1      42.220  21.151  26.632  1.00  0.00     0.054 A 
BRANCH  74  75
ATOM     75  S   UNL A   1      42.120  19.443  26.027  1.00  0.00     0.124 S 
ATOM     76  O   UNL A   1      42.985  19.488  24.852  1.00  0.00    -0.237 OA
ATOM     77  O   UNL A   1      42.629  18.672  27.159  1.00  0.00    -0.237 OA
ATOM     78  O   UNL A   1      40.696  19.263  25.753  1.00  0.00    -0.744 OA
ENDBRANCH  74  75
ENDBRANCH  46  69
BRANCH  58  79
ATOM     79  C   UNL A   1      48.170  27.695  28.672  1.00  0.00    -0.014 A 
ATOM     80  C   UNL A   1      48.854  27.028  29.701  1.00  0.00     0.010 A 
ATOM     81  C   UNL A   1      48.853  28.030  27.489  1.00  0.00     0.010 A 
ATOM     82  C   UNL A   1      50.204  26.704  29.551  1.00  0.00     0.020 A 
ATOM     83  C   UNL A   1      50.198  27.692  27.329  1.00  0.00     0.020 A 
ATOM     84  C   UNL A   1      50.867  27.036  28.365  1.00  0.00     0.054 A 
BRANCH  84  85
ATOM     85  S   UNL A   1      52.600  26.538  28.160  1.00  0.00     0.124 S 
ATOM     86  O   UNL A   1      52.982  26.198  29.528  1.00  0.00    -0.237 OA
ATOM     87  O   UNL A   1      52.504  25.410  27.236  1.00  0.00    -0.237 OA
ATOM     88  O   UNL A   1      53.239  27.732  27.611  1.00  0.00    -0.744 OA
ENDBRANCH  84  85
ENDBRANCH  58  79
ENDBRANCH  32  33
ENDBRANCH  25  27
ENDBRANCH  24  25
ENDBRANCH   1  24
TORSDOF 16
ENDMDL
MODEL 2
REMARK VINA RESULT:     -11.4      1.452      2.078
REMARK SMILES C[C@H]1[C@@H](C(=O)OCCOC(=O)c2ccc(-c3c4nc(c(-c5ccc(S(=O)(=O)[O-])cc5)c5ccc([nH]5)c(-c5ccc(S(=O)(=O)[O-])cc5)c5nc(c(-c6ccc(S(=O)(=O)[O-])cc6)c6ccc3[nH]6)C=C5)C=C4)cc2)CCN1C(=O)c1cc2cc(F)ccc2s1
REMARK SMILES IDX 8 1 7 2 6 3 4 4 5 5 3 6 1 7 2 8 74 9 72 10 73 11 75 12 76 13
REMARK SMILES IDX 77 14 78 15 86 16 79 17 85 18 80 19 84 20 81 21 83 22 82 23
REMARK SMILES IDX 9 24 10 25 11 26 12 27 13 28 71 29 14 30 70 31 15 32 16 33
REMARK SMILES IDX 17 34 64 35 18 36 69 37 63 38 65 39 19 40 68 41 62 42 61 43
REMARK SMILES IDX 20 45 50 46 31 47 49 48 32 49 35 50 48 51 66 52 33 53 34 54
REMARK SMILES IDX 47 56 67 57 36 58 21 59 22 60 30 61 23 62 29 63 24 64 25 65
REMARK SMILES IDX 26 66 27 67 28 68 51 69 52 70 60 71 53 72 59 73 54 74 55 75
REMARK SMILES IDX 56 76 57 77 58 78 37 79 38 80 46 81 39 82 45 83 40 84 41 85
REMARK SMILES IDX 42 86 43 87 44 88
REMARK H PARENT 65 44 35 55
REMARK Flexibility Score: inf
ROOT
ATOM      1  C   UNL A   1      33.616  29.938  26.416  1.00  0.00     0.275 C 
ENDROOT
BRANCH   1   2
ATOM      2  C   UNL A   1      32.164  29.538  26.183  1.00  0.00     0.274 C 
BRANCH   2   3
ATOM      3  O   UNL A   1      31.975  29.031  24.848  1.00  0.00    -0.462 OA
BRANCH   3   4
ATOM      4  C   UNL A   1      31.081  28.032  24.691  1.00  0.00     0.311 C 
ATOM      5  O   UNL A   1      30.175  28.045  23.864  1.00  0.00    -0.252 OA
BRANCH   4   6
ATOM      6  C   UNL A   1      31.250  26.872  25.651  1.00  0.00     0.123 C 
ATOM      7  C   UNL A   1      33.654  26.211  24.724  1.00  0.00     0.032 C 
ATOM      8  C   UNL A   1      32.425  25.878  25.554  1.00  0.00     0.096 C 
ATOM      9  N   UNL A   1      31.842  24.601  25.144  1.00  0.00    -0.334 N 
ATOM     10  C   UNL A   1      30.014  25.962  25.625  1.00  0.00     0.039 C 
ATOM     11  C   UNL A   1      30.463  24.809  24.748  1.00  0.00     0.121 C 
BRANCH   9  12
ATOM     12  C   UNL A   1      32.082  23.545  26.016  1.00  0.00     0.264 C 
ATOM     13  O   UNL A   1      31.783  23.633  27.207  1.00  0.00    -0.268 OA
BRANCH  12  14
ATOM     14  C   UNL A   1      32.701  22.364  25.465  1.00  0.00     0.093 A 
ATOM     15  C   UNL A   1      33.077  21.248  26.179  1.00  0.00     0.034 A 
ATOM     16  S   UNL A   1      32.862  22.099  23.789  1.00  0.00    -0.130 S 
ATOM     17  C   UNL A   1      32.951  20.071  25.379  1.00  0.00    -0.004 A 
ATOM     18  C   UNL A   1      32.768  20.392  24.030  1.00  0.00     0.035 A 
ATOM     19  C   UNL A   1      32.860  18.719  25.772  1.00  0.00     0.048 A 
ATOM     20  C   UNL A   1      32.488  19.410  23.064  1.00  0.00     0.022 A 
ATOM     21  C   UNL A   1      32.488  17.766  24.831  1.00  0.00     0.123 A 
ATOM     22  C   UNL A   1      32.299  18.097  23.499  1.00  0.00     0.041 A 
ATOM     23  F   UNL A   1      32.263  16.508  25.235  1.00  0.00    -0.207 F 
ENDBRANCH  12  14
ENDBRANCH   9  12
ENDBRANCH   4   6
ENDBRANCH   3   4
ENDBRANCH   2   3
ENDBRANCH   1   2
BRANCH   1  24
ATOM     24  O   UNL A   1      34.015  29.578  27.747  1.00  0.00    -0.458 OA
BRANCH  24  25
ATOM     25  C   UNL A   1      34.779  30.488  28.387  1.00  0.00     0.338 C 
ATOM     26  O   UNL A   1      34.433  31.565  28.850  1.00  0.00    -0.246 OA
BRANCH  25  27
ATOM     27  C   UNL A   1      36.151  29.980  28.486  1.00  0.00     0.060 A 
ATOM     28  C   UNL A   1      36.611  29.488  29.708  1.00  0.00     0.016 A 
ATOM     29  C   UNL A   1      37.010  30.089  27.396  1.00  0.00     0.016 A 
ATOM     30  C   UNL A   1      37.959  29.181  29.869  1.00  0.00     0.010 A 
ATOM     31  C   UNL A   1      38.340  29.687  27.534  1.00  0.00     0.010 A 
ATOM     32  C   UNL A   1      38.836  29.253  28.778  1.00  0.00    -0.014 A 
BRANCH  32  33
ATOM     33  C   UNL A   1      40.271  28.885  28.910  1.00  0.00     0.031 A 
ATOM     34  C   UNL A   1      41.279  29.933  29.298  1.00  0.00     0.074 A 
ATOM     35  C   UNL A   1      40.682  27.631  28.630  1.00  0.00     0.049 A 
ATOM     36  N   UNL A   1      42.581  29.908  29.185  1.00  0.00    -0.248 NA
ATOM     37  C   UNL A   1      40.749  31.181  29.869  1.00  0.00     0.031 C 
ATOM     38  C   UNL A   1      39.810  26.502  28.301  1.00  0.00     0.029 A 
ATOM     39  N   UNL A   1      41.948  27.102  28.563  1.00  0.00    -0.354 N 
ATOM     40  C   UNL A   1      43.022  31.157  29.608  1.00  0.00     0.074 A 
ATOM     41  C   UNL A   1      41.849  31.912  29.992  1.00  0.00     0.031 C 
ATOM     42  C   UNL A   1      40.562  25.413  28.079  1.00  0.00     0.029 A 
ATOM     43  C   UNL A   1      41.969  25.789  28.156  1.00  0.00     0.049 A 
ATOM     44  H   UNL A   1      42.759  27.613  28.784  1.00  0.00     0.167 HD
ATOM     45  C   UNL A   1      44.290  31.632  29.652  1.00  0.00     0.031 A 
ATOM     46  C   UNL A   1      42.998  24.988  27.817  1.00  0.00     0.031 A 
ATOM     47  C   UNL A   1      45.450  30.857  29.302  1.00  0.00     0.049 A 
ATOM     48  C   UNL A   1      44.393  25.543  27.840  1.00  0.00     0.074 A 
ATOM     49  C   UNL A   1      46.780  31.243  29.312  1.00  0.00     0.029 A 
ATOM     50  N   UNL A   1      45.420  29.532  28.895  1.00  0.00    -0.354 N 
ATOM     51  N   UNL A   1      44.791  26.748  28.168  1.00  0.00    -0.248 NA
ATOM     52  C   UNL A   1      45.475  24.638  27.428  1.00  0.00     0.031 C 
ATOM     53  C   UNL A   1      47.551  30.158  28.882  1.00  0.00     0.029 A 
ATOM     54  C   UNL A   1      46.706  29.085  28.646  1.00  0.00     0.049 A 
ATOM     55  H   UNL A   1      44.605  28.988  28.799  1.00  0.00     0.167 HD
ATOM     56  C   UNL A   1      46.171  26.744  28.016  1.00  0.00     0.074 A 
ATOM     57  C   UNL A   1      46.541  25.415  27.574  1.00  0.00     0.031 C 
ATOM     58  C   UNL A   1      47.051  27.754  28.220  1.00  0.00     0.031 A 
BRANCH  45  59
ATOM     59  C   UNL A   1      44.484  33.071  30.046  1.00  0.00    -0.014 A 
ATOM     60  C   UNL A   1      44.829  33.437  31.359  1.00  0.00     0.010 A 
ATOM     61  C   UNL A   1      44.357  34.074  29.067  1.00  0.00     0.010 A 
ATOM     62  C   UNL A   1      45.007  34.783  31.694  1.00  0.00     0.020 A 
ATOM     63  C   UNL A   1      44.555  35.419  29.393  1.00  0.00     0.020 A 
ATOM     64  C   UNL A   1      44.861  35.767  30.710  1.00  0.00     0.054 A 
BRANCH  64  65
ATOM     65  S   UNL A   1      45.111  37.506  31.163  1.00  0.00     0.124 S 
ATOM     66  O   UNL A   1      45.899  37.386  32.388  1.00  0.00    -0.237 OA
ATOM     67  O   UNL A   1      45.824  38.044  30.009  1.00  0.00    -0.237 OA
ATOM     68  O   UNL A   1      43.753  38.013  31.345  1.00  0.00    -0.744 OA
ENDBRANCH  64  65
ENDBRANCH  45  59
BRANCH  46  69
ATOM     69  C   UNL A   1      42.726  23.597  27.366  1.00  0.00    -0.014 A 
ATOM     70  C   UNL A   1      42.793  23.263  26.004  1.00  0.00     0.010 A 
ATOM     71  C   UNL A   1      42.453  22.587  28.308  1.00  0.00     0.010 A 
ATOM     72  C   UNL A   1      42.597  21.941  25.590  1.00  0.00     0.020 A 
ATOM     73  C   UNL A   1      42.282  21.262  27.901  1.00  0.00     0.020 A 
ATOM     74  C   UNL A   1      42.347  20.948  26.542  1.00  0.00     0.054 A 
BRANCH  74  75
ATOM     75  S   UNL A   1      42.184  19.224  25.998  1.00  0.00     0.124 S 
ATOM     76  O   UNL A   1      40.753  19.127  25.729  1.00  0.00    -0.237 OA
ATOM     77  O   UNL A   1      43.053  19.175  24.825  1.00  0.00    -0.237 OA
ATOM     78  O   UNL A   1      42.660  18.459  27.148  1.00  0.00    -0.744 OA
ENDBRANCH  74  75
ENDBRANCH  46  69
BRANCH  58  79
ATOM     79  C   UNL A   1      48.509  27.453  28.013  1.00  0.00    -0.014 A 
ATOM     80  C   UNL A   1      49.308  26.982  29.068  1.00  0.00     0.010 A 
ATOM     81  C   UNL A   1      49.059  27.563  26.723  1.00  0.00     0.010 A 
ATOM     82  C   UNL A   1      50.639  26.631  28.837  1.00  0.00     0.020 A 
ATOM     83  C   UNL A   1      50.385  27.196  26.486  1.00  0.00     0.020 A 
ATOM     84  C   UNL A   1      51.169  26.737  27.547  1.00  0.00     0.054 A 
BRANCH  84  85
ATOM     85  S   UNL A   1      52.878  26.203  27.253  1.00  0.00     0.124 S 
ATOM     86  O   UNL A   1      53.416  26.149  28.610  1.00  0.00    -0.237 OA
ATOM     87  O   UNL A   1      52.703  24.911  26.595  1.00  0.00    -0.237 OA
ATOM     88  O   UNL A   1      53.428  27.258  26.405  1.00  0.00    -0.744 OA
ENDBRANCH  84  85
ENDBRANCH  58  79
ENDBRANCH  32  33
ENDBRANCH  25  27
ENDBRANCH  24  25
ENDBRANCH   1  24
TORSDOF 16
ENDMDL
MODEL 3
REMARK VINA RESULT:     -11.3      1.789      2.527
REMARK SMILES C[C@H]1[C@@H](C(=O)OCCOC(=O)c2ccc(-c3c4nc(c(-c5ccc(S(=O)(=O)[O-])cc5)c5ccc([nH]5)c(-c5ccc(S(=O)(=O)[O-])cc5)c5nc(c(-c6ccc(S(=O)(=O)[O-])cc6)c6ccc3[nH]6)C=C5)C=C4)cc2)CCN1C(=O)c1cc2cc(F)ccc2s1
REMARK SMILES IDX 8 1 7 2 6 3 4 4 5 5 3 6 1 7 2 8 74 9 72 10 73 11 75 12 76 13
REMARK SMILES IDX 77 14 78 15 86 16 79 17 85 18 80 19 84 20 81 21 83 22 82 23
REMARK SMILES IDX 9 24 10 25 11 26 12 27 13 28 71 29 14 30 70 31 15 32 16 33
REMARK SMILES IDX 17 34 64 35 18 36 69 37 63 38 65 39 19 40 68 41 62 42 61 43
REMARK SMILES IDX 20 45 50 46 31 47 49 48 32 49 35 50 48 51 66 52 33 53 34 54
REMARK SMILES IDX 47 56 67 57 36 58 21 59 22 60 30 61 23 62 29 63 24 64 25 65
REMARK SMILES IDX 26 66 27 67 28 68 51 69 52 70 60 71 53 72 59 73 54 74 55 75
REMARK SMILES IDX 56 76 57 77 58 78 37 79 38 80 46 81 39 82 45 83 40 84 41 85
REMARK SMILES IDX 42 86 43 87 44 88
REMARK H PARENT 65 44 35 55
REMARK Flexibility Score: inf
ROOT
ATOM      1  C   UNL A   1      33.897  30.451  27.589  1.00  0.00     0.275 C 
ENDROOT
BRANCH   1   2
ATOM      2  C   UNL A   1      32.931  29.520  26.866  1.00  0.00     0.274 C 
BRANCH   2   3
ATOM      3  O   UNL A   1      32.578  30.045  25.571  1.00  0.00    -0.462 OA
BRANCH   3   4
ATOM      4  C   UNL A   1      31.781  29.281  24.795  1.00  0.00     0.311 C 
ATOM      5  O   UNL A   1      30.694  29.647  24.359  1.00  0.00    -0.252 OA
BRANCH   4   6
ATOM      6  C   UNL A   1      32.309  27.888  24.517  1.00  0.00     0.123 C 
ATOM      7  C   UNL A   1      33.917  28.688  22.555  1.00  0.00     0.032 C 
ATOM      8  C   UNL A   1      33.219  27.571  23.313  1.00  0.00     0.096 C 
ATOM      9  N   UNL A   1      32.423  26.739  22.412  1.00  0.00    -0.334 N 
ATOM     10  C   UNL A   1      31.153  26.891  24.358  1.00  0.00     0.039 C 
ATOM     11  C   UNL A   1      31.042  26.739  22.854  1.00  0.00     0.121 C 
BRANCH   9  12
ATOM     12  C   UNL A   1      32.978  25.497  22.124  1.00  0.00     0.264 C 
ATOM     13  O   UNL A   1      33.422  25.251  21.002  1.00  0.00    -0.268 OA
BRANCH  12  14
ATOM     14  C   UNL A   1      32.997  24.523  23.188  1.00  0.00     0.093 A 
ATOM     15  C   UNL A   1      32.121  23.467  23.324  1.00  0.00     0.034 A 
ATOM     16  S   UNL A   1      34.258  24.420  24.330  1.00  0.00    -0.130 S 
ATOM     17  C   UNL A   1      32.769  22.352  23.941  1.00  0.00    -0.004 A 
ATOM     18  C   UNL A   1      33.999  22.722  24.494  1.00  0.00     0.035 A 
ATOM     19  C   UNL A   1      32.407  20.988  23.941  1.00  0.00     0.048 A 
ATOM     20  C   UNL A   1      34.882  21.775  25.039  1.00  0.00     0.022 A 
ATOM     21  C   UNL A   1      33.325  20.047  24.393  1.00  0.00     0.123 A 
ATOM     22  C   UNL A   1      34.545  20.423  24.930  1.00  0.00     0.041 A 
ATOM     23  F   UNL A   1      33.037  18.745  24.262  1.00  0.00    -0.207 F 
ENDBRANCH  12  14
ENDBRANCH   9  12
ENDBRANCH   4   6
ENDBRANCH   3   4
ENDBRANCH   2   3
ENDBRANCH   1   2
BRANCH   1  24
ATOM     24  O   UNL A   1      35.109  29.750  27.904  1.00  0.00    -0.458 OA
BRANCH  24  25
ATOM     25  C   UNL A   1      35.894  30.340  28.828  1.00  0.00     0.338 C 
ATOM     26  O   UNL A   1      35.577  31.192  29.647  1.00  0.00    -0.246 OA
BRANCH  25  27
ATOM     27  C   UNL A   1      37.246  29.780  28.742  1.00  0.00     0.060 A 
ATOM     28  C   UNL A   1      37.886  29.355  29.907  1.00  0.00     0.016 A 
ATOM     29  C   UNL A   1      37.916  29.773  27.522  1.00  0.00     0.016 A 
ATOM     30  C   UNL A   1      39.231  29.001  29.870  1.00  0.00     0.010 A 
ATOM     31  C   UNL A   1      39.236  29.323  27.472  1.00  0.00     0.010 A 
ATOM     32  C   UNL A   1      39.917  28.956  28.649  1.00  0.00    -0.014 A 
BRANCH  32  33
ATOM     33  C   UNL A   1      41.342  28.534  28.574  1.00  0.00     0.031 A 
ATOM     34  C   UNL A   1      42.434  29.558  28.726  1.00  0.00     0.074 A 
ATOM     35  C   UNL A   1      41.659  27.249  28.314  1.00  0.00     0.049 A 
ATOM     36  N   UNL A   1      43.699  29.470  28.409  1.00  0.00    -0.248 NA
ATOM     37  C   UNL A   1      42.045  30.860  29.293  1.00  0.00     0.031 C 
ATOM     38  C   UNL A   1      40.708  26.142  28.202  1.00  0.00     0.029 A 
ATOM     39  N   UNL A   1      42.879  26.663  28.079  1.00  0.00    -0.354 N 
ATOM     40  C   UNL A   1      44.244  30.721  28.674  1.00  0.00     0.074 A 
ATOM     41  C   UNL A   1      43.175  31.548  29.191  1.00  0.00     0.031 C 
ATOM     42  C   UNL A   1      41.378  25.010  27.934  1.00  0.00     0.029 A 
ATOM     43  C   UNL A   1      42.790  25.328  27.760  1.00  0.00     0.049 A 
ATOM     44  H   UNL A   1      43.732  27.150  28.134  1.00  0.00     0.167 HD
ATOM     45  C   UNL A   1      45.518  31.143  28.485  1.00  0.00     0.031 A 
ATOM     46  C   UNL A   1      43.723  24.465  27.314  1.00  0.00     0.031 A 
ATOM     47  C   UNL A   1      46.579  30.299  28.005  1.00  0.00     0.049 A 
ATOM     48  C   UNL A   1      45.121  24.958  27.078  1.00  0.00     0.074 A 
ATOM     49  C   UNL A   1      47.905  30.626  27.777  1.00  0.00     0.029 A 
ATOM     50  N   UNL A   1      46.439  28.954  27.695  1.00  0.00    -0.354 N 
ATOM     51  N   UNL A   1      45.607  26.163  27.260  1.00  0.00    -0.248 NA
ATOM     52  C   UNL A   1      46.091  23.985  26.559  1.00  0.00     0.031 C 
ATOM     53  C   UNL A   1      48.559  29.485  27.301  1.00  0.00     0.029 A 
ATOM     54  C   UNL A   1      47.652  28.438  27.273  1.00  0.00     0.049 A 
ATOM     55  H   UNL A   1      45.601  28.442  27.766  1.00  0.00     0.167 HD
ATOM     56  C   UNL A   1      46.943  26.090  26.889  1.00  0.00     0.074 A 
ATOM     57  C   UNL A   1      47.193  24.722  26.482  1.00  0.00     0.031 C 
ATOM     58  C   UNL A   1      47.879  27.070  26.884  1.00  0.00     0.031 A 
BRANCH  45  59
ATOM     59  C   UNL A   1      45.821  32.592  28.748  1.00  0.00    -0.014 A 
ATOM     60  C   UNL A   1      46.243  33.040  30.013  1.00  0.00     0.010 A 
ATOM     61  C   UNL A   1      45.720  33.518  27.693  1.00  0.00     0.010 A 
ATOM     62  C   UNL A   1      46.521  34.394  30.226  1.00  0.00     0.020 A 
ATOM     63  C   UNL A   1      46.019  34.868  27.897  1.00  0.00     0.020 A 
ATOM     64  C   UNL A   1      46.400  35.301  29.168  1.00  0.00     0.054 A 
BRANCH  64  65
ATOM     65  S   UNL A   1      46.781  37.050  29.463  1.00  0.00     0.124 S 
ATOM     66  O   UNL A   1      45.895  37.365  30.581  1.00  0.00    -0.237 OA
ATOM     67  O   UNL A   1      48.206  37.024  29.782  1.00  0.00    -0.237 OA
ATOM     68  O   UNL A   1      46.441  37.696  28.198  1.00  0.00    -0.744 OA
ENDBRANCH  64  65
ENDBRANCH  45  59
BRANCH  46  69
ATOM     69  C   UNL A   1      43.335  23.063  27.004  1.00  0.00    -0.014 A 
ATOM     70  C   UNL A   1      43.572  22.523  25.729  1.00  0.00     0.010 A 
ATOM     71  C   UNL A   1      42.776  22.244  28.003  1.00  0.00     0.010 A 
ATOM     72  C   UNL A   1      43.262  21.186  25.460  1.00  0.00     0.020 A 
ATOM     73  C   UNL A   1      42.489  20.902  27.745  1.00  0.00     0.020 A 
ATOM     74  C   UNL A   1      42.727  20.382  26.471  1.00  0.00     0.054 A 
BRANCH  74  75
ATOM     75  S   UNL A   1      42.413  18.627  26.131  1.00  0.00     0.124 S 
ATOM     76  O   UNL A   1      42.732  18.009  27.414  1.00  0.00    -0.237 OA
ATOM     77  O   UNL A   1      41.000  18.621  25.760  1.00  0.00    -0.237 OA
ATOM     78  O   UNL A   1      43.336  18.323  25.040  1.00  0.00    -0.744 OA
ENDBRANCH  74  75
ENDBRANCH  46  69
BRANCH  58  79
ATOM     79  C   UNL A   1      49.272  26.694  26.467  1.00  0.00    -0.014 A 
ATOM     80  C   UNL A   1      50.084  25.895  27.291  1.00  0.00     0.010 A 
ATOM     81  C   UNL A   1      49.739  27.077  25.197  1.00  0.00     0.010 A 
ATOM     82  C   UNL A   1      51.345  25.490  26.850  1.00  0.00     0.020 A 
ATOM     83  C   UNL A   1      50.992  26.659  24.747  1.00  0.00     0.020 A 
ATOM     84  C   UNL A   1      51.791  25.871  25.580  1.00  0.00     0.054 A 
BRANCH  84  85
ATOM     85  S   UNL A   1      53.400  25.269  24.998  1.00  0.00     0.124 S 
ATOM     86  O   UNL A   1      53.310  25.505  23.560  1.00  0.00    -0.237 OA
ATOM     87  O   UNL A   1      54.343  26.122  25.717  1.00  0.00    -0.237 OA
ATOM     88  O   UNL A   1      53.409  23.865  25.401  1.00  0.00    -0.744 OA
ENDBRANCH  84  85
ENDBRANCH  58  79
ENDBRANCH  32  33
ENDBRANCH  25  27
ENDBRANCH  24  25
ENDBRANCH   1  24
TORSDOF 16
ENDMDL
