MODEL 1
REMARK VINA RESULT:     -10.4      0.000      0.000
REMARK SMILES O=C(OCCOC(=O)[C@@H]1CS[C@H](c2ncc(-c3ccccc3)s2)[NH2+]1)c1ccc(-c2c3nc(c(-c4ccc(S(=O)(=O)[O-])cc4)c4ccc([nH]4)c(-c4ccc(S(=O)(=O)[O-])cc4)c4nc(c(-c5ccc(S(=O)(=O)[O-])cc5)c5ccc2[nH]5)C=C4)C=C3)cc1
REMARK SMILES IDX 4 1 3 2 2 3 1 4 25 5 26 6 84 7 27 8 83 9 28 10 29 11 30 12
REMARK SMILES IDX 77 13 31 14 82 15 76 16 78 17 32 18 81 19 75 20 74 21 33 23
REMARK SMILES IDX 63 24 44 25 62 26 45 27 48 28 61 29 79 30 46 31 47 32 60 34
REMARK SMILES IDX 80 35 49 36 34 37 35 38 43 39 36 40 42 41 37 42 38 43 39 44
REMARK SMILES IDX 40 45 41 46 64 47 65 48 73 49 66 50 72 51 67 52 68 53 69 54
REMARK SMILES IDX 70 55 71 56 50 57 51 58 59 59 52 60 58 61 53 62 54 63 55 64
REMARK SMILES IDX 56 65 57 66 5 67 6 68 7 69 8 70 9 71 10 72 24 73 11 74 12 75
REMARK SMILES IDX 13 78 14 79 23 80 15 81 16 82 17 83 18 84 22 85 19 86 21 87
REMARK SMILES IDX 20 88
REMARK H PARENT 78 22 48 33 24 76 24 77
REMARK Flexibility Score: inf
ROOT
ATOM      1  C   UNL A   1      33.649  29.074  25.803  1.00  0.00     0.275 C 
ENDROOT
BRANCH   1   2
ATOM      2  O   UNL A   1      33.446  29.607  27.122  1.00  0.00    -0.458 OA
BRANCH   2   3
ATOM      3  C   UNL A   1      34.245  30.422  27.853  1.00  0.00     0.338 C 
ATOM      4  O   UNL A   1      33.844  31.556  28.110  1.00  0.00    -0.246 OA
BRANCH   3   5
ATOM      5  C   UNL A   1      35.659  30.077  28.209  1.00  0.00     0.060 A 
ATOM      6  C   UNL A   1      36.081  29.518  29.415  1.00  0.00     0.016 A 
ATOM      7  C   UNL A   1      36.629  30.277  27.207  1.00  0.00     0.016 A 
ATOM      8  C   UNL A   1      37.382  29.057  29.581  1.00  0.00     0.010 A 
ATOM      9  C   UNL A   1      37.941  29.810  27.363  1.00  0.00     0.010 A 
ATOM     10  C   UNL A   1      38.315  29.178  28.552  1.00  0.00    -0.014 A 
BRANCH  10  11
ATOM     11  C   UNL A   1      39.706  28.788  28.856  1.00  0.00     0.031 A 
ATOM     12  C   UNL A   1      40.508  29.715  29.717  1.00  0.00     0.074 A 
ATOM     13  C   UNL A   1      40.150  27.557  28.530  1.00  0.00     0.049 A 
ATOM     14  N   UNL A   1      41.666  29.514  30.284  1.00  0.00    -0.248 NA
ATOM     15  C   UNL A   1      39.915  31.034  30.002  1.00  0.00     0.031 C 
ATOM     16  C   UNL A   1      39.406  26.567  27.744  1.00  0.00     0.029 A 
ATOM     17  N   UNL A   1      41.310  26.906  28.863  1.00  0.00    -0.354 N 
ATOM     18  C   UNL A   1      41.925  30.670  31.008  1.00  0.00     0.074 A 
ATOM     19  C   UNL A   1      40.842  31.592  30.761  1.00  0.00     0.031 C 
ATOM     20  C   UNL A   1      40.118  25.427  27.680  1.00  0.00     0.029 A 
ATOM     21  C   UNL A   1      41.373  25.610  28.401  1.00  0.00     0.049 A 
ATOM     22  H   UNL A   1      42.032  27.326  29.384  1.00  0.00     0.167 HD
ATOM     23  C   UNL A   1      42.959  30.928  31.838  1.00  0.00     0.031 A 
ATOM     24  C   UNL A   1      42.338  24.679  28.554  1.00  0.00     0.031 A 
ATOM     25  C   UNL A   1      44.041  30.012  32.054  1.00  0.00     0.049 A 
ATOM     26  C   UNL A   1      43.534  25.038  29.400  1.00  0.00     0.074 A 
ATOM     27  C   UNL A   1      45.179  30.186  32.817  1.00  0.00     0.029 A 
ATOM     28  N   UNL A   1      44.113  28.743  31.498  1.00  0.00    -0.354 N 
ATOM     29  N   UNL A   1      43.761  26.138  30.082  1.00  0.00    -0.248 NA
ATOM     30  C   UNL A   1      44.595  24.029  29.513  1.00  0.00     0.031 C 
ATOM     31  C   UNL A   1      45.965  29.038  32.681  1.00  0.00     0.029 A 
ATOM     32  C   UNL A   1      45.285  28.125  31.886  1.00  0.00     0.049 A 
ATOM     33  H   UNL A   1      43.430  28.343  30.912  1.00  0.00     0.167 HD
ATOM     34  C   UNL A   1      44.982  25.945  30.720  1.00  0.00     0.074 A 
ATOM     35  C   UNL A   1      45.423  24.609  30.371  1.00  0.00     0.031 C 
ATOM     36  C   UNL A   1      45.684  26.791  31.516  1.00  0.00     0.031 A 
BRANCH  23  37
ATOM     37  C   UNL A   1      42.957  32.262  32.529  1.00  0.00    -0.014 A 
ATOM     38  C   UNL A   1      42.321  32.429  33.774  1.00  0.00     0.010 A 
ATOM     39  C   UNL A   1      43.570  33.368  31.917  1.00  0.00     0.010 A 
ATOM     40  C   UNL A   1      42.268  33.687  34.377  1.00  0.00     0.020 A 
ATOM     41  C   UNL A   1      43.543  34.623  32.531  1.00  0.00     0.020 A 
ATOM     42  C   UNL A   1      42.879  34.776  33.750  1.00  0.00     0.054 A 
BRANCH  42  43
ATOM     43  S   UNL A   1      42.816  36.392  34.570  1.00  0.00     0.124 S 
ATOM     44  O   UNL A   1      41.477  36.384  35.152  1.00  0.00    -0.237 OA
ATOM     45  O   UNL A   1      43.917  36.306  35.527  1.00  0.00    -0.237 OA
ATOM     46  O   UNL A   1      43.017  37.342  33.478  1.00  0.00    -0.744 OA
ENDBRANCH  42  43
ENDBRANCH  23  37
BRANCH  24  47
ATOM     47  C   UNL A   1      42.246  23.350  27.876  1.00  0.00    -0.014 A 
ATOM     48  C   UNL A   1      41.626  22.247  28.492  1.00  0.00     0.010 A 
ATOM     49  C   UNL A   1      42.845  23.167  26.615  1.00  0.00     0.010 A 
ATOM     50  C   UNL A   1      41.650  20.983  27.886  1.00  0.00     0.020 A 
ATOM     51  C   UNL A   1      42.842  21.915  25.990  1.00  0.00     0.020 A 
ATOM     52  C   UNL A   1      42.263  20.825  26.640  1.00  0.00     0.054 A 
BRANCH  52  53
ATOM     53  S   UNL A   1      42.291  19.180  25.872  1.00  0.00     0.124 S 
ATOM     54  O   UNL A   1      40.879  18.962  25.572  1.00  0.00    -0.237 OA
ATOM     55  O   UNL A   1      43.160  19.387  24.717  1.00  0.00    -0.237 OA
ATOM     56  O   UNL A   1      42.849  18.325  26.917  1.00  0.00    -0.744 OA
ENDBRANCH  52  53
ENDBRANCH  24  47
BRANCH  36  57
ATOM     57  C   UNL A   1      46.982  26.281  32.079  1.00  0.00    -0.014 A 
ATOM     58  C   UNL A   1      48.196  26.469  31.396  1.00  0.00     0.010 A 
ATOM     59  C   UNL A   1      46.988  25.651  33.337  1.00  0.00     0.010 A 
ATOM     60  C   UNL A   1      49.390  25.997  31.943  1.00  0.00     0.020 A 
ATOM     61  C   UNL A   1      48.185  25.210  33.902  1.00  0.00     0.020 A 
ATOM     62  C   UNL A   1      49.376  25.369  33.192  1.00  0.00     0.054 A 
BRANCH  62  63
ATOM     63  S   UNL A   1      50.944  24.792  33.894  1.00  0.00     0.124 S 
ATOM     64  O   UNL A   1      51.903  25.218  32.880  1.00  0.00    -0.237 OA
ATOM     65  O   UNL A   1      51.009  25.511  35.165  1.00  0.00    -0.237 OA
ATOM     66  O   UNL A   1      50.759  23.348  34.011  1.00  0.00    -0.744 OA
ENDBRANCH  62  63
ENDBRANCH  36  57
ENDBRANCH  10  11
ENDBRANCH   3   5
ENDBRANCH   2   3
ENDBRANCH   1   2
BRANCH   1  67
ATOM     67  C   UNL A   1      33.138  27.642  25.601  1.00  0.00     0.274 C 
BRANCH  67  68
ATOM     68  O   UNL A   1      31.753  27.441  25.944  1.00  0.00    -0.458 OA
BRANCH  68  69
ATOM     69  C   UNL A   1      30.950  27.114  24.886  1.00  0.00     0.365 C 
ATOM     70  O   UNL A   1      30.887  27.800  23.872  1.00  0.00    -0.245 OA
BRANCH  69  71
ATOM     71  C   UNL A   1      30.120  25.847  25.171  1.00  0.00     0.304 C 
ATOM     72  C   UNL A   1      30.481  25.194  26.501  1.00  0.00     0.153 C 
ATOM     73  N   UNL A   1      30.241  24.852  24.046  1.00  0.00    -0.317 N 
ATOM     74  S   UNL A   1      30.471  23.422  26.173  1.00  0.00    -0.085 SA
ATOM     75  C   UNL A   1      31.089  23.721  24.492  1.00  0.00     0.303 C 
ATOM     76  H   UNL A   1      30.668  25.302  23.236  1.00  0.00     0.348 HD
ATOM     77  H   UNL A   1      29.315  24.509  23.788  1.00  0.00     0.348 HD
BRANCH  75  78
ATOM     78  C   UNL A   1      32.589  23.996  24.477  1.00  0.00     0.162 A 
ATOM     79  N   UNL A   1      33.249  24.594  23.497  1.00  0.00    -0.242 NA
ATOM     80  S   UNL A   1      33.600  23.510  25.796  1.00  0.00    -0.112 S 
ATOM     81  C   UNL A   1      34.601  24.364  23.641  1.00  0.00     0.132 A 
ATOM     82  C   UNL A   1      34.964  23.643  24.759  1.00  0.00     0.055 A 
BRANCH  82  83
ATOM     83  C   UNL A   1      36.226  22.985  25.069  1.00  0.00    -0.007 A 
ATOM     84  C   UNL A   1      36.436  21.672  24.618  1.00  0.00     0.009 A 
ATOM     85  C   UNL A   1      37.228  23.612  25.814  1.00  0.00     0.009 A 
ATOM     86  C   UNL A   1      37.616  20.992  24.916  1.00  0.00     0.001 A 
ATOM     87  C   UNL A   1      38.416  22.935  26.105  1.00  0.00     0.001 A 
ATOM     88  C   UNL A   1      38.609  21.626  25.659  1.00  0.00     0.000 A 
ENDBRANCH  82  83
ENDBRANCH  75  78
ENDBRANCH  69  71
ENDBRANCH  68  69
ENDBRANCH  67  68
ENDBRANCH   1  67
TORSDOF 16
ENDMDL
MODEL 2
REMARK VINA RESULT:     -10.3      1.462      8.456
REMARK SMILES O=C(OCCOC(=O)[C@@H]1CS[C@H](c2ncc(-c3ccccc3)s2)[NH2+]1)c1ccc(-c2c3nc(c(-c4ccc(S(=O)(=O)[O-])cc4)c4ccc([nH]4)c(-c4ccc(S(=O)(=O)[O-])cc4)c4nc(c(-c5ccc(S(=O)(=O)[O-])cc5)c5ccc2[nH]5)C=C4)C=C3)cc1
REMARK SMILES IDX 4 1 3 2 2 3 1 4 25 5 26 6 84 7 27 8 83 9 28 10 29 11 30 12
REMARK SMILES IDX 77 13 31 14 82 15 76 16 78 17 32 18 81 19 75 20 74 21 33 23
REMARK SMILES IDX 63 24 44 25 62 26 45 27 48 28 61 29 79 30 46 31 47 32 60 34
REMARK SMILES IDX 80 35 49 36 34 37 35 38 43 39 36 40 42 41 37 42 38 43 39 44
REMARK SMILES IDX 40 45 41 46 64 47 65 48 73 49 66 50 72 51 67 52 68 53 69 54
REMARK SMILES IDX 70 55 71 56 50 57 51 58 59 59 52 60 58 61 53 62 54 63 55 64
REMARK SMILES IDX 56 65 57 66 5 67 6 68 7 69 8 70 9 71 10 72 24 73 11 74 12 75
REMARK SMILES IDX 13 78 14 79 23 80 15 81 16 82 17 83 18 84 22 85 19 86 21 87
REMARK SMILES IDX 20 88
REMARK H PARENT 78 22 48 33 24 76 24 77
REMARK Flexibility Score: inf
ROOT
ATOM      1  C   UNL A   1      33.622  29.140  25.461  1.00  0.00     0.275 C 
ENDROOT
BRANCH   1   2
ATOM      2  O   UNL A   1      33.858  29.047  26.875  1.00  0.00    -0.458 OA
BRANCH   2   3
ATOM      3  C   UNL A   1      34.468  29.928  27.704  1.00  0.00     0.338 C 
ATOM      4  O   UNL A   1      33.897  30.989  27.952  1.00  0.00    -0.246 OA
BRANCH   3   5
ATOM      5  C   UNL A   1      35.875  29.755  28.189  1.00  0.00     0.060 A 
ATOM      6  C   UNL A   1      36.252  29.397  29.483  1.00  0.00     0.016 A 
ATOM      7  C   UNL A   1      36.897  29.906  27.230  1.00  0.00     0.016 A 
ATOM      8  C   UNL A   1      37.569  29.075  29.789  1.00  0.00     0.010 A 
ATOM      9  C   UNL A   1      38.226  29.578  27.527  1.00  0.00     0.010 A 
ATOM     10  C   UNL A   1      38.561  29.141  28.812  1.00  0.00    -0.014 A 
BRANCH  10  11
ATOM     11  C   UNL A   1      39.953  28.915  29.250  1.00  0.00     0.031 A 
ATOM     12  C   UNL A   1      40.564  27.583  28.939  1.00  0.00     0.074 A 
ATOM     13  C   UNL A   1      40.687  29.940  29.727  1.00  0.00     0.049 A 
ATOM     14  N   UNL A   1      41.810  27.208  29.036  1.00  0.00    -0.248 NA
ATOM     15  C   UNL A   1      39.657  26.543  28.423  1.00  0.00     0.031 C 
ATOM     16  C   UNL A   1      40.183  31.290  30.002  1.00  0.00     0.029 A 
ATOM     17  N   UNL A   1      42.025  30.026  30.017  1.00  0.00    -0.354 N 
ATOM     18  C   UNL A   1      41.836  25.899  28.571  1.00  0.00     0.074 A 
ATOM     19  C   UNL A   1      40.479  25.522  28.255  1.00  0.00     0.031 C 
ATOM     20  C   UNL A   1      41.205  32.073  30.393  1.00  0.00     0.029 A 
ATOM     21  C   UNL A   1      42.429  31.281  30.416  1.00  0.00     0.049 A 
ATOM     22  H   UNL A   1      42.640  29.261  29.946  1.00  0.00     0.167 HD
ATOM     23  C   UNL A   1      42.904  25.093  28.391  1.00  0.00     0.031 A 
ATOM     24  C   UNL A   1      43.655  31.732  30.754  1.00  0.00     0.031 A 
ATOM     25  C   UNL A   1      44.244  25.473  28.734  1.00  0.00     0.049 A 
ATOM     26  C   UNL A   1      44.814  30.772  30.643  1.00  0.00     0.074 A 
ATOM     27  C   UNL A   1      45.400  24.721  28.661  1.00  0.00     0.029 A 
ATOM     28  N   UNL A   1      44.601  26.723  29.219  1.00  0.00    -0.354 N 
ATOM     29  N   UNL A   1      44.820  29.536  30.198  1.00  0.00    -0.248 NA
ATOM     30  C   UNL A   1      46.130  31.268  31.062  1.00  0.00     0.031 C 
ATOM     31  C   UNL A   1      46.451  25.502  29.152  1.00  0.00     0.029 A 
ATOM     32  C   UNL A   1      45.959  26.761  29.468  1.00  0.00     0.049 A 
ATOM     33  H   UNL A   1      43.978  27.472  29.366  1.00  0.00     0.167 HD
ATOM     34  C   UNL A   1      46.144  29.114  30.266  1.00  0.00     0.074 A 
ATOM     35  C   UNL A   1      46.911  30.240  30.760  1.00  0.00     0.031 C 
ATOM     36  C   UNL A   1      46.683  27.907  29.959  1.00  0.00     0.031 A 
BRANCH  23  37
ATOM     37  C   UNL A   1      42.636  23.727  27.826  1.00  0.00    -0.014 A 
ATOM     38  C   UNL A   1      42.364  22.636  28.673  1.00  0.00     0.010 A 
ATOM     39  C   UNL A   1      42.685  23.523  26.437  1.00  0.00     0.010 A 
ATOM     40  C   UNL A   1      42.181  21.358  28.142  1.00  0.00     0.020 A 
ATOM     41  C   UNL A   1      42.476  22.250  25.900  1.00  0.00     0.020 A 
ATOM     42  C   UNL A   1      42.240  21.174  26.758  1.00  0.00     0.054 A 
BRANCH  42  43
ATOM     43  S   UNL A   1      41.972  19.507  26.096  1.00  0.00     0.124 S 
ATOM     44  O   UNL A   1      42.440  18.667  27.195  1.00  0.00    -0.237 OA
ATOM     45  O   UNL A   1      40.531  19.486  25.860  1.00  0.00    -0.237 OA
ATOM     46  O   UNL A   1      42.798  19.476  24.891  1.00  0.00    -0.744 OA
ENDBRANCH  42  43
ENDBRANCH  23  37
BRANCH  24  47
ATOM     47  C   UNL A   1      43.855  33.124  31.259  1.00  0.00    -0.014 A 
ATOM     48  C   UNL A   1      43.643  33.458  32.610  1.00  0.00     0.010 A 
ATOM     49  C   UNL A   1      44.202  34.150  30.360  1.00  0.00     0.010 A 
ATOM     50  C   UNL A   1      43.727  34.790  33.039  1.00  0.00     0.020 A 
ATOM     51  C   UNL A   1      44.322  35.476  30.790  1.00  0.00     0.020 A 
ATOM     52  C   UNL A   1      44.061  35.792  32.123  1.00  0.00     0.054 A 
BRANCH  52  53
ATOM     53  S   UNL A   1      44.160  37.512  32.694  1.00  0.00     0.124 S 
ATOM     54  O   UNL A   1      43.155  37.539  33.752  1.00  0.00    -0.237 OA
ATOM     55  O   UNL A   1      45.549  37.617  33.136  1.00  0.00    -0.237 OA
ATOM     56  O   UNL A   1      43.834  38.288  31.500  1.00  0.00    -0.744 OA
ENDBRANCH  52  53
ENDBRANCH  24  47
BRANCH  36  57
ATOM     57  C   UNL A   1      48.170  27.760  30.122  1.00  0.00    -0.014 A 
ATOM     58  C   UNL A   1      48.727  27.276  31.320  1.00  0.00     0.010 A 
ATOM     59  C   UNL A   1      49.017  28.063  29.041  1.00  0.00     0.010 A 
ATOM     60  C   UNL A   1      50.109  27.138  31.446  1.00  0.00     0.020 A 
ATOM     61  C   UNL A   1      50.397  27.891  29.152  1.00  0.00     0.020 A 
ATOM     62  C   UNL A   1      50.935  27.448  30.361  1.00  0.00     0.054 A 
BRANCH  62  63
ATOM     63  S   UNL A   1      52.726  27.231  30.541  1.00  0.00     0.124 S 
ATOM     64  O   UNL A   1      53.213  28.596  30.371  1.00  0.00    -0.237 OA
ATOM     65  O   UNL A   1      52.846  26.682  31.890  1.00  0.00    -0.237 OA
ATOM     66  O   UNL A   1      53.072  26.306  29.465  1.00  0.00    -0.744 OA
ENDBRANCH  62  63
ENDBRANCH  36  57
ENDBRANCH  10  11
ENDBRANCH   3   5
ENDBRANCH   2   3
ENDBRANCH   1   2
BRANCH   1  67
ATOM     67  C   UNL A   1      32.935  27.916  24.840  1.00  0.00     0.274 C 
BRANCH  67  68
ATOM     68  O   UNL A   1      31.581  27.697  25.280  1.00  0.00    -0.458 OA
BRANCH  68  69
ATOM     69  C   UNL A   1      30.757  27.161  24.329  1.00  0.00     0.365 C 
ATOM     70  O   UNL A   1      30.641  27.646  23.209  1.00  0.00    -0.245 OA
BRANCH  69  71
ATOM     71  C   UNL A   1      29.978  25.946  24.869  1.00  0.00     0.304 C 
ATOM     72  C   UNL A   1      30.377  25.577  26.294  1.00  0.00     0.153 C 
ATOM     73  N   UNL A   1      30.122  24.755  23.957  1.00  0.00    -0.317 N 
ATOM     74  S   UNL A   1      30.430  23.775  26.316  1.00  0.00    -0.085 SA
ATOM     75  C   UNL A   1      31.016  23.762  24.597  1.00  0.00     0.303 C 
ATOM     76  H   UNL A   1      30.522  25.054  23.067  1.00  0.00     0.348 HD
ATOM     77  H   UNL A   1      29.206  24.338  23.788  1.00  0.00     0.348 HD
BRANCH  75  78
ATOM     78  C   UNL A   1      32.505  24.080  24.501  1.00  0.00     0.162 A 
ATOM     79  N   UNL A   1      33.119  24.552  23.428  1.00  0.00    -0.242 NA
ATOM     80  S   UNL A   1      33.563  23.820  25.847  1.00  0.00    -0.112 S 
ATOM     81  C   UNL A   1      34.481  24.388  23.564  1.00  0.00     0.132 A 
ATOM     82  C   UNL A   1      34.896  23.846  24.763  1.00  0.00     0.055 A 
BRANCH  82  83
ATOM     83  C   UNL A   1      36.188  23.280  25.128  1.00  0.00    -0.007 A 
ATOM     84  C   UNL A   1      36.501  21.977  24.706  1.00  0.00     0.009 A 
ATOM     85  C   UNL A   1      37.119  23.984  25.896  1.00  0.00     0.009 A 
ATOM     86  C   UNL A   1      37.713  21.383  25.057  1.00  0.00     0.001 A 
ATOM     87  C   UNL A   1      38.338  23.393  26.239  1.00  0.00     0.001 A 
ATOM     88  C   UNL A   1      38.633  22.094  25.823  1.00  0.00     0.000 A 
ENDBRANCH  82  83
ENDBRANCH  75  78
ENDBRANCH  69  71
ENDBRANCH  68  69
ENDBRANCH  67  68
ENDBRANCH   1  67
TORSDOF 16
ENDMDL
MODEL 3
REMARK VINA RESULT:     -10.1      1.469      3.576
REMARK SMILES O=C(OCCOC(=O)[C@@H]1CS[C@H](c2ncc(-c3ccccc3)s2)[NH2+]1)c1ccc(-c2c3nc(c(-c4ccc(S(=O)(=O)[O-])cc4)c4ccc([nH]4)c(-c4ccc(S(=O)(=O)[O-])cc4)c4nc(c(-c5ccc(S(=O)(=O)[O-])cc5)c5ccc2[nH]5)C=C4)C=C3)cc1
REMARK SMILES IDX 4 1 3 2 2 3 1 4 25 5 26 6 84 7 27 8 83 9 28 10 29 11 30 12
REMARK SMILES IDX 77 13 31 14 82 15 76 16 78 17 32 18 81 19 75 20 74 21 33 23
REMARK SMILES IDX 63 24 44 25 62 26 45 27 48 28 61 29 79 30 46 31 47 32 60 34
REMARK SMILES IDX 80 35 49 36 34 37 35 38 43 39 36 40 42 41 37 42 38 43 39 44
REMARK SMILES IDX 40 45 41 46 64 47 65 48 73 49 66 50 72 51 67 52 68 53 69 54
REMARK SMILES IDX 70 55 71 56 50 57 51 58 59 59 52 60 58 61 53 62 54 63 55 64
REMARK SMILES IDX 56 65 57 66 5 67 6 68 7 69 8 70 9 71 10 72 24 73 11 74 12 75
REMARK SMILES IDX 13 78 14 79 23 80 15 81 16 82 17 83 18 84 22 85 19 86 21 87
REMARK SMILES IDX 20 88
REMARK H PARENT 78 22 48 33 24 76 24 77
REMARK Flexibility Score: inf
ROOT
ATOM      1  C   UNL A   1      32.736  29.733  26.407  1.00  0.00     0.275 C 
ENDROOT
BRANCH   1   2
ATOM      2  O   UNL A   1      33.337  29.790  27.711  1.00  0.00    -0.458 OA
BRANCH   2   3
ATOM      3  C   UNL A   1      34.342  30.580  28.160  1.00  0.00     0.338 C 
ATOM      4  O   UNL A   1      34.111  31.776  28.335  1.00  0.00    -0.246 OA
BRANCH   3   5
ATOM      5  C   UNL A   1      35.759  30.111  28.284  1.00  0.00     0.060 A 
ATOM      6  C   UNL A   1      36.722  30.153  27.276  1.00  0.00     0.016 A 
ATOM      7  C   UNL A   1      36.163  29.648  29.553  1.00  0.00     0.016 A 
ATOM      8  C   UNL A   1      38.057  29.874  27.541  1.00  0.00     0.010 A 
ATOM      9  C   UNL A   1      37.508  29.369  29.830  1.00  0.00     0.010 A 
ATOM     10  C   UNL A   1      38.465  29.501  28.821  1.00  0.00    -0.014 A 
BRANCH  10  11
ATOM     11  C   UNL A   1      39.874  29.091  28.986  1.00  0.00     0.031 A 
ATOM     12  C   UNL A   1      40.777  30.020  29.738  1.00  0.00     0.074 A 
ATOM     13  C   UNL A   1      40.260  27.845  28.643  1.00  0.00     0.049 A 
ATOM     14  N   UNL A   1      41.985  29.809  30.184  1.00  0.00    -0.248 NA
ATOM     15  C   UNL A   1      40.239  31.356  30.053  1.00  0.00     0.031 C 
ATOM     16  C   UNL A   1      39.422  26.854  27.961  1.00  0.00     0.029 A 
ATOM     17  N   UNL A   1      41.437  27.179  28.867  1.00  0.00    -0.354 N 
ATOM     18  C   UNL A   1      42.337  30.975  30.852  1.00  0.00     0.074 A 
ATOM     19  C   UNL A   1      41.250  31.911  30.698  1.00  0.00     0.031 C 
ATOM     20  C   UNL A   1      40.104  25.700  27.849  1.00  0.00     0.029 A 
ATOM     21  C   UNL A   1      41.430  25.873  28.431  1.00  0.00     0.049 A 
ATOM     22  H   UNL A   1      42.217  27.596  29.300  1.00  0.00     0.167 HD
ATOM     23  C   UNL A   1      43.457  31.230  31.562  1.00  0.00     0.031 A 
ATOM     24  C   UNL A   1      42.390  24.928  28.502  1.00  0.00     0.031 A 
ATOM     25  C   UNL A   1      44.540  30.299  31.685  1.00  0.00     0.049 A 
ATOM     26  C   UNL A   1      43.675  25.281  29.211  1.00  0.00     0.074 A 
ATOM     27  C   UNL A   1      45.755  30.467  32.321  1.00  0.00     0.029 A 
ATOM     28  N   UNL A   1      44.532  29.017  31.153  1.00  0.00    -0.354 N 
ATOM     29  N   UNL A   1      43.990  26.391  29.840  1.00  0.00    -0.248 NA
ATOM     30  C   UNL A   1      44.724  24.255  29.235  1.00  0.00     0.031 C 
ATOM     31  C   UNL A   1      46.503  29.301  32.128  1.00  0.00     0.029 A 
ATOM     32  C   UNL A   1      45.729  28.385  31.430  1.00  0.00     0.049 A 
ATOM     33  H   UNL A   1      43.785  28.618  30.651  1.00  0.00     0.167 HD
ATOM     34  C   UNL A   1      45.268  26.187  30.351  1.00  0.00     0.074 A 
ATOM     35  C   UNL A   1      45.648  24.837  29.988  1.00  0.00     0.031 C 
ATOM     36  C   UNL A   1      46.064  27.036  31.050  1.00  0.00     0.031 A 
BRANCH  23  37
ATOM     37  C   UNL A   1      43.551  32.578  32.220  1.00  0.00    -0.014 A 
ATOM     38  C   UNL A   1      43.042  32.785  33.516  1.00  0.00     0.010 A 
ATOM     39  C   UNL A   1      44.124  33.656  31.526  1.00  0.00     0.010 A 
ATOM     40  C   UNL A   1      43.074  34.056  34.093  1.00  0.00     0.020 A 
ATOM     41  C   UNL A   1      44.182  34.924  32.111  1.00  0.00     0.020 A 
ATOM     42  C   UNL A   1      43.643  35.118  33.385  1.00  0.00     0.054 A 
BRANCH  42  43
ATOM     43  S   UNL A   1      43.694  36.751  34.169  1.00  0.00     0.124 S 
ATOM     44  O   UNL A   1      43.626  37.644  33.015  1.00  0.00    -0.237 OA
ATOM     45  O   UNL A   1      42.506  36.733  35.020  1.00  0.00    -0.237 OA
ATOM     46  O   UNL A   1      44.968  36.753  34.884  1.00  0.00    -0.744 OA
ENDBRANCH  42  43
ENDBRANCH  23  37
BRANCH  24  47
ATOM     47  C   UNL A   1      42.205  23.587  27.868  1.00  0.00    -0.014 A 
ATOM     48  C   UNL A   1      41.582  22.526  28.550  1.00  0.00     0.010 A 
ATOM     49  C   UNL A   1      42.719  23.348  26.579  1.00  0.00     0.010 A 
ATOM     50  C   UNL A   1      41.520  21.247  27.978  1.00  0.00     0.020 A 
ATOM     51  C   UNL A   1      42.628  22.083  25.989  1.00  0.00     0.020 A 
ATOM     52  C   UNL A   1      42.049  21.033  26.703  1.00  0.00     0.054 A 
BRANCH  52  53
ATOM     53  S   UNL A   1      41.965  19.370  25.980  1.00  0.00     0.124 S 
ATOM     54  O   UNL A   1      40.535  19.217  25.736  1.00  0.00    -0.237 OA
ATOM     55  O   UNL A   1      42.802  19.502  24.790  1.00  0.00    -0.237 OA
ATOM     56  O   UNL A   1      42.517  18.515  27.028  1.00  0.00    -0.744 OA
ENDBRANCH  52  53
ENDBRANCH  24  47
BRANCH  36  57
ATOM     57  C   UNL A   1      47.405  26.513  31.486  1.00  0.00    -0.014 A 
ATOM     58  C   UNL A   1      48.548  26.685  30.686  1.00  0.00     0.010 A 
ATOM     59  C   UNL A   1      47.527  25.888  32.740  1.00  0.00     0.010 A 
ATOM     60  C   UNL A   1      49.784  26.201  31.115  1.00  0.00     0.020 A 
ATOM     61  C   UNL A   1      48.769  25.436  33.188  1.00  0.00     0.020 A 
ATOM     62  C   UNL A   1      49.886  25.578  32.363  1.00  0.00     0.054 A 
BRANCH  62  63
ATOM     63  S   UNL A   1      51.509  24.986  32.911  1.00  0.00     0.124 S 
ATOM     64  O   UNL A   1      51.374  23.542  32.747  1.00  0.00    -0.237 OA
ATOM     65  O   UNL A   1      52.421  25.644  31.977  1.00  0.00    -0.237 OA
ATOM     66  O   UNL A   1      51.599  25.451  34.293  1.00  0.00    -0.744 OA
ENDBRANCH  62  63
ENDBRANCH  36  57
ENDBRANCH  10  11
ENDBRANCH   3   5
ENDBRANCH   2   3
ENDBRANCH   1   2
BRANCH   1  67
ATOM     67  C   UNL A   1      33.049  28.460  25.609  1.00  0.00     0.274 C 
BRANCH  67  68
ATOM     68  O   UNL A   1      33.409  27.318  26.411  1.00  0.00    -0.458 OA
BRANCH  68  69
ATOM     69  C   UNL A   1      32.442  26.354  26.489  1.00  0.00     0.365 C 
ATOM     70  O   UNL A   1      31.317  26.584  26.917  1.00  0.00    -0.245 OA
BRANCH  69  71
ATOM     71  C   UNL A   1      32.973  24.978  26.042  1.00  0.00     0.304 C 
ATOM     72  C   UNL A   1      34.060  25.084  24.977  1.00  0.00     0.153 C 
ATOM     73  N   UNL A   1      31.852  24.091  25.563  1.00  0.00    -0.317 N 
ATOM     74  S   UNL A   1      33.705  23.758  23.809  1.00  0.00    -0.085 SA
ATOM     75  C   UNL A   1      31.924  23.977  24.087  1.00  0.00     0.303 C 
ATOM     76  H   UNL A   1      30.956  24.498  25.833  1.00  0.00     0.348 HD
ATOM     77  H   UNL A   1      31.940  23.166  25.986  1.00  0.00     0.348 HD
BRANCH  75  78
ATOM     78  C   UNL A   1      31.371  25.174  23.321  1.00  0.00     0.162 A 
ATOM     79  N   UNL A   1      32.029  25.869  22.407  1.00  0.00    -0.242 NA
ATOM     80  S   UNL A   1      29.768  25.759  23.613  1.00  0.00    -0.112 S 
ATOM     81  C   UNL A   1      31.386  27.067  22.182  1.00  0.00     0.132 A 
ATOM     82  C   UNL A   1      30.213  27.250  22.884  1.00  0.00     0.055 A 
BRANCH  82  83
ATOM     83  C   UNL A   1      29.449  28.470  23.112  1.00  0.00    -0.007 A 
ATOM     84  C   UNL A   1      28.050  28.425  23.001  1.00  0.00     0.009 A 
ATOM     85  C   UNL A   1      30.064  29.686  23.421  1.00  0.00     0.009 A 
ATOM     86  C   UNL A   1      27.280  29.574  23.180  1.00  0.00     0.001 A 
ATOM     87  C   UNL A   1      29.293  30.836  23.612  1.00  0.00     0.001 A 
ATOM     88  C   UNL A   1      27.903  30.781  23.488  1.00  0.00     0.000 A 
ENDBRANCH  82  83
ENDBRANCH  75  78
ENDBRANCH  69  71
ENDBRANCH  68  69
ENDBRANCH  67  68
ENDBRANCH   1  67
TORSDOF 16
ENDMDL
