MODEL 1
REMARK VINA RESULT:     -11.0      0.000      0.000
REMARK SMILES COc1ccc(-c2nc3ccc(C)cc3[nH]2)c(C(=O)OCCOC(=O)c2ccc(-c3c4nc(c(-c5ccc(S(=O)(=O)[O-])cc5)c5ccc([nH]5)c(-c5ccc(S(=O)(=O)[O-])cc5)c5nc(c(-c6ccc(S(=O)(=O)[O-])cc6)c6ccc3[nH]6)C=C5)C=C4)cc2)c1OC
REMARK SMILES IDX 22 1 21 2 20 3 18 4 19 5 17 6 3 7 4 8 86 9 5 10 6 11 2 12
REMARK SMILES IDX 1 13 87 14 88 15 7 16 8 17 16 18 9 19 15 20 10 22 14 23
REMARK SMILES IDX 11 24 12 25 13 26 23 27 24 28 25 29 26 30 27 31 85 32 28 33
REMARK SMILES IDX 84 34 29 35 30 36 31 37 78 38 32 39 83 40 77 41 79 42 33 43
REMARK SMILES IDX 82 44 76 45 75 46 34 48 64 49 45 50 63 51 46 52 49 53 62 54
REMARK SMILES IDX 80 55 47 56 48 57 61 59 81 60 50 61 35 62 36 63 44 64 37 65
REMARK SMILES IDX 43 66 38 67 39 68 40 69 41 70 42 71 65 72 66 73 74 74 67 75
REMARK SMILES IDX 73 76 68 77 69 78 70 79 71 80 72 81 51 82 52 83 60 84 53 85
REMARK SMILES IDX 59 86 54 87 55 88 56 89 57 90 58 91
REMARK H PARENT 16 21 79 47 49 58
REMARK Flexibility Score: inf
ROOT
ATOM      1  C   UNL A   1      33.202  29.345  26.322  1.00  0.00     0.275 C 
ENDROOT
BRANCH   1   2
ATOM      2  C   UNL A   1      33.544  27.957  25.774  1.00  0.00     0.275 C 
BRANCH   2   3
ATOM      3  O   UNL A   1      32.388  27.469  25.097  1.00  0.00    -0.458 OA
BRANCH   3   4
ATOM      4  C   UNL A   1      31.589  26.658  25.824  1.00  0.00     0.342 C 
ATOM      5  O   UNL A   1      30.994  26.899  26.850  1.00  0.00    -0.246 OA
BRANCH   4   6
ATOM      6  C   UNL A   1      31.484  25.394  25.074  1.00  0.00     0.116 A 
ATOM      7  C   UNL A   1      32.193  23.114  24.785  1.00  0.00     0.161 A 
ATOM      8  C   UNL A   1      31.304  22.995  23.708  1.00  0.00     0.051 A 
ATOM      9  C   UNL A   1      32.314  24.328  25.456  1.00  0.00     0.176 A 
ATOM     10  C   UNL A   1      30.518  24.090  23.293  1.00  0.00     0.017 A 
ATOM     11  C   UNL A   1      30.598  25.315  23.972  1.00  0.00     0.036 A 
BRANCH   7  12
ATOM     12  O   UNL A   1      33.031  22.064  25.049  1.00  0.00    -0.493 OA
ATOM     13  C   UNL A   1      32.472  20.825  24.615  1.00  0.00     0.278 C 
ENDBRANCH   7  12
BRANCH   9  14
ATOM     14  O   UNL A   1      33.376  24.598  26.279  1.00  0.00    -0.492 OA
ATOM     15  C   UNL A   1      34.645  24.608  25.649  1.00  0.00     0.278 C 
ENDBRANCH   9  14
BRANCH  11  16
ATOM     16  C   UNL A   1      30.016  26.563  23.434  1.00  0.00     0.139 A 
ATOM     17  N   UNL A   1      28.749  26.874  23.627  1.00  0.00    -0.228 NA
ATOM     18  N   UNL A   1      30.635  27.592  22.750  1.00  0.00    -0.338 N 
ATOM     19  C   UNL A   1      28.560  28.136  23.166  1.00  0.00     0.089 A 
ATOM     20  C   UNL A   1      29.721  28.621  22.594  1.00  0.00     0.066 A 
ATOM     21  H   UNL A   1      31.566  27.592  22.427  1.00  0.00     0.168 HD
ATOM     22  C   UNL A   1      27.420  28.943  23.260  1.00  0.00     0.031 A 
ATOM     23  C   UNL A   1      29.800  29.926  22.091  1.00  0.00     0.031 A 
ATOM     24  C   UNL A   1      27.523  30.284  22.899  1.00  0.00     0.006 A 
ATOM     25  C   UNL A   1      28.710  30.784  22.353  1.00  0.00    -0.049 A 
ATOM     26  C   UNL A   1      28.821  32.266  22.130  1.00  0.00     0.044 C 
ENDBRANCH  11  16
ENDBRANCH   4   6
ENDBRANCH   3   4
ENDBRANCH   2   3
ENDBRANCH   1   2
BRANCH   1  27
ATOM     27  O   UNL A   1      33.738  29.542  27.651  1.00  0.00    -0.458 OA
BRANCH  27  28
ATOM     28  C   UNL A   1      34.577  30.600  27.823  1.00  0.00     0.338 C 
ATOM     29  O   UNL A   1      34.283  31.782  27.737  1.00  0.00    -0.246 OA
BRANCH  28  30
ATOM     30  C   UNL A   1      35.935  30.129  28.217  1.00  0.00     0.060 A 
ATOM     31  C   UNL A   1      36.947  30.100  27.245  1.00  0.00     0.016 A 
ATOM     32  C   UNL A   1      36.241  29.754  29.528  1.00  0.00     0.016 A 
ATOM     33  C   UNL A   1      38.266  29.769  27.593  1.00  0.00     0.010 A 
ATOM     34  C   UNL A   1      37.560  29.422  29.874  1.00  0.00     0.010 A 
ATOM     35  C   UNL A   1      38.591  29.438  28.914  1.00  0.00    -0.014 A 
BRANCH  35  36
ATOM     36  C   UNL A   1      39.966  29.004  29.304  1.00  0.00     0.031 A 
ATOM     37  C   UNL A   1      40.922  30.016  29.852  1.00  0.00     0.074 A 
ATOM     38  C   UNL A   1      40.393  27.730  29.185  1.00  0.00     0.049 A 
ATOM     39  N   UNL A   1      42.167  29.845  30.210  1.00  0.00    -0.248 NA
ATOM     40  C   UNL A   1      40.396  31.368  30.092  1.00  0.00     0.031 C 
ATOM     41  C   UNL A   1      39.545  26.592  28.880  1.00  0.00     0.029 A 
ATOM     42  N   UNL A   1      41.649  27.174  29.278  1.00  0.00    -0.354 N 
ATOM     43  C   UNL A   1      42.554  31.041  30.789  1.00  0.00     0.074 A 
ATOM     44  C   UNL A   1      41.438  31.956  30.664  1.00  0.00     0.031 C 
ATOM     45  C   UNL A   1      40.306  25.504  28.667  1.00  0.00     0.029 A 
ATOM     46  C   UNL A   1      41.703  25.866  28.845  1.00  0.00     0.049 A 
ATOM     47  H   UNL A   1      42.433  27.663  29.620  1.00  0.00     0.167 HD
ATOM     48  C   UNL A   1      43.720  31.331  31.407  1.00  0.00     0.031 A 
ATOM     49  C   UNL A   1      42.750  25.051  28.600  1.00  0.00     0.031 A 
ATOM     50  C   UNL A   1      44.847  30.440  31.487  1.00  0.00     0.049 A 
ATOM     51  C   UNL A   1      44.118  25.505  29.016  1.00  0.00     0.074 A 
ATOM     52  C   UNL A   1      46.069  30.658  32.099  1.00  0.00     0.029 A 
ATOM     53  N   UNL A   1      44.908  29.180  30.912  1.00  0.00    -0.354 N 
ATOM     54  N   UNL A   1      44.456  26.622  29.611  1.00  0.00    -0.248 NA
ATOM     55  C   UNL A   1      45.232  24.570  28.802  1.00  0.00     0.031 C 
ATOM     56  C   UNL A   1      46.897  29.563  31.824  1.00  0.00     0.029 A 
ATOM     57  C   UNL A   1      46.168  28.635  31.100  1.00  0.00     0.049 A 
ATOM     58  H   UNL A   1      44.166  28.738  30.439  1.00  0.00     0.167 HD
ATOM     59  C   UNL A   1      45.801  26.489  29.924  1.00  0.00     0.074 A 
ATOM     60  C   UNL A   1      46.223  25.195  29.425  1.00  0.00     0.031 C 
ATOM     61  C   UNL A   1      46.595  27.351  30.601  1.00  0.00     0.031 A 
BRANCH  48  62
ATOM     62  C   UNL A   1      43.838  32.691  32.030  1.00  0.00    -0.014 A 
ATOM     63  C   UNL A   1      44.442  33.754  31.334  1.00  0.00     0.010 A 
ATOM     64  C   UNL A   1      43.305  32.916  33.310  1.00  0.00     0.010 A 
ATOM     65  C   UNL A   1      44.529  35.018  31.921  1.00  0.00     0.020 A 
ATOM     66  C   UNL A   1      43.371  34.183  33.890  1.00  0.00     0.020 A 
ATOM     67  C   UNL A   1      43.992  35.224  33.196  1.00  0.00     0.054 A 
BRANCH  67  68
ATOM     68  S   UNL A   1      44.084  36.882  33.918  1.00  0.00     0.124 S 
ATOM     69  O   UNL A   1      42.843  36.946  34.687  1.00  0.00    -0.237 OA
ATOM     70  O   UNL A   1      45.311  36.818  34.709  1.00  0.00    -0.237 OA
ATOM     71  O   UNL A   1      44.142  37.765  32.756  1.00  0.00    -0.744 OA
ENDBRANCH  67  68
ENDBRANCH  48  62
BRANCH  49  72
ATOM     72  C   UNL A   1      42.569  23.731  27.930  1.00  0.00    -0.014 A 
ATOM     73  C   UNL A   1      42.279  22.568  28.663  1.00  0.00     0.010 A 
ATOM     74  C   UNL A   1      42.773  23.621  26.541  1.00  0.00     0.010 A 
ATOM     75  C   UNL A   1      42.226  21.321  28.026  1.00  0.00     0.020 A 
ATOM     76  C   UNL A   1      42.692  22.382  25.894  1.00  0.00     0.020 A 
ATOM     77  C   UNL A   1      42.435  21.236  26.645  1.00  0.00     0.054 A 
BRANCH  77  78
ATOM     78  S   UNL A   1      42.367  19.607  25.846  1.00  0.00     0.124 S 
ATOM     79  O   UNL A   1      42.685  18.711  26.953  1.00  0.00    -0.237 OA
ATOM     80  O   UNL A   1      40.990  19.554  25.363  1.00  0.00    -0.237 OA
ATOM     81  O   UNL A   1      43.384  19.697  24.800  1.00  0.00    -0.744 OA
ENDBRANCH  77  78
ENDBRANCH  49  72
BRANCH  61  82
ATOM     82  C   UNL A   1      48.004  26.908  30.894  1.00  0.00    -0.014 A 
ATOM     83  C   UNL A   1      49.075  27.277  30.064  1.00  0.00     0.010 A 
ATOM     84  C   UNL A   1      48.260  26.144  32.047  1.00  0.00     0.010 A 
ATOM     85  C   UNL A   1      50.375  26.865  30.366  1.00  0.00     0.020 A 
ATOM     86  C   UNL A   1      49.563  25.759  32.372  1.00  0.00     0.020 A 
ATOM     87  C   UNL A   1      50.611  26.112  31.521  1.00  0.00     0.054 A 
BRANCH  87  88
ATOM     88  S   UNL A   1      52.315  25.639  31.920  1.00  0.00     0.124 S 
ATOM     89  O   UNL A   1      52.177  24.214  32.204  1.00  0.00    -0.237 OA
ATOM     90  O   UNL A   1      53.035  25.969  30.691  1.00  0.00    -0.237 OA
ATOM     91  O   UNL A   1      52.646  26.475  33.072  1.00  0.00    -0.744 OA
ENDBRANCH  87  88
ENDBRANCH  61  82
ENDBRANCH  35  36
ENDBRANCH  28  30
ENDBRANCH  27  28
ENDBRANCH   1  27
TORSDOF 17
ENDMDL
MODEL 2
REMARK VINA RESULT:     -11.0      2.938      9.636
REMARK SMILES COc1ccc(-c2nc3ccc(C)cc3[nH]2)c(C(=O)OCCOC(=O)c2ccc(-c3c4nc(c(-c5ccc(S(=O)(=O)[O-])cc5)c5ccc([nH]5)c(-c5ccc(S(=O)(=O)[O-])cc5)c5nc(c(-c6ccc(S(=O)(=O)[O-])cc6)c6ccc3[nH]6)C=C5)C=C4)cc2)c1OC
REMARK SMILES IDX 22 1 21 2 20 3 18 4 19 5 17 6 3 7 4 8 86 9 5 10 6 11 2 12
REMARK SMILES IDX 1 13 87 14 88 15 7 16 8 17 16 18 9 19 15 20 10 22 14 23
REMARK SMILES IDX 11 24 12 25 13 26 23 27 24 28 25 29 26 30 27 31 85 32 28 33
REMARK SMILES IDX 84 34 29 35 30 36 31 37 78 38 32 39 83 40 77 41 79 42 33 43
REMARK SMILES IDX 82 44 76 45 75 46 34 48 64 49 45 50 63 51 46 52 49 53 62 54
REMARK SMILES IDX 80 55 47 56 48 57 61 59 81 60 50 61 35 62 36 63 44 64 37 65
REMARK SMILES IDX 43 66 38 67 39 68 40 69 41 70 42 71 65 72 66 73 74 74 67 75
REMARK SMILES IDX 73 76 68 77 69 78 70 79 71 80 72 81 51 82 52 83 60 84 53 85
REMARK SMILES IDX 59 86 54 87 55 88 56 89 57 90 58 91
REMARK H PARENT 16 21 79 47 49 58
REMARK Flexibility Score: inf
ROOT
ATOM      1  C   UNL A   1      36.964  22.184  24.793  1.00  0.00     0.275 C 
ENDROOT
BRANCH   1   2
ATOM      2  C   UNL A   1      35.515  21.716  24.949  1.00  0.00     0.275 C 
BRANCH   2   3
ATOM      3  O   UNL A   1      34.677  22.855  24.769  1.00  0.00    -0.458 OA
BRANCH   3   4
ATOM      4  C   UNL A   1      34.407  23.179  23.486  1.00  0.00     0.342 C 
ATOM      5  O   UNL A   1      35.057  22.948  22.492  1.00  0.00    -0.246 OA
BRANCH   4   6
ATOM      6  C   UNL A   1      33.078  23.815  23.487  1.00  0.00     0.116 A 
ATOM      7  C   UNL A   1      31.766  25.830  23.539  1.00  0.00     0.161 A 
ATOM      8  C   UNL A   1      30.603  25.051  23.469  1.00  0.00     0.051 A 
ATOM      9  C   UNL A   1      33.014  25.214  23.582  1.00  0.00     0.176 A 
ATOM     10  C   UNL A   1      30.675  23.643  23.433  1.00  0.00     0.017 A 
ATOM     11  C   UNL A   1      31.921  22.998  23.445  1.00  0.00     0.036 A 
BRANCH   7  12
ATOM     12  O   UNL A   1      31.629  27.181  23.715  1.00  0.00    -0.493 OA
ATOM     13  C   UNL A   1      30.761  27.481  24.808  1.00  0.00     0.278 C 
ENDBRANCH   7  12
BRANCH   9  14
ATOM     14  O   UNL A   1      34.141  25.887  23.976  1.00  0.00    -0.492 OA
ATOM     15  C   UNL A   1      34.210  26.199  25.356  1.00  0.00     0.278 C 
ENDBRANCH   9  14
BRANCH  11  16
ATOM     16  C   UNL A   1      32.064  21.546  23.681  1.00  0.00     0.139 A 
ATOM     17  N   UNL A   1      32.092  20.684  22.683  1.00  0.00    -0.228 NA
ATOM     18  N   UNL A   1      32.253  20.868  24.870  1.00  0.00    -0.338 N 
ATOM     19  C   UNL A   1      32.397  19.466  23.199  1.00  0.00     0.089 A 
ATOM     20  C   UNL A   1      32.495  19.536  24.576  1.00  0.00     0.066 A 
ATOM     21  H   UNL A   1      32.219  21.264  25.771  1.00  0.00     0.168 HD
ATOM     22  C   UNL A   1      32.657  18.268  22.525  1.00  0.00     0.031 A 
ATOM     23  C   UNL A   1      32.855  18.420  25.342  1.00  0.00     0.031 A 
ATOM     24  C   UNL A   1      33.155  17.190  23.253  1.00  0.00     0.006 A 
ATOM     25  C   UNL A   1      33.289  17.272  24.643  1.00  0.00    -0.049 A 
ATOM     26  C   UNL A   1      33.977  16.145  25.359  1.00  0.00     0.044 C 
ENDBRANCH  11  16
ENDBRANCH   4   6
ENDBRANCH   3   4
ENDBRANCH   2   3
ENDBRANCH   1   2
BRANCH   1  27
ATOM     27  O   UNL A   1      37.410  22.937  25.946  1.00  0.00    -0.458 OA
BRANCH  27  28
ATOM     28  C   UNL A   1      38.741  22.895  26.228  1.00  0.00     0.338 C 
ATOM     29  O   UNL A   1      39.509  21.982  25.973  1.00  0.00    -0.246 OA
BRANCH  28  30
ATOM     30  C   UNL A   1      39.183  24.179  26.843  1.00  0.00     0.060 A 
ATOM     31  C   UNL A   1      38.738  24.496  28.135  1.00  0.00     0.016 A 
ATOM     32  C   UNL A   1      40.056  25.054  26.192  1.00  0.00     0.016 A 
ATOM     33  C   UNL A   1      39.213  25.638  28.799  1.00  0.00     0.010 A 
ATOM     34  C   UNL A   1      40.529  26.197  26.855  1.00  0.00     0.010 A 
ATOM     35  C   UNL A   1      40.125  26.496  28.170  1.00  0.00    -0.014 A 
BRANCH  35  36
ATOM     36  C   UNL A   1      40.590  27.760  28.814  1.00  0.00     0.031 A 
ATOM     37  C   UNL A   1      41.895  27.769  29.547  1.00  0.00     0.074 A 
ATOM     38  C   UNL A   1      39.884  28.909  28.766  1.00  0.00     0.049 A 
ATOM     39  N   UNL A   1      42.451  28.753  30.202  1.00  0.00    -0.248 NA
ATOM     40  C   UNL A   1      42.706  26.544  29.476  1.00  0.00     0.031 C 
ATOM     41  C   UNL A   1      38.720  29.138  27.930  1.00  0.00     0.029 A 
ATOM     42  N   UNL A   1      40.020  30.095  29.453  1.00  0.00    -0.354 N 
ATOM     43  C   UNL A   1      43.709  28.297  30.558  1.00  0.00     0.074 A 
ATOM     44  C   UNL A   1      43.805  26.922  30.115  1.00  0.00     0.031 C 
ATOM     45  C   UNL A   1      38.159  30.318  28.247  1.00  0.00     0.029 A 
ATOM     46  C   UNL A   1      38.943  30.943  29.300  1.00  0.00     0.049 A 
ATOM     47  H   UNL A   1      40.809  30.316  30.001  1.00  0.00     0.167 HD
ATOM     48  C   UNL A   1      44.706  28.983  31.160  1.00  0.00     0.031 A 
ATOM     49  C   UNL A   1      38.609  32.082  29.941  1.00  0.00     0.031 A 
ATOM     50  C   UNL A   1      44.593  30.333  31.644  1.00  0.00     0.049 A 
ATOM     51  C   UNL A   1      39.616  32.701  30.865  1.00  0.00     0.074 A 
ATOM     52  C   UNL A   1      45.560  31.102  32.267  1.00  0.00     0.029 A 
ATOM     53  N   UNL A   1      43.442  31.103  31.596  1.00  0.00    -0.354 N 
ATOM     54  N   UNL A   1      40.823  32.280  31.149  1.00  0.00    -0.248 NA
ATOM     55  C   UNL A   1      39.255  33.978  31.496  1.00  0.00     0.031 C 
ATOM     56  C   UNL A   1      44.970  32.306  32.668  1.00  0.00     0.029 A 
ATOM     57  C   UNL A   1      43.655  32.315  32.234  1.00  0.00     0.049 A 
ATOM     58  H   UNL A   1      42.596  30.829  31.172  1.00  0.00     0.167 HD
ATOM     59  C   UNL A   1      41.399  33.281  31.917  1.00  0.00     0.074 A 
ATOM     60  C   UNL A   1      40.397  34.315  32.080  1.00  0.00     0.031 C 
ATOM     61  C   UNL A   1      42.661  33.345  32.404  1.00  0.00     0.031 A 
BRANCH  48  62
ATOM     62  C   UNL A   1      46.008  28.262  31.347  1.00  0.00    -0.014 A 
ATOM     63  C   UNL A   1      46.287  27.572  32.541  1.00  0.00     0.010 A 
ATOM     64  C   UNL A   1      46.947  28.244  30.302  1.00  0.00     0.010 A 
ATOM     65  C   UNL A   1      47.496  26.892  32.693  1.00  0.00     0.020 A 
ATOM     66  C   UNL A   1      48.147  27.547  30.443  1.00  0.00     0.020 A 
ATOM     67  C   UNL A   1      48.419  26.883  31.642  1.00  0.00     0.054 A 
BRANCH  67  68
ATOM     68  S   UNL A   1      49.964  25.962  31.851  1.00  0.00     0.124 S 
ATOM     69  O   UNL A   1      50.856  26.986  32.388  1.00  0.00    -0.237 OA
ATOM     70  O   UNL A   1      49.583  24.907  32.787  1.00  0.00    -0.237 OA
ATOM     71  O   UNL A   1      50.282  25.506  30.500  1.00  0.00    -0.744 OA
ENDBRANCH  67  68
ENDBRANCH  48  62
BRANCH  49  72
ATOM     72  C   UNL A   1      37.275  32.721  29.748  1.00  0.00    -0.014 A 
ATOM     73  C   UNL A   1      37.003  33.534  28.635  1.00  0.00     0.010 A 
ATOM     74  C   UNL A   1      36.285  32.580  30.740  1.00  0.00     0.010 A 
ATOM     75  C   UNL A   1      35.783  34.214  28.533  1.00  0.00     0.020 A 
ATOM     76  C   UNL A   1      35.053  33.233  30.628  1.00  0.00     0.020 A 
ATOM     77  C   UNL A   1      34.816  34.061  29.532  1.00  0.00     0.054 A 
BRANCH  77  78
ATOM     78  S   UNL A   1      33.245  34.960  29.378  1.00  0.00     0.124 S 
ATOM     79  O   UNL A   1      33.691  36.283  28.954  1.00  0.00    -0.237 OA
ATOM     80  O   UNL A   1      32.536  34.176  28.371  1.00  0.00    -0.237 OA
ATOM     81  O   UNL A   1      32.679  34.891  30.724  1.00  0.00    -0.744 OA
ENDBRANCH  77  78
ENDBRANCH  49  72
BRANCH  61  82
ATOM     82  C   UNL A   1      43.060  34.604  33.126  1.00  0.00    -0.014 A 
ATOM     83  C   UNL A   1      42.933  34.721  34.520  1.00  0.00     0.010 A 
ATOM     84  C   UNL A   1      43.611  35.673  32.394  1.00  0.00     0.010 A 
ATOM     85  C   UNL A   1      43.324  35.895  35.167  1.00  0.00     0.020 A 
ATOM     86  C   UNL A   1      44.035  36.835  33.041  1.00  0.00     0.020 A 
ATOM     87  C   UNL A   1      43.876  36.944  34.424  1.00  0.00     0.054 A 
BRANCH  87  88
ATOM     88  S   UNL A   1      44.429  38.434  35.296  1.00  0.00     0.124 S 
ATOM     89  O   UNL A   1      43.750  39.491  34.553  1.00  0.00    -0.237 OA
ATOM     90  O   UNL A   1      43.942  38.208  36.655  1.00  0.00    -0.237 OA
ATOM     91  O   UNL A   1      45.882  38.404  35.149  1.00  0.00    -0.744 OA
ENDBRANCH  87  88
ENDBRANCH  61  82
ENDBRANCH  35  36
ENDBRANCH  28  30
ENDBRANCH  27  28
ENDBRANCH   1  27
TORSDOF 17
ENDMDL
MODEL 3
REMARK VINA RESULT:     -10.6      3.430      9.764
REMARK SMILES COc1ccc(-c2nc3ccc(C)cc3[nH]2)c(C(=O)OCCOC(=O)c2ccc(-c3c4nc(c(-c5ccc(S(=O)(=O)[O-])cc5)c5ccc([nH]5)c(-c5ccc(S(=O)(=O)[O-])cc5)c5nc(c(-c6ccc(S(=O)(=O)[O-])cc6)c6ccc3[nH]6)C=C5)C=C4)cc2)c1OC
REMARK SMILES IDX 22 1 21 2 20 3 18 4 19 5 17 6 3 7 4 8 86 9 5 10 6 11 2 12
REMARK SMILES IDX 1 13 87 14 88 15 7 16 8 17 16 18 9 19 15 20 10 22 14 23
REMARK SMILES IDX 11 24 12 25 13 26 23 27 24 28 25 29 26 30 27 31 85 32 28 33
REMARK SMILES IDX 84 34 29 35 30 36 31 37 78 38 32 39 83 40 77 41 79 42 33 43
REMARK SMILES IDX 82 44 76 45 75 46 34 48 64 49 45 50 63 51 46 52 49 53 62 54
REMARK SMILES IDX 80 55 47 56 48 57 61 59 81 60 50 61 35 62 36 63 44 64 37 65
REMARK SMILES IDX 43 66 38 67 39 68 40 69 41 70 42 71 65 72 66 73 74 74 67 75
REMARK SMILES IDX 73 76 68 77 69 78 70 79 71 80 72 81 51 82 52 83 60 84 53 85
REMARK SMILES IDX 59 86 54 87 55 88 56 89 57 90 58 91
REMARK H PARENT 16 21 79 47 49 58
REMARK Flexibility Score: inf
ROOT
ATOM      1  C   UNL A   1      37.138  22.834  24.983  1.00  0.00     0.275 C 
ENDROOT
BRANCH   1   2
ATOM      2  C   UNL A   1      36.161  21.655  24.976  1.00  0.00     0.275 C 
BRANCH   2   3
ATOM      3  O   UNL A   1      34.903  22.141  25.438  1.00  0.00    -0.458 OA
BRANCH   3   4
ATOM      4  C   UNL A   1      34.124  22.721  24.498  1.00  0.00     0.342 C 
ATOM      5  O   UNL A   1      34.334  22.851  23.314  1.00  0.00    -0.246 OA
BRANCH   4   6
ATOM      6  C   UNL A   1      32.873  23.108  25.174  1.00  0.00     0.116 A 
ATOM      7  C   UNL A   1      31.557  24.820  26.232  1.00  0.00     0.161 A 
ATOM      8  C   UNL A   1      30.533  23.884  26.428  1.00  0.00     0.051 A 
ATOM      9  C   UNL A   1      32.751  24.429  25.632  1.00  0.00     0.176 A 
ATOM     10  C   UNL A   1      30.688  22.544  26.018  1.00  0.00     0.017 A 
ATOM     11  C   UNL A   1      31.870  22.130  25.384  1.00  0.00     0.036 A 
BRANCH   7  12
ATOM     12  O   UNL A   1      31.406  26.067  26.778  1.00  0.00    -0.493 OA
ATOM     13  C   UNL A   1      30.733  26.952  25.883  1.00  0.00     0.278 C 
ENDBRANCH   7  12
BRANCH   9  14
ATOM     14  O   UNL A   1      33.886  25.194  25.711  1.00  0.00    -0.492 OA
ATOM     15  C   UNL A   1      34.040  26.157  24.683  1.00  0.00     0.278 C 
ENDBRANCH   9  14
BRANCH  11  16
ATOM     16  C   UNL A   1      32.206  20.706  25.176  1.00  0.00     0.139 A 
ATOM     17  N   UNL A   1      32.157  20.152  23.980  1.00  0.00    -0.228 NA
ATOM     18  N   UNL A   1      32.666  19.775  26.087  1.00  0.00    -0.338 N 
ATOM     19  C   UNL A   1      32.674  18.902  24.083  1.00  0.00     0.089 A 
ATOM     20  C   UNL A   1      32.997  18.620  25.397  1.00  0.00     0.066 A 
ATOM     21  H   UNL A   1      32.744  19.909  27.060  1.00  0.00     0.168 HD
ATOM     22  C   UNL A   1      32.943  17.977  23.068  1.00  0.00     0.031 A 
ATOM     23  C   UNL A   1      33.600  17.408  25.759  1.00  0.00     0.031 A 
ATOM     24  C   UNL A   1      33.671  16.834  23.387  1.00  0.00     0.006 A 
ATOM     25  C   UNL A   1      34.030  16.565  24.712  1.00  0.00    -0.049 A 
ATOM     26  C   UNL A   1      34.947  15.405  24.979  1.00  0.00     0.044 C 
ENDBRANCH  11  16
ENDBRANCH   4   6
ENDBRANCH   3   4
ENDBRANCH   2   3
ENDBRANCH   1   2
BRANCH   1  27
ATOM     27  O   UNL A   1      37.611  23.127  26.319  1.00  0.00    -0.458 OA
BRANCH  27  28
ATOM     28  C   UNL A   1      38.947  22.987  26.541  1.00  0.00     0.338 C 
ATOM     29  O   UNL A   1      39.618  21.990  26.329  1.00  0.00    -0.246 OA
BRANCH  28  30
ATOM     30  C   UNL A   1      39.532  24.270  27.022  1.00  0.00     0.060 A 
ATOM     31  C   UNL A   1      40.106  25.144  26.086  1.00  0.00     0.016 A 
ATOM     32  C   UNL A   1      39.489  24.649  28.366  1.00  0.00     0.016 A 
ATOM     33  C   UNL A   1      40.569  26.410  26.475  1.00  0.00     0.010 A 
ATOM     34  C   UNL A   1      39.955  25.915  28.755  1.00  0.00     0.010 A 
ATOM     35  C   UNL A   1      40.488  26.816  27.813  1.00  0.00    -0.014 A 
BRANCH  35  36
ATOM     36  C   UNL A   1      41.042  28.122  28.276  1.00  0.00     0.031 A 
ATOM     37  C   UNL A   1      42.526  28.288  28.384  1.00  0.00     0.074 A 
ATOM     38  C   UNL A   1      40.263  29.174  28.605  1.00  0.00     0.049 A 
ATOM     39  N   UNL A   1      43.197  29.329  28.801  1.00  0.00    -0.248 NA
ATOM     40  C   UNL A   1      43.357  27.176  27.899  1.00  0.00     0.031 C 
ATOM     41  C   UNL A   1      38.835  29.262  28.359  1.00  0.00     0.029 A 
ATOM     42  N   UNL A   1      40.550  30.360  29.242  1.00  0.00    -0.354 N 
ATOM     43  C   UNL A   1      44.528  29.031  28.560  1.00  0.00     0.074 A 
ATOM     44  C   UNL A   1      44.575  27.683  28.032  1.00  0.00     0.031 C 
ATOM     45  C   UNL A   1      38.339  30.359  28.958  1.00  0.00     0.029 A 
ATOM     46  C   UNL A   1      39.425  31.067  29.615  1.00  0.00     0.049 A 
ATOM     47  H   UNL A   1      41.467  30.673  29.416  1.00  0.00     0.167 HD
ATOM     48  C   UNL A   1      45.605  29.832  28.723  1.00  0.00     0.031 A 
ATOM     49  C   UNL A   1      39.276  32.148  30.407  1.00  0.00     0.031 A 
ATOM     50  C   UNL A   1      45.564  31.152  29.293  1.00  0.00     0.049 A 
ATOM     51  C   UNL A   1      40.507  32.881  30.854  1.00  0.00     0.074 A 
ATOM     52  C   UNL A   1      46.613  32.031  29.494  1.00  0.00     0.029 A 
ATOM     53  N   UNL A   1      44.426  31.770  29.787  1.00  0.00    -0.354 N 
ATOM     54  N   UNL A   1      41.757  32.612  30.570  1.00  0.00    -0.248 NA
ATOM     55  C   UNL A   1      40.314  34.096  31.657  1.00  0.00     0.031 C 
ATOM     56  C   UNL A   1      46.124  33.147  30.182  1.00  0.00     0.029 A 
ATOM     57  C   UNL A   1      44.758  32.993  30.349  1.00  0.00     0.049 A 
ATOM     58  H   UNL A   1      43.516  31.397  29.747  1.00  0.00     0.167 HD
ATOM     59  C   UNL A   1      42.494  33.671  31.082  1.00  0.00     0.074 A 
ATOM     60  C   UNL A   1      41.552  34.569  31.720  1.00  0.00     0.031 C 
ATOM     61  C   UNL A   1      43.827  33.888  30.990  1.00  0.00     0.031 A 
BRANCH  48  62
ATOM     62  C   UNL A   1      46.932  29.279  28.293  1.00  0.00    -0.014 A 
ATOM     63  C   UNL A   1      47.722  28.525  29.181  1.00  0.00     0.010 A 
ATOM     64  C   UNL A   1      47.374  29.484  26.976  1.00  0.00     0.010 A 
ATOM     65  C   UNL A   1      48.946  28.003  28.760  1.00  0.00     0.020 A 
ATOM     66  C   UNL A   1      48.588  28.946  26.547  1.00  0.00     0.020 A 
ATOM     67  C   UNL A   1      49.371  28.217  27.445  1.00  0.00     0.054 A 
BRANCH  67  68
ATOM     68  S   UNL A   1      50.946  27.497  26.915  1.00  0.00     0.124 S 
ATOM     69  O   UNL A   1      51.100  28.060  25.575  1.00  0.00    -0.237 OA
ATOM     70  O   UNL A   1      51.881  27.999  27.919  1.00  0.00    -0.237 OA
ATOM     71  O   UNL A   1      50.703  26.057  26.959  1.00  0.00    -0.744 OA
ENDBRANCH  67  68
ENDBRANCH  48  62
BRANCH  49  72
ATOM     72  C   UNL A   1      37.927  32.615  30.840  1.00  0.00    -0.014 A 
ATOM     73  C   UNL A   1      37.184  33.529  30.073  1.00  0.00     0.010 A 
ATOM     74  C   UNL A   1      37.413  32.203  32.084  1.00  0.00     0.010 A 
ATOM     75  C   UNL A   1      35.972  34.040  30.554  1.00  0.00     0.020 A 
ATOM     76  C   UNL A   1      36.188  32.687  32.557  1.00  0.00     0.020 A 
ATOM     77  C   UNL A   1      35.482  33.618  31.795  1.00  0.00     0.054 A 
BRANCH  77  78
ATOM     78  S   UNL A   1      33.911  34.302  32.397  1.00  0.00     0.124 S 
ATOM     79  O   UNL A   1      33.217  34.614  31.153  1.00  0.00    -0.237 OA
ATOM     80  O   UNL A   1      33.363  33.188  33.168  1.00  0.00    -0.237 OA
ATOM     81  O   UNL A   1      34.325  35.457  33.193  1.00  0.00    -0.744 OA
ENDBRANCH  77  78
ENDBRANCH  49  72
BRANCH  61  82
ATOM     82  C   UNL A   1      44.356  35.181  31.552  1.00  0.00    -0.014 A 
ATOM     83  C   UNL A   1      44.244  36.388  30.842  1.00  0.00     0.010 A 
ATOM     84  C   UNL A   1      44.939  35.189  32.832  1.00  0.00     0.010 A 
ATOM     85  C   UNL A   1      44.730  37.576  31.391  1.00  0.00     0.020 A 
ATOM     86  C   UNL A   1      45.396  36.381  33.400  1.00  0.00     0.020 A 
ATOM     87  C   UNL A   1      45.300  37.565  32.668  1.00  0.00     0.054 A 
BRANCH  87  88
ATOM     88  S   UNL A   1      45.871  39.132  33.381  1.00  0.00     0.124 S 
ATOM     89  O   UNL A   1      45.297  40.111  32.464  1.00  0.00    -0.237 OA
ATOM     90  O   UNL A   1      45.288  39.105  34.720  1.00  0.00    -0.237 OA
ATOM     91  O   UNL A   1      47.328  39.020  33.340  1.00  0.00    -0.744 OA
ENDBRANCH  87  88
ENDBRANCH  61  82
ENDBRANCH  35  36
ENDBRANCH  28  30
ENDBRANCH  27  28
ENDBRANCH   1  27
TORSDOF 17
ENDMDL
