MODEL 1
REMARK VINA RESULT:     -11.4      0.000      0.000
REMARK SMILES O=C(OCCOC(=O)[C@@H](Cc1c(F)cccc1Cl)c1ccc(Cl)cc1)c1ccc(-c2c3nc(c(-c4ccc(S(=O)(=O)[O-])cc4)c4ccc([nH]4)c(-c4ccc(S(=O)(=O)[O-])cc4)c4nc(c(-c5ccc(S(=O)(=O)[O-])cc5)c5ccc2[nH]5)C=C4)C=C3)cc1
REMARK SMILES IDX 4 1 3 2 2 3 1 4 26 5 27 6 85 7 28 8 84 9 29 10 30 11 31 12
REMARK SMILES IDX 78 13 32 14 83 15 77 16 79 17 33 18 82 19 76 20 75 21 34 23
REMARK SMILES IDX 64 24 45 25 63 26 46 27 49 28 62 29 80 30 47 31 48 32 61 34
REMARK SMILES IDX 81 35 50 36 35 37 36 38 44 39 37 40 43 41 38 42 39 43 40 44
REMARK SMILES IDX 41 45 42 46 65 47 66 48 74 49 67 50 73 51 68 52 69 53 70 54
REMARK SMILES IDX 71 55 72 56 51 57 52 58 60 59 53 60 59 61 54 62 55 63 56 64
REMARK SMILES IDX 57 65 58 66 5 67 6 68 7 69 8 70 9 71 10 72 11 73 12 74 17 75
REMARK SMILES IDX 13 76 14 77 16 78 18 79 15 80 19 81 20 82 25 83 21 84 24 85
REMARK SMILES IDX 22 86 23 87
REMARK H PARENT 79 22 49 33
REMARK Flexibility Score: inf
ROOT
ATOM      1  C   UNL A   1      37.489  23.384  24.788  1.00  0.00     0.275 C 
ENDROOT
BRANCH   1   2
ATOM      2  O   UNL A   1      37.970  22.477  25.769  1.00  0.00    -0.458 OA
BRANCH   2   3
ATOM      3  C   UNL A   1      39.235  22.472  26.215  1.00  0.00     0.338 C 
ATOM      4  O   UNL A   1      39.834  21.407  26.347  1.00  0.00    -0.246 OA
BRANCH   3   5
ATOM      5  C   UNL A   1      39.947  23.710  26.666  1.00  0.00     0.060 A 
ATOM      6  C   UNL A   1      41.027  24.826  25.698  1.00  0.00     0.016 A 
ATOM      7  C   UNL A   1      39.177  24.345  28.199  1.00  0.00     0.016 A 
ATOM      8  C   UNL A   1      41.104  26.600  26.142  1.00  0.00     0.010 A 
ATOM      9  C   UNL A   1      39.388  26.026  28.697  1.00  0.00     0.010 A 
ATOM     10  C   UNL A   1      40.357  27.172  27.736  1.00  0.00    -0.014 A 
BRANCH  10  11
ATOM     11  C   UNL A   1      40.804  28.425  28.440  1.00  0.00     0.031 A 
ATOM     12  C   UNL A   1      39.796  29.518  28.773  1.00  0.00     0.074 A 
ATOM     13  C   UNL A   1      41.967  28.361  29.107  1.00  0.00     0.049 A 
ATOM     14  N   UNL A   1      39.921  30.491  29.641  1.00  0.00    -0.248 NA
ATOM     15  C   UNL A   1      38.458  29.492  28.147  1.00  0.00     0.031 C 
ATOM     16  C   UNL A   1      42.872  27.231  29.004  1.00  0.00     0.029 A 
ATOM     17  N   UNL A   1      42.537  29.142  30.071  1.00  0.00    -0.354 N 
ATOM     18  C   UNL A   1      38.699  31.156  29.660  1.00  0.00     0.074 A 
ATOM     19  C   UNL A   1      37.825  30.491  28.738  1.00  0.00     0.031 C 
ATOM     20  C   UNL A   1      43.799  27.301  29.956  1.00  0.00     0.029 A 
ATOM     21  C   UNL A   1      43.682  28.589  30.596  1.00  0.00     0.049 A 
ATOM     22  H   UNL A   1      42.168  30.008  30.358  1.00  0.00     0.167 HD
ATOM     23  C   UNL A   1      38.344  32.245  30.373  1.00  0.00     0.031 A 
ATOM     24  C   UNL A   1      44.602  29.076  31.443  1.00  0.00     0.031 A 
ATOM     25  C   UNL A   1      39.253  32.913  31.260  1.00  0.00     0.049 A 
ATOM     26  C   UNL A   1      44.292  30.400  32.037  1.00  0.00     0.074 A 
ATOM     27  C   UNL A   1      39.073  34.102  31.938  1.00  0.00     0.029 A 
ATOM     28  N   UNL A   1      40.528  32.455  31.564  1.00  0.00    -0.354 N 
ATOM     29  N   UNL A   1      43.160  31.059  31.967  1.00  0.00    -0.248 NA
ATOM     30  C   UNL A   1      45.351  31.058  32.797  1.00  0.00     0.031 C 
ATOM     31  C   UNL A   1      40.283  34.423  32.556  1.00  0.00     0.029 A 
ATOM     32  C   UNL A   1      41.181  33.385  32.348  1.00  0.00     0.049 A 
ATOM     33  H   UNL A   1      40.909  31.598  31.265  1.00  0.00     0.167 HD
ATOM     34  C   UNL A   1      43.371  32.227  32.663  1.00  0.00     0.074 A 
ATOM     35  C   UNL A   1      44.722  32.153  33.198  1.00  0.00     0.031 C 
ATOM     36  C   UNL A   1      42.533  33.277  32.826  1.00  0.00     0.031 A 
BRANCH  23  37
ATOM     37  C   UNL A   1      37.008  32.882  30.093  1.00  0.00    -0.014 A 
ATOM     38  C   UNL A   1      35.880  32.698  30.911  1.00  0.00     0.010 A 
ATOM     39  C   UNL A   1      36.918  33.759  28.994  1.00  0.00     0.010 A 
ATOM     40  C   UNL A   1      34.696  33.403  30.647  1.00  0.00     0.020 A 
ATOM     41  C   UNL A   1      35.751  34.479  28.743  1.00  0.00     0.020 A 
ATOM     42  C   UNL A   1      34.647  34.302  29.575  1.00  0.00     0.054 A 
BRANCH  42  43
ATOM     43  S   UNL A   1      33.145  35.291  29.323  1.00  0.00     0.124 S 
ATOM     44  O   UNL A   1      32.575  35.328  30.667  1.00  0.00    -0.237 OA
ATOM     45  O   UNL A   1      33.680  36.557  28.831  1.00  0.00    -0.237 OA
ATOM     46  O   UNL A   1      32.381  34.519  28.345  1.00  0.00    -0.744 OA
ENDBRANCH  42  43
ENDBRANCH  23  37
BRANCH  24  47
ATOM     47  C   UNL A   1      45.919  28.390  31.575  1.00  0.00    -0.014 A 
ATOM     48  C   UNL A   1      46.996  28.633  30.711  1.00  0.00     0.010 A 
ATOM     49  C   UNL A   1      46.093  27.464  32.630  1.00  0.00     0.010 A 
ATOM     50  C   UNL A   1      48.209  27.952  30.890  1.00  0.00     0.020 A 
ATOM     51  C   UNL A   1      47.310  26.820  32.839  1.00  0.00     0.020 A 
ATOM     52  C   UNL A   1      48.355  27.050  31.951  1.00  0.00     0.054 A 
BRANCH  52  53
ATOM     53  S   UNL A   1      49.924  26.167  32.158  1.00  0.00     0.124 S 
ATOM     54  O   UNL A   1      49.809  25.114  31.152  1.00  0.00    -0.237 OA
ATOM     55  O   UNL A   1      50.914  27.203  31.879  1.00  0.00    -0.237 OA
ATOM     56  O   UNL A   1      49.883  25.708  33.546  1.00  0.00    -0.744 OA
ENDBRANCH  52  53
ENDBRANCH  24  47
BRANCH  36  57
ATOM     57  C   UNL A   1      43.085  34.420  33.606  1.00  0.00    -0.014 A 
ATOM     58  C   UNL A   1      43.790  35.447  32.957  1.00  0.00     0.010 A 
ATOM     59  C   UNL A   1      42.883  34.464  34.993  1.00  0.00     0.010 A 
ATOM     60  C   UNL A   1      44.330  36.489  33.701  1.00  0.00     0.020 A 
ATOM     61  C   UNL A   1      43.385  35.529  35.733  1.00  0.00     0.020 A 
ATOM     62  C   UNL A   1      44.117  36.524  35.083  1.00  0.00     0.054 A 
BRANCH  62  63
ATOM     63  S   UNL A   1      44.790  37.917  36.017  1.00  0.00     0.124 S 
ATOM     64  O   UNL A   1      46.209  37.852  35.675  1.00  0.00    -0.237 OA
ATOM     65  O   UNL A   1      44.059  39.052  35.459  1.00  0.00    -0.237 OA
ATOM     66  O   UNL A   1      44.467  37.592  37.404  1.00  0.00    -0.744 OA
ENDBRANCH  62  63
ENDBRANCH  36  57
ENDBRANCH  10  11
ENDBRANCH   3   5
ENDBRANCH   2   3
ENDBRANCH   1   2
BRANCH   1  67
ATOM     67  C   UNL A   1      36.664  22.656  23.714  1.00  0.00     0.274 C 
BRANCH  67  68
ATOM     68  O   UNL A   1      35.810  23.517  22.919  1.00  0.00    -0.462 OA
BRANCH  68  69
ATOM     69  C   UNL A   1      34.454  23.533  23.070  1.00  0.00     0.313 C 
ATOM     70  O   UNL A   1      33.685  23.760  22.146  1.00  0.00    -0.252 OA
BRANCH  69  71
ATOM     71  C   UNL A   1      34.002  23.156  24.541  1.00  0.00     0.134 C 
BRANCH  71  72
ATOM     72  C   UNL A   1      33.340  24.450  25.737  1.00  0.00     0.060 C 
BRANCH  72  73
ATOM     73  C   UNL A   1      32.481  26.420  25.548  1.00  0.00     0.008 A 
ATOM     74  C   UNL A   1      31.130  26.830  24.710  1.00  0.00     0.127 A 
ATOM     75  C   UNL A   1      33.025  27.861  25.781  1.00  0.00     0.047 A 
ATOM     76  F   UNL A   1      30.188  25.949  24.292  1.00  0.00    -0.207 F 
ATOM     77  C   UNL A   1      30.657  28.054  24.206  1.00  0.00     0.039 A 
ATOM     78  C   UNL A   1      32.505  29.083  25.164  1.00  0.00     0.021 A 
ATOM     79  Cl  UNL A   1      34.336  28.507  26.830  1.00  0.00    -0.084 Cl
ATOM     80  C   UNL A   1      31.378  29.182  24.372  1.00  0.00     0.005 A 
ENDBRANCH  72  73
ENDBRANCH  71  72
BRANCH  71  81
ATOM     81  C   UNL A   1      33.459  21.715  24.656  1.00  0.00    -0.033 A 
ATOM     82  C   UNL A   1      32.813  21.110  23.559  1.00  0.00     0.006 A 
ATOM     83  C   UNL A   1      33.636  20.944  25.818  1.00  0.00     0.006 A 
ATOM     84  C   UNL A   1      32.411  19.766  23.611  1.00  0.00     0.021 A 
ATOM     85  C   UNL A   1      33.236  19.607  25.870  1.00  0.00     0.021 A 
ATOM     86  C   UNL A   1      32.628  19.020  24.767  1.00  0.00     0.041 A 
ATOM     87  Cl  UNL A   1      32.203  17.358  24.824  1.00  0.00    -0.084 Cl
ENDBRANCH  71  81
ENDBRANCH  69  71
ENDBRANCH  68  69
ENDBRANCH  67  68
ENDBRANCH   1  67
TORSDOF 17
ENDMDL
MODEL 2
REMARK VINA RESULT:     -11.2      2.830      3.484
REMARK SMILES O=C(OCCOC(=O)[C@@H](Cc1c(F)cccc1Cl)c1ccc(Cl)cc1)c1ccc(-c2c3nc(c(-c4ccc(S(=O)(=O)[O-])cc4)c4ccc([nH]4)c(-c4ccc(S(=O)(=O)[O-])cc4)c4nc(c(-c5ccc(S(=O)(=O)[O-])cc5)c5ccc2[nH]5)C=C4)C=C3)cc1
REMARK SMILES IDX 4 1 3 2 2 3 1 4 26 5 27 6 85 7 28 8 84 9 29 10 30 11 31 12
REMARK SMILES IDX 78 13 32 14 83 15 77 16 79 17 33 18 82 19 76 20 75 21 34 23
REMARK SMILES IDX 64 24 45 25 63 26 46 27 49 28 62 29 80 30 47 31 48 32 61 34
REMARK SMILES IDX 81 35 50 36 35 37 36 38 44 39 37 40 43 41 38 42 39 43 40 44
REMARK SMILES IDX 41 45 42 46 65 47 66 48 74 49 67 50 73 51 68 52 69 53 70 54
REMARK SMILES IDX 71 55 72 56 51 57 52 58 60 59 53 60 59 61 54 62 55 63 56 64
REMARK SMILES IDX 57 65 58 66 5 67 6 68 7 69 8 70 9 71 10 72 11 73 12 74 17 75
REMARK SMILES IDX 13 76 14 77 16 78 18 79 15 80 19 81 20 82 25 83 21 84 24 85
REMARK SMILES IDX 22 86 23 87
REMARK H PARENT 79 22 49 33
REMARK Flexibility Score: inf
ROOT
ATOM      1  C   UNL A   1      37.411  23.694  25.302  1.00  0.00     0.275 C 
ENDROOT
BRANCH   1   2
ATOM      2  O   UNL A   1      37.900  24.408  26.428  1.00  0.00    -0.458 OA
BRANCH   2   3
ATOM      3  C   UNL A   1      39.202  24.504  26.734  1.00  0.00     0.338 C 
ATOM      4  O   UNL A   1      39.987  23.638  26.352  1.00  0.00    -0.246 OA
BRANCH   3   5
ATOM      5  C   UNL A   1      39.757  25.578  27.618  1.00  0.00     0.060 A 
ATOM      6  C   UNL A   1      40.721  27.062  27.150  1.00  0.00     0.016 A 
ATOM      7  C   UNL A   1      38.887  25.568  29.227  1.00  0.00     0.016 A 
ATOM      8  C   UNL A   1      40.583  28.575  28.170  1.00  0.00     0.010 A 
ATOM      9  C   UNL A   1      38.891  26.989  30.274  1.00  0.00     0.010 A 
ATOM     10  C   UNL A   1      39.741  28.487  29.816  1.00  0.00    -0.014 A 
BRANCH  10  11
ATOM     11  C   UNL A   1      40.026  29.462  30.928  1.00  0.00     0.031 A 
ATOM     12  C   UNL A   1      38.966  30.472  31.350  1.00  0.00     0.074 A 
ATOM     13  C   UNL A   1      41.022  29.145  31.768  1.00  0.00     0.049 A 
ATOM     14  N   UNL A   1      38.902  31.151  32.469  1.00  0.00    -0.248 NA
ATOM     15  C   UNL A   1      37.791  30.701  30.485  1.00  0.00     0.031 C 
ATOM     16  C   UNL A   1      41.933  28.040  31.530  1.00  0.00     0.029 A 
ATOM     17  N   UNL A   1      41.373  29.587  33.011  1.00  0.00    -0.354 N 
ATOM     18  C   UNL A   1      37.701  31.853  32.430  1.00  0.00     0.074 A 
ATOM     19  C   UNL A   1      37.044  31.527  31.199  1.00  0.00     0.031 C 
ATOM     20  C   UNL A   1      42.638  27.785  32.629  1.00  0.00     0.029 A 
ATOM     21  C   UNL A   1      42.384  28.844  33.576  1.00  0.00     0.049 A 
ATOM     22  H   UNL A   1      40.949  30.357  33.456  1.00  0.00     0.167 HD
ATOM     23  C   UNL A   1      37.200  32.715  33.340  1.00  0.00     0.031 A 
ATOM     24  C   UNL A   1      43.104  29.017  34.695  1.00  0.00     0.031 A 
ATOM     25  C   UNL A   1      37.900  33.050  34.548  1.00  0.00     0.049 A 
ATOM     26  C   UNL A   1      42.671  30.135  35.570  1.00  0.00     0.074 A 
ATOM     27  C   UNL A   1      37.577  34.008  35.488  1.00  0.00     0.029 A 
ATOM     28  N   UNL A   1      39.084  32.454  34.958  1.00  0.00    -0.354 N 
ATOM     29  N   UNL A   1      41.577  30.851  35.465  1.00  0.00    -0.248 NA
ATOM     30  C   UNL A   1      43.543  30.489  36.686  1.00  0.00     0.031 C 
ATOM     31  C   UNL A   1      38.628  34.071  36.405  1.00  0.00     0.029 A 
ATOM     32  C   UNL A   1      39.553  33.084  36.092  1.00  0.00     0.049 A 
ATOM     33  H   UNL A   1      39.522  31.695  34.508  1.00  0.00     0.167 HD
ATOM     34  C   UNL A   1      41.632  31.761  36.496  1.00  0.00     0.074 A 
ATOM     35  C   UNL A   1      42.840  31.461  37.250  1.00  0.00     0.031 C 
ATOM     36  C   UNL A   1      40.775  32.768  36.783  1.00  0.00     0.031 A 
BRANCH  23  37
ATOM     37  C   UNL A   1      35.951  33.481  32.991  1.00  0.00    -0.014 A 
ATOM     38  C   UNL A   1      34.657  33.019  33.287  1.00  0.00     0.010 A 
ATOM     39  C   UNL A   1      36.105  34.752  32.404  1.00  0.00     0.010 A 
ATOM     40  C   UNL A   1      33.543  33.831  33.025  1.00  0.00     0.020 A 
ATOM     41  C   UNL A   1      35.002  35.571  32.163  1.00  0.00     0.020 A 
ATOM     42  C   UNL A   1      33.726  35.108  32.482  1.00  0.00     0.054 A 
BRANCH  42  43
ATOM     43  S   UNL A   1      32.283  36.187  32.260  1.00  0.00     0.124 S 
ATOM     44  O   UNL A   1      31.189  35.331  32.711  1.00  0.00    -0.237 OA
ATOM     45  O   UNL A   1      32.597  37.316  33.131  1.00  0.00    -0.237 OA
ATOM     46  O   UNL A   1      32.289  36.486  30.830  1.00  0.00    -0.744 OA
ENDBRANCH  42  43
ENDBRANCH  23  37
BRANCH  24  47
ATOM     47  C   UNL A   1      44.366  28.248  34.887  1.00  0.00    -0.014 A 
ATOM     48  C   UNL A   1      44.460  27.137  35.738  1.00  0.00     0.010 A 
ATOM     49  C   UNL A   1      45.515  28.648  34.167  1.00  0.00     0.010 A 
ATOM     50  C   UNL A   1      45.680  26.459  35.875  1.00  0.00     0.020 A 
ATOM     51  C   UNL A   1      46.715  27.949  34.264  1.00  0.00     0.020 A 
ATOM     52  C   UNL A   1      46.798  26.871  35.139  1.00  0.00     0.054 A 
BRANCH  52  53
ATOM     53  S   UNL A   1      48.369  25.992  35.340  1.00  0.00     0.124 S 
ATOM     54  O   UNL A   1      48.068  24.700  34.730  1.00  0.00    -0.237 OA
ATOM     55  O   UNL A   1      49.305  26.836  34.603  1.00  0.00    -0.237 OA
ATOM     56  O   UNL A   1      48.569  25.965  36.788  1.00  0.00    -0.744 OA
ENDBRANCH  52  53
ENDBRANCH  24  47
BRANCH  36  57
ATOM     57  C   UNL A   1      41.146  33.610  37.954  1.00  0.00    -0.014 A 
ATOM     58  C   UNL A   1      42.000  34.713  37.792  1.00  0.00     0.010 A 
ATOM     59  C   UNL A   1      40.626  33.294  39.218  1.00  0.00     0.010 A 
ATOM     60  C   UNL A   1      42.366  35.469  38.900  1.00  0.00     0.020 A 
ATOM     61  C   UNL A   1      40.956  34.076  40.318  1.00  0.00     0.020 A 
ATOM     62  C   UNL A   1      41.836  35.147  40.153  1.00  0.00     0.054 A 
BRANCH  62  63
ATOM     63  S   UNL A   1      42.293  36.178  41.565  1.00  0.00     0.124 S 
ATOM     64  O   UNL A   1      43.283  37.075  40.976  1.00  0.00    -0.237 OA
ATOM     65  O   UNL A   1      41.020  36.796  41.929  1.00  0.00    -0.237 OA
ATOM     66  O   UNL A   1      42.817  35.221  42.536  1.00  0.00    -0.744 OA
ENDBRANCH  62  63
ENDBRANCH  36  57
ENDBRANCH  10  11
ENDBRANCH   3   5
ENDBRANCH   2   3
ENDBRANCH   1   2
BRANCH   1  67
ATOM     67  C   UNL A   1      36.139  22.904  25.655  1.00  0.00     0.274 C 
BRANCH  67  68
ATOM     68  O   UNL A   1      34.980  23.231  24.848  1.00  0.00    -0.462 OA
BRANCH  68  69
ATOM     69  C   UNL A   1      33.994  24.061  25.298  1.00  0.00     0.313 C 
ATOM     70  O   UNL A   1      34.212  25.196  25.699  1.00  0.00    -0.252 OA
BRANCH  69  71
ATOM     71  C   UNL A   1      32.552  23.417  25.169  1.00  0.00     0.134 C 
BRANCH  71  72
ATOM     72  C   UNL A   1      31.072  24.411  24.567  1.00  0.00     0.060 C 
BRANCH  72  73
ATOM     73  C   UNL A   1      30.696  26.487  24.116  1.00  0.00     0.008 A 
ATOM     74  C   UNL A   1      29.266  27.155  23.666  1.00  0.00     0.127 A 
ATOM     75  C   UNL A   1      31.611  27.695  23.753  1.00  0.00     0.047 A 
ATOM     76  F   UNL A   1      28.057  26.564  23.829  1.00  0.00    -0.207 F 
ATOM     77  C   UNL A   1      28.938  28.358  23.016  1.00  0.00     0.039 A 
ATOM     78  C   UNL A   1      31.198  28.891  23.016  1.00  0.00     0.021 A 
ATOM     79  Cl  UNL A   1      33.335  28.060  24.113  1.00  0.00    -0.084 Cl
ATOM     80  C   UNL A   1      29.912  29.206  22.625  1.00  0.00     0.005 A 
ENDBRANCH  72  73
ENDBRANCH  71  72
BRANCH  71  81
ATOM     81  C   UNL A   1      32.591  21.906  24.849  1.00  0.00    -0.033 A 
ATOM     82  C   UNL A   1      32.350  21.452  23.537  1.00  0.00     0.006 A 
ATOM     83  C   UNL A   1      32.920  20.948  25.824  1.00  0.00     0.006 A 
ATOM     84  C   UNL A   1      32.488  20.095  23.207  1.00  0.00     0.021 A 
ATOM     85  C   UNL A   1      33.058  19.598  25.496  1.00  0.00     0.021 A 
ATOM     86  C   UNL A   1      32.845  19.174  24.190  1.00  0.00     0.041 A 
ATOM     87  Cl  UNL A   1      33.083  17.521  23.790  1.00  0.00    -0.084 Cl
ENDBRANCH  71  81
ENDBRANCH  69  71
ENDBRANCH  68  69
ENDBRANCH  67  68
ENDBRANCH   1  67
TORSDOF 17
ENDMDL
MODEL 3
REMARK VINA RESULT:     -11.1      4.808     10.758
REMARK SMILES O=C(OCCOC(=O)[C@@H](Cc1c(F)cccc1Cl)c1ccc(Cl)cc1)c1ccc(-c2c3nc(c(-c4ccc(S(=O)(=O)[O-])cc4)c4ccc([nH]4)c(-c4ccc(S(=O)(=O)[O-])cc4)c4nc(c(-c5ccc(S(=O)(=O)[O-])cc5)c5ccc2[nH]5)C=C4)C=C3)cc1
REMARK SMILES IDX 4 1 3 2 2 3 1 4 26 5 27 6 85 7 28 8 84 9 29 10 30 11 31 12
REMARK SMILES IDX 78 13 32 14 83 15 77 16 79 17 33 18 82 19 76 20 75 21 34 23
REMARK SMILES IDX 64 24 45 25 63 26 46 27 49 28 62 29 80 30 47 31 48 32 61 34
REMARK SMILES IDX 81 35 50 36 35 37 36 38 44 39 37 40 43 41 38 42 39 43 40 44
REMARK SMILES IDX 41 45 42 46 65 47 66 48 74 49 67 50 73 51 68 52 69 53 70 54
REMARK SMILES IDX 71 55 72 56 51 57 52 58 60 59 53 60 59 61 54 62 55 63 56 64
REMARK SMILES IDX 57 65 58 66 5 67 6 68 7 69 8 70 9 71 10 72 11 73 12 74 17 75
REMARK SMILES IDX 13 76 14 77 16 78 18 79 15 80 19 81 20 82 25 83 21 84 24 85
REMARK SMILES IDX 22 86 23 87
REMARK H PARENT 79 22 49 33
REMARK Flexibility Score: inf
ROOT
ATOM      1  C   UNL A   1      35.245  30.383  27.930  1.00  0.00     0.275 C 
ENDROOT
BRANCH   1   2
ATOM      2  O   UNL A   1      36.044  29.370  28.523  1.00  0.00    -0.458 OA
BRANCH   2   3
ATOM      3  C   UNL A   1      36.718  29.537  29.671  1.00  0.00     0.338 C 
ATOM      4  O   UNL A   1      36.117  29.873  30.690  1.00  0.00    -0.246 OA
BRANCH   3   5
ATOM      5  C   UNL A   1      38.208  29.430  29.767  1.00  0.00     0.060 A 
ATOM      6  C   UNL A   1      39.221  28.732  31.123  1.00  0.00     0.016 A 
ATOM      7  C   UNL A   1      38.949  29.569  28.100  1.00  0.00     0.016 A 
ATOM      8  C   UNL A   1      40.835  27.966  30.728  1.00  0.00     0.010 A 
ATOM      9  C   UNL A   1      40.573  28.960  27.771  1.00  0.00     0.010 A 
ATOM     10  C   UNL A   1      41.559  28.191  29.040  1.00  0.00    -0.014 A 
BRANCH  10  11
ATOM     11  C   UNL A   1      43.038  28.090  28.769  1.00  0.00     0.031 A 
ATOM     12  C   UNL A   1      43.595  26.898  28.002  1.00  0.00     0.074 A 
ATOM     13  C   UNL A   1      43.745  29.227  28.847  1.00  0.00     0.049 A 
ATOM     14  N   UNL A   1      44.755  26.799  27.402  1.00  0.00    -0.248 NA
ATOM     15  C   UNL A   1      42.749  25.706  27.790  1.00  0.00     0.031 C 
ATOM     16  C   UNL A   1      43.191  30.466  29.364  1.00  0.00     0.029 A 
ATOM     17  N   UNL A   1      44.982  29.591  28.400  1.00  0.00    -0.354 N 
ATOM     18  C   UNL A   1      44.755  25.567  26.755  1.00  0.00     0.074 A 
ATOM     19  C   UNL A   1      43.490  24.941  27.007  1.00  0.00     0.031 C 
ATOM     20  C   UNL A   1      44.004  31.481  29.082  1.00  0.00     0.029 A 
ATOM     21  C   UNL A   1      45.232  30.935  28.558  1.00  0.00     0.049 A 
ATOM     22  H   UNL A   1      45.627  28.959  28.008  1.00  0.00     0.167 HD
ATOM     23  C   UNL A   1      45.740  24.998  26.027  1.00  0.00     0.031 A 
ATOM     24  C   UNL A   1      46.345  31.664  28.384  1.00  0.00     0.031 A 
ATOM     25  C   UNL A   1      47.010  25.633  25.824  1.00  0.00     0.049 A 
ATOM     26  C   UNL A   1      47.500  30.942  27.794  1.00  0.00     0.074 A 
ATOM     27  C   UNL A   1      48.142  25.115  25.228  1.00  0.00     0.029 A 
ATOM     28  N   UNL A   1      47.318  26.919  26.243  1.00  0.00    -0.354 N 
ATOM     29  N   UNL A   1      47.504  29.739  27.270  1.00  0.00    -0.248 NA
ATOM     30  C   UNL A   1      48.786  31.634  27.778  1.00  0.00     0.031 C 
ATOM     31  C   UNL A   1      49.170  26.045  25.394  1.00  0.00     0.029 A 
ATOM     32  C   UNL A   1      48.652  27.181  26.000  1.00  0.00     0.049 A 
ATOM     33  H   UNL A   1      46.682  27.550  26.653  1.00  0.00     0.167 HD
ATOM     34  C   UNL A   1      48.803  29.516  26.872  1.00  0.00     0.074 A 
ATOM     35  C   UNL A   1      49.541  30.736  27.161  1.00  0.00     0.031 C 
ATOM     36  C   UNL A   1      49.342  28.397  26.336  1.00  0.00     0.031 A 
BRANCH  23  37
ATOM     37  C   UNL A   1      45.559  23.575  25.565  1.00  0.00    -0.014 A 
ATOM     38  C   UNL A   1      45.769  22.463  26.398  1.00  0.00     0.010 A 
ATOM     39  C   UNL A   1      45.089  23.368  24.253  1.00  0.00     0.010 A 
ATOM     40  C   UNL A   1      45.485  21.171  25.931  1.00  0.00     0.020 A 
ATOM     41  C   UNL A   1      44.783  22.087  23.794  1.00  0.00     0.020 A 
ATOM     42  C   UNL A   1      44.976  20.995  24.638  1.00  0.00     0.054 A 
BRANCH  42  43
ATOM     43  S   UNL A   1      44.503  19.328  24.097  1.00  0.00     0.124 S 
ATOM     44  O   UNL A   1      43.175  19.180  24.687  1.00  0.00    -0.237 OA
ATOM     45  O   UNL A   1      44.535  19.448  22.642  1.00  0.00    -0.237 OA
ATOM     46  O   UNL A   1      45.537  18.469  24.671  1.00  0.00    -0.744 OA
ENDBRANCH  42  43
ENDBRANCH  23  37
BRANCH  24  47
ATOM     47  C   UNL A   1      46.425  33.038  28.956  1.00  0.00    -0.014 A 
ATOM     48  C   UNL A   1      46.160  34.193  28.207  1.00  0.00     0.010 A 
ATOM     49  C   UNL A   1      46.767  33.180  30.321  1.00  0.00     0.010 A 
ATOM     50  C   UNL A   1      46.255  35.457  28.808  1.00  0.00     0.020 A 
ATOM     51  C   UNL A   1      46.817  34.430  30.933  1.00  0.00     0.020 A 
ATOM     52  C   UNL A   1      46.585  35.565  30.164  1.00  0.00     0.054 A 
BRANCH  52  53
ATOM     53  S   UNL A   1      46.717  37.207  30.919  1.00  0.00     0.124 S 
ATOM     54  O   UNL A   1      46.710  36.882  32.343  1.00  0.00    -0.237 OA
ATOM     55  O   UNL A   1      47.985  37.701  30.390  1.00  0.00    -0.237 OA
ATOM     56  O   UNL A   1      45.530  37.908  30.435  1.00  0.00    -0.744 OA
ENDBRANCH  52  53
ENDBRANCH  24  47
BRANCH  36  57
ATOM     57  C   UNL A   1      50.804  28.463  26.054  1.00  0.00    -0.014 A 
ATOM     58  C   UNL A   1      51.267  28.947  24.820  1.00  0.00     0.010 A 
ATOM     59  C   UNL A   1      51.711  28.045  27.038  1.00  0.00     0.010 A 
ATOM     60  C   UNL A   1      52.631  28.969  24.557  1.00  0.00     0.020 A 
ATOM     61  C   UNL A   1      53.078  28.108  26.793  1.00  0.00     0.020 A 
ATOM     62  C   UNL A   1      53.526  28.555  25.549  1.00  0.00     0.054 A 
BRANCH  62  63
ATOM     63  S   UNL A   1      55.296  28.642  25.194  1.00  0.00     0.124 S 
ATOM     64  O   UNL A   1      55.748  27.311  25.590  1.00  0.00    -0.237 OA
ATOM     65  O   UNL A   1      55.316  28.914  23.759  1.00  0.00    -0.237 OA
ATOM     66  O   UNL A   1      55.764  29.737  26.040  1.00  0.00    -0.744 OA
ENDBRANCH  62  63
ENDBRANCH  36  57
ENDBRANCH  10  11
ENDBRANCH   3   5
ENDBRANCH   2   3
ENDBRANCH   1   2
BRANCH   1  67
ATOM     67  C   UNL A   1      34.198  29.779  26.978  1.00  0.00     0.274 C 
BRANCH  67  68
ATOM     68  O   UNL A   1      32.922  29.476  27.595  1.00  0.00    -0.462 OA
BRANCH  68  69
ATOM     69  C   UNL A   1      32.184  28.384  27.238  1.00  0.00     0.313 C 
ATOM     70  O   UNL A   1      31.404  27.831  28.001  1.00  0.00    -0.252 OA
BRANCH  69  71
ATOM     71  C   UNL A   1      32.400  27.975  25.723  1.00  0.00     0.134 C 
BRANCH  71  72
ATOM     72  C   UNL A   1      33.399  26.454  25.240  1.00  0.00     0.060 C 
BRANCH  72  73
ATOM     73  C   UNL A   1      32.987  24.345  25.042  1.00  0.00     0.008 A 
ATOM     74  C   UNL A   1      33.872  23.107  25.657  1.00  0.00     0.127 A 
ATOM     75  C   UNL A   1      32.100  23.505  24.076  1.00  0.00     0.047 A 
ATOM     76  F   UNL A   1      34.794  23.236  26.643  1.00  0.00    -0.207 F 
ATOM     77  C   UNL A   1      33.950  21.740  25.337  1.00  0.00     0.039 A 
ATOM     78  C   UNL A   1      32.289  22.090  23.752  1.00  0.00     0.021 A 
ATOM     79  Cl  UNL A   1      30.624  23.906  23.130  1.00  0.00    -0.084 Cl
ATOM     80  C   UNL A   1      33.204  21.235  24.333  1.00  0.00     0.005 A 
ENDBRANCH  72  73
ENDBRANCH  71  72
BRANCH  71  81
ATOM     81  C   UNL A   1      31.227  28.393  24.810  1.00  0.00    -0.033 A 
ATOM     82  C   UNL A   1      30.922  29.757  24.626  1.00  0.00     0.006 A 
ATOM     83  C   UNL A   1      30.467  27.450  24.096  1.00  0.00     0.006 A 
ATOM     84  C   UNL A   1      29.931  30.158  23.717  1.00  0.00     0.021 A 
ATOM     85  C   UNL A   1      29.480  27.849  23.192  1.00  0.00     0.021 A 
ATOM     86  C   UNL A   1      29.216  29.199  23.002  1.00  0.00     0.041 A 
ATOM     87  Cl  UNL A   1      28.046  29.673  21.838  1.00  0.00    -0.084 Cl
ENDBRANCH  71  81
ENDBRANCH  69  71
ENDBRANCH  68  69
ENDBRANCH  67  68
ENDBRANCH   1  67
TORSDOF 17
ENDMDL
