MODEL 1
REMARK VINA RESULT:      -9.8      0.000      0.000
REMARK SMILES O=C(C[NH+]1CC2(CCCC2)C1)OCCOC(=O)c1ccc(-c2c3nc(c(-c4ccc(S(=O)(=O)[O-])cc4)c4ccc([nH]4)c(-c4ccc(S(=O)(=O)[O-])cc4)c4nc(c(-c5ccc(S(=O)(=O)[O-])cc5)c5ccc2[nH]5)C=C4)C=C3)cc1
REMARK SMILES IDX 14 1 13 2 12 3 2 4 1 5 3 6 4 7 5 8 11 9 6 11 7 12 10 13 8 14
REMARK SMILES IDX 9 15 15 16 16 17 17 18 18 19 19 20 77 21 20 22 76 23 21 24
REMARK SMILES IDX 22 25 23 26 70 27 24 28 75 29 69 30 71 31 25 32 74 33 68 34
REMARK SMILES IDX 67 35 26 37 56 38 37 39 55 40 38 41 41 42 54 43 72 44 39 45
REMARK SMILES IDX 40 46 53 48 73 49 42 50 27 51 28 52 36 53 29 54 35 55 30 56
REMARK SMILES IDX 31 57 32 58 33 59 34 60 57 61 58 62 66 63 59 64 65 65 60 66
REMARK SMILES IDX 61 67 62 68 63 69 64 70 43 71 44 72 52 73 45 74 51 75 46 76
REMARK SMILES IDX 47 77 48 78 49 79 50 80
REMARK H PARENT 4 10 71 36 41 47
REMARK Flexibility Score: inf
ROOT
ATOM      1  C   UNL A   1      40.538  20.022  26.188  1.00  0.00     0.275 C 
ENDROOT
BRANCH   1   2
ATOM      2  C   UNL A   1      41.817  19.180  26.289  1.00  0.00     0.274 C 
BRANCH   2   3
ATOM      3  O   UNL A   1      42.610  19.244  25.084  1.00  0.00    -0.458 OA
BRANCH   3   4
ATOM      4  C   UNL A   1      43.970  19.194  25.119  1.00  0.00     0.361 C 
ATOM      5  O   UNL A   1      44.550  18.133  25.338  1.00  0.00    -0.245 OA
BRANCH   4   6
ATOM      6  C   UNL A   1      44.696  20.528  25.055  1.00  0.00     0.386 C 
BRANCH   6   7
ATOM      7  N   UNL A   1      43.786  21.669  24.846  1.00  0.00    -0.324 N 
ATOM      8  C   UNL A   1      44.287  22.583  23.792  1.00  0.00     0.275 C 
ATOM      9  C   UNL A   1      44.064  22.705  25.868  1.00  0.00     0.275 C 
ATOM     10  H   UNL A   1      42.868  21.233  24.749  1.00  0.00     0.348 HD
ATOM     11  C   UNL A   1      44.990  23.453  24.870  1.00  0.00     0.068 C 
ATOM     12  C   UNL A   1      44.772  24.976  24.892  1.00  0.00     0.019 C 
ATOM     13  C   UNL A   1      46.502  23.226  24.996  1.00  0.00     0.019 C 
ATOM     14  C   UNL A   1      46.176  25.579  24.953  1.00  0.00     0.001 C 
ATOM     15  C   UNL A   1      46.989  24.504  25.638  1.00  0.00     0.001 C 
ENDBRANCH   6   7
ENDBRANCH   4   6
ENDBRANCH   3   4
ENDBRANCH   2   3
ENDBRANCH   1   2
BRANCH   1  16
ATOM     16  O   UNL A   1      40.813  21.437  26.079  1.00  0.00    -0.458 OA
BRANCH  16  17
ATOM     17  C   UNL A   1      39.763  22.271  26.310  1.00  0.00     0.338 C 
ATOM     18  O   UNL A   1      38.600  22.021  26.067  1.00  0.00    -0.246 OA
BRANCH  17  19
ATOM     19  C   UNL A   1      40.198  23.505  27.033  1.00  0.00     0.060 A 
ATOM     20  C   UNL A   1      39.712  24.734  26.567  1.00  0.00     0.016 A 
ATOM     21  C   UNL A   1      41.070  23.492  28.130  1.00  0.00     0.016 A 
ATOM     22  C   UNL A   1      40.112  25.932  27.169  1.00  0.00     0.010 A 
ATOM     23  C   UNL A   1      41.484  24.699  28.725  1.00  0.00     0.010 A 
ATOM     24  C   UNL A   1      41.027  25.931  28.234  1.00  0.00    -0.014 A 
BRANCH  24  25
ATOM     25  C   UNL A   1      41.609  27.232  28.674  1.00  0.00     0.031 A 
ATOM     26  C   UNL A   1      43.048  27.514  28.362  1.00  0.00     0.074 A 
ATOM     27  C   UNL A   1      40.877  28.188  29.274  1.00  0.00     0.049 A 
ATOM     28  N   UNL A   1      43.719  28.627  28.495  1.00  0.00    -0.248 NA
ATOM     29  C   UNL A   1      43.843  26.376  27.878  1.00  0.00     0.031 C 
ATOM     30  C   UNL A   1      39.512  28.017  29.737  1.00  0.00     0.029 A 
ATOM     31  N   UNL A   1      41.153  29.505  29.555  1.00  0.00    -0.354 N 
ATOM     32  C   UNL A   1      45.026  28.320  28.146  1.00  0.00     0.074 A 
ATOM     33  C   UNL A   1      45.048  26.917  27.785  1.00  0.00     0.031 C 
ATOM     34  C   UNL A   1      39.001  29.210  30.080  1.00  0.00     0.029 A 
ATOM     35  C   UNL A   1      40.049  30.222  29.968  1.00  0.00     0.049 A 
ATOM     36  H   UNL A   1      42.051  29.899  29.468  1.00  0.00     0.167 HD
ATOM     37  C   UNL A   1      46.117  29.121  28.160  1.00  0.00     0.031 A 
ATOM     38  C   UNL A   1      39.901  31.537  30.232  1.00  0.00     0.031 A 
ATOM     39  C   UNL A   1      46.109  30.499  28.570  1.00  0.00     0.049 A 
ATOM     40  C   UNL A   1      41.114  32.428  30.179  1.00  0.00     0.074 A 
ATOM     41  C   UNL A   1      47.172  31.383  28.636  1.00  0.00     0.029 A 
ATOM     42  N   UNL A   1      44.987  31.191  29.000  1.00  0.00    -0.354 N 
ATOM     43  N   UNL A   1      42.341  32.128  29.822  1.00  0.00    -0.248 NA
ATOM     44  C   UNL A   1      40.935  33.824  30.606  1.00  0.00     0.031 C 
ATOM     45  C   UNL A   1      46.699  32.600  29.145  1.00  0.00     0.029 A 
ATOM     46  C   UNL A   1      45.332  32.489  29.342  1.00  0.00     0.049 A 
ATOM     47  H   UNL A   1      44.078  30.816  29.054  1.00  0.00     0.167 HD
ATOM     48  C   UNL A   1      43.079  33.293  29.990  1.00  0.00     0.074 A 
ATOM     49  C   UNL A   1      42.157  34.314  30.443  1.00  0.00     0.031 C 
ATOM     50  C   UNL A   1      44.407  33.494  29.800  1.00  0.00     0.031 A 
BRANCH  37  51
ATOM     51  C   UNL A   1      47.424  28.478  27.792  1.00  0.00    -0.014 A 
ATOM     52  C   UNL A   1      47.917  28.527  26.476  1.00  0.00     0.010 A 
ATOM     53  C   UNL A   1      48.148  27.780  28.775  1.00  0.00     0.010 A 
ATOM     54  C   UNL A   1      49.082  27.837  26.137  1.00  0.00     0.020 A 
ATOM     55  C   UNL A   1      49.329  27.112  28.444  1.00  0.00     0.020 A 
ATOM     56  C   UNL A   1      49.773  27.123  27.121  1.00  0.00     0.054 A 
BRANCH  56  57
ATOM     57  S   UNL A   1      51.268  26.211  26.652  1.00  0.00     0.124 S 
ATOM     58  O   UNL A   1      51.280  26.384  25.201  1.00  0.00    -0.237 OA
ATOM     59  O   UNL A   1      52.320  26.921  27.377  1.00  0.00    -0.237 OA
ATOM     60  O   UNL A   1      51.004  24.852  27.115  1.00  0.00    -0.744 OA
ENDBRANCH  56  57
ENDBRANCH  37  51
BRANCH  38  61
ATOM     61  C   UNL A   1      38.566  32.104  30.586  1.00  0.00    -0.014 A 
ATOM     62  C   UNL A   1      38.116  32.081  31.921  1.00  0.00     0.010 A 
ATOM     63  C   UNL A   1      37.728  32.652  29.599  1.00  0.00     0.010 A 
ATOM     64  C   UNL A   1      36.855  32.588  32.258  1.00  0.00     0.020 A 
ATOM     65  C   UNL A   1      36.481  33.188  29.936  1.00  0.00     0.020 A 
ATOM     66  C   UNL A   1      36.047  33.143  31.263  1.00  0.00     0.054 A 
BRANCH  66  67
ATOM     67  S   UNL A   1      34.442  33.857  31.723  1.00  0.00     0.124 S 
ATOM     68  O   UNL A   1      33.856  32.790  32.528  1.00  0.00    -0.237 OA
ATOM     69  O   UNL A   1      34.826  35.063  32.451  1.00  0.00    -0.237 OA
ATOM     70  O   UNL A   1      33.797  34.097  30.433  1.00  0.00    -0.744 OA
ENDBRANCH  66  67
ENDBRANCH  38  61
BRANCH  50  71
ATOM     71  C   UNL A   1      44.941  34.878  30.059  1.00  0.00    -0.014 A 
ATOM     72  C   UNL A   1      45.439  35.247  31.322  1.00  0.00     0.010 A 
ATOM     73  C   UNL A   1      44.984  35.810  29.006  1.00  0.00     0.010 A 
ATOM     74  C   UNL A   1      45.936  36.536  31.535  1.00  0.00     0.020 A 
ATOM     75  C   UNL A   1      45.502  37.091  29.210  1.00  0.00     0.020 A 
ATOM     76  C   UNL A   1      45.960  37.452  30.478  1.00  0.00     0.054 A 
BRANCH  76  77
ATOM     77  S   UNL A   1      46.636  39.110  30.768  1.00  0.00     0.124 S 
ATOM     78  O   UNL A   1      46.219  39.372  32.143  1.00  0.00    -0.237 OA
ATOM     79  O   UNL A   1      48.070  38.914  30.573  1.00  0.00    -0.237 OA
ATOM     80  O   UNL A   1      45.983  39.931  29.751  1.00  0.00    -0.744 OA
ENDBRANCH  76  77
ENDBRANCH  50  71
ENDBRANCH  24  25
ENDBRANCH  17  19
ENDBRANCH  16  17
ENDBRANCH   1  16
TORSDOF 15
ENDMDL
MODEL 2
REMARK VINA RESULT:      -9.6      1.634      2.185
REMARK SMILES O=C(C[NH+]1CC2(CCCC2)C1)OCCOC(=O)c1ccc(-c2c3nc(c(-c4ccc(S(=O)(=O)[O-])cc4)c4ccc([nH]4)c(-c4ccc(S(=O)(=O)[O-])cc4)c4nc(c(-c5ccc(S(=O)(=O)[O-])cc5)c5ccc2[nH]5)C=C4)C=C3)cc1
REMARK SMILES IDX 14 1 13 2 12 3 2 4 1 5 3 6 4 7 5 8 11 9 6 11 7 12 10 13 8 14
REMARK SMILES IDX 9 15 15 16 16 17 17 18 18 19 19 20 77 21 20 22 76 23 21 24
REMARK SMILES IDX 22 25 23 26 70 27 24 28 75 29 69 30 71 31 25 32 74 33 68 34
REMARK SMILES IDX 67 35 26 37 56 38 37 39 55 40 38 41 41 42 54 43 72 44 39 45
REMARK SMILES IDX 40 46 53 48 73 49 42 50 27 51 28 52 36 53 29 54 35 55 30 56
REMARK SMILES IDX 31 57 32 58 33 59 34 60 57 61 58 62 66 63 59 64 65 65 60 66
REMARK SMILES IDX 61 67 62 68 63 69 64 70 43 71 44 72 52 73 45 74 51 75 46 76
REMARK SMILES IDX 47 77 48 78 49 79 50 80
REMARK H PARENT 4 10 71 36 41 47
REMARK Flexibility Score: inf
ROOT
ATOM      1  C   UNL A   1      40.160  20.419  26.110  1.00  0.00     0.275 C 
ENDROOT
BRANCH   1   2
ATOM      2  C   UNL A   1      41.422  19.588  26.384  1.00  0.00     0.274 C 
BRANCH   2   3
ATOM      3  O   UNL A   1      42.258  19.461  25.214  1.00  0.00    -0.458 OA
BRANCH   3   4
ATOM      4  C   UNL A   1      43.616  19.458  25.301  1.00  0.00     0.361 C 
ATOM      5  O   UNL A   1      44.233  18.397  25.385  1.00  0.00    -0.245 OA
BRANCH   4   6
ATOM      6  C   UNL A   1      44.285  20.812  25.469  1.00  0.00     0.386 C 
BRANCH   6   7
ATOM      7  N   UNL A   1      43.450  21.929  24.991  1.00  0.00    -0.324 N 
ATOM      8  C   UNL A   1      44.225  22.867  24.144  1.00  0.00     0.275 C 
ATOM      9  C   UNL A   1      43.370  22.963  26.049  1.00  0.00     0.275 C 
ATOM     10  H   UNL A   1      42.620  21.469  24.615  1.00  0.00     0.348 HD
ATOM     11  C   UNL A   1      44.536  23.746  25.386  1.00  0.00     0.068 C 
ATOM     12  C   UNL A   1      44.277  25.262  25.341  1.00  0.00     0.019 C 
ATOM     13  C   UNL A   1      45.942  23.559  25.972  1.00  0.00     0.019 C 
ATOM     14  C   UNL A   1      45.576  25.902  25.832  1.00  0.00     0.001 C 
ATOM     15  C   UNL A   1      46.169  24.844  26.734  1.00  0.00     0.001 C 
ENDBRANCH   6   7
ENDBRANCH   4   6
ENDBRANCH   3   4
ENDBRANCH   2   3
ENDBRANCH   1   2
BRANCH   1  16
ATOM     16  O   UNL A   1      40.383  21.837  26.279  1.00  0.00    -0.458 OA
BRANCH  16  17
ATOM     17  C   UNL A   1      39.297  22.638  26.111  1.00  0.00     0.338 C 
ATOM     18  O   UNL A   1      38.257  22.310  25.576  1.00  0.00    -0.246 OA
BRANCH  17  19
ATOM     19  C   UNL A   1      39.483  23.957  26.791  1.00  0.00     0.060 A 
ATOM     20  C   UNL A   1      40.197  24.945  26.102  1.00  0.00     0.016 A 
ATOM     21  C   UNL A   1      38.996  24.240  28.075  1.00  0.00     0.016 A 
ATOM     22  C   UNL A   1      40.446  26.188  26.697  1.00  0.00     0.010 A 
ATOM     23  C   UNL A   1      39.261  25.485  28.678  1.00  0.00     0.010 A 
ATOM     24  C   UNL A   1      40.009  26.460  28.003  1.00  0.00    -0.014 A 
BRANCH  24  25
ATOM     25  C   UNL A   1      40.510  27.693  28.678  1.00  0.00     0.031 A 
ATOM     26  C   UNL A   1      41.986  27.841  28.895  1.00  0.00     0.074 A 
ATOM     27  C   UNL A   1      39.698  28.705  29.036  1.00  0.00     0.049 A 
ATOM     28  N   UNL A   1      42.661  28.882  29.304  1.00  0.00    -0.248 NA
ATOM     29  C   UNL A   1      42.800  26.639  28.659  1.00  0.00     0.031 C 
ATOM     30  C   UNL A   1      38.249  28.658  28.992  1.00  0.00     0.029 A 
ATOM     31  N   UNL A   1      39.970  29.985  29.457  1.00  0.00    -0.354 N 
ATOM     32  C   UNL A   1      43.976  28.456  29.411  1.00  0.00     0.074 A 
ATOM     33  C   UNL A   1      44.004  27.064  29.013  1.00  0.00     0.031 C 
ATOM     34  C   UNL A   1      37.753  29.889  29.195  1.00  0.00     0.029 A 
ATOM     35  C   UNL A   1      38.856  30.797  29.499  1.00  0.00     0.049 A 
ATOM     36  H   UNL A   1      40.872  30.292  29.704  1.00  0.00     0.167 HD
ATOM     37  C   UNL A   1      45.058  29.149  29.838  1.00  0.00     0.031 A 
ATOM     38  C   UNL A   1      38.737  32.116  29.760  1.00  0.00     0.031 A 
ATOM     39  C   UNL A   1      45.025  30.515  30.286  1.00  0.00     0.049 A 
ATOM     40  C   UNL A   1      39.964  32.887  30.170  1.00  0.00     0.074 A 
ATOM     41  C   UNL A   1      46.070  31.292  30.756  1.00  0.00     0.029 A 
ATOM     42  N   UNL A   1      43.886  31.304  30.337  1.00  0.00    -0.354 N 
ATOM     43  N   UNL A   1      41.208  32.476  30.243  1.00  0.00    -0.248 NA
ATOM     44  C   UNL A   1      39.766  34.287  30.576  1.00  0.00     0.031 C 
ATOM     45  C   UNL A   1      45.554  32.539  31.130  1.00  0.00     0.029 A 
ATOM     46  C   UNL A   1      44.199  32.557  30.839  1.00  0.00     0.049 A 
ATOM     47  H   UNL A   1      42.987  31.017  30.057  1.00  0.00     0.167 HD
ATOM     48  C   UNL A   1      41.938  33.563  30.710  1.00  0.00     0.074 A 
ATOM     49  C   UNL A   1      41.006  34.661  30.867  1.00  0.00     0.031 C 
ATOM     50  C   UNL A   1      43.261  33.639  30.999  1.00  0.00     0.031 A 
BRANCH  37  51
ATOM     51  C   UNL A   1      46.353  28.389  29.912  1.00  0.00    -0.014 A 
ATOM     52  C   UNL A   1      47.171  28.229  28.779  1.00  0.00     0.010 A 
ATOM     53  C   UNL A   1      46.733  27.794  31.128  1.00  0.00     0.010 A 
ATOM     54  C   UNL A   1      48.317  27.435  28.848  1.00  0.00     0.020 A 
ATOM     55  C   UNL A   1      47.893  27.021  31.206  1.00  0.00     0.020 A 
ATOM     56  C   UNL A   1      48.664  26.826  30.058  1.00  0.00     0.054 A 
BRANCH  56  57
ATOM     57  S   UNL A   1      50.140  25.776  30.117  1.00  0.00     0.124 S 
ATOM     58  O   UNL A   1      49.854  24.923  31.268  1.00  0.00    -0.237 OA
ATOM     59  O   UNL A   1      50.113  25.108  28.818  1.00  0.00    -0.237 OA
ATOM     60  O   UNL A   1      51.233  26.727  30.302  1.00  0.00    -0.744 OA
ENDBRANCH  56  57
ENDBRANCH  37  51
BRANCH  38  61
ATOM     61  C   UNL A   1      37.415  32.803  29.659  1.00  0.00    -0.014 A 
ATOM     62  C   UNL A   1      36.957  33.285  28.418  1.00  0.00     0.010 A 
ATOM     63  C   UNL A   1      36.613  32.997  30.797  1.00  0.00     0.010 A 
ATOM     64  C   UNL A   1      35.730  33.952  28.319  1.00  0.00     0.020 A 
ATOM     65  C   UNL A   1      35.372  33.635  30.698  1.00  0.00     0.020 A 
ATOM     66  C   UNL A   1      34.943  34.119  29.461  1.00  0.00     0.054 A 
BRANCH  66  67
ATOM     67  S   UNL A   1      33.324  34.926  29.308  1.00  0.00     0.124 S 
ATOM     68  O   UNL A   1      33.691  36.250  28.813  1.00  0.00    -0.237 OA
ATOM     69  O   UNL A   1      32.626  34.066  28.356  1.00  0.00    -0.237 OA
ATOM     70  O   UNL A   1      32.798  34.889  30.671  1.00  0.00    -0.744 OA
ENDBRANCH  66  67
ENDBRANCH  38  61
BRANCH  50  71
ATOM     71  C   UNL A   1      43.787  34.960  31.492  1.00  0.00    -0.014 A 
ATOM     72  C   UNL A   1      43.890  35.242  32.867  1.00  0.00     0.010 A 
ATOM     73  C   UNL A   1      44.226  35.920  30.562  1.00  0.00     0.010 A 
ATOM     74  C   UNL A   1      44.388  36.474  33.300  1.00  0.00     0.020 A 
ATOM     75  C   UNL A   1      44.746  37.142  30.992  1.00  0.00     0.020 A 
ATOM     76  C   UNL A   1      44.809  37.419  32.358  1.00  0.00     0.054 A 
BRANCH  76  77
ATOM     77  S   UNL A   1      45.480  39.001  32.941  1.00  0.00     0.124 S 
ATOM     78  O   UNL A   1      44.365  39.535  33.719  1.00  0.00    -0.237 OA
ATOM     79  O   UNL A   1      46.647  38.591  33.717  1.00  0.00    -0.237 OA
ATOM     80  O   UNL A   1      45.782  39.723  31.708  1.00  0.00    -0.744 OA
ENDBRANCH  76  77
ENDBRANCH  50  71
ENDBRANCH  24  25
ENDBRANCH  17  19
ENDBRANCH  16  17
ENDBRANCH   1  16
TORSDOF 15
ENDMDL
MODEL 3
REMARK VINA RESULT:      -9.3      5.340      6.852
REMARK SMILES O=C(C[NH+]1CC2(CCCC2)C1)OCCOC(=O)c1ccc(-c2c3nc(c(-c4ccc(S(=O)(=O)[O-])cc4)c4ccc([nH]4)c(-c4ccc(S(=O)(=O)[O-])cc4)c4nc(c(-c5ccc(S(=O)(=O)[O-])cc5)c5ccc2[nH]5)C=C4)C=C3)cc1
REMARK SMILES IDX 14 1 13 2 12 3 2 4 1 5 3 6 4 7 5 8 11 9 6 11 7 12 10 13 8 14
REMARK SMILES IDX 9 15 15 16 16 17 17 18 18 19 19 20 77 21 20 22 76 23 21 24
REMARK SMILES IDX 22 25 23 26 70 27 24 28 75 29 69 30 71 31 25 32 74 33 68 34
REMARK SMILES IDX 67 35 26 37 56 38 37 39 55 40 38 41 41 42 54 43 72 44 39 45
REMARK SMILES IDX 40 46 53 48 73 49 42 50 27 51 28 52 36 53 29 54 35 55 30 56
REMARK SMILES IDX 31 57 32 58 33 59 34 60 57 61 58 62 66 63 59 64 65 65 60 66
REMARK SMILES IDX 61 67 62 68 63 69 64 70 43 71 44 72 52 73 45 74 51 75 46 76
REMARK SMILES IDX 47 77 48 78 49 79 50 80
REMARK H PARENT 4 10 71 36 41 47
REMARK Flexibility Score: inf
ROOT
ATOM      1  C   UNL A   1      41.473  23.204  26.861  1.00  0.00     0.275 C 
ENDROOT
BRANCH   1   2
ATOM      2  C   UNL A   1      41.390  21.900  26.056  1.00  0.00     0.274 C 
BRANCH   2   3
ATOM      3  O   UNL A   1      42.692  21.423  25.653  1.00  0.00    -0.458 OA
BRANCH   3   4
ATOM      4  C   UNL A   1      43.652  22.268  25.188  1.00  0.00     0.361 C 
ATOM      5  O   UNL A   1      43.551  22.772  24.071  1.00  0.00    -0.245 OA
BRANCH   4   6
ATOM      6  C   UNL A   1      44.906  22.397  26.036  1.00  0.00     0.386 C 
BRANCH   6   7
ATOM      7  N   UNL A   1      45.489  23.751  26.000  1.00  0.00    -0.324 N 
ATOM      8  C   UNL A   1      46.354  24.006  27.177  1.00  0.00     0.275 C 
ATOM      9  C   UNL A   1      44.499  24.719  26.528  1.00  0.00     0.275 C 
ATOM     10  H   UNL A   1      45.874  23.825  25.058  1.00  0.00     0.348 HD
ATOM     11  C   UNL A   1      45.154  24.636  27.934  1.00  0.00     0.068 C 
ATOM     12  C   UNL A   1      45.302  26.017  28.597  1.00  0.00     0.019 C 
ATOM     13  C   UNL A   1      44.494  23.721  28.973  1.00  0.00     0.019 C 
ATOM     14  C   UNL A   1      44.791  25.829  30.026  1.00  0.00     0.001 C 
ATOM     15  C   UNL A   1      43.801  24.693  29.898  1.00  0.00     0.001 C 
ENDBRANCH   6   7
ENDBRANCH   4   6
ENDBRANCH   3   4
ENDBRANCH   2   3
ENDBRANCH   1   2
BRANCH   1  16
ATOM     16  O   UNL A   1      40.470  24.166  26.463  1.00  0.00    -0.458 OA
BRANCH  16  17
ATOM     17  C   UNL A   1      40.909  25.437  26.254  1.00  0.00     0.338 C 
ATOM     18  O   UNL A   1      41.164  25.923  25.170  1.00  0.00    -0.246 OA
BRANCH  17  19
ATOM     19  C   UNL A   1      40.917  26.226  27.523  1.00  0.00     0.060 A 
ATOM     20  C   UNL A   1      39.884  25.988  28.440  1.00  0.00     0.016 A 
ATOM     21  C   UNL A   1      41.887  27.191  27.829  1.00  0.00     0.016 A 
ATOM     22  C   UNL A   1      39.805  26.721  29.630  1.00  0.00     0.010 A 
ATOM     23  C   UNL A   1      41.798  27.938  29.019  1.00  0.00     0.010 A 
ATOM     24  C   UNL A   1      40.742  27.727  29.917  1.00  0.00    -0.014 A 
BRANCH  24  25
ATOM     25  C   UNL A   1      40.474  28.641  31.066  1.00  0.00     0.031 A 
ATOM     26  C   UNL A   1      41.440  28.650  32.213  1.00  0.00     0.074 A 
ATOM     27  C   UNL A   1      39.443  29.505  31.080  1.00  0.00     0.049 A 
ATOM     28  N   UNL A   1      41.505  29.467  33.230  1.00  0.00    -0.248 NA
ATOM     29  C   UNL A   1      42.434  27.567  32.234  1.00  0.00     0.031 C 
ATOM     30  C   UNL A   1      38.372  29.531  30.101  1.00  0.00     0.029 A 
ATOM     31  N   UNL A   1      39.148  30.558  31.913  1.00  0.00    -0.354 N 
ATOM     32  C   UNL A   1      42.524  28.979  34.036  1.00  0.00     0.074 A 
ATOM     33  C   UNL A   1      43.054  27.802  33.380  1.00  0.00     0.031 C 
ATOM     34  C   UNL A   1      37.636  30.640  30.271  1.00  0.00     0.029 A 
ATOM     35  C   UNL A   1      38.118  31.351  31.452  1.00  0.00     0.049 A 
ATOM     36  H   UNL A   1      39.626  30.729  32.757  1.00  0.00     0.167 HD
ATOM     37  C   UNL A   1      42.955  29.447  35.231  1.00  0.00     0.031 A 
ATOM     38  C   UNL A   1      37.617  32.509  31.930  1.00  0.00     0.031 A 
ATOM     39  C   UNL A   1      42.395  30.583  35.911  1.00  0.00     0.049 A 
ATOM     40  C   UNL A   1      38.154  33.050  33.230  1.00  0.00     0.074 A 
ATOM     41  C   UNL A   1      42.755  31.117  37.136  1.00  0.00     0.029 A 
ATOM     42  N   UNL A   1      41.345  31.353  35.433  1.00  0.00    -0.354 N 
ATOM     43  N   UNL A   1      39.137  32.591  33.968  1.00  0.00    -0.248 NA
ATOM     44  C   UNL A   1      37.488  34.239  33.783  1.00  0.00     0.031 C 
ATOM     45  C   UNL A   1      41.895  32.185  37.418  1.00  0.00     0.029 A 
ATOM     46  C   UNL A   1      41.037  32.352  36.343  1.00  0.00     0.049 A 
ATOM     47  H   UNL A   1      40.885  31.211  34.574  1.00  0.00     0.167 HD
ATOM     48  C   UNL A   1      39.200  33.429  35.076  1.00  0.00     0.074 A 
ATOM     49  C   UNL A   1      38.184  34.445  34.893  1.00  0.00     0.031 C 
ATOM     50  C   UNL A   1      40.018  33.352  36.155  1.00  0.00     0.031 A 
BRANCH  37  51
ATOM     51  C   UNL A   1      44.041  28.657  35.905  1.00  0.00    -0.014 A 
ATOM     52  C   UNL A   1      45.399  28.947  35.684  1.00  0.00     0.010 A 
ATOM     53  C   UNL A   1      43.692  27.583  36.743  1.00  0.00     0.010 A 
ATOM     54  C   UNL A   1      46.390  28.137  36.241  1.00  0.00     0.020 A 
ATOM     55  C   UNL A   1      44.682  26.787  37.324  1.00  0.00     0.020 A 
ATOM     56  C   UNL A   1      46.024  27.055  37.047  1.00  0.00     0.054 A 
BRANCH  56  57
ATOM     57  S   UNL A   1      47.326  25.999  37.738  1.00  0.00     0.124 S 
ATOM     58  O   UNL A   1      48.149  25.731  36.560  1.00  0.00    -0.237 OA
ATOM     59  O   UNL A   1      47.938  26.859  38.748  1.00  0.00    -0.237 OA
ATOM     60  O   UNL A   1      46.596  24.848  38.263  1.00  0.00    -0.744 OA
ENDBRANCH  56  57
ENDBRANCH  37  51
BRANCH  38  61
ATOM     61  C   UNL A   1      36.540  33.240  31.199  1.00  0.00    -0.014 A 
ATOM     62  C   UNL A   1      35.286  33.450  31.806  1.00  0.00     0.010 A 
ATOM     63  C   UNL A   1      36.747  33.716  29.892  1.00  0.00     0.010 A 
ATOM     64  C   UNL A   1      34.262  34.112  31.118  1.00  0.00     0.020 A 
ATOM     65  C   UNL A   1      35.737  34.405  29.213  1.00  0.00     0.020 A 
ATOM     66  C   UNL A   1      34.496  34.590  29.827  1.00  0.00     0.054 A 
BRANCH  66  67
ATOM     67  S   UNL A   1      33.182  35.505  28.971  1.00  0.00     0.124 S 
ATOM     68  O   UNL A   1      33.943  36.504  28.227  1.00  0.00    -0.237 OA
ATOM     69  O   UNL A   1      32.542  34.468  28.166  1.00  0.00    -0.237 OA
ATOM     70  O   UNL A   1      32.365  36.025  30.066  1.00  0.00    -0.744 OA
ENDBRANCH  66  67
ENDBRANCH  38  61
BRANCH  50  71
ATOM     71  C   UNL A   1      39.865  34.410  37.215  1.00  0.00    -0.014 A 
ATOM     72  C   UNL A   1      40.473  35.672  37.084  1.00  0.00     0.010 A 
ATOM     73  C   UNL A   1      39.063  34.150  38.341  1.00  0.00     0.010 A 
ATOM     74  C   UNL A   1      40.311  36.641  38.080  1.00  0.00     0.020 A 
ATOM     75  C   UNL A   1      38.880  35.123  39.326  1.00  0.00     0.020 A 
ATOM     76  C   UNL A   1      39.518  36.358  39.197  1.00  0.00     0.054 A 
BRANCH  76  77
ATOM     77  S   UNL A   1      39.297  37.638  40.463  1.00  0.00     0.124 S 
ATOM     78  O   UNL A   1      38.210  38.436  39.901  1.00  0.00    -0.237 OA
ATOM     79  O   UNL A   1      38.956  36.861  41.652  1.00  0.00    -0.237 OA
ATOM     80  O   UNL A   1      40.597  38.302  40.513  1.00  0.00    -0.744 OA
ENDBRANCH  76  77
ENDBRANCH  50  71
ENDBRANCH  24  25
ENDBRANCH  17  19
ENDBRANCH  16  17
ENDBRANCH   1  16
TORSDOF 15
ENDMDL
