MODEL 1
REMARK VINA RESULT:     -10.1      0.000      0.000
REMARK SMILES CCN1C[C@@H](C(=O)OCCOC(=O)c2ccc(-c3c4nc(c(-c5ccc(S(=O)(=O)[O-])cc5)c5ccc([nH]5)c(-c5ccc(S(=O)(=O)[O-])cc5)c5nc(c(-c6ccc(S(=O)(=O)[O-])cc6)c6ccc3[nH]6)C=C5)C=C4)cc2)CC1=O
REMARK SMILES IDX 10 1 9 2 8 3 6 4 7 5 5 6 3 7 4 8 75 9 74 10 76 11 2 12 1 13
REMARK SMILES IDX 11 14 12 15 13 16 14 17 15 18 73 19 16 20 72 21 17 22 18 23
REMARK SMILES IDX 19 24 66 25 20 26 71 27 65 28 67 29 21 30 70 31 64 32 63 33
REMARK SMILES IDX 22 35 52 36 33 37 51 38 34 39 37 40 50 41 68 42 35 43 36 44
REMARK SMILES IDX 49 46 69 47 38 48 23 49 24 50 32 51 25 52 31 53 26 54 27 55
REMARK SMILES IDX 28 56 29 57 30 58 53 59 54 60 62 61 55 62 61 63 56 64 57 65
REMARK SMILES IDX 58 66 59 67 60 68 39 69 40 70 48 71 41 72 47 73 42 74 43 75
REMARK SMILES IDX 44 76 45 77 46 78
REMARK H PARENT 67 34 37 45
REMARK Flexibility Score: inf
ROOT
ATOM      1  C   UNL A   1      34.454  31.138  28.086  1.00  0.00     0.275 C 
ENDROOT
BRANCH   1   2
ATOM      2  C   UNL A   1      33.770  32.499  27.922  1.00  0.00     0.274 C 
BRANCH   2   3
ATOM      3  O   UNL A   1      34.746  33.551  27.788  1.00  0.00    -0.462 OA
BRANCH   3   4
ATOM      4  C   UNL A   1      34.456  34.728  28.394  1.00  0.00     0.311 C 
ATOM      5  O   UNL A   1      34.607  35.832  27.883  1.00  0.00    -0.252 OA
BRANCH   4   6
ATOM      6  C   UNL A   1      33.915  34.566  29.787  1.00  0.00     0.128 C 
ATOM      7  N   UNL A   1      33.364  35.717  31.713  1.00  0.00    -0.342 N 
ATOM      8  C   UNL A   1      33.345  35.877  30.282  1.00  0.00     0.135 C 
ATOM      9  C   UNL A   1      34.243  34.727  32.124  1.00  0.00     0.223 C 
ATOM     10  C   UNL A   1      34.878  34.136  30.891  1.00  0.00     0.117 C 
ATOM     11  O   UNL A   1      34.486  34.402  33.274  1.00  0.00    -0.275 OA
BRANCH   7  12
ATOM     12  C   UNL A   1      32.494  36.465  32.597  1.00  0.00     0.116 C 
ATOM     13  C   UNL A   1      31.127  35.808  32.716  1.00  0.00     0.027 C 
ENDBRANCH   7  12
ENDBRANCH   4   6
ENDBRANCH   3   4
ENDBRANCH   2   3
ENDBRANCH   1   2
BRANCH   1  14
ATOM     14  O   UNL A   1      35.889  31.253  28.118  1.00  0.00    -0.458 OA
BRANCH  14  15
ATOM     15  C   UNL A   1      36.466  30.842  29.271  1.00  0.00     0.338 C 
ATOM     16  O   UNL A   1      35.973  30.857  30.386  1.00  0.00    -0.246 OA
BRANCH  15  17
ATOM     17  C   UNL A   1      37.768  30.218  28.990  1.00  0.00     0.060 A 
ATOM     18  C   UNL A   1      38.677  30.109  30.044  1.00  0.00     0.016 A 
ATOM     19  C   UNL A   1      38.135  29.845  27.698  1.00  0.00     0.016 A 
ATOM     20  C   UNL A   1      39.966  29.647  29.815  1.00  0.00     0.010 A 
ATOM     21  C   UNL A   1      39.430  29.364  27.469  1.00  0.00     0.010 A 
ATOM     22  C   UNL A   1      40.358  29.276  28.524  1.00  0.00    -0.014 A 
BRANCH  22  23
ATOM     23  C   UNL A   1      41.753  28.838  28.284  1.00  0.00     0.031 A 
ATOM     24  C   UNL A   1      42.875  29.835  28.353  1.00  0.00     0.074 A 
ATOM     25  C   UNL A   1      42.011  27.539  28.038  1.00  0.00     0.049 A 
ATOM     26  N   UNL A   1      44.146  29.663  28.095  1.00  0.00    -0.248 NA
ATOM     27  C   UNL A   1      42.521  31.203  28.765  1.00  0.00     0.031 C 
ATOM     28  C   UNL A   1      41.011  26.469  28.007  1.00  0.00     0.029 A 
ATOM     29  N   UNL A   1      43.194  26.898  27.771  1.00  0.00    -0.354 N 
ATOM     30  C   UNL A   1      44.741  30.904  28.285  1.00  0.00     0.074 A 
ATOM     31  C   UNL A   1      43.689  31.822  28.670  1.00  0.00     0.031 C 
ATOM     32  C   UNL A   1      41.625  25.304  27.744  1.00  0.00     0.029 A 
ATOM     33  C   UNL A   1      43.048  25.553  27.533  1.00  0.00     0.049 A 
ATOM     34  H   UNL A   1      44.065  27.358  27.752  1.00  0.00     0.167 HD
ATOM     35  C   UNL A   1      46.044  31.247  28.149  1.00  0.00     0.031 A 
ATOM     36  C   UNL A   1      43.952  24.629  27.156  1.00  0.00     0.031 A 
ATOM     37  C   UNL A   1      47.084  30.326  27.772  1.00  0.00     0.049 A 
ATOM     38  C   UNL A   1      45.381  25.045  26.948  1.00  0.00     0.074 A 
ATOM     39  C   UNL A   1      48.436  30.573  27.608  1.00  0.00     0.029 A 
ATOM     40  N   UNL A   1      46.889  28.980  27.499  1.00  0.00    -0.354 N 
ATOM     41  N   UNL A   1      45.924  26.228  27.112  1.00  0.00    -0.248 NA
ATOM     42  C   UNL A   1      46.318  24.006  26.502  1.00  0.00     0.031 C 
ATOM     43  C   UNL A   1      49.050  29.387  27.192  1.00  0.00     0.029 A 
ATOM     44  C   UNL A   1      48.091  28.388  27.149  1.00  0.00     0.049 A 
ATOM     45  H   UNL A   1      46.023  28.514  27.549  1.00  0.00     0.167 HD
ATOM     46  C   UNL A   1      47.271  26.071  26.805  1.00  0.00     0.074 A 
ATOM     47  C   UNL A   1      47.461  24.677  26.461  1.00  0.00     0.031 C 
ATOM     48  C   UNL A   1      48.260  26.999  26.807  1.00  0.00     0.031 A 
BRANCH  35  49
ATOM     49  C   UNL A   1      46.410  32.690  28.365  1.00  0.00    -0.014 A 
ATOM     50  C   UNL A   1      46.935  33.140  29.590  1.00  0.00     0.010 A 
ATOM     51  C   UNL A   1      46.253  33.609  27.310  1.00  0.00     0.010 A 
ATOM     52  C   UNL A   1      47.259  34.488  29.768  1.00  0.00     0.020 A 
ATOM     53  C   UNL A   1      46.598  34.953  27.476  1.00  0.00     0.020 A 
ATOM     54  C   UNL A   1      47.083  35.387  28.711  1.00  0.00     0.054 A 
BRANCH  54  55
ATOM     55  S   UNL A   1      47.521  37.130  28.964  1.00  0.00     0.124 S 
ATOM     56  O   UNL A   1      47.022  37.373  30.314  1.00  0.00    -0.237 OA
ATOM     57  O   UNL A   1      48.974  37.121  28.822  1.00  0.00    -0.237 OA
ATOM     58  O   UNL A   1      46.800  37.826  27.901  1.00  0.00    -0.744 OA
ENDBRANCH  54  55
ENDBRANCH  35  49
BRANCH  36  59
ATOM     59  C   UNL A   1      43.518  23.226  26.913  1.00  0.00    -0.014 A 
ATOM     60  C   UNL A   1      43.698  22.626  25.655  1.00  0.00     0.010 A 
ATOM     61  C   UNL A   1      42.940  22.475  27.954  1.00  0.00     0.010 A 
ATOM     62  C   UNL A   1      43.297  21.304  25.439  1.00  0.00     0.020 A 
ATOM     63  C   UNL A   1      42.562  21.145  27.749  1.00  0.00     0.020 A 
ATOM     64  C   UNL A   1      42.735  20.571  26.489  1.00  0.00     0.054 A 
BRANCH  64  65
ATOM     65  S   UNL A   1      42.279  18.837  26.206  1.00  0.00     0.124 S 
ATOM     66  O   UNL A   1      42.439  18.261  27.536  1.00  0.00    -0.237 OA
ATOM     67  O   UNL A   1      40.904  18.947  25.724  1.00  0.00    -0.237 OA
ATOM     68  O   UNL A   1      43.245  18.389  25.206  1.00  0.00    -0.744 OA
ENDBRANCH  64  65
ENDBRANCH  36  59
BRANCH  48  69
ATOM     69  C   UNL A   1      49.646  26.529  26.455  1.00  0.00    -0.014 A 
ATOM     70  C   UNL A   1      50.463  25.896  27.408  1.00  0.00     0.010 A 
ATOM     71  C   UNL A   1      50.113  26.676  25.137  1.00  0.00     0.010 A 
ATOM     72  C   UNL A   1      51.736  25.442  27.054  1.00  0.00     0.020 A 
ATOM     73  C   UNL A   1      51.375  26.201  24.774  1.00  0.00     0.020 A 
ATOM     74  C   UNL A   1      52.184  25.598  25.738  1.00  0.00     0.054 A 
BRANCH  74  75
ATOM     75  S   UNL A   1      53.821  24.958  25.291  1.00  0.00     0.124 S 
ATOM     76  O   UNL A   1      54.617  25.311  26.464  1.00  0.00    -0.237 OA
ATOM     77  O   UNL A   1      53.571  23.531  25.107  1.00  0.00    -0.237 OA
ATOM     78  O   UNL A   1      54.155  25.687  24.068  1.00  0.00    -0.744 OA
ENDBRANCH  74  75
ENDBRANCH  48  69
ENDBRANCH  22  23
ENDBRANCH  15  17
ENDBRANCH  14  15
ENDBRANCH   1  14
TORSDOF 15
ENDMDL
MODEL 2
REMARK VINA RESULT:     -10.0      6.573     14.231
REMARK SMILES CCN1C[C@@H](C(=O)OCCOC(=O)c2ccc(-c3c4nc(c(-c5ccc(S(=O)(=O)[O-])cc5)c5ccc([nH]5)c(-c5ccc(S(=O)(=O)[O-])cc5)c5nc(c(-c6ccc(S(=O)(=O)[O-])cc6)c6ccc3[nH]6)C=C5)C=C4)cc2)CC1=O
REMARK SMILES IDX 10 1 9 2 8 3 6 4 7 5 5 6 3 7 4 8 75 9 74 10 76 11 2 12 1 13
REMARK SMILES IDX 11 14 12 15 13 16 14 17 15 18 73 19 16 20 72 21 17 22 18 23
REMARK SMILES IDX 19 24 66 25 20 26 71 27 65 28 67 29 21 30 70 31 64 32 63 33
REMARK SMILES IDX 22 35 52 36 33 37 51 38 34 39 37 40 50 41 68 42 35 43 36 44
REMARK SMILES IDX 49 46 69 47 38 48 23 49 24 50 32 51 25 52 31 53 26 54 27 55
REMARK SMILES IDX 28 56 29 57 30 58 53 59 54 60 62 61 55 62 61 63 56 64 57 65
REMARK SMILES IDX 58 66 59 67 60 68 39 69 40 70 48 71 41 72 47 73 42 74 43 75
REMARK SMILES IDX 44 76 45 77 46 78
REMARK H PARENT 67 34 37 45
REMARK Flexibility Score: inf
ROOT
ATOM      1  C   UNL A   1      45.797  25.279  26.811  1.00  0.00     0.275 C 
ENDROOT
BRANCH   1   2
ATOM      2  C   UNL A   1      46.784  24.249  26.250  1.00  0.00     0.274 C 
BRANCH   2   3
ATOM      3  O   UNL A   1      46.127  22.993  25.993  1.00  0.00    -0.462 OA
BRANCH   3   4
ATOM      4  C   UNL A   1      45.914  22.675  24.694  1.00  0.00     0.311 C 
ATOM      5  O   UNL A   1      46.035  23.454  23.755  1.00  0.00    -0.252 OA
BRANCH   4   6
ATOM      6  C   UNL A   1      45.507  21.242  24.487  1.00  0.00     0.128 C 
ATOM      7  N   UNL A   1      44.364  19.478  25.443  1.00  0.00    -0.342 N 
ATOM      8  C   UNL A   1      44.302  20.913  25.340  1.00  0.00     0.135 C 
ATOM      9  C   UNL A   1      45.627  18.980  25.165  1.00  0.00     0.223 C 
ATOM     10  C   UNL A   1      46.518  20.149  24.826  1.00  0.00     0.117 C 
ATOM     11  O   UNL A   1      45.975  17.811  25.209  1.00  0.00    -0.275 OA
BRANCH   7  12
ATOM     12  C   UNL A   1      43.202  18.662  25.729  1.00  0.00     0.116 C 
ATOM     13  C   UNL A   1      42.027  19.512  26.187  1.00  0.00     0.027 C 
ENDBRANCH   7  12
ENDBRANCH   4   6
ENDBRANCH   3   4
ENDBRANCH   2   3
ENDBRANCH   1   2
BRANCH   1  14
ATOM     14  O   UNL A   1      44.432  24.833  26.703  1.00  0.00    -0.458 OA
BRANCH  14  15
ATOM     15  C   UNL A   1      43.566  25.762  26.234  1.00  0.00     0.338 C 
ATOM     16  O   UNL A   1      43.191  25.902  25.082  1.00  0.00    -0.246 OA
BRANCH  15  17
ATOM     17  C   UNL A   1      42.999  26.534  27.350  1.00  0.00     0.060 A 
ATOM     18  C   UNL A   1      43.458  27.838  27.538  1.00  0.00     0.016 A 
ATOM     19  C   UNL A   1      42.116  25.957  28.261  1.00  0.00     0.016 A 
ATOM     20  C   UNL A   1      43.057  28.573  28.646  1.00  0.00     0.010 A 
ATOM     21  C   UNL A   1      41.698  26.701  29.371  1.00  0.00     0.010 A 
ATOM     22  C   UNL A   1      42.179  28.008  29.578  1.00  0.00    -0.014 A 
BRANCH  22  23
ATOM     23  C   UNL A   1      41.803  28.782  30.785  1.00  0.00     0.031 A 
ATOM     24  C   UNL A   1      40.595  29.676  30.757  1.00  0.00     0.074 A 
ATOM     25  C   UNL A   1      42.528  28.653  31.912  1.00  0.00     0.049 A 
ATOM     26  N   UNL A   1      40.152  30.491  31.680  1.00  0.00    -0.248 NA
ATOM     27  C   UNL A   1      39.780  29.650  29.532  1.00  0.00     0.031 C 
ATOM     28  C   UNL A   1      43.684  27.770  32.078  1.00  0.00     0.029 A 
ATOM     29  N   UNL A   1      42.397  29.263  33.133  1.00  0.00    -0.354 N 
ATOM     30  C   UNL A   1      39.024  31.096  31.139  1.00  0.00     0.074 A 
ATOM     31  C   UNL A   1      38.857  30.562  29.804  1.00  0.00     0.031 C 
ATOM     32  C   UNL A   1      44.151  27.890  33.331  1.00  0.00     0.029 A 
ATOM     33  C   UNL A   1      43.365  28.897  34.038  1.00  0.00     0.049 A 
ATOM     34  H   UNL A   1      41.677  29.903  33.343  1.00  0.00     0.167 HD
ATOM     35  C   UNL A   1      38.205  32.015  31.705  1.00  0.00     0.031 A 
ATOM     36  C   UNL A   1      43.612  29.345  35.283  1.00  0.00     0.031 A 
ATOM     37  C   UNL A   1      38.377  32.536  33.036  1.00  0.00     0.049 A 
ATOM     38  C   UNL A   1      42.728  30.411  35.866  1.00  0.00     0.074 A 
ATOM     39  C   UNL A   1      37.600  33.468  33.702  1.00  0.00     0.029 A 
ATOM     40  N   UNL A   1      39.393  32.169  33.905  1.00  0.00    -0.354 N 
ATOM     41  N   UNL A   1      41.677  30.989  35.334  1.00  0.00    -0.248 NA
ATOM     42  C   UNL A   1      43.064  30.889  37.214  1.00  0.00     0.031 C 
ATOM     43  C   UNL A   1      38.175  33.699  34.956  1.00  0.00     0.029 A 
ATOM     44  C   UNL A   1      39.278  32.871  35.093  1.00  0.00     0.049 A 
ATOM     45  H   UNL A   1      40.094  31.506  33.706  1.00  0.00     0.167 HD
ATOM     46  C   UNL A   1      41.215  31.887  36.290  1.00  0.00     0.074 A 
ATOM     47  C   UNL A   1      42.092  31.765  37.436  1.00  0.00     0.031 C 
ATOM     48  C   UNL A   1      40.161  32.738  36.222  1.00  0.00     0.031 A 
BRANCH  35  49
ATOM     49  C   UNL A   1      37.077  32.550  30.866  1.00  0.00    -0.014 A 
ATOM     50  C   UNL A   1      37.290  33.547  29.897  1.00  0.00     0.010 A 
ATOM     51  C   UNL A   1      35.783  32.022  31.029  1.00  0.00     0.010 A 
ATOM     52  C   UNL A   1      36.223  34.033  29.136  1.00  0.00     0.020 A 
ATOM     53  C   UNL A   1      34.718  32.488  30.254  1.00  0.00     0.020 A 
ATOM     54  C   UNL A   1      34.942  33.505  29.323  1.00  0.00     0.054 A 
BRANCH  54  55
ATOM     55  S   UNL A   1      33.576  34.145  28.315  1.00  0.00     0.124 S 
ATOM     56  O   UNL A   1      34.266  35.080  27.432  1.00  0.00    -0.237 OA
ATOM     57  O   UNL A   1      33.058  32.940  27.673  1.00  0.00    -0.237 OA
ATOM     58  O   UNL A   1      32.681  34.758  29.294  1.00  0.00    -0.744 OA
ENDBRANCH  54  55
ENDBRANCH  35  49
BRANCH  36  59
ATOM     59  C   UNL A   1      44.773  28.809  36.045  1.00  0.00    -0.014 A 
ATOM     60  C   UNL A   1      46.041  29.403  35.934  1.00  0.00     0.010 A 
ATOM     61  C   UNL A   1      44.605  27.708  36.905  1.00  0.00     0.010 A 
ATOM     62  C   UNL A   1      47.124  28.900  36.661  1.00  0.00     0.020 A 
ATOM     63  C   UNL A   1      45.679  27.218  37.654  1.00  0.00     0.020 A 
ATOM     64  C   UNL A   1      46.935  27.812  37.520  1.00  0.00     0.054 A 
BRANCH  64  65
ATOM     65  S   UNL A   1      48.338  27.213  38.502  1.00  0.00     0.124 S 
ATOM     66  O   UNL A   1      47.703  26.898  39.777  1.00  0.00    -0.237 OA
ATOM     67  O   UNL A   1      48.800  26.065  37.725  1.00  0.00    -0.237 OA
ATOM     68  O   UNL A   1      49.253  28.351  38.520  1.00  0.00    -0.744 OA
ENDBRANCH  64  65
ENDBRANCH  36  59
BRANCH  48  69
ATOM     69  C   UNL A   1      39.879  33.582  37.436  1.00  0.00    -0.014 A 
ATOM     70  C   UNL A   1      40.439  34.864  37.575  1.00  0.00     0.010 A 
ATOM     71  C   UNL A   1      38.998  33.105  38.422  1.00  0.00     0.010 A 
ATOM     72  C   UNL A   1      40.143  35.644  38.696  1.00  0.00     0.020 A 
ATOM     73  C   UNL A   1      38.680  33.891  39.532  1.00  0.00     0.020 A 
ATOM     74  C   UNL A   1      39.265  35.151  39.668  1.00  0.00     0.054 A 
BRANCH  74  75
ATOM     75  S   UNL A   1      38.858  36.201  41.091  1.00  0.00     0.124 S 
ATOM     76  O   UNL A   1      38.559  37.479  40.450  1.00  0.00    -0.237 OA
ATOM     77  O   UNL A   1      37.715  35.511  41.683  1.00  0.00    -0.237 OA
ATOM     78  O   UNL A   1      40.077  36.177  41.897  1.00  0.00    -0.744 OA
ENDBRANCH  74  75
ENDBRANCH  48  69
ENDBRANCH  22  23
ENDBRANCH  15  17
ENDBRANCH  14  15
ENDBRANCH   1  14
TORSDOF 15
ENDMDL
MODEL 3
REMARK VINA RESULT:     -10.0      1.644      2.206
REMARK SMILES CCN1C[C@@H](C(=O)OCCOC(=O)c2ccc(-c3c4nc(c(-c5ccc(S(=O)(=O)[O-])cc5)c5ccc([nH]5)c(-c5ccc(S(=O)(=O)[O-])cc5)c5nc(c(-c6ccc(S(=O)(=O)[O-])cc6)c6ccc3[nH]6)C=C5)C=C4)cc2)CC1=O
REMARK SMILES IDX 10 1 9 2 8 3 6 4 7 5 5 6 3 7 4 8 75 9 74 10 76 11 2 12 1 13
REMARK SMILES IDX 11 14 12 15 13 16 14 17 15 18 73 19 16 20 72 21 17 22 18 23
REMARK SMILES IDX 19 24 66 25 20 26 71 27 65 28 67 29 21 30 70 31 64 32 63 33
REMARK SMILES IDX 22 35 52 36 33 37 51 38 34 39 37 40 50 41 68 42 35 43 36 44
REMARK SMILES IDX 49 46 69 47 38 48 23 49 24 50 32 51 25 52 31 53 26 54 27 55
REMARK SMILES IDX 28 56 29 57 30 58 53 59 54 60 62 61 55 62 61 63 56 64 57 65
REMARK SMILES IDX 58 66 59 67 60 68 39 69 40 70 48 71 41 72 47 73 42 74 43 75
REMARK SMILES IDX 44 76 45 77 46 78
REMARK H PARENT 67 34 37 45
REMARK Flexibility Score: inf
ROOT
ATOM      1  C   UNL A   1      36.055  30.635  27.699  1.00  0.00     0.275 C 
ENDROOT
BRANCH   1   2
ATOM      2  C   UNL A   1      35.031  31.444  28.501  1.00  0.00     0.274 C 
BRANCH   2   3
ATOM      3  O   UNL A   1      35.688  32.320  29.437  1.00  0.00    -0.462 OA
BRANCH   3   4
ATOM      4  C   UNL A   1      34.908  32.880  30.394  1.00  0.00     0.311 C 
ATOM      5  O   UNL A   1      34.510  32.300  31.398  1.00  0.00    -0.252 OA
BRANCH   4   6
ATOM      6  C   UNL A   1      34.562  34.317  30.119  1.00  0.00     0.128 C 
ATOM      7  N   UNL A   1      33.440  36.152  30.960  1.00  0.00    -0.342 N 
ATOM      8  C   UNL A   1      34.219  35.027  31.410  1.00  0.00     0.135 C 
ATOM      9  C   UNL A   1      32.919  35.963  29.690  1.00  0.00     0.223 C 
ATOM     10  C   UNL A   1      33.378  34.611  29.202  1.00  0.00     0.117 C 
ATOM     11  O   UNL A   1      32.198  36.732  29.077  1.00  0.00    -0.275 OA
BRANCH   7  12
ATOM     12  C   UNL A   1      33.297  37.367  31.736  1.00  0.00     0.116 C 
ATOM     13  C   UNL A   1      33.793  37.176  33.161  1.00  0.00     0.027 C 
ENDBRANCH   7  12
ENDBRANCH   4   6
ENDBRANCH   3   4
ENDBRANCH   2   3
ENDBRANCH   1   2
BRANCH   1  14
ATOM     14  O   UNL A   1      36.239  29.311  28.235  1.00  0.00    -0.458 OA
BRANCH  14  15
ATOM     15  C   UNL A   1      37.059  29.241  29.309  1.00  0.00     0.338 C 
ATOM     16  O   UNL A   1      36.738  29.293  30.484  1.00  0.00    -0.246 OA
BRANCH  15  17
ATOM     17  C   UNL A   1      38.433  28.944  28.877  1.00  0.00     0.060 A 
ATOM     18  C   UNL A   1      39.334  28.495  29.843  1.00  0.00     0.016 A 
ATOM     19  C   UNL A   1      38.862  29.202  27.576  1.00  0.00     0.016 A 
ATOM     20  C   UNL A   1      40.675  28.319  29.527  1.00  0.00     0.010 A 
ATOM     21  C   UNL A   1      40.210  29.011  27.251  1.00  0.00     0.010 A 
ATOM     22  C   UNL A   1      41.128  28.582  28.229  1.00  0.00    -0.014 A 
BRANCH  22  23
ATOM     23  C   UNL A   1      42.570  28.444  27.919  1.00  0.00     0.031 A 
ATOM     24  C   UNL A   1      43.507  29.588  28.183  1.00  0.00     0.074 A 
ATOM     25  C   UNL A   1      43.039  27.279  27.432  1.00  0.00     0.049 A 
ATOM     26  N   UNL A   1      44.782  29.690  27.906  1.00  0.00    -0.248 NA
ATOM     27  C   UNL A   1      42.937  30.772  28.846  1.00  0.00     0.031 C 
ATOM     28  C   UNL A   1      42.236  26.078  27.191  1.00  0.00     0.029 A 
ATOM     29  N   UNL A   1      44.306  26.914  27.055  1.00  0.00    -0.354 N 
ATOM     30  C   UNL A   1      45.161  30.957  28.333  1.00  0.00     0.074 A 
ATOM     31  C   UNL A   1      43.979  31.590  28.879  1.00  0.00     0.031 C 
ATOM     32  C   UNL A   1      43.032  25.108  26.715  1.00  0.00     0.029 A 
ATOM     33  C   UNL A   1      44.386  25.633  26.564  1.00  0.00     0.049 A 
ATOM     34  H   UNL A   1      45.085  27.512  27.130  1.00  0.00     0.167 HD
ATOM     35  C   UNL A   1      46.383  31.538  28.273  1.00  0.00     0.031 A 
ATOM     36  C   UNL A   1      45.423  24.966  26.024  1.00  0.00     0.031 A 
ATOM     37  C   UNL A   1      47.554  30.898  27.733  1.00  0.00     0.049 A 
ATOM     38  C   UNL A   1      46.755  25.655  25.908  1.00  0.00     0.074 A 
ATOM     39  C   UNL A   1      48.839  31.401  27.629  1.00  0.00     0.029 A 
ATOM     40  N   UNL A   1      47.584  29.615  27.209  1.00  0.00    -0.354 N 
ATOM     41  N   UNL A   1      47.092  26.861  26.298  1.00  0.00    -0.248 NA
ATOM     42  C   UNL A   1      47.843  24.896  25.278  1.00  0.00     0.031 C 
ATOM     43  C   UNL A   1      49.635  30.439  26.998  1.00  0.00     0.029 A 
ATOM     44  C   UNL A   1      48.859  29.316  26.760  1.00  0.00     0.049 A 
ATOM     45  H   UNL A   1      46.812  29.005  27.163  1.00  0.00     0.167 HD
ATOM     46  C   UNL A   1      48.438  27.000  25.976  1.00  0.00     0.074 A 
ATOM     47  C   UNL A   1      48.854  25.750  25.373  1.00  0.00     0.031 C 
ATOM     48  C   UNL A   1      49.254  28.067  26.161  1.00  0.00     0.031 A 
BRANCH  35  49
ATOM     49  C   UNL A   1      46.503  32.956  28.761  1.00  0.00    -0.014 A 
ATOM     50  C   UNL A   1      46.873  33.247  30.087  1.00  0.00     0.010 A 
ATOM     51  C   UNL A   1      46.270  34.018  27.868  1.00  0.00     0.010 A 
ATOM     52  C   UNL A   1      46.968  34.573  30.519  1.00  0.00     0.020 A 
ATOM     53  C   UNL A   1      46.388  35.345  28.290  1.00  0.00     0.020 A 
ATOM     54  C   UNL A   1      46.720  35.614  29.619  1.00  0.00     0.054 A 
BRANCH  54  55
ATOM     55  S   UNL A   1      46.862  37.327  30.201  1.00  0.00     0.124 S 
ATOM     56  O   UNL A   1      48.275  37.608  29.966  1.00  0.00    -0.237 OA
ATOM     57  O   UNL A   1      45.926  38.040  29.336  1.00  0.00    -0.237 OA
ATOM     58  O   UNL A   1      46.469  37.248  31.606  1.00  0.00    -0.744 OA
ENDBRANCH  54  55
ENDBRANCH  35  49
BRANCH  36  59
ATOM     59  C   UNL A   1      45.229  23.581  25.515  1.00  0.00    -0.014 A 
ATOM     60  C   UNL A   1      44.747  23.354  24.215  1.00  0.00     0.010 A 
ATOM     61  C   UNL A   1      45.548  22.479  26.330  1.00  0.00     0.010 A 
ATOM     62  C   UNL A   1      44.578  22.049  23.742  1.00  0.00     0.020 A 
ATOM     63  C   UNL A   1      45.405  21.173  25.852  1.00  0.00     0.020 A 
ATOM     64  C   UNL A   1      44.911  20.967  24.563  1.00  0.00     0.054 A 
BRANCH  64  65
ATOM     65  S   UNL A   1      44.743  19.283  23.909  1.00  0.00     0.124 S 
ATOM     66  O   UNL A   1      46.007  18.675  24.309  1.00  0.00    -0.237 OA
ATOM     67  O   UNL A   1      43.555  18.791  24.604  1.00  0.00    -0.237 OA
ATOM     68  O   UNL A   1      44.572  19.490  22.472  1.00  0.00    -0.744 OA
ENDBRANCH  64  65
ENDBRANCH  36  59
BRANCH  48  69
ATOM     69  C   UNL A   1      50.689  27.918  25.734  1.00  0.00    -0.014 A 
ATOM     70  C   UNL A   1      51.672  27.469  26.634  1.00  0.00     0.010 A 
ATOM     71  C   UNL A   1      51.047  28.180  24.399  1.00  0.00     0.010 A 
ATOM     72  C   UNL A   1      52.994  27.311  26.212  1.00  0.00     0.020 A 
ATOM     73  C   UNL A   1      52.363  27.999  23.968  1.00  0.00     0.020 A 
ATOM     74  C   UNL A   1      53.331  27.577  24.880  1.00  0.00     0.054 A 
BRANCH  74  75
ATOM     75  S   UNL A   1      55.044  27.319  24.343  1.00  0.00     0.124 S 
ATOM     76  O   UNL A   1      55.225  25.889  24.577  1.00  0.00    -0.237 OA
ATOM     77  O   UNL A   1      55.008  27.728  22.941  1.00  0.00    -0.237 OA
ATOM     78  O   UNL A   1      55.818  28.196  25.220  1.00  0.00    -0.744 OA
ENDBRANCH  74  75
ENDBRANCH  48  69
ENDBRANCH  22  23
ENDBRANCH  15  17
ENDBRANCH  14  15
ENDBRANCH   1  14
TORSDOF 15
ENDMDL
