MODEL 1
REMARK VINA RESULT:     -12.8      0.000      0.000
REMARK SMILES Cc1ccc2c(c1)c(-c1ccnc3c(C)cccc13)c(C)n2CC(=O)OCCOC(=O)c1ccc(-c2c3nc(c(-c4ccc(S(=O)(=O)[O-])cc4)c4ccc([nH]4)c(-c4ccc(S(=O)(=O)[O-])cc4)c4nc(c(-c5ccc(S(=O)(=O)[O-])cc5)c5ccc2[nH]5)C=C4)C=C3)cc1
REMARK SMILES IDX 28 1 27 2 26 3 24 4 25 5 23 6 22 7 1 8 2 9 3 10 7 11 4 12
REMARK SMILES IDX 6 13 5 14 8 15 20 16 21 17 9 18 10 19 19 20 11 21 13 22
REMARK SMILES IDX 18 23 12 24 14 25 17 26 15 27 16 28 29 29 30 30 31 31 32 32
REMARK SMILES IDX 33 33 91 34 34 35 90 36 35 37 36 38 37 39 84 40 38 41 89 42
REMARK SMILES IDX 83 43 85 44 39 45 88 46 82 47 81 48 40 50 70 51 51 52 69 53
REMARK SMILES IDX 52 54 55 55 68 56 86 57 53 58 54 59 67 61 87 62 56 63 41 64
REMARK SMILES IDX 42 65 50 66 43 67 49 68 44 69 45 70 46 71 47 72 48 73 71 74
REMARK SMILES IDX 72 75 80 76 73 77 79 78 74 79 75 80 76 81 77 82 78 83 57 84
REMARK SMILES IDX 58 85 66 86 59 87 65 88 60 89 61 90 62 91 63 92 64 93
REMARK H PARENT 85 49 55 60
REMARK Flexibility Score: inf
ROOT
ATOM      1  C   UNL A   1      37.986  21.618  25.856  1.00  0.00     0.275 C 
ENDROOT
BRANCH   1   2
ATOM      2  C   UNL A   1      37.277  21.502  24.502  1.00  0.00     0.274 C 
BRANCH   2   3
ATOM      3  O   UNL A   1      36.024  22.242  24.485  1.00  0.00    -0.461 OA
BRANCH   3   4
ATOM      4  C   UNL A   1      35.801  22.998  23.379  1.00  0.00     0.326 C 
ATOM      5  O   UNL A   1      36.680  23.653  22.821  1.00  0.00    -0.250 OA
BRANCH   4   6
ATOM      6  C   UNL A   1      34.396  23.004  22.831  1.00  0.00     0.244 C 
BRANCH   6   7
ATOM      7  N   UNL A   1      33.378  23.849  23.451  1.00  0.00    -0.333 N 
ATOM      8  C   UNL A   1      29.507  22.749  27.408  1.00  0.00     0.044 C 
ATOM      9  C   UNL A   1      30.529  22.954  26.333  1.00  0.00    -0.050 A 
ATOM     10  C   UNL A   1      31.358  21.906  25.938  1.00  0.00     0.005 A 
ATOM     11  C   UNL A   1      30.653  24.214  25.725  1.00  0.00     0.014 A 
ATOM     12  C   UNL A   1      32.327  22.083  24.951  1.00  0.00     0.027 A 
ATOM     13  C   UNL A   1      31.661  24.431  24.768  1.00  0.00     0.008 A 
ATOM     14  C   UNL A   1      32.474  23.361  24.388  1.00  0.00     0.049 A 
ATOM     15  C   UNL A   1      32.125  25.574  24.069  1.00  0.00     0.011 A 
ATOM     16  C   UNL A   1      33.341  25.232  23.507  1.00  0.00     0.024 A 
ATOM     17  C   UNL A   1      34.409  26.165  23.077  1.00  0.00     0.065 C 
BRANCH  15  18
ATOM     18  C   UNL A   1      31.661  26.953  24.072  1.00  0.00    -0.005 A 
ATOM     19  C   UNL A   1      30.799  27.373  23.063  1.00  0.00     0.029 A 
ATOM     20  C   UNL A   1      31.991  27.822  25.145  1.00  0.00     0.008 A 
ATOM     21  C   UNL A   1      30.304  28.654  23.143  1.00  0.00     0.112 A 
ATOM     22  C   UNL A   1      31.451  29.127  25.115  1.00  0.00     0.074 A 
ATOM     23  C   UNL A   1      32.811  27.434  26.235  1.00  0.00     0.011 A 
ATOM     24  N   UNL A   1      30.626  29.526  24.121  1.00  0.00    -0.256 NA
ATOM     25  C   UNL A   1      31.781  30.008  26.157  1.00  0.00    -0.025 A 
ATOM     26  C   UNL A   1      33.113  28.314  27.265  1.00  0.00     0.001 A 
ATOM     27  C   UNL A   1      31.286  31.430  26.166  1.00  0.00     0.047 C 
ATOM     28  C   UNL A   1      32.610  29.603  27.219  1.00  0.00     0.005 A 
ENDBRANCH  15  18
ENDBRANCH   6   7
ENDBRANCH   4   6
ENDBRANCH   3   4
ENDBRANCH   2   3
ENDBRANCH   1   2
BRANCH   1  29
ATOM     29  O   UNL A   1      39.184  22.393  25.697  1.00  0.00    -0.458 OA
BRANCH  29  30
ATOM     30  C   UNL A   1      40.000  22.448  26.773  1.00  0.00     0.338 C 
ATOM     31  O   UNL A   1      40.962  21.732  27.008  1.00  0.00    -0.246 OA
BRANCH  30  32
ATOM     32  C   UNL A   1      39.788  23.778  27.373  1.00  0.00     0.060 A 
ATOM     33  C   UNL A   1      38.748  24.627  27.018  1.00  0.00     0.016 A 
ATOM     34  C   UNL A   1      40.836  24.251  28.158  1.00  0.00     0.016 A 
ATOM     35  C   UNL A   1      38.859  25.979  27.336  1.00  0.00     0.010 A 
ATOM     36  C   UNL A   1      40.979  25.599  28.432  1.00  0.00     0.010 A 
ATOM     37  C   UNL A   1      40.017  26.474  27.961  1.00  0.00    -0.014 A 
BRANCH  37  38
ATOM     38  C   UNL A   1      40.079  27.869  28.360  1.00  0.00     0.031 A 
ATOM     39  C   UNL A   1      41.280  28.549  27.840  1.00  0.00     0.074 A 
ATOM     40  C   UNL A   1      39.202  28.603  29.068  1.00  0.00     0.049 A 
ATOM     41  N   UNL A   1      42.391  28.688  28.474  1.00  0.00    -0.248 NA
ATOM     42  C   UNL A   1      41.306  28.985  26.442  1.00  0.00     0.031 C 
ATOM     43  C   UNL A   1      37.823  28.339  29.467  1.00  0.00     0.029 A 
ATOM     44  N   UNL A   1      39.446  29.842  29.585  1.00  0.00    -0.354 N 
ATOM     45  C   UNL A   1      43.237  29.367  27.618  1.00  0.00     0.074 A 
ATOM     46  C   UNL A   1      42.569  29.404  26.337  1.00  0.00     0.031 C 
ATOM     47  C   UNL A   1      37.301  29.457  30.038  1.00  0.00     0.029 A 
ATOM     48  C   UNL A   1      38.362  30.441  30.200  1.00  0.00     0.049 A 
ATOM     49  H   UNL A   1      40.327  30.277  29.525  1.00  0.00     0.167 HD
ATOM     50  C   UNL A   1      44.360  29.979  28.078  1.00  0.00     0.031 A 
ATOM     51  C   UNL A   1      38.369  31.641  30.830  1.00  0.00     0.031 A 
ATOM     52  C   UNL A   1      44.665  29.591  29.434  1.00  0.00     0.049 A 
ATOM     53  C   UNL A   1      39.765  31.891  31.278  1.00  0.00     0.074 A 
ATOM     54  C   UNL A   1      44.954  28.386  30.048  1.00  0.00     0.029 A 
ATOM     55  N   UNL A   1      44.281  30.444  30.444  1.00  0.00    -0.354 N 
ATOM     56  N   UNL A   1      40.364  31.201  32.208  1.00  0.00    -0.248 NA
ATOM     57  C   UNL A   1      40.642  32.688  30.434  1.00  0.00     0.031 C 
ATOM     58  C   UNL A   1      44.283  28.439  31.305  1.00  0.00     0.029 A 
ATOM     59  C   UNL A   1      43.662  29.687  31.409  1.00  0.00     0.049 A 
ATOM     60  H   UNL A   1      44.425  31.418  30.470  1.00  0.00     0.167 HD
ATOM     61  C   UNL A   1      41.694  31.147  31.817  1.00  0.00     0.074 A 
ATOM     62  C   UNL A   1      41.821  32.165  30.779  1.00  0.00     0.031 C 
ATOM     63  C   UNL A   1      42.511  30.115  32.187  1.00  0.00     0.031 A 
BRANCH  50  64
ATOM     64  C   UNL A   1      45.026  31.133  27.392  1.00  0.00    -0.014 A 
ATOM     65  C   UNL A   1      44.326  32.285  26.978  1.00  0.00     0.010 A 
ATOM     66  C   UNL A   1      46.431  31.178  27.336  1.00  0.00     0.010 A 
ATOM     67  C   UNL A   1      44.986  33.416  26.500  1.00  0.00     0.020 A 
ATOM     68  C   UNL A   1      47.106  32.326  26.902  1.00  0.00     0.020 A 
ATOM     69  C   UNL A   1      46.375  33.435  26.480  1.00  0.00     0.054 A 
BRANCH  69  70
ATOM     70  S   UNL A   1      47.196  34.965  25.975  1.00  0.00     0.124 S 
ATOM     71  O   UNL A   1      46.058  35.839  25.703  1.00  0.00    -0.237 OA
ATOM     72  O   UNL A   1      47.982  35.302  27.158  1.00  0.00    -0.237 OA
ATOM     73  O   UNL A   1      47.973  34.567  24.804  1.00  0.00    -0.744 OA
ENDBRANCH  69  70
ENDBRANCH  50  64
BRANCH  51  74
ATOM     74  C   UNL A   1      37.401  32.754  30.660  1.00  0.00    -0.014 A 
ATOM     75  C   UNL A   1      36.432  33.001  31.651  1.00  0.00     0.010 A 
ATOM     76  C   UNL A   1      37.215  33.341  29.391  1.00  0.00     0.010 A 
ATOM     77  C   UNL A   1      35.270  33.727  31.360  1.00  0.00     0.020 A 
ATOM     78  C   UNL A   1      36.051  34.068  29.093  1.00  0.00     0.020 A 
ATOM     79  C   UNL A   1      35.068  34.222  30.071  1.00  0.00     0.054 A 
BRANCH  79  80
ATOM     80  S   UNL A   1      33.465  34.980  29.680  1.00  0.00     0.124 S 
ATOM     81  O   UNL A   1      33.869  36.225  29.030  1.00  0.00    -0.237 OA
ATOM     82  O   UNL A   1      32.853  33.985  28.803  1.00  0.00    -0.237 OA
ATOM     83  O   UNL A   1      32.825  35.135  30.983  1.00  0.00    -0.744 OA
ENDBRANCH  79  80
ENDBRANCH  51  74
BRANCH  63  84
ATOM     84  C   UNL A   1      42.064  29.177  33.294  1.00  0.00    -0.014 A 
ATOM     85  C   UNL A   1      42.365  29.544  34.620  1.00  0.00     0.010 A 
ATOM     86  C   UNL A   1      41.536  27.890  33.065  1.00  0.00     0.010 A 
ATOM     87  C   UNL A   1      42.187  28.648  35.678  1.00  0.00     0.020 A 
ATOM     88  C   UNL A   1      41.327  26.995  34.128  1.00  0.00     0.020 A 
ATOM     89  C   UNL A   1      41.682  27.372  35.425  1.00  0.00     0.054 A 
BRANCH  89  90
ATOM     90  S   UNL A   1      41.533  26.215  36.815  1.00  0.00     0.124 S 
ATOM     91  O   UNL A   1      40.453  26.810  37.598  1.00  0.00    -0.237 OA
ATOM     92  O   UNL A   1      41.201  24.954  36.154  1.00  0.00    -0.237 OA
ATOM     93  O   UNL A   1      42.850  26.249  37.449  1.00  0.00    -0.744 OA
ENDBRANCH  89  90
ENDBRANCH  63  84
ENDBRANCH  37  38
ENDBRANCH  30  32
ENDBRANCH  29  30
ENDBRANCH   1  29
TORSDOF 16
ENDMDL
MODEL 2
REMARK VINA RESULT:     -12.6      1.916      3.028
REMARK SMILES Cc1ccc2c(c1)c(-c1ccnc3c(C)cccc13)c(C)n2CC(=O)OCCOC(=O)c1ccc(-c2c3nc(c(-c4ccc(S(=O)(=O)[O-])cc4)c4ccc([nH]4)c(-c4ccc(S(=O)(=O)[O-])cc4)c4nc(c(-c5ccc(S(=O)(=O)[O-])cc5)c5ccc2[nH]5)C=C4)C=C3)cc1
REMARK SMILES IDX 28 1 27 2 26 3 24 4 25 5 23 6 22 7 1 8 2 9 3 10 7 11 4 12
REMARK SMILES IDX 6 13 5 14 8 15 20 16 21 17 9 18 10 19 19 20 11 21 13 22
REMARK SMILES IDX 18 23 12 24 14 25 17 26 15 27 16 28 29 29 30 30 31 31 32 32
REMARK SMILES IDX 33 33 91 34 34 35 90 36 35 37 36 38 37 39 84 40 38 41 89 42
REMARK SMILES IDX 83 43 85 44 39 45 88 46 82 47 81 48 40 50 70 51 51 52 69 53
REMARK SMILES IDX 52 54 55 55 68 56 86 57 53 58 54 59 67 61 87 62 56 63 41 64
REMARK SMILES IDX 42 65 50 66 43 67 49 68 44 69 45 70 46 71 47 72 48 73 71 74
REMARK SMILES IDX 72 75 80 76 73 77 79 78 74 79 75 80 76 81 77 82 78 83 57 84
REMARK SMILES IDX 58 85 66 86 59 87 65 88 60 89 61 90 62 91 63 92 64 93
REMARK H PARENT 85 49 55 60
REMARK Flexibility Score: inf
ROOT
ATOM      1  C   UNL A   1      41.596  21.303  26.300  1.00  0.00     0.275 C 
ENDROOT
BRANCH   1   2
ATOM      2  C   UNL A   1      40.185  21.490  26.869  1.00  0.00     0.274 C 
BRANCH   2   3
ATOM      3  O   UNL A   1      39.164  21.290  25.853  1.00  0.00    -0.461 OA
BRANCH   3   4
ATOM      4  C   UNL A   1      38.249  22.285  25.732  1.00  0.00     0.326 C 
ATOM      5  O   UNL A   1      38.112  23.180  26.564  1.00  0.00    -0.250 OA
BRANCH   4   6
ATOM      6  C   UNL A   1      37.379  22.265  24.499  1.00  0.00     0.244 C 
BRANCH   6   7
ATOM      7  N   UNL A   1      35.928  22.171  24.635  1.00  0.00    -0.333 N 
ATOM      8  C   UNL A   1      32.500  17.713  25.116  1.00  0.00     0.044 C 
ATOM      9  C   UNL A   1      33.466  18.844  24.941  1.00  0.00    -0.050 A 
ATOM     10  C   UNL A   1      34.831  18.592  24.809  1.00  0.00     0.005 A 
ATOM     11  C   UNL A   1      32.991  20.164  24.915  1.00  0.00     0.014 A 
ATOM     12  C   UNL A   1      35.747  19.633  24.663  1.00  0.00     0.027 A 
ATOM     13  C   UNL A   1      33.902  21.233  24.826  1.00  0.00     0.008 A 
ATOM     14  C   UNL A   1      35.263  20.951  24.690  1.00  0.00     0.049 A 
ATOM     15  C   UNL A   1      33.774  22.644  24.892  1.00  0.00     0.011 A 
ATOM     16  C   UNL A   1      35.049  23.152  25.060  1.00  0.00     0.024 A 
ATOM     17  C   UNL A   1      35.403  24.479  25.617  1.00  0.00     0.065 C 
BRANCH  15  18
ATOM     18  C   UNL A   1      32.602  23.495  25.029  1.00  0.00    -0.005 A 
ATOM     19  C   UNL A   1      31.897  23.478  26.228  1.00  0.00     0.029 A 
ATOM     20  C   UNL A   1      32.252  24.409  24.000  1.00  0.00     0.008 A 
ATOM     21  C   UNL A   1      30.850  24.360  26.362  1.00  0.00     0.112 A 
ATOM     22  C   UNL A   1      31.142  25.251  24.229  1.00  0.00     0.074 A 
ATOM     23  C   UNL A   1      32.970  24.520  22.782  1.00  0.00     0.011 A 
ATOM     24  N   UNL A   1      30.456  25.214  25.393  1.00  0.00    -0.256 NA
ATOM     25  C   UNL A   1      30.767  26.148  23.216  1.00  0.00    -0.025 A 
ATOM     26  C   UNL A   1      32.594  25.425  21.799  1.00  0.00     0.001 A 
ATOM     27  C   UNL A   1      29.563  27.041  23.367  1.00  0.00     0.047 C 
ATOM     28  C   UNL A   1      31.487  26.228  22.010  1.00  0.00     0.005 A 
ENDBRANCH  15  18
ENDBRANCH   6   7
ENDBRANCH   4   6
ENDBRANCH   3   4
ENDBRANCH   2   3
ENDBRANCH   1   2
BRANCH   1  29
ATOM     29  O   UNL A   1      42.134  22.584  25.940  1.00  0.00    -0.458 OA
BRANCH  29  30
ATOM     30  C   UNL A   1      43.244  22.969  26.610  1.00  0.00     0.338 C 
ATOM     31  O   UNL A   1      44.332  22.414  26.616  1.00  0.00    -0.246 OA
BRANCH  30  32
ATOM     32  C   UNL A   1      43.030  24.384  26.965  1.00  0.00     0.060 A 
ATOM     33  C   UNL A   1      43.421  24.943  28.174  1.00  0.00     0.016 A 
ATOM     34  C   UNL A   1      42.187  25.091  26.111  1.00  0.00     0.016 A 
ATOM     35  C   UNL A   1      42.836  26.145  28.569  1.00  0.00     0.010 A 
ATOM     36  C   UNL A   1      41.563  26.256  26.517  1.00  0.00     0.010 A 
ATOM     37  C   UNL A   1      41.841  26.749  27.778  1.00  0.00    -0.014 A 
BRANCH  37  38
ATOM     38  C   UNL A   1      41.304  28.042  28.163  1.00  0.00     0.031 A 
ATOM     39  C   UNL A   1      42.239  29.146  27.874  1.00  0.00     0.074 A 
ATOM     40  C   UNL A   1      40.104  28.359  28.681  1.00  0.00     0.049 A 
ATOM     41  N   UNL A   1      43.082  29.646  28.707  1.00  0.00    -0.248 NA
ATOM     42  C   UNL A   1      42.355  29.644  26.501  1.00  0.00     0.031 C 
ATOM     43  C   UNL A   1      38.874  27.582  28.811  1.00  0.00     0.029 A 
ATOM     44  N   UNL A   1      39.770  29.567  29.219  1.00  0.00    -0.354 N 
ATOM     45  C   UNL A   1      43.755  30.639  28.020  1.00  0.00     0.074 A 
ATOM     46  C   UNL A   1      43.367  30.503  26.635  1.00  0.00     0.031 C 
ATOM     47  C   UNL A   1      37.879  28.394  29.258  1.00  0.00     0.029 A 
ATOM     48  C   UNL A   1      38.449  29.688  29.606  1.00  0.00     0.049 A 
ATOM     49  H   UNL A   1      40.420  30.298  29.323  1.00  0.00     0.167 HD
ATOM     50  C   UNL A   1      44.465  31.593  28.679  1.00  0.00     0.031 A 
ATOM     51  C   UNL A   1      37.893  30.766  30.211  1.00  0.00     0.031 A 
ATOM     52  C   UNL A   1      44.640  31.264  30.073  1.00  0.00     0.049 A 
ATOM     53  C   UNL A   1      38.988  31.485  30.915  1.00  0.00     0.074 A 
ATOM     54  C   UNL A   1      45.239  30.216  30.746  1.00  0.00     0.029 A 
ATOM     55  N   UNL A   1      43.788  31.854  30.980  1.00  0.00    -0.354 N 
ATOM     56  N   UNL A   1      39.620  31.010  31.951  1.00  0.00    -0.248 NA
ATOM     57  C   UNL A   1      39.643  32.597  30.243  1.00  0.00     0.031 C 
ATOM     58  C   UNL A   1      44.380  29.943  31.851  1.00  0.00     0.029 A 
ATOM     59  C   UNL A   1      43.331  30.866  31.818  1.00  0.00     0.049 A 
ATOM     60  H   UNL A   1      43.552  32.810  31.020  1.00  0.00     0.167 HD
ATOM     61  C   UNL A   1      40.921  31.473  31.823  1.00  0.00     0.074 A 
ATOM     62  C   UNL A   1      40.847  32.526  30.815  1.00  0.00     0.031 C 
ATOM     63  C   UNL A   1      41.982  30.794  32.356  1.00  0.00     0.031 A 
BRANCH  50  64
ATOM     64  C   UNL A   1      44.766  32.949  28.118  1.00  0.00    -0.014 A 
ATOM     65  C   UNL A   1      43.835  34.007  28.132  1.00  0.00     0.010 A 
ATOM     66  C   UNL A   1      46.088  33.259  27.749  1.00  0.00     0.010 A 
ATOM     67  C   UNL A   1      44.188  35.305  27.764  1.00  0.00     0.020 A 
ATOM     68  C   UNL A   1      46.465  34.569  27.424  1.00  0.00     0.020 A 
ATOM     69  C   UNL A   1      45.507  35.581  27.427  1.00  0.00     0.054 A 
BRANCH  69  70
ATOM     70  S   UNL A   1      45.954  37.298  27.083  1.00  0.00     0.124 S 
ATOM     71  O   UNL A   1      46.827  37.154  25.921  1.00  0.00    -0.237 OA
ATOM     72  O   UNL A   1      44.655  37.913  26.823  1.00  0.00    -0.237 OA
ATOM     73  O   UNL A   1      46.614  37.734  28.311  1.00  0.00    -0.744 OA
ENDBRANCH  69  70
ENDBRANCH  50  64
BRANCH  51  74
ATOM     74  C   UNL A   1      36.628  31.452  29.844  1.00  0.00    -0.014 A 
ATOM     75  C   UNL A   1      36.420  31.885  28.520  1.00  0.00     0.010 A 
ATOM     76  C   UNL A   1      35.790  31.975  30.851  1.00  0.00     0.010 A 
ATOM     77  C   UNL A   1      35.476  32.876  28.224  1.00  0.00     0.020 A 
ATOM     78  C   UNL A   1      34.843  32.971  30.560  1.00  0.00     0.020 A 
ATOM     79  C   UNL A   1      34.722  33.442  29.252  1.00  0.00     0.054 A 
BRANCH  79  80
ATOM     80  S   UNL A   1      33.657  34.860  28.860  1.00  0.00     0.124 S 
ATOM     81  O   UNL A   1      33.313  35.357  30.190  1.00  0.00    -0.237 OA
ATOM     82  O   UNL A   1      34.549  35.716  28.082  1.00  0.00    -0.237 OA
ATOM     83  O   UNL A   1      32.553  34.269  28.108  1.00  0.00    -0.744 OA
ENDBRANCH  79  80
ENDBRANCH  51  74
BRANCH  63  84
ATOM     84  C   UNL A   1      41.723  29.693  33.368  1.00  0.00    -0.014 A 
ATOM     85  C   UNL A   1      41.984  29.979  34.723  1.00  0.00     0.010 A 
ATOM     86  C   UNL A   1      41.417  28.362  33.019  1.00  0.00     0.010 A 
ATOM     87  C   UNL A   1      41.981  28.970  35.691  1.00  0.00     0.020 A 
ATOM     88  C   UNL A   1      41.384  27.348  33.991  1.00  0.00     0.020 A 
ATOM     89  C   UNL A   1      41.696  27.657  35.317  1.00  0.00     0.054 A 
BRANCH  89  90
ATOM     90  S   UNL A   1      41.773  26.365  36.590  1.00  0.00     0.124 S 
ATOM     91  O   UNL A   1      40.701  26.762  37.499  1.00  0.00    -0.237 OA
ATOM     92  O   UNL A   1      41.522  25.143  35.828  1.00  0.00    -0.237 OA
ATOM     93  O   UNL A   1      43.124  26.484  37.136  1.00  0.00    -0.744 OA
ENDBRANCH  89  90
ENDBRANCH  63  84
ENDBRANCH  37  38
ENDBRANCH  30  32
ENDBRANCH  29  30
ENDBRANCH   1  29
TORSDOF 16
ENDMDL
MODEL 3
REMARK VINA RESULT:     -12.4      2.544      9.548
REMARK SMILES Cc1ccc2c(c1)c(-c1ccnc3c(C)cccc13)c(C)n2CC(=O)OCCOC(=O)c1ccc(-c2c3nc(c(-c4ccc(S(=O)(=O)[O-])cc4)c4ccc([nH]4)c(-c4ccc(S(=O)(=O)[O-])cc4)c4nc(c(-c5ccc(S(=O)(=O)[O-])cc5)c5ccc2[nH]5)C=C4)C=C3)cc1
REMARK SMILES IDX 28 1 27 2 26 3 24 4 25 5 23 6 22 7 1 8 2 9 3 10 7 11 4 12
REMARK SMILES IDX 6 13 5 14 8 15 20 16 21 17 9 18 10 19 19 20 11 21 13 22
REMARK SMILES IDX 18 23 12 24 14 25 17 26 15 27 16 28 29 29 30 30 31 31 32 32
REMARK SMILES IDX 33 33 91 34 34 35 90 36 35 37 36 38 37 39 84 40 38 41 89 42
REMARK SMILES IDX 83 43 85 44 39 45 88 46 82 47 81 48 40 50 70 51 51 52 69 53
REMARK SMILES IDX 52 54 55 55 68 56 86 57 53 58 54 59 67 61 87 62 56 63 41 64
REMARK SMILES IDX 42 65 50 66 43 67 49 68 44 69 45 70 46 71 47 72 48 73 71 74
REMARK SMILES IDX 72 75 80 76 73 77 79 78 74 79 75 80 76 81 77 82 78 83 57 84
REMARK SMILES IDX 58 85 66 86 59 87 65 88 60 89 61 90 62 91 63 92 64 93
REMARK H PARENT 85 49 55 60
REMARK Flexibility Score: inf
ROOT
ATOM      1  C   UNL A   1      34.429  33.315  29.780  1.00  0.00     0.275 C 
ENDROOT
BRANCH   1   2
ATOM      2  C   UNL A   1      34.176  33.717  28.323  1.00  0.00     0.274 C 
BRANCH   2   3
ATOM      3  O   UNL A   1      33.321  32.758  27.641  1.00  0.00    -0.461 OA
BRANCH   3   4
ATOM      4  C   UNL A   1      33.826  31.504  27.513  1.00  0.00     0.326 C 
ATOM      5  O   UNL A   1      35.018  31.274  27.320  1.00  0.00    -0.250 OA
BRANCH   4   6
ATOM      6  C   UNL A   1      32.847  30.361  27.625  1.00  0.00     0.244 C 
BRANCH   6   7
ATOM      7  N   UNL A   1      32.377  29.685  26.418  1.00  0.00    -0.333 N 
ATOM      8  C   UNL A   1      28.618  31.218  22.498  1.00  0.00     0.044 C 
ATOM      9  C   UNL A   1      29.568  30.860  23.598  1.00  0.00    -0.050 A 
ATOM     10  C   UNL A   1      29.785  31.740  24.657  1.00  0.00     0.005 A 
ATOM     11  C   UNL A   1      30.248  29.632  23.556  1.00  0.00     0.014 A 
ATOM     12  C   UNL A   1      30.681  31.432  25.681  1.00  0.00     0.027 A 
ATOM     13  C   UNL A   1      31.198  29.326  24.547  1.00  0.00     0.008 A 
ATOM     14  C   UNL A   1      31.391  30.223  25.599  1.00  0.00     0.049 A 
ATOM     15  C   UNL A   1      32.117  28.263  24.734  1.00  0.00     0.011 A 
ATOM     16  C   UNL A   1      33.002  28.668  25.717  1.00  0.00     0.024 A 
ATOM     17  C   UNL A   1      34.365  28.136  25.951  1.00  0.00     0.065 C 
BRANCH  15  18
ATOM     18  C   UNL A   1      32.361  27.058  23.956  1.00  0.00    -0.005 A 
ATOM     19  C   UNL A   1      33.160  27.143  22.820  1.00  0.00     0.029 A 
ATOM     20  C   UNL A   1      31.887  25.799  24.409  1.00  0.00     0.008 A 
ATOM     21  C   UNL A   1      33.448  25.973  22.156  1.00  0.00     0.112 A 
ATOM     22  C   UNL A   1      32.217  24.663  23.639  1.00  0.00     0.074 A 
ATOM     23  C   UNL A   1      31.124  25.638  25.594  1.00  0.00     0.011 A 
ATOM     24  N   UNL A   1      32.982  24.762  22.528  1.00  0.00    -0.256 NA
ATOM     25  C   UNL A   1      31.741  23.411  24.059  1.00  0.00    -0.025 A 
ATOM     26  C   UNL A   1      30.675  24.390  26.004  1.00  0.00     0.001 A 
ATOM     27  C   UNL A   1      32.009  22.162  23.261  1.00  0.00     0.047 C 
ATOM     28  C   UNL A   1      30.973  23.280  25.231  1.00  0.00     0.005 A 
ENDBRANCH  15  18
ENDBRANCH   6   7
ENDBRANCH   4   6
ENDBRANCH   3   4
ENDBRANCH   2   3
ENDBRANCH   1   2
BRANCH   1  29
ATOM     29  O   UNL A   1      35.702  33.830  30.198  1.00  0.00    -0.458 OA
BRANCH  29  30
ATOM     30  C   UNL A   1      36.237  33.263  31.303  1.00  0.00     0.338 C 
ATOM     31  O   UNL A   1      35.941  33.491  32.466  1.00  0.00    -0.246 OA
BRANCH  30  32
ATOM     32  C   UNL A   1      36.910  32.035  30.840  1.00  0.00     0.060 A 
ATOM     33  C   UNL A   1      36.483  30.754  31.162  1.00  0.00     0.016 A 
ATOM     34  C   UNL A   1      38.156  32.227  30.249  1.00  0.00     0.016 A 
ATOM     35  C   UNL A   1      37.383  29.700  31.019  1.00  0.00     0.010 A 
ATOM     36  C   UNL A   1      39.073  31.196  30.153  1.00  0.00     0.010 A 
ATOM     37  C   UNL A   1      38.705  29.941  30.601  1.00  0.00    -0.014 A 
BRANCH  37  38
ATOM     38  C   UNL A   1      39.603  28.822  30.378  1.00  0.00     0.031 A 
ATOM     39  C   UNL A   1      40.296  28.403  31.610  1.00  0.00     0.074 A 
ATOM     40  C   UNL A   1      39.841  28.117  29.257  1.00  0.00     0.049 A 
ATOM     41  N   UNL A   1      41.460  28.803  31.983  1.00  0.00    -0.248 NA
ATOM     42  C   UNL A   1      39.579  27.585  32.591  1.00  0.00     0.031 C 
ATOM     43  C   UNL A   1      39.135  28.069  27.979  1.00  0.00     0.029 A 
ATOM     44  N   UNL A   1      40.862  27.230  29.084  1.00  0.00    -0.354 N 
ATOM     45  C   UNL A   1      41.712  28.176  33.189  1.00  0.00     0.074 A 
ATOM     46  C   UNL A   1      40.471  27.549  33.583  1.00  0.00     0.031 C 
ATOM     47  C   UNL A   1      39.667  27.080  27.212  1.00  0.00     0.029 A 
ATOM     48  C   UNL A   1      40.852  26.556  27.877  1.00  0.00     0.049 A 
ATOM     49  H   UNL A   1      41.555  27.080  29.767  1.00  0.00     0.167 HD
ATOM     50  C   UNL A   1      42.973  28.099  33.692  1.00  0.00     0.031 A 
ATOM     51  C   UNL A   1      41.785  25.669  27.454  1.00  0.00     0.031 A 
ATOM     52  C   UNL A   1      43.887  28.959  32.981  1.00  0.00     0.049 A 
ATOM     53  C   UNL A   1      43.052  25.995  28.162  1.00  0.00     0.074 A 
ATOM     54  C   UNL A   1      43.954  30.323  32.764  1.00  0.00     0.029 A 
ATOM     55  N   UNL A   1      44.680  28.386  32.011  1.00  0.00    -0.354 N 
ATOM     56  N   UNL A   1      43.739  27.084  27.955  1.00  0.00    -0.248 NA
ATOM     57  C   UNL A   1      43.380  25.275  29.382  1.00  0.00     0.031 C 
ATOM     58  C   UNL A   1      44.388  30.464  31.413  1.00  0.00     0.029 A 
ATOM     59  C   UNL A   1      44.607  29.184  30.895  1.00  0.00     0.049 A 
ATOM     60  H   UNL A   1      45.203  27.556  32.102  1.00  0.00     0.167 HD
ATOM     61  C   UNL A   1      44.282  27.407  29.190  1.00  0.00     0.074 A 
ATOM     62  C   UNL A   1      44.114  26.204  29.999  1.00  0.00     0.031 C 
ATOM     63  C   UNL A   1      44.589  28.696  29.526  1.00  0.00     0.031 A 
BRANCH  50  64
ATOM     64  C   UNL A   1      43.428  27.042  34.651  1.00  0.00    -0.014 A 
ATOM     65  C   UNL A   1      43.696  25.715  34.258  1.00  0.00     0.010 A 
ATOM     66  C   UNL A   1      43.806  27.417  35.954  1.00  0.00     0.010 A 
ATOM     67  C   UNL A   1      44.281  24.794  35.126  1.00  0.00     0.020 A 
ATOM     68  C   UNL A   1      44.437  26.513  36.818  1.00  0.00     0.020 A 
ATOM     69  C   UNL A   1      44.663  25.203  36.397  1.00  0.00     0.054 A 
BRANCH  69  70
ATOM     70  S   UNL A   1      45.534  24.017  37.446  1.00  0.00     0.124 S 
ATOM     71  O   UNL A   1      45.233  22.751  36.781  1.00  0.00    -0.237 OA
ATOM     72  O   UNL A   1      46.919  24.469  37.345  1.00  0.00    -0.237 OA
ATOM     73  O   UNL A   1      44.914  24.197  38.756  1.00  0.00    -0.744 OA
ENDBRANCH  69  70
ENDBRANCH  50  64
BRANCH  51  74
ATOM     74  C   UNL A   1      41.550  24.323  26.871  1.00  0.00    -0.014 A 
ATOM     75  C   UNL A   1      40.630  23.445  27.476  1.00  0.00     0.010 A 
ATOM     76  C   UNL A   1      42.464  23.787  25.940  1.00  0.00     0.010 A 
ATOM     77  C   UNL A   1      40.683  22.066  27.236  1.00  0.00     0.020 A 
ATOM     78  C   UNL A   1      42.522  22.404  25.697  1.00  0.00     0.020 A 
ATOM     79  C   UNL A   1      41.655  21.550  26.378  1.00  0.00     0.054 A 
BRANCH  79  80
ATOM     80  S   UNL A   1      41.820  19.747  26.249  1.00  0.00     0.124 S 
ATOM     81  O   UNL A   1      42.909  19.610  25.284  1.00  0.00    -0.237 OA
ATOM     82  O   UNL A   1      42.147  19.362  27.621  1.00  0.00    -0.237 OA
ATOM     83  O   UNL A   1      40.509  19.309  25.779  1.00  0.00    -0.744 OA
ENDBRANCH  79  80
ENDBRANCH  51  74
BRANCH  63  84
ATOM     84  C   UNL A   1      44.639  29.753  28.437  1.00  0.00    -0.014 A 
ATOM     85  C   UNL A   1      45.904  30.256  28.075  1.00  0.00     0.010 A 
ATOM     86  C   UNL A   1      43.497  30.384  27.905  1.00  0.00     0.010 A 
ATOM     87  C   UNL A   1      46.029  31.374  27.245  1.00  0.00     0.020 A 
ATOM     88  C   UNL A   1      43.616  31.491  27.047  1.00  0.00     0.020 A 
ATOM     89  C   UNL A   1      44.883  31.995  26.747  1.00  0.00     0.054 A 
BRANCH  89  90
ATOM     90  S   UNL A   1      45.086  33.486  25.731  1.00  0.00     0.124 S 
ATOM     91  O   UNL A   1      44.519  33.067  24.452  1.00  0.00    -0.237 OA
ATOM     92  O   UNL A   1      44.306  34.484  26.461  1.00  0.00    -0.237 OA
ATOM     93  O   UNL A   1      46.529  33.717  25.724  1.00  0.00    -0.744 OA
ENDBRANCH  89  90
ENDBRANCH  63  84
ENDBRANCH  37  38
ENDBRANCH  30  32
ENDBRANCH  29  30
ENDBRANCH   1  29
TORSDOF 16
ENDMDL
