MODEL 1
REMARK VINA RESULT:     -10.6      0.000      0.000
REMARK SMILES Cc1ccc(CNC(=O)c2csc(/C=C/C(=O)OCCOC(=O)c3ccc(-c4c5nc(c(-c6ccc(S(=O)(=O)[O-])cc6)c6ccc([nH]6)c(-c6ccc(S(=O)(=O)[O-])cc6)c6nc(c(-c7ccc(S(=O)(=O)[O-])cc7)c7ccc4[nH]7)C=C6)C=C5)cc3)c2)s1
REMARK SMILES IDX 19 1 18 2 16 3 17 4 15 5 14 6 13 7 10 8 11 9 84 10 12 11
REMARK SMILES IDX 8 12 7 13 9 15 6 16 5 17 1 18 2 19 3 20 85 21 4 22 20 23
REMARK SMILES IDX 21 24 22 25 23 26 24 27 25 28 83 29 26 30 82 31 27 32 28 33
REMARK SMILES IDX 29 34 76 35 30 36 81 37 75 38 77 39 31 40 80 41 74 42 73 43
REMARK SMILES IDX 32 45 62 46 43 47 61 48 44 49 47 50 60 51 78 52 45 53 46 54
REMARK SMILES IDX 59 56 79 57 48 58 33 59 34 60 42 61 35 62 41 63 36 64 37 65
REMARK SMILES IDX 38 66 39 67 40 68 63 69 64 70 72 71 65 72 71 73 66 74 67 75
REMARK SMILES IDX 68 76 69 77 70 78 49 79 50 80 58 81 51 82 57 83 52 84 53 85
REMARK SMILES IDX 54 86 55 87 56 88
REMARK H PARENT 7 14 77 44 47 55
REMARK Flexibility Score: inf
ROOT
ATOM      1  C   UNL A   1      34.196  31.964  27.724  1.00  0.00     0.275 C 
ENDROOT
BRANCH   1   2
ATOM      2  O   UNL A   1      33.676  30.726  27.206  1.00  0.00    -0.459 OA
BRANCH   2   3
ATOM      3  C   UNL A   1      32.358  30.730  26.895  1.00  0.00     0.330 C 
ATOM      4  O   UNL A   1      31.644  31.717  26.804  1.00  0.00    -0.247 OA
BRANCH   3   5
ATOM      5  C   UNL A   1      31.834  29.380  26.621  1.00  0.00     0.095 C 
ATOM      6  C   UNL A   1      32.268  28.563  25.647  1.00  0.00     0.026 C 
BRANCH   6   7
ATOM      7  C   UNL A   1      31.684  27.279  25.435  1.00  0.00     0.028 A 
ATOM      8  C   UNL A   1      31.100  25.010  25.744  1.00  0.00     0.051 A 
ATOM      9  C   UNL A   1      30.314  25.361  24.665  1.00  0.00     0.079 A 
ATOM     10  C   UNL A   1      31.972  26.097  26.096  1.00  0.00     0.033 A 
ATOM     11  S   UNL A   1      30.507  26.994  24.210  1.00  0.00    -0.144 S 
BRANCH   8  12
ATOM     12  C   UNL A   1      31.022  23.688  26.357  1.00  0.00     0.252 C 
ATOM     13  N   UNL A   1      31.663  22.638  25.752  1.00  0.00    -0.347 N 
ATOM     14  H   UNL A   1      31.479  21.749  26.135  1.00  0.00     0.164 HD
ATOM     15  O   UNL A   1      30.430  23.493  27.416  1.00  0.00    -0.269 OA
BRANCH  13  16
ATOM     16  C   UNL A   1      32.574  22.659  24.629  1.00  0.00     0.163 C 
BRANCH  16  17
ATOM     17  C   UNL A   1      33.986  22.523  25.100  1.00  0.00     0.024 A 
ATOM     18  C   UNL A   1      37.601  23.684  26.085  1.00  0.00     0.056 C 
ATOM     19  C   UNL A   1      36.326  22.995  25.739  1.00  0.00     0.002 A 
ATOM     20  C   UNL A   1      36.085  21.645  25.601  1.00  0.00     0.015 A 
ATOM     21  S   UNL A   1      34.920  23.920  25.440  1.00  0.00    -0.144 S 
ATOM     22  C   UNL A   1      34.735  21.371  25.238  1.00  0.00     0.017 A 
ENDBRANCH  16  17
ENDBRANCH  13  16
ENDBRANCH   8  12
ENDBRANCH   6   7
ENDBRANCH   3   5
ENDBRANCH   2   3
ENDBRANCH   1   2
BRANCH   1  23
ATOM     23  C   UNL A   1      35.004  31.733  29.004  1.00  0.00     0.275 C 
BRANCH  23  24
ATOM     24  O   UNL A   1      35.584  30.416  29.050  1.00  0.00    -0.458 OA
BRANCH  24  25
ATOM     25  C   UNL A   1      36.382  30.176  30.120  1.00  0.00     0.338 C 
ATOM     26  O   UNL A   1      36.066  30.236  31.296  1.00  0.00    -0.246 OA
BRANCH  25  27
ATOM     27  C   UNL A   1      37.703  29.702  29.665  1.00  0.00     0.060 A 
ATOM     28  C   UNL A   1      38.635  29.322  30.635  1.00  0.00     0.016 A 
ATOM     29  C   UNL A   1      38.047  29.692  28.310  1.00  0.00     0.016 A 
ATOM     30  C   UNL A   1      39.917  28.930  30.254  1.00  0.00     0.010 A 
ATOM     31  C   UNL A   1      39.337  29.304  27.931  1.00  0.00     0.010 A 
ATOM     32  C   UNL A   1      40.283  28.931  28.901  1.00  0.00    -0.014 A 
BRANCH  32  33
ATOM     33  C   UNL A   1      41.672  28.581  28.514  1.00  0.00     0.031 A 
ATOM     34  C   UNL A   1      42.744  29.634  28.527  1.00  0.00     0.074 A 
ATOM     35  C   UNL A   1      41.976  27.313  28.179  1.00  0.00     0.049 A 
ATOM     36  N   UNL A   1      44.011  29.526  28.219  1.00  0.00    -0.248 NA
ATOM     37  C   UNL A   1      42.338  30.985  28.941  1.00  0.00     0.031 C 
ATOM     38  C   UNL A   1      41.032  26.196  28.165  1.00  0.00     0.029 A 
ATOM     39  N   UNL A   1      43.167  26.752  27.794  1.00  0.00    -0.354 N 
ATOM     40  C   UNL A   1      44.555  30.791  28.397  1.00  0.00     0.074 A 
ATOM     41  C   UNL A   1      43.473  31.659  28.814  1.00  0.00     0.031 C 
ATOM     42  C   UNL A   1      41.683  25.078  27.801  1.00  0.00     0.029 A 
ATOM     43  C   UNL A   1      43.079  25.407  27.522  1.00  0.00     0.049 A 
ATOM     44  H   UNL A   1      44.005  27.263  27.719  1.00  0.00     0.167 HD
ATOM     45  C   UNL A   1      45.839  31.195  28.234  1.00  0.00     0.031 A 
ATOM     46  C   UNL A   1      44.013  24.541  27.084  1.00  0.00     0.031 A 
ATOM     47  C   UNL A   1      46.910  30.336  27.804  1.00  0.00     0.049 A 
ATOM     48  C   UNL A   1      45.416  25.028  26.842  1.00  0.00     0.074 A 
ATOM     49  C   UNL A   1      48.245  30.651  27.615  1.00  0.00     0.029 A 
ATOM     50  N   UNL A   1      46.771  28.992  27.489  1.00  0.00    -0.354 N 
ATOM     51  N   UNL A   1      45.915  26.227  27.026  1.00  0.00    -0.248 NA
ATOM     52  C   UNL A   1      46.381  24.044  26.332  1.00  0.00     0.031 C 
ATOM     53  C   UNL A   1      48.902  29.510  27.138  1.00  0.00     0.029 A 
ATOM     54  C   UNL A   1      47.987  28.471  27.081  1.00  0.00     0.049 A 
ATOM     55  H   UNL A   1      45.930  28.484  27.546  1.00  0.00     0.167 HD
ATOM     56  C   UNL A   1      47.258  26.136  26.673  1.00  0.00     0.074 A 
ATOM     57  C   UNL A   1      47.495  24.762  26.279  1.00  0.00     0.031 C 
ATOM     58  C   UNL A   1      48.208  27.104  26.680  1.00  0.00     0.031 A 
BRANCH  45  59
ATOM     59  C   UNL A   1      46.142  32.648  28.489  1.00  0.00    -0.014 A 
ATOM     60  C   UNL A   1      46.026  33.606  27.466  1.00  0.00     0.010 A 
ATOM     61  C   UNL A   1      46.533  33.063  29.774  1.00  0.00     0.010 A 
ATOM     62  C   UNL A   1      46.343  34.946  27.713  1.00  0.00     0.020 A 
ATOM     63  C   UNL A   1      46.826  34.404  30.032  1.00  0.00     0.020 A 
ATOM     64  C   UNL A   1      46.750  35.335  28.992  1.00  0.00     0.054 A 
BRANCH  64  65
ATOM     65  S   UNL A   1      47.161  37.077  29.288  1.00  0.00     0.124 S 
ATOM     66  O   UNL A   1      46.128  37.763  28.516  1.00  0.00    -0.237 OA
ATOM     67  O   UNL A   1      47.043  37.195  30.738  1.00  0.00    -0.237 OA
ATOM     68  O   UNL A   1      48.519  37.207  28.764  1.00  0.00    -0.744 OA
ENDBRANCH  64  65
ENDBRANCH  45  59
BRANCH  46  69
ATOM     69  C   UNL A   1      43.644  23.121  26.837  1.00  0.00    -0.014 A 
ATOM     70  C   UNL A   1      43.084  22.338  27.861  1.00  0.00     0.010 A 
ATOM     71  C   UNL A   1      43.835  22.550  25.565  1.00  0.00     0.010 A 
ATOM     72  C   UNL A   1      42.727  21.008  27.620  1.00  0.00     0.020 A 
ATOM     73  C   UNL A   1      43.456  21.229  25.313  1.00  0.00     0.020 A 
ATOM     74  C   UNL A   1      42.913  20.463  26.346  1.00  0.00     0.054 A 
BRANCH  74  75
ATOM     75  S   UNL A   1      42.382  18.755  26.036  1.00  0.00     0.124 S 
ATOM     76  O   UNL A   1      40.984  18.936  25.659  1.00  0.00    -0.237 OA
ATOM     77  O   UNL A   1      43.279  18.334  24.962  1.00  0.00    -0.237 OA
ATOM     78  O   UNL A   1      42.604  18.091  27.318  1.00  0.00    -0.744 OA
ENDBRANCH  74  75
ENDBRANCH  46  69
BRANCH  58  79
ATOM     79  C   UNL A   1      49.600  26.706  26.266  1.00  0.00    -0.014 A 
ATOM     80  C   UNL A   1      50.521  26.204  27.201  1.00  0.00     0.010 A 
ATOM     81  C   UNL A   1      49.973  26.790  24.912  1.00  0.00     0.010 A 
ATOM     82  C   UNL A   1      51.803  25.820  26.795  1.00  0.00     0.020 A 
ATOM     83  C   UNL A   1      51.245  26.385  24.497  1.00  0.00     0.020 A 
ATOM     84  C   UNL A   1      52.157  25.916  25.445  1.00  0.00     0.054 A 
BRANCH  84  85
ATOM     85  S   UNL A   1      53.811  25.372  24.934  1.00  0.00     0.124 S 
ATOM     86  O   UNL A   1      53.965  26.040  23.644  1.00  0.00    -0.237 OA
ATOM     87  O   UNL A   1      54.662  25.876  26.008  1.00  0.00    -0.237 OA
ATOM     88  O   UNL A   1      53.693  23.917  24.872  1.00  0.00    -0.744 OA
ENDBRANCH  84  85
ENDBRANCH  58  79
ENDBRANCH  32  33
ENDBRANCH  25  27
ENDBRANCH  24  25
ENDBRANCH  23  24
ENDBRANCH   1  23
TORSDOF 18
ENDMDL
MODEL 2
REMARK VINA RESULT:     -10.6      6.254     12.449
REMARK SMILES Cc1ccc(CNC(=O)c2csc(/C=C/C(=O)OCCOC(=O)c3ccc(-c4c5nc(c(-c6ccc(S(=O)(=O)[O-])cc6)c6ccc([nH]6)c(-c6ccc(S(=O)(=O)[O-])cc6)c6nc(c(-c7ccc(S(=O)(=O)[O-])cc7)c7ccc4[nH]7)C=C6)C=C5)cc3)c2)s1
REMARK SMILES IDX 19 1 18 2 16 3 17 4 15 5 14 6 13 7 10 8 11 9 84 10 12 11
REMARK SMILES IDX 8 12 7 13 9 15 6 16 5 17 1 18 2 19 3 20 85 21 4 22 20 23
REMARK SMILES IDX 21 24 22 25 23 26 24 27 25 28 83 29 26 30 82 31 27 32 28 33
REMARK SMILES IDX 29 34 76 35 30 36 81 37 75 38 77 39 31 40 80 41 74 42 73 43
REMARK SMILES IDX 32 45 62 46 43 47 61 48 44 49 47 50 60 51 78 52 45 53 46 54
REMARK SMILES IDX 59 56 79 57 48 58 33 59 34 60 42 61 35 62 41 63 36 64 37 65
REMARK SMILES IDX 38 66 39 67 40 68 63 69 64 70 72 71 65 72 71 73 66 74 67 75
REMARK SMILES IDX 68 76 69 77 70 78 49 79 50 80 58 81 51 82 57 83 52 84 53 85
REMARK SMILES IDX 54 86 55 87 56 88
REMARK H PARENT 7 14 77 44 47 55
REMARK Flexibility Score: inf
ROOT
ATOM      1  C   UNL A   1      41.657  21.775  26.706  1.00  0.00     0.275 C 
ENDROOT
BRANCH   1   2
ATOM      2  O   UNL A   1      40.231  21.767  26.907  1.00  0.00    -0.459 OA
BRANCH   2   3
ATOM      3  C   UNL A   1      39.528  20.963  26.076  1.00  0.00     0.330 C 
ATOM      4  O   UNL A   1      39.887  19.873  25.656  1.00  0.00    -0.247 OA
BRANCH   3   5
ATOM      5  C   UNL A   1      38.207  21.518  25.730  1.00  0.00     0.095 C 
ATOM      6  C   UNL A   1      37.280  20.902  24.979  1.00  0.00     0.026 C 
BRANCH   6   7
ATOM      7  C   UNL A   1      36.035  21.526  24.671  1.00  0.00     0.028 A 
ATOM      8  C   UNL A   1      34.405  22.854  23.591  1.00  0.00     0.051 A 
ATOM      9  C   UNL A   1      33.647  22.179  24.526  1.00  0.00     0.079 A 
ATOM     10  C   UNL A   1      35.799  22.552  23.773  1.00  0.00     0.033 A 
ATOM     11  S   UNL A   1      34.569  21.099  25.471  1.00  0.00    -0.144 S 
BRANCH   8  12
ATOM     12  C   UNL A   1      33.803  23.756  22.615  1.00  0.00     0.252 C 
ATOM     13  N   UNL A   1      33.557  25.056  22.978  1.00  0.00    -0.347 N 
ATOM     14  H   UNL A   1      33.041  25.588  22.331  1.00  0.00     0.164 HD
ATOM     15  O   UNL A   1      33.541  23.399  21.469  1.00  0.00    -0.269 OA
BRANCH  13  16
ATOM     16  C   UNL A   1      33.957  25.751  24.181  1.00  0.00     0.163 C 
BRANCH  16  17
ATOM     17  C   UNL A   1      32.936  26.775  24.556  1.00  0.00     0.024 A 
ATOM     18  C   UNL A   1      30.375  29.699  24.023  1.00  0.00     0.056 C 
ATOM     19  C   UNL A   1      31.303  28.629  24.487  1.00  0.00     0.002 A 
ATOM     20  C   UNL A   1      31.659  28.295  25.776  1.00  0.00     0.015 A 
ATOM     21  S   UNL A   1      32.094  27.641  23.339  1.00  0.00    -0.144 S 
ATOM     22  C   UNL A   1      32.595  27.223  25.818  1.00  0.00     0.017 A 
ENDBRANCH  16  17
ENDBRANCH  13  16
ENDBRANCH   8  12
ENDBRANCH   6   7
ENDBRANCH   3   5
ENDBRANCH   2   3
ENDBRANCH   1   2
BRANCH   1  23
ATOM     23  C   UNL A   1      42.147  23.158  26.265  1.00  0.00     0.275 C 
BRANCH  23  24
ATOM     24  O   UNL A   1      41.113  24.155  26.358  1.00  0.00    -0.458 OA
BRANCH  24  25
ATOM     25  C   UNL A   1      41.500  25.416  26.043  1.00  0.00     0.338 C 
ATOM     26  O   UNL A   1      41.960  25.795  24.979  1.00  0.00    -0.246 OA
BRANCH  25  27
ATOM     27  C   UNL A   1      41.178  26.332  27.153  1.00  0.00     0.060 A 
ATOM     28  C   UNL A   1      41.881  27.538  27.236  1.00  0.00     0.016 A 
ATOM     29  C   UNL A   1      40.246  25.988  28.136  1.00  0.00     0.016 A 
ATOM     30  C   UNL A   1      41.657  28.404  28.304  1.00  0.00     0.010 A 
ATOM     31  C   UNL A   1      40.026  26.858  29.210  1.00  0.00     0.010 A 
ATOM     32  C   UNL A   1      40.737  28.066  29.306  1.00  0.00    -0.014 A 
BRANCH  32  33
ATOM     33  C   UNL A   1      40.559  28.962  30.474  1.00  0.00     0.031 A 
ATOM     34  C   UNL A   1      41.453  28.822  31.674  1.00  0.00     0.074 A 
ATOM     35  C   UNL A   1      39.614  29.922  30.446  1.00  0.00     0.049 A 
ATOM     36  N   UNL A   1      41.451  29.506  32.790  1.00  0.00    -0.248 NA
ATOM     37  C   UNL A   1      42.485  27.776  31.610  1.00  0.00     0.031 C 
ATOM     38  C   UNL A   1      38.710  30.181  29.325  1.00  0.00     0.029 A 
ATOM     39  N   UNL A   1      39.263  30.858  31.385  1.00  0.00    -0.354 N 
ATOM     40  C   UNL A   1      42.475  28.973  33.564  1.00  0.00     0.074 A 
ATOM     41  C   UNL A   1      43.059  27.890  32.800  1.00  0.00     0.031 C 
ATOM     42  C   UNL A   1      37.916  31.219  29.637  1.00  0.00     0.029 A 
ATOM     43  C   UNL A   1      38.229  31.672  30.991  1.00  0.00     0.049 A 
ATOM     44  H   UNL A   1      39.711  30.940  32.258  1.00  0.00     0.167 HD
ATOM     45  C   UNL A   1      42.895  29.353  34.795  1.00  0.00     0.031 A 
ATOM     46  C   UNL A   1      37.595  32.662  31.649  1.00  0.00     0.031 A 
ATOM     47  C   UNL A   1      42.303  30.420  35.560  1.00  0.00     0.049 A 
ATOM     48  C   UNL A   1      38.032  33.019  33.043  1.00  0.00     0.074 A 
ATOM     49  C   UNL A   1      42.662  30.883  36.814  1.00  0.00     0.029 A 
ATOM     50  N   UNL A   1      41.223  31.187  35.147  1.00  0.00    -0.354 N 
ATOM     51  N   UNL A   1      39.009  32.511  33.756  1.00  0.00    -0.248 NA
ATOM     52  C   UNL A   1      37.279  34.083  33.722  1.00  0.00     0.031 C 
ATOM     53  C   UNL A   1      41.768  31.896  37.180  1.00  0.00     0.029 A 
ATOM     54  C   UNL A   1      40.886  32.101  36.131  1.00  0.00     0.049 A 
ATOM     55  H   UNL A   1      40.764  31.094  34.281  1.00  0.00     0.167 HD
ATOM     56  C   UNL A   1      39.002  33.209  34.960  1.00  0.00     0.074 A 
ATOM     57  C   UNL A   1      37.932  34.182  34.873  1.00  0.00     0.031 C 
ATOM     58  C   UNL A   1      39.812  33.057  36.037  1.00  0.00     0.031 A 
BRANCH  45  59
ATOM     59  C   UNL A   1      44.032  28.578  35.405  1.00  0.00    -0.014 A 
ATOM     60  C   UNL A   1      45.366  28.998  35.250  1.00  0.00     0.010 A 
ATOM     61  C   UNL A   1      43.762  27.421  36.158  1.00  0.00     0.010 A 
ATOM     62  C   UNL A   1      46.411  28.247  35.796  1.00  0.00     0.020 A 
ATOM     63  C   UNL A   1      44.802  26.682  36.727  1.00  0.00     0.020 A 
ATOM     64  C   UNL A   1      46.124  27.088  36.523  1.00  0.00     0.054 A 
BRANCH  64  65
ATOM     65  S   UNL A   1      47.497  26.128  37.218  1.00  0.00     0.124 S 
ATOM     66  O   UNL A   1      46.949  24.773  37.209  1.00  0.00    -0.237 OA
ATOM     67  O   UNL A   1      48.577  26.374  36.266  1.00  0.00    -0.237 OA
ATOM     68  O   UNL A   1      47.693  26.711  38.543  1.00  0.00    -0.744 OA
ENDBRANCH  64  65
ENDBRANCH  45  59
BRANCH  46  69
ATOM     69  C   UNL A   1      36.467  33.379  30.995  1.00  0.00    -0.014 A 
ATOM     70  C   UNL A   1      35.245  33.555  31.666  1.00  0.00     0.010 A 
ATOM     71  C   UNL A   1      36.619  33.906  29.699  1.00  0.00     0.010 A 
ATOM     72  C   UNL A   1      34.193  34.242  31.052  1.00  0.00     0.020 A 
ATOM     73  C   UNL A   1      35.578  34.613  29.091  1.00  0.00     0.020 A 
ATOM     74  C   UNL A   1      34.367  34.768  29.769  1.00  0.00     0.054 A 
BRANCH  74  75
ATOM     75  S   UNL A   1      33.012  35.712  29.015  1.00  0.00     0.124 S 
ATOM     76  O   UNL A   1      32.368  34.703  28.181  1.00  0.00    -0.237 OA
ATOM     77  O   UNL A   1      32.248  36.153  30.179  1.00  0.00    -0.237 OA
ATOM     78  O   UNL A   1      33.700  36.778  28.291  1.00  0.00    -0.744 OA
ENDBRANCH  74  75
ENDBRANCH  46  69
BRANCH  58  79
ATOM     79  C   UNL A   1      39.584  33.979  37.205  1.00  0.00    -0.014 A 
ATOM     80  C   UNL A   1      38.819  33.575  38.313  1.00  0.00     0.010 A 
ATOM     81  C   UNL A   1      40.188  35.250  37.216  1.00  0.00     0.010 A 
ATOM     82  C   UNL A   1      38.635  34.437  39.398  1.00  0.00     0.020 A 
ATOM     83  C   UNL A   1      40.027  36.106  38.309  1.00  0.00     0.020 A 
ATOM     84  C   UNL A   1      39.239  35.698  39.388  1.00  0.00     0.054 A 
BRANCH  84  85
ATOM     85  S   UNL A   1      39.022  36.784  40.826  1.00  0.00     0.124 S 
ATOM     86  O   UNL A   1      40.399  36.984  41.266  1.00  0.00    -0.237 OA
ATOM     87  O   UNL A   1      38.369  37.956  40.249  1.00  0.00    -0.237 OA
ATOM     88  O   UNL A   1      38.186  35.997  41.730  1.00  0.00    -0.744 OA
ENDBRANCH  84  85
ENDBRANCH  58  79
ENDBRANCH  32  33
ENDBRANCH  25  27
ENDBRANCH  24  25
ENDBRANCH  23  24
ENDBRANCH   1  23
TORSDOF 18
ENDMDL
MODEL 3
REMARK VINA RESULT:     -10.6      6.852     12.614
REMARK SMILES Cc1ccc(CNC(=O)c2csc(/C=C/C(=O)OCCOC(=O)c3ccc(-c4c5nc(c(-c6ccc(S(=O)(=O)[O-])cc6)c6ccc([nH]6)c(-c6ccc(S(=O)(=O)[O-])cc6)c6nc(c(-c7ccc(S(=O)(=O)[O-])cc7)c7ccc4[nH]7)C=C6)C=C5)cc3)c2)s1
REMARK SMILES IDX 19 1 18 2 16 3 17 4 15 5 14 6 13 7 10 8 11 9 84 10 12 11
REMARK SMILES IDX 8 12 7 13 9 15 6 16 5 17 1 18 2 19 3 20 85 21 4 22 20 23
REMARK SMILES IDX 21 24 22 25 23 26 24 27 25 28 83 29 26 30 82 31 27 32 28 33
REMARK SMILES IDX 29 34 76 35 30 36 81 37 75 38 77 39 31 40 80 41 74 42 73 43
REMARK SMILES IDX 32 45 62 46 43 47 61 48 44 49 47 50 60 51 78 52 45 53 46 54
REMARK SMILES IDX 59 56 79 57 48 58 33 59 34 60 42 61 35 62 41 63 36 64 37 65
REMARK SMILES IDX 38 66 39 67 40 68 63 69 64 70 72 71 65 72 71 73 66 74 67 75
REMARK SMILES IDX 68 76 69 77 70 78 49 79 50 80 58 81 51 82 57 83 52 84 53 85
REMARK SMILES IDX 54 86 55 87 56 88
REMARK H PARENT 7 14 77 44 47 55
REMARK Flexibility Score: inf
ROOT
ATOM      1  C   UNL A   1      38.020  22.948  26.130  1.00  0.00     0.275 C 
ENDROOT
BRANCH   1   2
ATOM      2  O   UNL A   1      38.390  21.820  25.315  1.00  0.00    -0.459 OA
BRANCH   2   3
ATOM      3  C   UNL A   1      37.426  20.886  25.137  1.00  0.00     0.330 C 
ATOM      4  O   UNL A   1      37.607  19.696  24.931  1.00  0.00    -0.247 OA
BRANCH   3   5
ATOM      5  C   UNL A   1      36.066  21.442  25.258  1.00  0.00     0.095 C 
ATOM      6  C   UNL A   1      34.952  20.880  24.763  1.00  0.00     0.026 C 
BRANCH   6   7
ATOM      7  C   UNL A   1      33.676  21.502  24.904  1.00  0.00     0.028 A 
ATOM      8  C   UNL A   1      31.906  22.800  25.781  1.00  0.00     0.051 A 
ATOM      9  C   UNL A   1      31.403  22.427  24.551  1.00  0.00     0.079 A 
ATOM     10  C   UNL A   1      33.169  22.155  26.015  1.00  0.00     0.033 A 
ATOM     11  S   UNL A   1      32.494  21.474  23.651  1.00  0.00    -0.144 S 
BRANCH   8  12
ATOM     12  C   UNL A   1      31.177  23.696  26.673  1.00  0.00     0.252 C 
ATOM     13  N   UNL A   1      31.609  24.990  26.810  1.00  0.00    -0.347 N 
ATOM     14  H   UNL A   1      31.161  25.516  27.511  1.00  0.00     0.164 HD
ATOM     15  O   UNL A   1      30.169  23.339  27.278  1.00  0.00    -0.269 OA
BRANCH  13  16
ATOM     16  C   UNL A   1      32.631  25.687  26.061  1.00  0.00     0.163 C 
BRANCH  16  17
ATOM     17  C   UNL A   1      32.045  26.313  24.836  1.00  0.00     0.024 A 
ATOM     18  C   UNL A   1      29.684  28.633  22.732  1.00  0.00     0.056 C 
ATOM     19  C   UNL A   1      30.654  27.652  23.294  1.00  0.00     0.002 A 
ATOM     20  C   UNL A   1      31.391  26.692  22.632  1.00  0.00     0.015 A 
ATOM     21  S   UNL A   1      30.949  27.623  24.977  1.00  0.00    -0.144 S 
ATOM     22  C   UNL A   1      32.198  25.924  23.520  1.00  0.00     0.017 A 
ENDBRANCH  16  17
ENDBRANCH  13  16
ENDBRANCH   8  12
ENDBRANCH   6   7
ENDBRANCH   3   5
ENDBRANCH   2   3
ENDBRANCH   1   2
BRANCH   1  23
ATOM     23  C   UNL A   1      39.254  23.747  26.562  1.00  0.00     0.275 C 
BRANCH  23  24
ATOM     24  O   UNL A   1      38.921  25.096  26.940  1.00  0.00    -0.458 OA
BRANCH  24  25
ATOM     25  C   UNL A   1      39.962  25.965  26.941  1.00  0.00     0.338 C 
ATOM     26  O   UNL A   1      40.789  26.117  26.058  1.00  0.00    -0.246 OA
BRANCH  25  27
ATOM     27  C   UNL A   1      39.902  26.819  28.142  1.00  0.00     0.060 A 
ATOM     28  C   UNL A   1      40.639  28.007  28.142  1.00  0.00     0.016 A 
ATOM     29  C   UNL A   1      39.185  26.431  29.278  1.00  0.00     0.016 A 
ATOM     30  C   UNL A   1      40.664  28.812  29.280  1.00  0.00     0.010 A 
ATOM     31  C   UNL A   1      39.216  27.239  30.420  1.00  0.00     0.010 A 
ATOM     32  C   UNL A   1      39.964  28.428  30.432  1.00  0.00    -0.014 A 
BRANCH  32  33
ATOM     33  C   UNL A   1      40.056  29.257  31.659  1.00  0.00     0.031 A 
ATOM     34  C   UNL A   1      41.184  29.043  32.629  1.00  0.00     0.074 A 
ATOM     35  C   UNL A   1      39.144  30.221  31.888  1.00  0.00     0.049 A 
ATOM     36  N   UNL A   1      41.434  29.661  33.754  1.00  0.00    -0.248 NA
ATOM     37  C   UNL A   1      42.160  27.997  32.286  1.00  0.00     0.031 C 
ATOM     38  C   UNL A   1      38.026  30.549  31.004  1.00  0.00     0.029 A 
ATOM     39  N   UNL A   1      39.019  31.103  32.931  1.00  0.00    -0.354 N 
ATOM     40  C   UNL A   1      42.591  29.080  34.259  1.00  0.00     0.074 A 
ATOM     41  C   UNL A   1      42.978  28.040  33.329  1.00  0.00     0.031 C 
ATOM     42  C   UNL A   1      37.335  31.571  31.537  1.00  0.00     0.029 A 
ATOM     43  C   UNL A   1      37.938  31.944  32.814  1.00  0.00     0.049 A 
ATOM     44  H   UNL A   1      39.645  31.132  33.690  1.00  0.00     0.167 HD
ATOM     45  C   UNL A   1      43.272  29.386  35.390  1.00  0.00     0.031 A 
ATOM     46  C   UNL A   1      37.477  32.896  33.648  1.00  0.00     0.031 A 
ATOM     47  C   UNL A   1      42.877  30.409  36.322  1.00  0.00     0.049 A 
ATOM     48  C   UNL A   1      38.210  33.170  34.933  1.00  0.00     0.074 A 
ATOM     49  C   UNL A   1      43.504  30.797  37.493  1.00  0.00     0.029 A 
ATOM     50  N   UNL A   1      41.747  31.204  36.195  1.00  0.00    -0.354 N 
ATOM     51  N   UNL A   1      39.309  32.617  35.389  1.00  0.00    -0.248 NA
ATOM     52  C   UNL A   1      37.639  34.197  35.816  1.00  0.00     0.031 C 
ATOM     53  C   UNL A   1      42.728  31.792  38.099  1.00  0.00     0.029 A 
ATOM     54  C   UNL A   1      41.644  32.061  37.278  1.00  0.00     0.049 A 
ATOM     55  H   UNL A   1      41.111  31.164  35.444  1.00  0.00     0.167 HD
ATOM     56  C   UNL A   1      39.572  33.244  36.603  1.00  0.00     0.074 A 
ATOM     57  C   UNL A   1      38.525  34.226  36.803  1.00  0.00     0.031 C 
ATOM     58  C   UNL A   1      40.591  33.026  37.470  1.00  0.00     0.031 A 
BRANCH  45  59
ATOM     59  C   UNL A   1      44.500  28.571  35.697  1.00  0.00    -0.014 A 
ATOM     60  C   UNL A   1      45.769  28.965  35.237  1.00  0.00     0.010 A 
ATOM     61  C   UNL A   1      44.385  27.402  36.470  1.00  0.00     0.010 A 
ATOM     62  C   UNL A   1      46.894  28.179  35.504  1.00  0.00     0.020 A 
ATOM     63  C   UNL A   1      45.510  26.626  36.761  1.00  0.00     0.020 A 
ATOM     64  C   UNL A   1      46.756  27.008  36.256  1.00  0.00     0.054 A 
BRANCH  64  65
ATOM     65  S   UNL A   1      48.228  26.001  36.586  1.00  0.00     0.124 S 
ATOM     66  O   UNL A   1      48.895  26.777  37.629  1.00  0.00    -0.237 OA
ATOM     67  O   UNL A   1      47.659  24.728  37.018  1.00  0.00    -0.237 OA
ATOM     68  O   UNL A   1      48.920  25.966  35.299  1.00  0.00    -0.744 OA
ENDBRANCH  64  65
ENDBRANCH  45  59
BRANCH  46  69
ATOM     69  C   UNL A   1      36.248  33.655  33.292  1.00  0.00    -0.014 A 
ATOM     70  C   UNL A   1      36.338  34.913  32.671  1.00  0.00     0.010 A 
ATOM     71  C   UNL A   1      34.978  33.111  33.558  1.00  0.00     0.010 A 
ATOM     72  C   UNL A   1      35.179  35.616  32.327  1.00  0.00     0.020 A 
ATOM     73  C   UNL A   1      33.818  33.800  33.193  1.00  0.00     0.020 A 
ATOM     74  C   UNL A   1      33.926  35.054  32.588  1.00  0.00     0.054 A 
BRANCH  74  75
ATOM     75  S   UNL A   1      32.436  35.953  32.075  1.00  0.00     0.124 S 
ATOM     76  O   UNL A   1      32.633  36.070  30.634  1.00  0.00    -0.237 OA
ATOM     77  O   UNL A   1      31.362  35.056  32.497  1.00  0.00    -0.237 OA
ATOM     78  O   UNL A   1      32.519  37.206  32.822  1.00  0.00    -0.744 OA
ENDBRANCH  74  75
ENDBRANCH  46  69
BRANCH  58  79
ATOM     79  C   UNL A   1      40.636  33.880  38.709  1.00  0.00    -0.014 A 
ATOM     80  C   UNL A   1      41.305  35.117  38.716  1.00  0.00     0.010 A 
ATOM     81  C   UNL A   1      39.956  33.462  39.868  1.00  0.00     0.010 A 
ATOM     82  C   UNL A   1      41.319  35.907  39.870  1.00  0.00     0.020 A 
ATOM     83  C   UNL A   1      39.947  34.259  41.016  1.00  0.00     0.020 A 
ATOM     84  C   UNL A   1      40.641  35.471  41.013  1.00  0.00     0.054 A 
BRANCH  84  85
ATOM     85  S   UNL A   1      40.637  36.532  42.485  1.00  0.00     0.124 S 
ATOM     86  O   UNL A   1      41.587  35.847  43.356  1.00  0.00    -0.237 OA
ATOM     87  O   UNL A   1      41.082  37.819  41.957  1.00  0.00    -0.237 OA
ATOM     88  O   UNL A   1      39.246  36.499  42.931  1.00  0.00    -0.744 OA
ENDBRANCH  84  85
ENDBRANCH  58  79
ENDBRANCH  32  33
ENDBRANCH  25  27
ENDBRANCH  24  25
ENDBRANCH  23  24
ENDBRANCH   1  23
TORSDOF 18
ENDMDL
