MODEL 1
REMARK VINA RESULT:      -9.3      0.000      0.000
REMARK SMILES COC(=O)c1ccc(Cl)c(-c2ccc(C(=O)OCCOC(=O)c3ccc(-c4c5nc(c(-c6ccc(S(=O)(=O)[O-])cc6)c6ccc([nH]6)c(-c6ccc(S(=O)(=O)[O-])cc6)c6nc(c(-c7ccc(S(=O)(=O)[O-])cc7)c7ccc4[nH]7)C=C6)C=C5)cc3)nc2)c1
REMARK SMILES IDX 18 1 17 2 15 3 16 4 14 5 11 6 12 7 84 8 13 9 83 10 10 11
REMARK SMILES IDX 5 12 6 13 85 14 7 15 8 16 9 17 3 18 4 19 2 20 1 21 19 22
REMARK SMILES IDX 20 23 21 24 22 25 23 26 24 27 82 28 25 29 81 30 26 31 27 32
REMARK SMILES IDX 28 33 75 34 29 35 80 36 74 37 76 38 30 39 79 40 73 41 72 42
REMARK SMILES IDX 31 44 61 45 42 46 60 47 43 48 46 49 59 50 77 51 44 52 45 53
REMARK SMILES IDX 58 55 78 56 47 57 32 58 33 59 41 60 34 61 40 62 35 63 36 64
REMARK SMILES IDX 37 65 38 66 39 67 62 68 63 69 71 70 64 71 70 72 65 73 66 74
REMARK SMILES IDX 67 75 68 76 69 77 48 78 49 79 57 80 50 81 56 82 51 83 52 84
REMARK SMILES IDX 53 85 54 86 55 87
REMARK H PARENT 76 43 46 54
REMARK Flexibility Score: inf
ROOT
ATOM      1  C   UNL A   1      33.304  34.189  28.810  1.00  0.00     0.275 C 
ENDROOT
BRANCH   1   2
ATOM      2  O   UNL A   1      34.038  35.025  29.732  1.00  0.00    -0.457 OA
BRANCH   2   3
ATOM      3  C   UNL A   1      33.773  34.801  31.049  1.00  0.00     0.357 C 
ATOM      4  O   UNL A   1      32.701  35.016  31.593  1.00  0.00    -0.244 OA
BRANCH   3   5
ATOM      5  C   UNL A   1      34.936  34.153  31.740  1.00  0.00     0.148 A 
ATOM      6  C   UNL A   1      37.227  33.078  32.868  1.00  0.00     0.002 A 
ATOM      7  C   UNL A   1      35.997  32.964  33.529  1.00  0.00     0.013 A 
ATOM      8  C   UNL A   1      37.218  33.745  31.648  1.00  0.00     0.120 A 
ATOM      9  C   UNL A   1      34.836  33.518  32.970  1.00  0.00     0.037 A 
ATOM     10  N   UNL A   1      36.112  34.244  31.065  1.00  0.00    -0.249 NA
BRANCH   6  11
ATOM     11  C   UNL A   1      38.469  32.469  33.360  1.00  0.00     0.003 A 
ATOM     12  C   UNL A   1      39.827  30.464  33.722  1.00  0.00     0.060 A 
ATOM     13  C   UNL A   1      40.725  31.201  34.499  1.00  0.00     0.017 A 
ATOM     14  C   UNL A   1      38.715  31.097  33.143  1.00  0.00     0.026 A 
ATOM     15  C   UNL A   1      40.508  32.563  34.706  1.00  0.00     0.022 A 
ATOM     16  C   UNL A   1      39.390  33.190  34.148  1.00  0.00     0.048 A 
ATOM     17  Cl  UNL A   1      39.168  34.871  34.503  1.00  0.00    -0.084 Cl
BRANCH  12  18
ATOM     18  C   UNL A   1      40.017  29.009  33.499  1.00  0.00     0.337 C 
ATOM     19  O   UNL A   1      40.686  28.301  34.225  1.00  0.00    -0.246 OA
BRANCH  18  20
ATOM     20  O   UNL A   1      39.384  28.643  32.356  1.00  0.00    -0.465 OA
ATOM     21  C   UNL A   1      38.552  27.490  32.492  1.00  0.00     0.282 C 
ENDBRANCH  18  20
ENDBRANCH  12  18
ENDBRANCH   6  11
ENDBRANCH   3   5
ENDBRANCH   2   3
ENDBRANCH   1   2
BRANCH   1  22
ATOM     22  C   UNL A   1      34.213  33.171  28.109  1.00  0.00     0.275 C 
BRANCH  22  23
ATOM     23  O   UNL A   1      34.439  31.992  28.906  1.00  0.00    -0.458 OA
BRANCH  23  24
ATOM     24  C   UNL A   1      34.444  30.833  28.206  1.00  0.00     0.338 C 
ATOM     25  O   UNL A   1      33.537  30.394  27.516  1.00  0.00    -0.246 OA
BRANCH  24  26
ATOM     26  C   UNL A   1      35.758  30.176  28.288  1.00  0.00     0.060 A 
ATOM     27  C   UNL A   1      36.177  29.751  29.545  1.00  0.00     0.016 A 
ATOM     28  C   UNL A   1      36.636  30.130  27.207  1.00  0.00     0.016 A 
ATOM     29  C   UNL A   1      37.493  29.362  29.762  1.00  0.00     0.010 A 
ATOM     30  C   UNL A   1      37.948  29.679  27.412  1.00  0.00     0.010 A 
ATOM     31  C   UNL A   1      38.400  29.329  28.699  1.00  0.00    -0.014 A 
BRANCH  31  32
ATOM     32  C   UNL A   1      39.825  28.994  28.969  1.00  0.00     0.031 A 
ATOM     33  C   UNL A   1      40.729  30.017  29.607  1.00  0.00     0.074 A 
ATOM     34  C   UNL A   1      40.294  27.760  28.696  1.00  0.00     0.049 A 
ATOM     35  N   UNL A   1      42.015  29.947  29.850  1.00  0.00    -0.248 NA
ATOM     36  C   UNL A   1      40.111  31.286  30.023  1.00  0.00     0.031 C 
ATOM     37  C   UNL A   1      39.506  26.656  28.140  1.00  0.00     0.029 A 
ATOM     38  N   UNL A   1      41.547  27.220  28.859  1.00  0.00    -0.354 N 
ATOM     39  C   UNL A   1      42.364  31.174  30.406  1.00  0.00     0.074 A 
ATOM     40  C   UNL A   1      41.160  31.976  30.448  1.00  0.00     0.031 C 
ATOM     41  C   UNL A   1      40.286  25.570  28.031  1.00  0.00     0.029 A 
ATOM     42  C   UNL A   1      41.644  25.915  28.435  1.00  0.00     0.049 A 
ATOM     43  H   UNL A   1      42.304  27.720  29.242  1.00  0.00     0.167 HD
ATOM     44  C   UNL A   1      43.576  31.592  30.844  1.00  0.00     0.031 A 
ATOM     45  C   UNL A   1      42.711  25.096  28.345  1.00  0.00     0.031 A 
ATOM     46  C   UNL A   1      44.765  30.780  30.817  1.00  0.00     0.049 A 
ATOM     47  C   UNL A   1      44.059  25.608  28.775  1.00  0.00     0.074 A 
ATOM     48  C   UNL A   1      46.040  31.107  31.247  1.00  0.00     0.029 A 
ATOM     49  N   UNL A   1      44.828  29.479  30.338  1.00  0.00    -0.354 N 
ATOM     50  N   UNL A   1      44.374  26.776  29.283  1.00  0.00    -0.248 NA
ATOM     51  C   UNL A   1      45.196  24.691  28.620  1.00  0.00     0.031 C 
ATOM     52  C   UNL A   1      46.885  30.027  30.972  1.00  0.00     0.029 A 
ATOM     53  C   UNL A   1      46.124  29.000  30.439  1.00  0.00     0.049 A 
ATOM     54  H   UNL A   1      44.065  28.972  29.978  1.00  0.00     0.167 HD
ATOM     55  C   UNL A   1      45.741  26.722  29.536  1.00  0.00     0.074 A 
ATOM     56  C   UNL A   1      46.186  25.401  29.141  1.00  0.00     0.031 C 
ATOM     57  C   UNL A   1      46.552  27.680  30.049  1.00  0.00     0.031 A 
BRANCH  44  58
ATOM     58  C   UNL A   1      43.691  33.007  31.352  1.00  0.00    -0.014 A 
ATOM     59  C   UNL A   1      44.133  34.056  30.526  1.00  0.00     0.010 A 
ATOM     60  C   UNL A   1      43.302  33.299  32.673  1.00  0.00     0.010 A 
ATOM     61  C   UNL A   1      44.217  35.362  31.022  1.00  0.00     0.020 A 
ATOM     62  C   UNL A   1      43.356  34.607  33.164  1.00  0.00     0.020 A 
ATOM     63  C   UNL A   1      43.827  35.628  32.338  1.00  0.00     0.054 A 
BRANCH  63  64
ATOM     64  S   UNL A   1      43.917  37.336  32.944  1.00  0.00     0.124 S 
ATOM     65  O   UNL A   1      45.291  37.411  33.433  1.00  0.00    -0.237 OA
ATOM     66  O   UNL A   1      43.635  38.117  31.743  1.00  0.00    -0.237 OA
ATOM     67  O   UNL A   1      42.885  37.393  33.977  1.00  0.00    -0.744 OA
ENDBRANCH  63  64
ENDBRANCH  44  58
BRANCH  45  68
ATOM     68  C   UNL A   1      42.555  23.723  27.788  1.00  0.00    -0.014 A 
ATOM     69  C   UNL A   1      42.701  23.481  26.411  1.00  0.00     0.010 A 
ATOM     70  C   UNL A   1      42.249  22.644  28.640  1.00  0.00     0.010 A 
ATOM     71  C   UNL A   1      42.520  22.194  25.894  1.00  0.00     0.020 A 
ATOM     72  C   UNL A   1      42.104  21.350  28.132  1.00  0.00     0.020 A 
ATOM     73  C   UNL A   1      42.224  21.137  26.759  1.00  0.00     0.054 A 
BRANCH  73  74
ATOM     74  S   UNL A   1      42.027  19.470  26.070  1.00  0.00     0.124 S 
ATOM     75  O   UNL A   1      42.872  19.531  24.880  1.00  0.00    -0.237 OA
ATOM     76  O   UNL A   1      42.520  18.621  27.153  1.00  0.00    -0.237 OA
ATOM     77  O   UNL A   1      40.593  19.371  25.813  1.00  0.00    -0.744 OA
ENDBRANCH  73  74
ENDBRANCH  45  68
BRANCH  57  78
ATOM     78  C   UNL A   1      47.999  27.319  30.265  1.00  0.00    -0.014 A 
ATOM     79  C   UNL A   1      48.973  27.556  29.279  1.00  0.00     0.010 A 
ATOM     80  C   UNL A   1      48.395  26.777  31.503  1.00  0.00     0.010 A 
ATOM     81  C   UNL A   1      50.310  27.222  29.513  1.00  0.00     0.020 A 
ATOM     82  C   UNL A   1      49.735  26.473  31.751  1.00  0.00     0.020 A 
ATOM     83  C   UNL A   1      50.683  26.683  30.749  1.00  0.00     0.054 A 
BRANCH  83  84
ATOM     84  S   UNL A   1      52.430  26.296  31.042  1.00  0.00     0.124 S 
ATOM     85  O   UNL A   1      52.956  26.214  29.681  1.00  0.00    -0.237 OA
ATOM     86  O   UNL A   1      52.885  27.444  31.822  1.00  0.00    -0.237 OA
ATOM     87  O   UNL A   1      52.389  25.031  31.769  1.00  0.00    -0.744 OA
ENDBRANCH  83  84
ENDBRANCH  57  78
ENDBRANCH  31  32
ENDBRANCH  24  26
ENDBRANCH  23  24
ENDBRANCH  22  23
ENDBRANCH   1  22
TORSDOF 17
ENDMDL
MODEL 2
REMARK VINA RESULT:      -9.0      3.819      5.851
REMARK SMILES COC(=O)c1ccc(Cl)c(-c2ccc(C(=O)OCCOC(=O)c3ccc(-c4c5nc(c(-c6ccc(S(=O)(=O)[O-])cc6)c6ccc([nH]6)c(-c6ccc(S(=O)(=O)[O-])cc6)c6nc(c(-c7ccc(S(=O)(=O)[O-])cc7)c7ccc4[nH]7)C=C6)C=C5)cc3)nc2)c1
REMARK SMILES IDX 18 1 17 2 15 3 16 4 14 5 11 6 12 7 84 8 13 9 83 10 10 11
REMARK SMILES IDX 5 12 6 13 85 14 7 15 8 16 9 17 3 18 4 19 2 20 1 21 19 22
REMARK SMILES IDX 20 23 21 24 22 25 23 26 24 27 82 28 25 29 81 30 26 31 27 32
REMARK SMILES IDX 28 33 75 34 29 35 80 36 74 37 76 38 30 39 79 40 73 41 72 42
REMARK SMILES IDX 31 44 61 45 42 46 60 47 43 48 46 49 59 50 77 51 44 52 45 53
REMARK SMILES IDX 58 55 78 56 47 57 32 58 33 59 41 60 34 61 40 62 35 63 36 64
REMARK SMILES IDX 37 65 38 66 39 67 62 68 63 69 71 70 64 71 70 72 65 73 66 74
REMARK SMILES IDX 67 75 68 76 69 77 48 78 49 79 57 80 50 81 56 82 51 83 52 84
REMARK SMILES IDX 53 85 54 86 55 87
REMARK H PARENT 76 43 46 54
REMARK Flexibility Score: inf
ROOT
ATOM      1  C   UNL A   1      34.981  33.504  30.122  1.00  0.00     0.275 C 
ENDROOT
BRANCH   1   2
ATOM      2  O   UNL A   1      34.424  32.296  29.561  1.00  0.00    -0.457 OA
BRANCH   2   3
ATOM      3  C   UNL A   1      33.963  32.413  28.285  1.00  0.00     0.357 C 
ATOM      4  O   UNL A   1      33.708  33.471  27.727  1.00  0.00    -0.244 OA
BRANCH   3   5
ATOM      5  C   UNL A   1      33.903  31.081  27.598  1.00  0.00     0.148 A 
ATOM      6  C   UNL A   1      33.608  28.708  26.200  1.00  0.00     0.002 A 
ATOM      7  C   UNL A   1      34.766  28.941  26.954  1.00  0.00     0.013 A 
ATOM      8  C   UNL A   1      32.651  29.715  26.202  1.00  0.00     0.120 A 
ATOM      9  C   UNL A   1      34.928  30.147  27.653  1.00  0.00     0.037 A 
ATOM     10  N   UNL A   1      32.757  30.861  26.902  1.00  0.00    -0.249 NA
BRANCH   6  11
ATOM     11  C   UNL A   1      33.343  27.446  25.496  1.00  0.00     0.003 A 
ATOM     12  C   UNL A   1      32.728  25.079  25.587  1.00  0.00     0.060 A 
ATOM     13  C   UNL A   1      33.050  24.933  24.235  1.00  0.00     0.017 A 
ATOM     14  C   UNL A   1      32.858  26.330  26.209  1.00  0.00     0.026 A 
ATOM     15  C   UNL A   1      33.511  26.031  23.510  1.00  0.00     0.022 A 
ATOM     16  C   UNL A   1      33.661  27.274  24.133  1.00  0.00     0.048 A 
ATOM     17  Cl  UNL A   1      34.294  28.568  23.172  1.00  0.00    -0.084 Cl
BRANCH  12  18
ATOM     18  C   UNL A   1      32.255  23.926  26.393  1.00  0.00     0.337 C 
ATOM     19  O   UNL A   1      31.467  24.028  27.312  1.00  0.00    -0.246 OA
BRANCH  18  20
ATOM     20  O   UNL A   1      32.880  22.797  25.972  1.00  0.00    -0.465 OA
ATOM     21  C   UNL A   1      34.015  22.430  26.758  1.00  0.00     0.282 C 
ENDBRANCH  18  20
ENDBRANCH  12  18
ENDBRANCH   6  11
ENDBRANCH   3   5
ENDBRANCH   2   3
ENDBRANCH   1   2
BRANCH   1  22
ATOM     22  C   UNL A   1      35.790  33.226  31.396  1.00  0.00     0.275 C 
BRANCH  22  23
ATOM     23  O   UNL A   1      37.014  32.515  31.130  1.00  0.00    -0.458 OA
BRANCH  23  24
ATOM     24  C   UNL A   1      36.952  31.182  31.357  1.00  0.00     0.338 C 
ATOM     25  O   UNL A   1      36.062  30.582  31.940  1.00  0.00    -0.246 OA
BRANCH  24  26
ATOM     26  C   UNL A   1      38.074  30.486  30.708  1.00  0.00     0.060 A 
ATOM     27  C   UNL A   1      38.993  29.854  31.539  1.00  0.00     0.016 A 
ATOM     28  C   UNL A   1      38.325  30.591  29.342  1.00  0.00     0.016 A 
ATOM     29  C   UNL A   1      40.208  29.400  31.041  1.00  0.00     0.010 A 
ATOM     30  C   UNL A   1      39.525  30.078  28.827  1.00  0.00     0.010 A 
ATOM     31  C   UNL A   1      40.495  29.514  29.678  1.00  0.00    -0.014 A 
BRANCH  31  32
ATOM     32  C   UNL A   1      41.836  29.102  29.180  1.00  0.00     0.031 A 
ATOM     33  C   UNL A   1      42.972  30.093  29.176  1.00  0.00     0.074 A 
ATOM     34  C   UNL A   1      42.051  27.831  28.785  1.00  0.00     0.049 A 
ATOM     35  N   UNL A   1      44.188  29.953  28.710  1.00  0.00    -0.248 NA
ATOM     36  C   UNL A   1      42.707  31.414  29.768  1.00  0.00     0.031 C 
ATOM     37  C   UNL A   1      41.054  26.757  28.803  1.00  0.00     0.029 A 
ATOM     38  N   UNL A   1      43.183  27.221  28.300  1.00  0.00    -0.354 N 
ATOM     39  C   UNL A   1      44.817  31.177  28.915  1.00  0.00     0.074 A 
ATOM     40  C   UNL A   1      43.844  32.053  29.530  1.00  0.00     0.031 C 
ATOM     41  C   UNL A   1      41.623  25.621  28.373  1.00  0.00     0.029 A 
ATOM     42  C   UNL A   1      42.999  25.897  27.978  1.00  0.00     0.049 A 
ATOM     43  H   UNL A   1      44.043  27.689  28.193  1.00  0.00     0.167 HD
ATOM     44  C   UNL A   1      46.090  31.537  28.620  1.00  0.00     0.031 A 
ATOM     45  C   UNL A   1      43.832  25.011  27.395  1.00  0.00     0.031 A 
ATOM     46  C   UNL A   1      47.059  30.652  28.026  1.00  0.00     0.049 A 
ATOM     47  C   UNL A   1      45.218  25.455  27.016  1.00  0.00     0.074 A 
ATOM     48  C   UNL A   1      48.378  30.916  27.698  1.00  0.00     0.029 A 
ATOM     49  N   UNL A   1      46.818  29.331  27.675  1.00  0.00    -0.354 N 
ATOM     50  N   UNL A   1      45.791  26.620  27.202  1.00  0.00    -0.248 NA
ATOM     51  C   UNL A   1      46.072  24.463  26.348  1.00  0.00     0.031 C 
ATOM     52  C   UNL A   1      48.915  29.776  27.093  1.00  0.00     0.029 A 
ATOM     53  C   UNL A   1      47.956  28.776  27.111  1.00  0.00     0.049 A 
ATOM     54  H   UNL A   1      45.965  28.858  27.806  1.00  0.00     0.167 HD
ATOM     55  C   UNL A   1      47.082  26.492  26.701  1.00  0.00     0.074 A 
ATOM     56  C   UNL A   1      47.210  25.131  26.221  1.00  0.00     0.031 C 
ATOM     57  C   UNL A   1      48.071  27.418  26.644  1.00  0.00     0.031 A 
BRANCH  44  58
ATOM     58  C   UNL A   1      46.500  32.961  28.894  1.00  0.00    -0.014 A 
ATOM     59  C   UNL A   1      46.318  33.980  27.943  1.00  0.00     0.010 A 
ATOM     60  C   UNL A   1      47.037  33.293  30.153  1.00  0.00     0.010 A 
ATOM     61  C   UNL A   1      46.697  35.296  28.231  1.00  0.00     0.020 A 
ATOM     62  C   UNL A   1      47.389  34.612  30.457  1.00  0.00     0.020 A 
ATOM     63  C   UNL A   1      47.230  35.603  29.487  1.00  0.00     0.054 A 
BRANCH  63  64
ATOM     64  S   UNL A   1      47.682  37.323  29.844  1.00  0.00     0.124 S 
ATOM     65  O   UNL A   1      48.096  37.243  31.243  1.00  0.00    -0.237 OA
ATOM     66  O   UNL A   1      48.755  37.578  28.886  1.00  0.00    -0.237 OA
ATOM     67  O   UNL A   1      46.447  38.065  29.603  1.00  0.00    -0.744 OA
ENDBRANCH  63  64
ENDBRANCH  44  58
BRANCH  45  68
ATOM     68  C   UNL A   1      43.362  23.628  27.098  1.00  0.00    -0.014 A 
ATOM     69  C   UNL A   1      43.235  22.672  28.121  1.00  0.00     0.010 A 
ATOM     70  C   UNL A   1      43.045  23.257  25.777  1.00  0.00     0.010 A 
ATOM     71  C   UNL A   1      42.824  21.369  27.826  1.00  0.00     0.020 A 
ATOM     72  C   UNL A   1      42.600  21.965  25.483  1.00  0.00     0.020 A 
ATOM     73  C   UNL A   1      42.508  21.024  26.508  1.00  0.00     0.054 A 
BRANCH  73  74
ATOM     74  S   UNL A   1      41.945  19.336  26.155  1.00  0.00     0.124 S 
ATOM     75  O   UNL A   1      42.359  18.620  27.358  1.00  0.00    -0.237 OA
ATOM     76  O   UNL A   1      40.503  19.513  25.989  1.00  0.00    -0.237 OA
ATOM     77  O   UNL A   1      42.666  18.981  24.935  1.00  0.00    -0.744 OA
ENDBRANCH  73  74
ENDBRANCH  45  68
BRANCH  57  78
ATOM     78  C   UNL A   1      49.401  26.977  26.090  1.00  0.00    -0.014 A 
ATOM     79  C   UNL A   1      49.692  27.058  24.717  1.00  0.00     0.010 A 
ATOM     80  C   UNL A   1      50.396  26.517  26.975  1.00  0.00     0.010 A 
ATOM     81  C   UNL A   1      50.939  26.654  24.234  1.00  0.00     0.020 A 
ATOM     82  C   UNL A   1      51.655  26.143  26.499  1.00  0.00     0.020 A 
ATOM     83  C   UNL A   1      51.913  26.199  25.129  1.00  0.00     0.054 A 
BRANCH  83  84
ATOM     84  S   UNL A   1      53.538  25.718  24.481  1.00  0.00     0.124 S 
ATOM     85  O   UNL A   1      54.444  26.331  25.449  1.00  0.00    -0.237 OA
ATOM     86  O   UNL A   1      53.476  24.259  24.515  1.00  0.00    -0.237 OA
ATOM     87  O   UNL A   1      53.566  26.305  23.144  1.00  0.00    -0.744 OA
ENDBRANCH  83  84
ENDBRANCH  57  78
ENDBRANCH  31  32
ENDBRANCH  24  26
ENDBRANCH  23  24
ENDBRANCH  22  23
ENDBRANCH   1  22
TORSDOF 17
ENDMDL
MODEL 3
REMARK VINA RESULT:      -9.0      4.803     11.970
REMARK SMILES COC(=O)c1ccc(Cl)c(-c2ccc(C(=O)OCCOC(=O)c3ccc(-c4c5nc(c(-c6ccc(S(=O)(=O)[O-])cc6)c6ccc([nH]6)c(-c6ccc(S(=O)(=O)[O-])cc6)c6nc(c(-c7ccc(S(=O)(=O)[O-])cc7)c7ccc4[nH]7)C=C6)C=C5)cc3)nc2)c1
REMARK SMILES IDX 18 1 17 2 15 3 16 4 14 5 11 6 12 7 84 8 13 9 83 10 10 11
REMARK SMILES IDX 5 12 6 13 85 14 7 15 8 16 9 17 3 18 4 19 2 20 1 21 19 22
REMARK SMILES IDX 20 23 21 24 22 25 23 26 24 27 82 28 25 29 81 30 26 31 27 32
REMARK SMILES IDX 28 33 75 34 29 35 80 36 74 37 76 38 30 39 79 40 73 41 72 42
REMARK SMILES IDX 31 44 61 45 42 46 60 47 43 48 46 49 59 50 77 51 44 52 45 53
REMARK SMILES IDX 58 55 78 56 47 57 32 58 33 59 41 60 34 61 40 62 35 63 36 64
REMARK SMILES IDX 37 65 38 66 39 67 62 68 63 69 71 70 64 71 70 72 65 73 66 74
REMARK SMILES IDX 67 75 68 76 69 77 48 78 49 79 57 80 50 81 56 82 51 83 52 84
REMARK SMILES IDX 53 85 54 86 55 87
REMARK H PARENT 76 43 46 54
REMARK Flexibility Score: inf
ROOT
ATOM      1  C   UNL A   1      39.474  21.226  26.336  1.00  0.00     0.275 C 
ENDROOT
BRANCH   1   2
ATOM      2  O   UNL A   1      38.764  21.761  25.198  1.00  0.00    -0.457 OA
BRANCH   2   3
ATOM      3  C   UNL A   1      37.546  21.200  24.963  1.00  0.00     0.357 C 
ATOM      4  O   UNL A   1      37.336  20.001  24.853  1.00  0.00    -0.244 OA
BRANCH   3   5
ATOM      5  C   UNL A   1      36.458  22.233  24.959  1.00  0.00     0.148 A 
ATOM      6  C   UNL A   1      34.482  24.162  25.188  1.00  0.00     0.002 A 
ATOM      7  C   UNL A   1      34.987  23.817  23.927  1.00  0.00     0.013 A 
ATOM      8  C   UNL A   1      35.024  23.492  26.279  1.00  0.00     0.120 A 
ATOM      9  C   UNL A   1      35.997  22.852  23.805  1.00  0.00     0.037 A 
ATOM     10  N   UNL A   1      35.958  22.526  26.188  1.00  0.00    -0.249 NA
BRANCH   6  11
ATOM     11  C   UNL A   1      33.383  25.115  25.386  1.00  0.00     0.003 A 
ATOM     12  C   UNL A   1      32.622  27.433  25.589  1.00  0.00     0.060 A 
ATOM     13  C   UNL A   1      31.360  26.993  25.997  1.00  0.00     0.017 A 
ATOM     14  C   UNL A   1      33.622  26.500  25.270  1.00  0.00     0.026 A 
ATOM     15  C   UNL A   1      31.100  25.627  26.096  1.00  0.00     0.022 A 
ATOM     16  C   UNL A   1      32.101  24.697  25.800  1.00  0.00     0.048 A 
ATOM     17  Cl  UNL A   1      31.709  23.022  26.005  1.00  0.00    -0.084 Cl
BRANCH  12  18
ATOM     18  C   UNL A   1      32.939  28.880  25.493  1.00  0.00     0.337 C 
ATOM     19  O   UNL A   1      33.231  29.436  24.453  1.00  0.00    -0.246 OA
BRANCH  18  20
ATOM     20  O   UNL A   1      32.901  29.431  26.733  1.00  0.00    -0.465 OA
ATOM     21  C   UNL A   1      32.080  30.597  26.830  1.00  0.00     0.282 C 
ENDBRANCH  18  20
ENDBRANCH  12  18
ENDBRANCH   6  11
ENDBRANCH   3   5
ENDBRANCH   2   3
ENDBRANCH   1   2
BRANCH   1  22
ATOM     22  C   UNL A   1      40.300  22.300  27.055  1.00  0.00     0.275 C 
BRANCH  22  23
ATOM     23  O   UNL A   1      39.855  23.635  26.752  1.00  0.00    -0.458 OA
BRANCH  23  24
ATOM     24  C   UNL A   1      40.838  24.566  26.734  1.00  0.00     0.338 C 
ATOM     25  O   UNL A   1      41.840  24.556  26.036  1.00  0.00    -0.246 OA
BRANCH  24  26
ATOM     26  C   UNL A   1      40.506  25.697  27.614  1.00  0.00     0.060 A 
ATOM     27  C   UNL A   1      41.353  26.800  27.576  1.00  0.00     0.016 A 
ATOM     28  C   UNL A   1      39.503  25.621  28.579  1.00  0.00     0.016 A 
ATOM     29  C   UNL A   1      41.272  27.793  28.544  1.00  0.00     0.010 A 
ATOM     30  C   UNL A   1      39.381  26.653  29.521  1.00  0.00     0.010 A 
ATOM     31  C   UNL A   1      40.291  27.729  29.537  1.00  0.00    -0.014 A 
BRANCH  31  32
ATOM     32  C   UNL A   1      40.278  28.755  30.615  1.00  0.00     0.031 A 
ATOM     33  C   UNL A   1      41.273  28.671  31.743  1.00  0.00     0.074 A 
ATOM     34  C   UNL A   1      39.415  29.789  30.555  1.00  0.00     0.049 A 
ATOM     35  N   UNL A   1      41.372  29.418  32.814  1.00  0.00    -0.248 NA
ATOM     36  C   UNL A   1      42.286  27.607  31.661  1.00  0.00     0.031 C 
ATOM     37  C   UNL A   1      38.445  30.025  29.481  1.00  0.00     0.029 A 
ATOM     38  N   UNL A   1      39.220  30.846  31.412  1.00  0.00    -0.354 N 
ATOM     39  C   UNL A   1      42.428  28.890  33.550  1.00  0.00     0.074 A 
ATOM     40  C   UNL A   1      42.926  27.748  32.813  1.00  0.00     0.031 C 
ATOM     41  C   UNL A   1      37.777  31.161  29.732  1.00  0.00     0.029 A 
ATOM     42  C   UNL A   1      38.214  31.696  31.017  1.00  0.00     0.049 A 
ATOM     43  H   UNL A   1      39.749  30.980  32.231  1.00  0.00     0.167 HD
ATOM     44  C   UNL A   1      42.938  29.318  34.730  1.00  0.00     0.031 A 
ATOM     45  C   UNL A   1      37.675  32.767  31.634  1.00  0.00     0.031 A 
ATOM     46  C   UNL A   1      42.450  30.468  35.447  1.00  0.00     0.049 A 
ATOM     47  C   UNL A   1      38.215  33.182  32.975  1.00  0.00     0.074 A 
ATOM     48  C   UNL A   1      42.906  30.992  36.645  1.00  0.00     0.029 A 
ATOM     49  N   UNL A   1      41.400  31.275  35.033  1.00  0.00    -0.354 N 
ATOM     50  N   UNL A   1      39.202  32.662  33.664  1.00  0.00    -0.248 NA
ATOM     51  C   UNL A   1      37.567  34.331  33.623  1.00  0.00     0.031 C 
ATOM     52  C   UNL A   1      42.093  32.078  36.986  1.00  0.00     0.029 A 
ATOM     53  C   UNL A   1      41.178  32.277  35.965  1.00  0.00     0.049 A 
ATOM     54  H   UNL A   1      40.889  31.154  34.202  1.00  0.00     0.167 HD
ATOM     55  C   UNL A   1      39.314  33.438  34.812  1.00  0.00     0.074 A 
ATOM     56  C   UNL A   1      38.305  34.473  34.715  1.00  0.00     0.031 C 
ATOM     57  C   UNL A   1      40.174  33.305  35.853  1.00  0.00     0.031 A 
BRANCH  44  58
ATOM     58  C   UNL A   1      44.058  28.517  35.346  1.00  0.00    -0.014 A 
ATOM     59  C   UNL A   1      45.408  28.846  35.130  1.00  0.00     0.010 A 
ATOM     60  C   UNL A   1      43.747  27.441  36.198  1.00  0.00     0.010 A 
ATOM     61  C   UNL A   1      46.425  28.092  35.726  1.00  0.00     0.020 A 
ATOM     62  C   UNL A   1      44.759  26.703  36.820  1.00  0.00     0.020 A 
ATOM     63  C   UNL A   1      46.093  27.025  36.567  1.00  0.00     0.054 A 
BRANCH  63  64
ATOM     64  S   UNL A   1      47.433  26.085  37.351  1.00  0.00     0.124 S 
ATOM     65  O   UNL A   1      48.553  26.349  36.452  1.00  0.00    -0.237 OA
ATOM     66  O   UNL A   1      47.528  26.704  38.670  1.00  0.00    -0.237 OA
ATOM     67  O   UNL A   1      46.942  24.709  37.345  1.00  0.00    -0.744 OA
ENDBRANCH  63  64
ENDBRANCH  44  58
BRANCH  45  68
ATOM     68  C   UNL A   1      36.535  33.496  31.008  1.00  0.00    -0.014 A 
ATOM     69  C   UNL A   1      35.336  33.703  31.712  1.00  0.00     0.010 A 
ATOM     70  C   UNL A   1      36.643  33.981  29.690  1.00  0.00     0.010 A 
ATOM     71  C   UNL A   1      34.262  34.359  31.103  1.00  0.00     0.020 A 
ATOM     72  C   UNL A   1      35.585  34.669  29.091  1.00  0.00     0.020 A 
ATOM     73  C   UNL A   1      34.393  34.839  29.797  1.00  0.00     0.054 A 
BRANCH  73  74
ATOM     74  S   UNL A   1      32.997  35.716  29.041  1.00  0.00     0.124 S 
ATOM     75  O   UNL A   1      32.383  34.668  28.231  1.00  0.00    -0.237 OA
ATOM     76  O   UNL A   1      32.228  36.148  30.206  1.00  0.00    -0.237 OA
ATOM     77  O   UNL A   1      33.635  36.794  28.289  1.00  0.00    -0.744 OA
ENDBRANCH  73  74
ENDBRANCH  45  68
BRANCH  57  78
ATOM     78  C   UNL A   1      40.100  34.336  36.948  1.00  0.00    -0.014 A 
ATOM     79  C   UNL A   1      40.913  35.484  36.936  1.00  0.00     0.010 A 
ATOM     80  C   UNL A   1      39.160  34.174  37.984  1.00  0.00     0.010 A 
ATOM     81  C   UNL A   1      40.814  36.431  37.960  1.00  0.00     0.020 A 
ATOM     82  C   UNL A   1      39.035  35.135  38.990  1.00  0.00     0.020 A 
ATOM     83  C   UNL A   1      39.874  36.250  38.980  1.00  0.00     0.054 A 
BRANCH  83  84
ATOM     84  S   UNL A   1      39.736  37.513  40.274  1.00  0.00     0.124 S 
ATOM     85  O   UNL A   1      38.298  37.765  40.301  1.00  0.00    -0.237 OA
ATOM     86  O   UNL A   1      40.277  36.830  41.446  1.00  0.00    -0.237 OA
ATOM     87  O   UNL A   1      40.552  38.615  39.771  1.00  0.00    -0.744 OA
ENDBRANCH  83  84
ENDBRANCH  57  78
ENDBRANCH  31  32
ENDBRANCH  24  26
ENDBRANCH  23  24
ENDBRANCH  22  23
ENDBRANCH   1  22
TORSDOF 17
ENDMDL
