MODEL 1
REMARK VINA RESULT:     -10.6      0.000      0.000
REMARK SMILES COc1cccc(CSc2nc3ccccc3c(=O)n2CCC(=O)OCCOC(=O)c2ccc(-c3c4nc(c(-c5ccc(S(=O)(=O)[O-])cc5)c5ccc([nH]5)c(-c5ccc(S(=O)(=O)[O-])cc5)c5nc(c(-c6ccc(S(=O)(=O)[O-])cc6)c6ccc3[nH]6)C=C5)C=C4)cc2)c1
REMARK SMILES IDX 25 1 23 2 24 3 22 4 21 5 20 6 10 7 11 8 12 9 18 10 13 11
REMARK SMILES IDX 17 12 19 13 14 14 16 15 15 16 9 17 8 18 7 19 3 20 4 21 91 22
REMARK SMILES IDX 5 23 6 24 2 25 1 26 26 27 27 28 28 29 29 30 30 31 31 32
REMARK SMILES IDX 32 33 90 34 33 35 89 36 34 37 35 38 36 39 83 40 37 41 88 42
REMARK SMILES IDX 82 43 84 44 38 45 87 46 81 47 80 48 39 50 69 51 50 52 68 53
REMARK SMILES IDX 51 54 54 55 67 56 85 57 52 58 53 59 66 61 86 62 55 63 40 64
REMARK SMILES IDX 41 65 49 66 42 67 48 68 43 69 44 70 45 71 46 72 47 73 70 74
REMARK SMILES IDX 71 75 79 76 72 77 78 78 73 79 74 80 75 81 76 82 77 83 56 84
REMARK SMILES IDX 57 85 65 86 58 87 64 88 59 89 60 90 61 91 62 92 63 93
REMARK H PARENT 84 49 54 60
REMARK Flexibility Score: inf
ROOT
ATOM      1  O   UNL A   1      36.914  22.883  23.716  1.00  0.00    -0.462 OA
ENDROOT
BRANCH   1   2
ATOM      2  C   UNL A   1      35.649  23.340  23.556  1.00  0.00     0.307 C 
ATOM      3  O   UNL A   1      34.912  23.026  22.629  1.00  0.00    -0.252 OA
BRANCH   2   4
ATOM      4  C   UNL A   1      35.178  24.215  24.697  1.00  0.00     0.144 C 
BRANCH   4   5
ATOM      5  C   UNL A   1      34.450  23.600  25.898  1.00  0.00     0.140 C 
BRANCH   5   6
ATOM      6  N   UNL A   1      33.271  22.786  25.628  1.00  0.00    -0.286 N 
ATOM      7  C   UNL A   1      32.240  23.123  24.789  1.00  0.00     0.171 A 
ATOM      8  N   UNL A   1      31.813  22.292  23.886  1.00  0.00    -0.224 NA
ATOM      9  C   UNL A   1      32.296  20.973  23.948  1.00  0.00     0.079 A 
ATOM     10  C   UNL A   1      33.283  21.483  26.105  1.00  0.00     0.262 A 
ATOM     11  C   UNL A   1      32.154  20.093  22.877  1.00  0.00     0.029 A 
ATOM     12  C   UNL A   1      32.790  20.476  25.153  1.00  0.00     0.066 A 
ATOM     13  O   UNL A   1      33.741  21.138  27.189  1.00  0.00    -0.269 OA
ATOM     14  C   UNL A   1      32.424  18.728  23.050  1.00  0.00     0.002 A 
ATOM     15  C   UNL A   1      32.982  19.111  25.367  1.00  0.00     0.016 A 
ATOM     16  C   UNL A   1      32.785  18.232  24.305  1.00  0.00     0.001 A 
BRANCH   7  17
ATOM     17  S   UNL A   1      31.244  24.546  25.001  1.00  0.00    -0.083 SA
BRANCH  17  18
ATOM     18  C   UNL A   1      31.757  25.555  26.400  1.00  0.00     0.113 C 
BRANCH  18  19
ATOM     19  C   UNL A   1      32.383  26.887  26.073  1.00  0.00    -0.034 A 
ATOM     20  C   UNL A   1      32.907  29.195  26.671  1.00  0.00     0.119 A 
ATOM     21  C   UNL A   1      33.430  29.390  25.395  1.00  0.00     0.046 A 
ATOM     22  C   UNL A   1      32.444  27.928  27.022  1.00  0.00     0.051 A 
ATOM     23  C   UNL A   1      33.495  28.337  24.483  1.00  0.00     0.004 A 
ATOM     24  C   UNL A   1      32.964  27.094  24.817  1.00  0.00     0.005 A 
BRANCH  20  25
ATOM     25  O   UNL A   1      32.885  30.311  27.460  1.00  0.00    -0.497 OA
ATOM     26  C   UNL A   1      34.095  31.039  27.622  1.00  0.00     0.278 C 
ENDBRANCH  20  25
ENDBRANCH  18  19
ENDBRANCH  17  18
ENDBRANCH   7  17
ENDBRANCH   5   6
ENDBRANCH   4   5
ENDBRANCH   2   4
ENDBRANCH   1   2
BRANCH   1  27
ATOM     27  C   UNL A   1      37.020  21.507  24.145  1.00  0.00     0.274 C 
BRANCH  27  28
ATOM     28  C   UNL A   1      38.159  21.332  25.167  1.00  0.00     0.275 C 
BRANCH  28  29
ATOM     29  O   UNL A   1      38.249  22.368  26.168  1.00  0.00    -0.458 OA
BRANCH  29  30
ATOM     30  C   UNL A   1      39.487  22.721  26.565  1.00  0.00     0.338 C 
ATOM     31  O   UNL A   1      40.444  21.982  26.739  1.00  0.00    -0.246 OA
BRANCH  30  32
ATOM     32  C   UNL A   1      39.493  24.143  26.951  1.00  0.00     0.060 A 
ATOM     33  C   UNL A   1      39.025  24.473  28.227  1.00  0.00     0.016 A 
ATOM     34  C   UNL A   1      40.046  25.122  26.122  1.00  0.00     0.016 A 
ATOM     35  C   UNL A   1      39.190  25.769  28.710  1.00  0.00     0.010 A 
ATOM     36  C   UNL A   1      40.278  26.403  26.638  1.00  0.00     0.010 A 
ATOM     37  C   UNL A   1      39.913  26.714  27.960  1.00  0.00    -0.014 A 
BRANCH  37  38
ATOM     38  C   UNL A   1      40.517  27.888  28.654  1.00  0.00     0.031 A 
ATOM     39  C   UNL A   1      41.932  27.901  29.151  1.00  0.00     0.074 A 
ATOM     40  C   UNL A   1      39.719  28.955  28.883  1.00  0.00     0.049 A 
ATOM     41  N   UNL A   1      42.560  28.850  29.800  1.00  0.00    -0.248 NA
ATOM     42  C   UNL A   1      42.742  26.701  28.904  1.00  0.00     0.031 C 
ATOM     43  C   UNL A   1      38.309  29.055  28.486  1.00  0.00     0.029 A 
ATOM     44  N   UNL A   1      39.968  30.157  29.497  1.00  0.00    -0.354 N 
ATOM     45  C   UNL A   1      43.836  28.365  30.052  1.00  0.00     0.074 A 
ATOM     46  C   UNL A   1      43.884  27.022  29.503  1.00  0.00     0.031 C 
ATOM     47  C   UNL A   1      37.837  30.263  28.819  1.00  0.00     0.029 A 
ATOM     48  C   UNL A   1      38.879  31.000  29.521  1.00  0.00     0.049 A 
ATOM     49  H   UNL A   1      40.841  30.395  29.883  1.00  0.00     0.167 HD
ATOM     50  C   UNL A   1      44.870  28.981  30.678  1.00  0.00     0.031 A 
ATOM     51  C   UNL A   1      38.715  32.222  30.064  1.00  0.00     0.031 A 
ATOM     52  C   UNL A   1      44.813  30.312  31.237  1.00  0.00     0.049 A 
ATOM     53  C   UNL A   1      39.867  32.864  30.779  1.00  0.00     0.074 A 
ATOM     54  C   UNL A   1      45.825  31.028  31.855  1.00  0.00     0.029 A 
ATOM     55  N   UNL A   1      43.687  31.123  31.260  1.00  0.00    -0.354 N 
ATOM     56  N   UNL A   1      41.081  32.404  30.959  1.00  0.00    -0.248 NA
ATOM     57  C   UNL A   1      39.627  34.190  31.360  1.00  0.00     0.031 C 
ATOM     58  C   UNL A   1      45.297  32.243  32.304  1.00  0.00     0.029 A 
ATOM     59  C   UNL A   1      43.974  32.317  31.905  1.00  0.00     0.049 A 
ATOM     60  H   UNL A   1      42.813  30.886  30.873  1.00  0.00     0.167 HD
ATOM     61  C   UNL A   1      41.758  33.397  31.658  1.00  0.00     0.074 A 
ATOM     62  C   UNL A   1      40.825  34.488  31.845  1.00  0.00     0.031 C 
ATOM     63  C   UNL A   1      43.039  33.399  32.101  1.00  0.00     0.031 A 
BRANCH  50  64
ATOM     64  C   UNL A   1      46.161  28.214  30.822  1.00  0.00    -0.014 A 
ATOM     65  C   UNL A   1      46.372  27.335  31.900  1.00  0.00     0.010 A 
ATOM     66  C   UNL A   1      47.154  28.322  29.830  1.00  0.00     0.010 A 
ATOM     67  C   UNL A   1      47.564  26.611  32.003  1.00  0.00     0.020 A 
ATOM     68  C   UNL A   1      48.335  27.579  29.913  1.00  0.00     0.020 A 
ATOM     69  C   UNL A   1      48.540  26.741  31.011  1.00  0.00     0.054 A 
BRANCH  69  70
ATOM     70  S   UNL A   1      50.069  25.776  31.162  1.00  0.00     0.124 S 
ATOM     71  O   UNL A   1      50.142  25.122  29.858  1.00  0.00    -0.237 OA
ATOM     72  O   UNL A   1      51.075  26.806  31.406  1.00  0.00    -0.237 OA
ATOM     73  O   UNL A   1      49.808  24.884  32.291  1.00  0.00    -0.744 OA
ENDBRANCH  69  70
ENDBRANCH  50  64
BRANCH  51  74
ATOM     74  C   UNL A   1      37.399  32.909  29.957  1.00  0.00    -0.014 A 
ATOM     75  C   UNL A   1      37.014  33.540  28.761  1.00  0.00     0.010 A 
ATOM     76  C   UNL A   1      36.513  32.919  31.051  1.00  0.00     0.010 A 
ATOM     77  C   UNL A   1      35.777  34.183  28.667  1.00  0.00     0.020 A 
ATOM     78  C   UNL A   1      35.262  33.532  30.950  1.00  0.00     0.020 A 
ATOM     79  C   UNL A   1      34.907  34.172  29.762  1.00  0.00     0.054 A 
BRANCH  79  80
ATOM     80  S   UNL A   1      33.287  34.972  29.599  1.00  0.00     0.124 S 
ATOM     81  O   UNL A   1      33.647  36.278  29.060  1.00  0.00    -0.237 OA
ATOM     82  O   UNL A   1      32.585  34.078  28.682  1.00  0.00    -0.237 OA
ATOM     83  O   UNL A   1      32.772  34.980  30.967  1.00  0.00    -0.744 OA
ENDBRANCH  79  80
ENDBRANCH  51  74
BRANCH  63  84
ATOM     84  C   UNL A   1      43.520  34.642  32.805  1.00  0.00    -0.014 A 
ATOM     85  C   UNL A   1      43.397  34.790  34.199  1.00  0.00     0.010 A 
ATOM     86  C   UNL A   1      44.125  35.671  32.061  1.00  0.00     0.010 A 
ATOM     87  C   UNL A   1      43.833  35.961  34.828  1.00  0.00     0.020 A 
ATOM     88  C   UNL A   1      44.590  36.830  32.689  1.00  0.00     0.020 A 
ATOM     89  C   UNL A   1      44.425  36.975  34.068  1.00  0.00     0.054 A 
BRANCH  89  90
ATOM     90  S   UNL A   1      45.007  38.472  34.910  1.00  0.00     0.124 S 
ATOM     91  O   UNL A   1      45.758  37.917  36.032  1.00  0.00    -0.237 OA
ATOM     92  O   UNL A   1      45.808  39.128  33.879  1.00  0.00    -0.237 OA
ATOM     93  O   UNL A   1      43.774  39.169  35.270  1.00  0.00    -0.744 OA
ENDBRANCH  89  90
ENDBRANCH  63  84
ENDBRANCH  37  38
ENDBRANCH  30  32
ENDBRANCH  29  30
ENDBRANCH  28  29
ENDBRANCH  27  28
ENDBRANCH   1  27
TORSDOF 20
ENDMDL
MODEL 2
REMARK VINA RESULT:     -10.5      4.198     10.015
REMARK SMILES COc1cccc(CSc2nc3ccccc3c(=O)n2CCC(=O)OCCOC(=O)c2ccc(-c3c4nc(c(-c5ccc(S(=O)(=O)[O-])cc5)c5ccc([nH]5)c(-c5ccc(S(=O)(=O)[O-])cc5)c5nc(c(-c6ccc(S(=O)(=O)[O-])cc6)c6ccc3[nH]6)C=C5)C=C4)cc2)c1
REMARK SMILES IDX 25 1 23 2 24 3 22 4 21 5 20 6 10 7 11 8 12 9 18 10 13 11
REMARK SMILES IDX 17 12 19 13 14 14 16 15 15 16 9 17 8 18 7 19 3 20 4 21 91 22
REMARK SMILES IDX 5 23 6 24 2 25 1 26 26 27 27 28 28 29 29 30 30 31 31 32
REMARK SMILES IDX 32 33 90 34 33 35 89 36 34 37 35 38 36 39 83 40 37 41 88 42
REMARK SMILES IDX 82 43 84 44 38 45 87 46 81 47 80 48 39 50 69 51 50 52 68 53
REMARK SMILES IDX 51 54 54 55 67 56 85 57 52 58 53 59 66 61 86 62 55 63 40 64
REMARK SMILES IDX 41 65 49 66 42 67 48 68 43 69 44 70 45 71 46 72 47 73 70 74
REMARK SMILES IDX 71 75 79 76 72 77 78 78 73 79 74 80 75 81 76 82 77 83 56 84
REMARK SMILES IDX 57 85 65 86 58 87 64 88 59 89 60 90 61 91 62 92 63 93
REMARK H PARENT 84 49 54 60
REMARK Flexibility Score: inf
ROOT
ATOM      1  O   UNL A   1      33.362  30.111  26.364  1.00  0.00    -0.462 OA
ENDROOT
BRANCH   1   2
ATOM      2  C   UNL A   1      32.042  30.023  26.076  1.00  0.00     0.307 C 
ATOM      3  O   UNL A   1      31.380  30.928  25.582  1.00  0.00    -0.252 OA
BRANCH   2   4
ATOM      4  C   UNL A   1      31.462  28.649  26.332  1.00  0.00     0.144 C 
BRANCH   4   5
ATOM      5  C   UNL A   1      32.336  27.533  26.916  1.00  0.00     0.140 C 
BRANCH   5   6
ATOM      6  N   UNL A   1      32.623  26.385  26.065  1.00  0.00    -0.286 N 
ATOM      7  C   UNL A   1      33.589  26.328  25.094  1.00  0.00     0.171 A 
ATOM      8  N   UNL A   1      34.428  25.337  25.041  1.00  0.00    -0.224 NA
ATOM      9  C   UNL A   1      34.168  24.232  25.871  1.00  0.00     0.079 A 
ATOM     10  C   UNL A   1      31.999  25.188  26.391  1.00  0.00     0.262 A 
ATOM     11  C   UNL A   1      35.139  23.265  26.123  1.00  0.00     0.029 A 
ATOM     12  C   UNL A   1      32.872  24.005  26.332  1.00  0.00     0.066 A 
ATOM     13  O   UNL A   1      30.844  25.086  26.789  1.00  0.00    -0.269 OA
ATOM     14  C   UNL A   1      34.784  22.062  26.751  1.00  0.00     0.002 A 
ATOM     15  C   UNL A   1      32.485  22.783  26.880  1.00  0.00     0.016 A 
ATOM     16  C   UNL A   1      33.451  21.801  27.079  1.00  0.00     0.001 A 
BRANCH   7  17
ATOM     17  S   UNL A   1      33.640  27.401  23.713  1.00  0.00    -0.083 SA
BRANCH  17  18
ATOM     18  C   UNL A   1      32.387  27.013  22.481  1.00  0.00     0.113 C 
BRANCH  18  19
ATOM     19  C   UNL A   1      31.021  27.613  22.701  1.00  0.00    -0.034 A 
ATOM     20  C   UNL A   1      29.512  29.531  22.673  1.00  0.00     0.119 A 
ATOM     21  C   UNL A   1      28.519  28.737  23.243  1.00  0.00     0.046 A 
ATOM     22  C   UNL A   1      30.736  28.948  22.349  1.00  0.00     0.051 A 
ATOM     23  C   UNL A   1      28.740  27.382  23.482  1.00  0.00     0.004 A 
ATOM     24  C   UNL A   1      29.989  26.824  23.222  1.00  0.00     0.005 A 
BRANCH  20  25
ATOM     25  O   UNL A   1      29.173  30.845  22.509  1.00  0.00    -0.497 OA
ATOM     26  C   UNL A   1      27.912  31.277  23.001  1.00  0.00     0.278 C 
ENDBRANCH  20  25
ENDBRANCH  18  19
ENDBRANCH  17  18
ENDBRANCH   7  17
ENDBRANCH   5   6
ENDBRANCH   4   5
ENDBRANCH   2   4
ENDBRANCH   1   2
BRANCH   1  27
ATOM     27  C   UNL A   1      33.674  30.731  27.632  1.00  0.00     0.274 C 
BRANCH  27  28
ATOM     28  C   UNL A   1      35.167  31.102  27.714  1.00  0.00     0.275 C 
BRANCH  28  29
ATOM     29  O   UNL A   1      36.071  29.982  27.816  1.00  0.00    -0.458 OA
BRANCH  29  30
ATOM     30  C   UNL A   1      36.842  29.924  28.920  1.00  0.00     0.338 C 
ATOM     31  O   UNL A   1      36.633  30.468  29.994  1.00  0.00    -0.246 OA
BRANCH  30  32
ATOM     32  C   UNL A   1      38.107  29.240  28.601  1.00  0.00     0.060 A 
ATOM     33  C   UNL A   1      38.603  29.364  27.300  1.00  0.00     0.016 A 
ATOM     34  C   UNL A   1      38.848  28.580  29.585  1.00  0.00     0.016 A 
ATOM     35  C   UNL A   1      39.884  28.903  27.001  1.00  0.00     0.010 A 
ATOM     36  C   UNL A   1      40.162  28.187  29.301  1.00  0.00     0.010 A 
ATOM     37  C   UNL A   1      40.711  28.409  28.026  1.00  0.00    -0.014 A 
BRANCH  37  38
ATOM     38  C   UNL A   1      42.190  28.398  27.827  1.00  0.00     0.031 A 
ATOM     39  C   UNL A   1      43.056  29.591  28.102  1.00  0.00     0.074 A 
ATOM     40  C   UNL A   1      42.743  27.272  27.324  1.00  0.00     0.049 A 
ATOM     41  N   UNL A   1      44.350  29.715  27.935  1.00  0.00    -0.248 NA
ATOM     42  C   UNL A   1      42.396  30.798  28.615  1.00  0.00     0.031 C 
ATOM     43  C   UNL A   1      42.005  26.052  26.976  1.00  0.00     0.029 A 
ATOM     44  N   UNL A   1      44.045  26.960  27.022  1.00  0.00    -0.354 N 
ATOM     45  C   UNL A   1      44.663  31.015  28.311  1.00  0.00     0.074 A 
ATOM     46  C   UNL A   1      43.414  31.648  28.693  1.00  0.00     0.031 C 
ATOM     47  C   UNL A   1      42.866  25.115  26.558  1.00  0.00     0.029 A 
ATOM     48  C   UNL A   1      44.207  25.683  26.533  1.00  0.00     0.049 A 
ATOM     49  H   UNL A   1      44.792  27.588  27.142  1.00  0.00     0.167 HD
ATOM     50  C   UNL A   1      45.877  31.621  28.337  1.00  0.00     0.031 A 
ATOM     51  C   UNL A   1      45.301  25.035  26.087  1.00  0.00     0.031 A 
ATOM     52  C   UNL A   1      47.115  30.992  27.940  1.00  0.00     0.049 A 
ATOM     53  C   UNL A   1      46.623  25.743  26.097  1.00  0.00     0.074 A 
ATOM     54  C   UNL A   1      48.395  31.521  27.971  1.00  0.00     0.029 A 
ATOM     55  N   UNL A   1      47.233  29.707  27.431  1.00  0.00    -0.354 N 
ATOM     56  N   UNL A   1      46.902  26.957  26.505  1.00  0.00    -0.248 NA
ATOM     57  C   UNL A   1      47.778  24.993  25.590  1.00  0.00     0.031 C 
ATOM     58  C   UNL A   1      49.276  30.581  27.425  1.00  0.00     0.029 A 
ATOM     59  C   UNL A   1      48.558  29.438  27.119  1.00  0.00     0.049 A 
ATOM     60  H   UNL A   1      46.486  29.077  27.310  1.00  0.00     0.167 HD
ATOM     61  C   UNL A   1      48.271  27.110  26.324  1.00  0.00     0.074 A 
ATOM     62  C   UNL A   1      48.765  25.856  25.792  1.00  0.00     0.031 C 
ATOM     63  C   UNL A   1      49.046  28.193  26.578  1.00  0.00     0.031 A 
BRANCH  50  64
ATOM     64  C   UNL A   1      45.932  33.060  28.788  1.00  0.00    -0.014 A 
ATOM     65  C   UNL A   1      45.785  34.119  27.873  1.00  0.00     0.010 A 
ATOM     66  C   UNL A   1      46.069  33.359  30.157  1.00  0.00     0.010 A 
ATOM     67  C   UNL A   1      45.812  35.445  28.313  1.00  0.00     0.020 A 
ATOM     68  C   UNL A   1      46.068  34.683  30.605  1.00  0.00     0.020 A 
ATOM     69  C   UNL A   1      45.957  35.720  29.676  1.00  0.00     0.054 A 
BRANCH  69  70
ATOM     70  S   UNL A   1      45.972  37.451  30.219  1.00  0.00     0.124 S 
ATOM     71  O   UNL A   1      46.962  37.420  31.294  1.00  0.00    -0.237 OA
ATOM     72  O   UNL A   1      46.379  38.163  29.011  1.00  0.00    -0.237 OA
ATOM     73  O   UNL A   1      44.596  37.693  30.648  1.00  0.00    -0.744 OA
ENDBRANCH  69  70
ENDBRANCH  50  64
BRANCH  51  74
ATOM     74  C   UNL A   1      45.181  23.639  25.585  1.00  0.00    -0.014 A 
ATOM     75  C   UNL A   1      44.976  23.384  24.218  1.00  0.00     0.010 A 
ATOM     76  C   UNL A   1      45.291  22.553  26.474  1.00  0.00     0.010 A 
ATOM     77  C   UNL A   1      44.865  22.071  23.752  1.00  0.00     0.020 A 
ATOM     78  C   UNL A   1      45.215  21.239  26.007  1.00  0.00     0.020 A 
ATOM     79  C   UNL A   1      44.989  21.007  24.650  1.00  0.00     0.054 A 
BRANCH  79  80
ATOM     80  S   UNL A   1      44.890  19.311  24.014  1.00  0.00     0.124 S 
ATOM     81  O   UNL A   1      43.851  18.731  24.858  1.00  0.00    -0.237 OA
ATOM     82  O   UNL A   1      44.528  19.520  22.615  1.00  0.00    -0.237 OA
ATOM     83  O   UNL A   1      46.237  18.787  24.230  1.00  0.00    -0.744 OA
ENDBRANCH  79  80
ENDBRANCH  51  74
BRANCH  63  84
ATOM     84  C   UNL A   1      50.524  28.056  26.316  1.00  0.00    -0.014 A 
ATOM     85  C   UNL A   1      51.423  27.710  27.343  1.00  0.00     0.010 A 
ATOM     86  C   UNL A   1      51.019  28.255  25.015  1.00  0.00     0.010 A 
ATOM     87  C   UNL A   1      52.793  27.607  27.079  1.00  0.00     0.020 A 
ATOM     88  C   UNL A   1      52.383  28.123  24.740  1.00  0.00     0.020 A 
ATOM     89  C   UNL A   1      53.265  27.817  25.780  1.00  0.00     0.054 A 
BRANCH  89  90
ATOM     90  S   UNL A   1      55.042  27.651  25.458  1.00  0.00     0.124 S 
ATOM     91  O   UNL A   1      55.056  27.090  24.110  1.00  0.00    -0.237 OA
ATOM     92  O   UNL A   1      55.517  29.027  25.571  1.00  0.00    -0.237 OA
ATOM     93  O   UNL A   1      55.503  26.750  26.513  1.00  0.00    -0.744 OA
ENDBRANCH  89  90
ENDBRANCH  63  84
ENDBRANCH  37  38
ENDBRANCH  30  32
ENDBRANCH  29  30
ENDBRANCH  28  29
ENDBRANCH  27  28
ENDBRANCH   1  27
TORSDOF 20
ENDMDL
MODEL 3
REMARK VINA RESULT:     -10.2      4.026      7.672
REMARK SMILES COc1cccc(CSc2nc3ccccc3c(=O)n2CCC(=O)OCCOC(=O)c2ccc(-c3c4nc(c(-c5ccc(S(=O)(=O)[O-])cc5)c5ccc([nH]5)c(-c5ccc(S(=O)(=O)[O-])cc5)c5nc(c(-c6ccc(S(=O)(=O)[O-])cc6)c6ccc3[nH]6)C=C5)C=C4)cc2)c1
REMARK SMILES IDX 25 1 23 2 24 3 22 4 21 5 20 6 10 7 11 8 12 9 18 10 13 11
REMARK SMILES IDX 17 12 19 13 14 14 16 15 15 16 9 17 8 18 7 19 3 20 4 21 91 22
REMARK SMILES IDX 5 23 6 24 2 25 1 26 26 27 27 28 28 29 29 30 30 31 31 32
REMARK SMILES IDX 32 33 90 34 33 35 89 36 34 37 35 38 36 39 83 40 37 41 88 42
REMARK SMILES IDX 82 43 84 44 38 45 87 46 81 47 80 48 39 50 69 51 50 52 68 53
REMARK SMILES IDX 51 54 54 55 67 56 85 57 52 58 53 59 66 61 86 62 55 63 40 64
REMARK SMILES IDX 41 65 49 66 42 67 48 68 43 69 44 70 45 71 46 72 47 73 70 74
REMARK SMILES IDX 71 75 79 76 72 77 78 78 73 79 74 80 75 81 76 82 77 83 56 84
REMARK SMILES IDX 57 85 65 86 58 87 64 88 59 89 60 90 61 91 62 92 63 93
REMARK H PARENT 84 49 54 60
REMARK Flexibility Score: inf
ROOT
ATOM      1  O   UNL A   1      33.190  29.092  24.754  1.00  0.00    -0.462 OA
ENDROOT
BRANCH   1   2
ATOM      2  C   UNL A   1      33.415  27.757  24.768  1.00  0.00     0.307 C 
ATOM      3  O   UNL A   1      33.741  27.121  25.763  1.00  0.00    -0.252 OA
BRANCH   2   4
ATOM      4  C   UNL A   1      33.128  27.086  23.442  1.00  0.00     0.144 C 
BRANCH   4   5
ATOM      5  C   UNL A   1      34.008  25.930  22.951  1.00  0.00     0.140 C 
BRANCH   5   6
ATOM      6  N   UNL A   1      33.794  24.618  23.550  1.00  0.00    -0.286 N 
ATOM      7  C   UNL A   1      34.726  23.894  24.248  1.00  0.00     0.171 A 
ATOM      8  N   UNL A   1      34.445  23.385  25.411  1.00  0.00    -0.224 NA
ATOM      9  C   UNL A   1      33.100  23.417  25.817  1.00  0.00     0.079 A 
ATOM     10  C   UNL A   1      32.489  24.146  23.583  1.00  0.00     0.262 A 
ATOM     11  C   UNL A   1      32.732  23.187  27.140  1.00  0.00     0.029 A 
ATOM     12  C   UNL A   1      32.093  23.528  24.859  1.00  0.00     0.066 A 
ATOM     13  O   UNL A   1      31.669  24.290  22.684  1.00  0.00    -0.269 OA
ATOM     14  C   UNL A   1      31.383  22.988  27.469  1.00  0.00     0.002 A 
ATOM     15  C   UNL A   1      30.758  23.249  25.152  1.00  0.00     0.016 A 
ATOM     16  C   UNL A   1      30.407  22.966  26.469  1.00  0.00     0.001 A 
BRANCH   7  17
ATOM     17  S   UNL A   1      36.252  23.369  23.571  1.00  0.00    -0.083 SA
BRANCH  17  18
ATOM     18  C   UNL A   1      37.058  22.103  24.564  1.00  0.00     0.113 C 
BRANCH  18  19
ATOM     19  C   UNL A   1      38.071  22.585  25.572  1.00  0.00    -0.034 A 
ATOM     20  C   UNL A   1      39.971  22.165  27.046  1.00  0.00     0.119 A 
ATOM     21  C   UNL A   1      39.855  23.463  27.538  1.00  0.00     0.046 A 
ATOM     22  C   UNL A   1      39.118  21.755  26.023  1.00  0.00     0.051 A 
ATOM     23  C   UNL A   1      38.907  24.341  27.015  1.00  0.00     0.004 A 
ATOM     24  C   UNL A   1      38.012  23.902  26.044  1.00  0.00     0.005 A 
BRANCH  20  25
ATOM     25  O   UNL A   1      40.926  21.402  27.657  1.00  0.00    -0.497 OA
ATOM     26  C   UNL A   1      41.324  20.195  27.020  1.00  0.00     0.278 C 
ENDBRANCH  20  25
ENDBRANCH  18  19
ENDBRANCH  17  18
ENDBRANCH   7  17
ENDBRANCH   5   6
ENDBRANCH   4   5
ENDBRANCH   2   4
ENDBRANCH   1   2
BRANCH   1  27
ATOM     27  C   UNL A   1      32.095  29.539  25.584  1.00  0.00     0.274 C 
BRANCH  27  28
ATOM     28  C   UNL A   1      32.600  30.423  26.739  1.00  0.00     0.275 C 
BRANCH  28  29
ATOM     29  O   UNL A   1      34.002  30.760  26.685  1.00  0.00    -0.458 OA
BRANCH  29  30
ATOM     30  C   UNL A   1      34.534  31.320  27.789  1.00  0.00     0.338 C 
ATOM     31  O   UNL A   1      34.067  32.237  28.449  1.00  0.00    -0.246 OA
BRANCH  30  32
ATOM     32  C   UNL A   1      35.891  30.788  28.006  1.00  0.00     0.060 A 
ATOM     33  C   UNL A   1      36.890  31.690  28.384  1.00  0.00     0.016 A 
ATOM     34  C   UNL A   1      36.155  29.418  27.947  1.00  0.00     0.016 A 
ATOM     35  C   UNL A   1      38.136  31.213  28.789  1.00  0.00     0.010 A 
ATOM     36  C   UNL A   1      37.381  28.938  28.425  1.00  0.00     0.010 A 
ATOM     37  C   UNL A   1      38.352  29.829  28.913  1.00  0.00    -0.014 A 
BRANCH  37  38
ATOM     38  C   UNL A   1      39.450  29.340  29.797  1.00  0.00     0.031 A 
ATOM     39  C   UNL A   1      40.482  28.352  29.343  1.00  0.00     0.074 A 
ATOM     40  C   UNL A   1      39.463  29.779  31.076  1.00  0.00     0.049 A 
ATOM     41  N   UNL A   1      41.465  27.825  30.030  1.00  0.00    -0.248 NA
ATOM     42  C   UNL A   1      40.399  27.884  27.953  1.00  0.00     0.031 C 
ATOM     43  C   UNL A   1      38.491  30.713  31.658  1.00  0.00     0.029 A 
ATOM     44  N   UNL A   1      40.315  29.509  32.118  1.00  0.00    -0.354 N 
ATOM     45  C   UNL A   1      42.116  26.954  29.165  1.00  0.00     0.074 A 
ATOM     46  C   UNL A   1      41.396  27.008  27.906  1.00  0.00     0.031 C 
ATOM     47  C   UNL A   1      38.830  30.974  32.927  1.00  0.00     0.029 A 
ATOM     48  C   UNL A   1      39.994  30.174  33.280  1.00  0.00     0.049 A 
ATOM     49  H   UNL A   1      41.084  28.899  32.042  1.00  0.00     0.167 HD
ATOM     50  C   UNL A   1      43.210  26.187  29.399  1.00  0.00     0.031 A 
ATOM     51  C   UNL A   1      40.549  30.135  34.507  1.00  0.00     0.031 A 
ATOM     52  C   UNL A   1      43.913  26.124  30.659  1.00  0.00     0.049 A 
ATOM     53  C   UNL A   1      41.737  29.251  34.743  1.00  0.00     0.074 A 
ATOM     54  C   UNL A   1      45.053  25.402  30.972  1.00  0.00     0.029 A 
ATOM     55  N   UNL A   1      43.543  26.795  31.816  1.00  0.00    -0.354 N 
ATOM     56  N   UNL A   1      42.365  28.475  33.894  1.00  0.00    -0.248 NA
ATOM     57  C   UNL A   1      42.294  29.241  36.101  1.00  0.00     0.031 C 
ATOM     58  C   UNL A   1      45.336  25.587  32.329  1.00  0.00     0.029 A 
ATOM     59  C   UNL A   1      44.415  26.480  32.849  1.00  0.00     0.049 A 
ATOM     60  H   UNL A   1      42.774  27.406  31.893  1.00  0.00     0.167 HD
ATOM     61  C   UNL A   1      43.407  27.898  34.611  1.00  0.00     0.074 A 
ATOM     62  C   UNL A   1      43.336  28.434  35.955  1.00  0.00     0.031 C 
ATOM     63  C   UNL A   1      44.337  27.006  34.190  1.00  0.00     0.031 A 
BRANCH  50  64
ATOM     64  C   UNL A   1      43.711  25.319  28.271  1.00  0.00    -0.014 A 
ATOM     65  C   UNL A   1      43.327  23.970  28.161  1.00  0.00     0.010 A 
ATOM     66  C   UNL A   1      44.527  25.877  27.268  1.00  0.00     0.010 A 
ATOM     67  C   UNL A   1      43.780  23.188  27.094  1.00  0.00     0.020 A 
ATOM     68  C   UNL A   1      44.959  25.107  26.184  1.00  0.00     0.020 A 
ATOM     69  C   UNL A   1      44.597  23.760  26.114  1.00  0.00     0.054 A 
BRANCH  69  70
ATOM     70  S   UNL A   1      45.155  22.725  24.732  1.00  0.00     0.124 S 
ATOM     71  O   UNL A   1      45.996  21.743  25.414  1.00  0.00    -0.237 OA
ATOM     72  O   UNL A   1      43.901  22.210  24.190  1.00  0.00    -0.237 OA
ATOM     73  O   UNL A   1      45.869  23.659  23.864  1.00  0.00    -0.744 OA
ENDBRANCH  69  70
ENDBRANCH  50  64
BRANCH  51  74
ATOM     74  C   UNL A   1      39.973  30.957  35.606  1.00  0.00    -0.014 A 
ATOM     75  C   UNL A   1      38.649  30.756  36.033  1.00  0.00     0.010 A 
ATOM     76  C   UNL A   1      40.756  31.936  36.246  1.00  0.00     0.010 A 
ATOM     77  C   UNL A   1      38.114  31.531  37.067  1.00  0.00     0.020 A 
ATOM     78  C   UNL A   1      40.236  32.688  37.301  1.00  0.00     0.020 A 
ATOM     79  C   UNL A   1      38.913  32.490  37.696  1.00  0.00     0.054 A 
BRANCH  79  80
ATOM     80  S   UNL A   1      38.211  33.449  39.067  1.00  0.00     0.124 S 
ATOM     81  O   UNL A   1      38.415  34.820  38.613  1.00  0.00    -0.237 OA
ATOM     82  O   UNL A   1      36.825  32.989  39.095  1.00  0.00    -0.237 OA
ATOM     83  O   UNL A   1      39.018  33.042  40.215  1.00  0.00    -0.744 OA
ENDBRANCH  79  80
ENDBRANCH  51  74
BRANCH  63  84
ATOM     84  C   UNL A   1      45.381  26.579  35.189  1.00  0.00    -0.014 A 
ATOM     85  C   UNL A   1      46.587  27.287  35.338  1.00  0.00     0.010 A 
ATOM     86  C   UNL A   1      45.140  25.462  36.010  1.00  0.00     0.010 A 
ATOM     87  C   UNL A   1      47.549  26.860  36.259  1.00  0.00     0.020 A 
ATOM     88  C   UNL A   1      46.085  25.050  36.953  1.00  0.00     0.020 A 
ATOM     89  C   UNL A   1      47.293  25.743  37.060  1.00  0.00     0.054 A 
BRANCH  89  90
ATOM     90  S   UNL A   1      48.545  25.225  38.266  1.00  0.00     0.124 S 
ATOM     91  O   UNL A   1      47.722  24.685  39.344  1.00  0.00    -0.237 OA
ATOM     92  O   UNL A   1      49.324  24.243  37.517  1.00  0.00    -0.237 OA
ATOM     93  O   UNL A   1      49.253  26.464  38.583  1.00  0.00    -0.744 OA
ENDBRANCH  89  90
ENDBRANCH  63  84
ENDBRANCH  37  38
ENDBRANCH  30  32
ENDBRANCH  29  30
ENDBRANCH  28  29
ENDBRANCH  27  28
ENDBRANCH   1  27
TORSDOF 20
ENDMDL
