MODEL 1
REMARK VINA RESULT:     -13.8      0.000      0.000
REMARK SMILES Cc1ccc(NC(=O)C[C@@H](C(=O)OCCOC(=O)c2ccc(-c3c4nc(c(-c5ccc(S(=O)(=O)[O-])cc5)c5ccc([nH]5)c(-c5ccc(S(=O)(=O)[O-])cc5)c5nc(c(-c6ccc(S(=O)(=O)[O-])cc6)c6ccc3[nH]6)C=C5)C=C4)cc2)[NH+]2CCOCC2)cc1
REMARK SMILES IDX 14 1 13 2 11 3 12 4 10 5 9 6 7 7 6 8 8 10 5 11 1 12 2 13
REMARK SMILES IDX 3 14 86 15 4 16 85 17 79 18 80 19 84 20 81 22 83 23 82 24
REMARK SMILES IDX 15 25 16 26 17 27 18 28 19 29 20 30 78 31 21 32 77 33 22 34
REMARK SMILES IDX 23 35 24 36 71 37 25 38 76 39 70 40 72 41 26 42 75 43 69 44
REMARK SMILES IDX 68 45 27 47 57 48 38 49 56 50 39 51 42 52 55 53 73 54 40 55
REMARK SMILES IDX 41 56 54 58 74 59 43 60 28 61 29 62 37 63 30 64 36 65 31 66
REMARK SMILES IDX 32 67 33 68 34 69 35 70 58 71 59 72 67 73 60 74 66 75 61 76
REMARK SMILES IDX 62 77 63 78 64 79 65 80 44 81 45 82 53 83 46 84 52 85 47 86
REMARK SMILES IDX 48 87 49 88 50 89 51 90
REMARK H PARENT 6 9 79 21 72 46 42 57
REMARK Flexibility Score: inf
ROOT
ATOM      1  C   UNL A   1      34.328  24.521  25.834  1.00  0.00     0.274 C 
ENDROOT
BRANCH   1   2
ATOM      2  O   UNL A   1      32.719  23.759  25.937  1.00  0.00    -0.458 OA
BRANCH   2   3
ATOM      3  C   UNL A   1      31.454  24.352  26.072  1.00  0.00     0.365 C 
ATOM      4  O   UNL A   1      30.958  24.505  27.171  1.00  0.00    -0.245 OA
BRANCH   3   5
ATOM      5  C   UNL A   1      30.670  24.722  24.728  1.00  0.00     0.304 C 
BRANCH   5   6
ATOM      6  C   UNL A   1      30.812  23.672  23.614  1.00  0.00     0.177 C 
BRANCH   6   7
ATOM      7  C   UNL A   1      32.128  23.699  22.891  1.00  0.00     0.231 C 
ATOM      8  N   UNL A   1      33.023  22.681  22.997  1.00  0.00    -0.326 N 
ATOM      9  H   UNL A   1      33.964  22.929  22.850  1.00  0.00     0.169 HD
ATOM     10  O   UNL A   1      32.439  24.669  22.193  1.00  0.00    -0.274 OA
BRANCH   8  11
ATOM     11  C   UNL A   1      32.800  21.329  23.286  1.00  0.00     0.041 A 
ATOM     12  C   UNL A   1      33.388  16.324  24.057  1.00  0.00     0.044 C 
ATOM     13  C   UNL A   1      33.549  17.788  23.673  1.00  0.00    -0.051 A 
ATOM     14  C   UNL A   1      32.428  18.345  22.436  1.00  0.00     0.005 A 
ATOM     15  C   UNL A   1      34.227  18.961  24.707  1.00  0.00     0.005 A 
ATOM     16  C   UNL A   1      31.994  20.148  22.180  1.00  0.00     0.026 A 
ATOM     17  C   UNL A   1      33.875  20.677  24.544  1.00  0.00     0.026 A 
ENDBRANCH   8  11
ENDBRANCH   6   7
ENDBRANCH   5   6
BRANCH   5  18
ATOM     18  N   UNL A   1      30.791  26.162  24.120  1.00  0.00    -0.319 N 
ATOM     19  C   UNL A   1      29.546  26.891  23.808  1.00  0.00     0.291 C 
ATOM     20  C   UNL A   1      31.743  27.123  24.740  1.00  0.00     0.291 C 
ATOM     21  H   UNL A   1      31.203  25.835  23.246  1.00  0.00     0.348 HD
ATOM     22  C   UNL A   1      29.717  28.260  23.092  1.00  0.00     0.221 C 
ATOM     23  C   UNL A   1      31.882  28.459  23.955  1.00  0.00     0.221 C 
ATOM     24  O   UNL A   1      30.628  29.118  23.791  1.00  0.00    -0.370 OA
ENDBRANCH   5  18
ENDBRANCH   3   5
ENDBRANCH   2   3
ENDBRANCH   1   2
BRANCH   1  25
ATOM     25  C   UNL A   1      36.197  23.344  25.702  1.00  0.00     0.275 C 
BRANCH  25  26
ATOM     26  O   UNL A   1      37.846  24.194  25.794  1.00  0.00    -0.458 OA
BRANCH  26  27
ATOM     27  C   UNL A   1      39.155  24.086  26.539  1.00  0.00     0.338 C 
ATOM     28  O   UNL A   1      39.841  23.094  26.275  1.00  0.00    -0.246 OA
BRANCH  27  29
ATOM     29  C   UNL A   1      39.929  25.306  27.300  1.00  0.00     0.060 A 
ATOM     30  C   UNL A   1      40.255  26.548  26.733  1.00  0.00     0.016 A 
ATOM     31  C   UNL A   1      40.099  25.330  28.663  1.00  0.00     0.016 A 
ATOM     32  C   UNL A   1      40.286  27.749  27.540  1.00  0.00     0.010 A 
ATOM     33  C   UNL A   1      39.559  26.445  29.297  1.00  0.00     0.010 A 
ATOM     34  C   UNL A   1      39.699  27.721  28.797  1.00  0.00    -0.014 A 
BRANCH  34  35
ATOM     35  C   UNL A   1      39.452  28.805  29.805  1.00  0.00     0.031 A 
ATOM     36  C   UNL A   1      38.424  29.902  29.562  1.00  0.00     0.074 A 
ATOM     37  C   UNL A   1      40.360  28.666  30.826  1.00  0.00     0.049 A 
ATOM     38  N   UNL A   1      38.655  31.142  29.264  1.00  0.00    -0.248 NA
ATOM     39  C   UNL A   1      36.954  29.669  29.611  1.00  0.00     0.031 C 
ATOM     40  C   UNL A   1      40.929  29.550  31.822  1.00  0.00     0.029 A 
ATOM     41  N   UNL A   1      41.287  27.583  30.910  1.00  0.00    -0.354 N 
ATOM     42  C   UNL A   1      37.473  31.852  29.522  1.00  0.00     0.074 A 
ATOM     43  C   UNL A   1      36.416  30.890  29.434  1.00  0.00     0.031 C 
ATOM     44  C   UNL A   1      42.259  29.248  31.883  1.00  0.00     0.029 A 
ATOM     45  C   UNL A   1      42.547  28.124  30.962  1.00  0.00     0.049 A 
ATOM     46  H   UNL A   1      41.064  26.625  30.927  1.00  0.00     0.167 HD
ATOM     47  C   UNL A   1      37.502  33.041  30.209  1.00  0.00     0.031 A 
ATOM     48  C   UNL A   1      43.249  28.108  29.782  1.00  0.00     0.031 A 
ATOM     49  C   UNL A   1      38.859  33.213  30.710  1.00  0.00     0.049 A 
ATOM     50  C   UNL A   1      43.341  29.538  29.321  1.00  0.00     0.074 A 
ATOM     51  C   UNL A   1      39.406  32.897  31.942  1.00  0.00     0.029 A 
ATOM     52  N   UNL A   1      39.910  33.290  29.811  1.00  0.00    -0.354 N 
ATOM     53  N   UNL A   1      42.375  30.423  29.384  1.00  0.00    -0.248 NA
ATOM     54  C   UNL A   1      44.645  30.109  29.045  1.00  0.00     0.031 C 
ATOM     55  C   UNL A   1      40.799  32.722  31.756  1.00  0.00     0.029 A 
ATOM     56  C   UNL A   1      41.077  32.845  30.403  1.00  0.00     0.049 A 
ATOM     57  H   UNL A   1      39.837  33.614  28.883  1.00  0.00     0.167 HD
ATOM     58  C   UNL A   1      42.945  31.677  29.359  1.00  0.00     0.074 A 
ATOM     59  C   UNL A   1      44.361  31.415  29.132  1.00  0.00     0.031 C 
ATOM     60  C   UNL A   1      42.314  32.859  29.645  1.00  0.00     0.031 A 
BRANCH  47  61
ATOM     61  C   UNL A   1      36.333  33.841  30.792  1.00  0.00    -0.014 A 
ATOM     62  C   UNL A   1      35.253  34.197  29.944  1.00  0.00     0.010 A 
ATOM     63  C   UNL A   1      36.172  34.192  32.150  1.00  0.00     0.010 A 
ATOM     64  C   UNL A   1      34.112  34.886  30.386  1.00  0.00     0.020 A 
ATOM     65  C   UNL A   1      35.016  34.882  32.615  1.00  0.00     0.020 A 
ATOM     66  C   UNL A   1      33.995  35.230  31.725  1.00  0.00     0.054 A 
BRANCH  66  67
ATOM     67  S   UNL A   1      32.485  36.101  32.252  1.00  0.00     0.124 S 
ATOM     68  O   UNL A   1      32.963  36.910  33.373  1.00  0.00    -0.237 OA
ATOM     69  O   UNL A   1      32.114  36.853  31.057  1.00  0.00    -0.237 OA
ATOM     70  O   UNL A   1      31.568  35.023  32.617  1.00  0.00    -0.744 OA
ENDBRANCH  66  67
ENDBRANCH  47  61
BRANCH  48  71
ATOM     71  C   UNL A   1      43.361  26.838  28.920  1.00  0.00    -0.014 A 
ATOM     72  C   UNL A   1      43.568  26.985  27.520  1.00  0.00     0.010 A 
ATOM     73  C   UNL A   1      43.374  25.499  29.382  1.00  0.00     0.010 A 
ATOM     74  C   UNL A   1      43.888  25.906  26.662  1.00  0.00     0.020 A 
ATOM     75  C   UNL A   1      43.698  24.395  28.522  1.00  0.00     0.020 A 
ATOM     76  C   UNL A   1      43.989  24.614  27.171  1.00  0.00     0.054 A 
BRANCH  76  77
ATOM     77  S   UNL A   1      44.788  23.348  26.103  1.00  0.00     0.124 S 
ATOM     78  O   UNL A   1      46.021  23.054  26.827  1.00  0.00    -0.237 OA
ATOM     79  O   UNL A   1      43.792  22.274  26.118  1.00  0.00    -0.237 OA
ATOM     80  O   UNL A   1      44.963  24.026  24.826  1.00  0.00    -0.744 OA
ENDBRANCH  76  77
ENDBRANCH  48  71
BRANCH  60  81
ATOM     81  C   UNL A   1      42.858  34.231  29.314  1.00  0.00    -0.014 A 
ATOM     82  C   UNL A   1      43.028  34.703  28.011  1.00  0.00     0.010 A 
ATOM     83  C   UNL A   1      43.074  35.162  30.366  1.00  0.00     0.010 A 
ATOM     84  C   UNL A   1      43.476  36.000  27.765  1.00  0.00     0.020 A 
ATOM     85  C   UNL A   1      43.430  36.484  30.131  1.00  0.00     0.020 A 
ATOM     86  C   UNL A   1      43.666  36.883  28.826  1.00  0.00     0.054 A 
BRANCH  86  87
ATOM     87  S   UNL A   1      44.167  38.572  28.464  1.00  0.00     0.124 S 
ATOM     88  O   UNL A   1      42.968  39.102  27.818  1.00  0.00    -0.237 OA
ATOM     89  O   UNL A   1      44.453  39.110  29.793  1.00  0.00    -0.237 OA
ATOM     90  O   UNL A   1      45.331  38.413  27.597  1.00  0.00    -0.744 OA
ENDBRANCH  86  87
ENDBRANCH  60  81
ENDBRANCH  34  35
ENDBRANCH  27  29
ENDBRANCH  26  27
ENDBRANCH  25  26
ENDBRANCH   1  25
TORSDOF 18
ENDMDL
MODEL 2
REMARK VINA RESULT:     -12.5      1.638      3.448
REMARK SMILES Cc1ccc(NC(=O)C[C@@H](C(=O)OCCOC(=O)c2ccc(-c3c4nc(c(-c5ccc(S(=O)(=O)[O-])cc5)c5ccc([nH]5)c(-c5ccc(S(=O)(=O)[O-])cc5)c5nc(c(-c6ccc(S(=O)(=O)[O-])cc6)c6ccc3[nH]6)C=C5)C=C4)cc2)[NH+]2CCOCC2)cc1
REMARK SMILES IDX 14 1 13 2 11 3 12 4 10 5 9 6 7 7 6 8 8 10 5 11 1 12 2 13
REMARK SMILES IDX 3 14 86 15 4 16 85 17 79 18 80 19 84 20 81 22 83 23 82 24
REMARK SMILES IDX 15 25 16 26 17 27 18 28 19 29 20 30 78 31 21 32 77 33 22 34
REMARK SMILES IDX 23 35 24 36 71 37 25 38 76 39 70 40 72 41 26 42 75 43 69 44
REMARK SMILES IDX 68 45 27 47 57 48 38 49 56 50 39 51 42 52 55 53 73 54 40 55
REMARK SMILES IDX 41 56 54 58 74 59 43 60 28 61 29 62 37 63 30 64 36 65 31 66
REMARK SMILES IDX 32 67 33 68 34 69 35 70 58 71 59 72 67 73 60 74 66 75 61 76
REMARK SMILES IDX 62 77 63 78 64 79 65 80 44 81 45 82 53 83 46 84 52 85 47 86
REMARK SMILES IDX 48 87 49 88 50 89 51 90
REMARK H PARENT 6 9 79 21 72 46 42 57
REMARK Flexibility Score: inf
ROOT
ATOM      1  C   UNL A   1      35.050  22.609  24.936  1.00  0.00     0.274 C 
ENDROOT
BRANCH   1   2
ATOM      2  O   UNL A   1      33.847  23.825  25.441  1.00  0.00    -0.458 OA
BRANCH   2   3
ATOM      3  C   UNL A   1      32.952  23.805  26.522  1.00  0.00     0.365 C 
ATOM      4  O   UNL A   1      33.010  22.922  27.355  1.00  0.00    -0.245 OA
BRANCH   3   5
ATOM      5  C   UNL A   1      31.811  24.925  26.550  1.00  0.00     0.304 C 
BRANCH   5   6
ATOM      6  C   UNL A   1      30.491  24.488  25.893  1.00  0.00     0.177 C 
BRANCH   6   7
ATOM      7  C   UNL A   1      30.577  24.247  24.414  1.00  0.00     0.231 C 
ATOM      8  N   UNL A   1      29.998  25.090  23.517  1.00  0.00    -0.326 N 
ATOM      9  H   UNL A   1      29.750  24.683  22.656  1.00  0.00     0.169 HD
ATOM     10  O   UNL A   1      31.164  23.253  23.974  1.00  0.00    -0.274 OA
BRANCH   8  11
ATOM     11  C   UNL A   1      29.703  26.453  23.642  1.00  0.00     0.041 A 
ATOM     12  C   UNL A   1      27.734  31.115  23.025  1.00  0.00     0.044 C 
ATOM     13  C   UNL A   1      28.158  29.659  22.882  1.00  0.00    -0.051 A 
ATOM     14  C   UNL A   1      29.891  29.421  22.683  1.00  0.00     0.005 A 
ATOM     15  C   UNL A   1      27.248  28.352  23.488  1.00  0.00     0.005 A 
ATOM     16  C   UNL A   1      30.754  27.802  23.055  1.00  0.00     0.026 A 
ATOM     17  C   UNL A   1      27.973  26.795  23.869  1.00  0.00     0.026 A 
ENDBRANCH   8  11
ENDBRANCH   6   7
ENDBRANCH   5   6
BRANCH   5  18
ATOM     18  N   UNL A   1      32.147  26.399  26.137  1.00  0.00    -0.319 N 
ATOM     19  C   UNL A   1      31.480  27.495  26.867  1.00  0.00     0.291 C 
ATOM     20  C   UNL A   1      33.572  26.780  25.940  1.00  0.00     0.291 C 
ATOM     21  H   UNL A   1      31.718  26.314  25.216  1.00  0.00     0.348 HD
ATOM     22  C   UNL A   1      31.749  28.932  26.338  1.00  0.00     0.221 C 
ATOM     23  C   UNL A   1      33.764  28.221  25.386  1.00  0.00     0.221 C 
ATOM     24  O   UNL A   1      33.151  29.203  26.220  1.00  0.00    -0.370 OA
ENDBRANCH   5  18
ENDBRANCH   3   5
ENDBRANCH   2   3
ENDBRANCH   1   2
BRANCH   1  25
ATOM     25  C   UNL A   1      37.031  23.162  24.119  1.00  0.00     0.275 C 
BRANCH  25  26
ATOM     26  O   UNL A   1      38.233  24.128  25.153  1.00  0.00    -0.458 OA
BRANCH  26  27
ATOM     27  C   UNL A   1      38.937  24.036  26.486  1.00  0.00     0.338 C 
ATOM     28  O   UNL A   1      39.213  22.895  26.868  1.00  0.00    -0.246 OA
BRANCH  27  29
ATOM     29  C   UNL A   1      39.728  25.250  27.239  1.00  0.00     0.060 A 
ATOM     30  C   UNL A   1      40.048  26.493  26.673  1.00  0.00     0.016 A 
ATOM     31  C   UNL A   1      39.921  25.267  28.600  1.00  0.00     0.016 A 
ATOM     32  C   UNL A   1      40.097  27.690  27.485  1.00  0.00     0.010 A 
ATOM     33  C   UNL A   1      39.395  26.381  29.247  1.00  0.00     0.010 A 
ATOM     34  C   UNL A   1      39.531  27.659  28.751  1.00  0.00    -0.014 A 
BRANCH  34  35
ATOM     35  C   UNL A   1      39.304  28.739  29.768  1.00  0.00     0.031 A 
ATOM     36  C   UNL A   1      38.289  29.851  29.539  1.00  0.00     0.074 A 
ATOM     37  C   UNL A   1      40.216  28.582  30.782  1.00  0.00     0.049 A 
ATOM     38  N   UNL A   1      38.534  31.090  29.248  1.00  0.00    -0.248 NA
ATOM     39  C   UNL A   1      36.816  29.636  29.596  1.00  0.00     0.031 C 
ATOM     40  C   UNL A   1      40.803  29.451  31.781  1.00  0.00     0.029 A 
ATOM     41  N   UNL A   1      41.130  27.487  30.853  1.00  0.00    -0.354 N 
ATOM     42  C   UNL A   1      37.362  31.813  29.519  1.00  0.00     0.074 A 
ATOM     43  C   UNL A   1      36.292  30.865  29.430  1.00  0.00     0.031 C 
ATOM     44  C   UNL A   1      42.129  29.132  31.831  1.00  0.00     0.029 A 
ATOM     45  C   UNL A   1      42.397  28.011  30.900  1.00  0.00     0.049 A 
ATOM     46  H   UNL A   1      40.895  26.531  30.865  1.00  0.00     0.167 HD
ATOM     47  C   UNL A   1      37.411  32.996  30.213  1.00  0.00     0.031 A 
ATOM     48  C   UNL A   1      43.091  27.994  29.716  1.00  0.00     0.031 A 
ATOM     49  C   UNL A   1      38.773  33.148  30.706  1.00  0.00     0.049 A 
ATOM     50  C   UNL A   1      43.198  29.426  29.264  1.00  0.00     0.074 A 
ATOM     51  C   UNL A   1      39.323  32.816  31.933  1.00  0.00     0.029 A 
ATOM     52  N   UNL A   1      39.819  33.218  29.801  1.00  0.00    -0.354 N 
ATOM     53  N   UNL A   1      42.244  30.323  29.339  1.00  0.00    -0.248 NA
ATOM     54  C   UNL A   1      44.508  29.982  28.984  1.00  0.00     0.031 C 
ATOM     55  C   UNL A   1      40.713  32.625  31.737  1.00  0.00     0.029 A 
ATOM     56  C   UNL A   1      40.984  32.754  30.383  1.00  0.00     0.049 A 
ATOM     57  H   UNL A   1      39.744  33.549  28.876  1.00  0.00     0.167 HD
ATOM     58  C   UNL A   1      42.830  31.569  29.319  1.00  0.00     0.074 A 
ATOM     59  C   UNL A   1      44.241  31.291  29.081  1.00  0.00     0.031 C 
ATOM     60  C   UNL A   1      42.216  32.758  29.617  1.00  0.00     0.031 A 
BRANCH  47  61
ATOM     61  C   UNL A   1      36.255  33.808  30.809  1.00  0.00    -0.014 A 
ATOM     62  C   UNL A   1      35.183  34.197  29.967  1.00  0.00     0.010 A 
ATOM     63  C   UNL A   1      36.100  34.139  32.173  1.00  0.00     0.010 A 
ATOM     64  C   UNL A   1      34.054  34.898  30.420  1.00  0.00     0.020 A 
ATOM     65  C   UNL A   1      34.957  34.841  32.648  1.00  0.00     0.020 A 
ATOM     66  C   UNL A   1      33.943  35.222  31.764  1.00  0.00     0.054 A 
BRANCH  66  67
ATOM     67  S   UNL A   1      32.448  36.111  32.305  1.00  0.00     0.124 S 
ATOM     68  O   UNL A   1      32.071  36.855  31.104  1.00  0.00    -0.237 OA
ATOM     69  O   UNL A   1      31.543  35.024  32.672  1.00  0.00    -0.237 OA
ATOM     70  O   UNL A   1      32.913  36.934  33.419  1.00  0.00    -0.744 OA
ENDBRANCH  66  67
ENDBRANCH  47  61
BRANCH  48  71
ATOM     71  C   UNL A   1      43.181  26.728  28.844  1.00  0.00    -0.014 A 
ATOM     72  C   UNL A   1      43.359  26.883  27.441  1.00  0.00     0.010 A 
ATOM     73  C   UNL A   1      43.201  25.387  29.299  1.00  0.00     0.010 A 
ATOM     74  C   UNL A   1      43.658  25.808  26.570  1.00  0.00     0.020 A 
ATOM     75  C   UNL A   1      43.504  24.287  28.426  1.00  0.00     0.020 A 
ATOM     76  C   UNL A   1      43.766  24.513  27.070  1.00  0.00     0.054 A 
BRANCH  76  77
ATOM     77  S   UNL A   1      44.539  23.251  25.979  1.00  0.00     0.124 S 
ATOM     78  O   UNL A   1      45.964  23.532  26.126  1.00  0.00    -0.237 OA
ATOM     79  O   UNL A   1      44.089  22.003  26.601  1.00  0.00    -0.237 OA
ATOM     80  O   UNL A   1      43.981  23.535  24.664  1.00  0.00    -0.744 OA
ENDBRANCH  76  77
ENDBRANCH  48  71
BRANCH  60  81
ATOM     81  C   UNL A   1      42.776  34.124  29.292  1.00  0.00    -0.014 A 
ATOM     82  C   UNL A   1      43.801  34.733  30.018  1.00  0.00     0.010 A 
ATOM     83  C   UNL A   1      42.358  34.778  28.102  1.00  0.00     0.010 A 
ATOM     84  C   UNL A   1      44.320  35.969  29.637  1.00  0.00     0.020 A 
ATOM     85  C   UNL A   1      42.933  35.964  27.661  1.00  0.00     0.020 A 
ATOM     86  C   UNL A   1      43.890  36.571  28.457  1.00  0.00     0.054 A 
BRANCH  86  87
ATOM     87  S   UNL A   1      44.642  38.126  27.956  1.00  0.00     0.124 S 
ATOM     88  O   UNL A   1      43.778  38.526  26.848  1.00  0.00    -0.237 OA
ATOM     89  O   UNL A   1      44.527  38.939  29.165  1.00  0.00    -0.237 OA
ATOM     90  O   UNL A   1      46.004  37.753  27.588  1.00  0.00    -0.744 OA
ENDBRANCH  86  87
ENDBRANCH  60  81
ENDBRANCH  34  35
ENDBRANCH  27  29
ENDBRANCH  26  27
ENDBRANCH  25  26
ENDBRANCH   1  25
TORSDOF 18
ENDMDL
MODEL 3
REMARK VINA RESULT:     -12.1      2.156      4.455
REMARK SMILES Cc1ccc(NC(=O)C[C@@H](C(=O)OCCOC(=O)c2ccc(-c3c4nc(c(-c5ccc(S(=O)(=O)[O-])cc5)c5ccc([nH]5)c(-c5ccc(S(=O)(=O)[O-])cc5)c5nc(c(-c6ccc(S(=O)(=O)[O-])cc6)c6ccc3[nH]6)C=C5)C=C4)cc2)[NH+]2CCOCC2)cc1
REMARK SMILES IDX 14 1 13 2 11 3 12 4 10 5 9 6 7 7 6 8 8 10 5 11 1 12 2 13
REMARK SMILES IDX 3 14 86 15 4 16 85 17 79 18 80 19 84 20 81 22 83 23 82 24
REMARK SMILES IDX 15 25 16 26 17 27 18 28 19 29 20 30 78 31 21 32 77 33 22 34
REMARK SMILES IDX 23 35 24 36 71 37 25 38 76 39 70 40 72 41 26 42 75 43 69 44
REMARK SMILES IDX 68 45 27 47 57 48 38 49 56 50 39 51 42 52 55 53 73 54 40 55
REMARK SMILES IDX 41 56 54 58 74 59 43 60 28 61 29 62 37 63 30 64 36 65 31 66
REMARK SMILES IDX 32 67 33 68 34 69 35 70 58 71 59 72 67 73 60 74 66 75 61 76
REMARK SMILES IDX 62 77 63 78 64 79 65 80 44 81 45 82 53 83 46 84 52 85 47 86
REMARK SMILES IDX 48 87 49 88 50 89 51 90
REMARK H PARENT 6 9 79 21 72 46 42 57
REMARK Flexibility Score: inf
ROOT
ATOM      1  C   UNL A   1      35.898  23.499  26.532  1.00  0.00     0.274 C 
ENDROOT
BRANCH   1   2
ATOM      2  O   UNL A   1      34.210  23.000  26.818  1.00  0.00    -0.458 OA
BRANCH   2   3
ATOM      3  C   UNL A   1      33.313  22.342  25.961  1.00  0.00     0.365 C 
ATOM      4  O   UNL A   1      32.125  22.313  26.217  1.00  0.00    -0.245 OA
BRANCH   3   5
ATOM      5  C   UNL A   1      33.932  21.566  24.708  1.00  0.00     0.304 C 
BRANCH   5   6
ATOM      6  C   UNL A   1      33.672  22.255  23.358  1.00  0.00     0.177 C 
BRANCH   6   7
ATOM      7  C   UNL A   1      32.285  22.066  22.814  1.00  0.00     0.231 C 
ATOM      8  N   UNL A   1      31.314  23.002  22.989  1.00  0.00    -0.326 N 
ATOM      9  H   UNL A   1      30.392  22.659  22.977  1.00  0.00     0.169 HD
ATOM     10  O   UNL A   1      31.987  21.032  22.207  1.00  0.00    -0.274 OA
BRANCH   8  11
ATOM     11  C   UNL A   1      31.437  24.382  23.186  1.00  0.00     0.041 A 
ATOM     12  C   UNL A   1      30.456  29.332  23.914  1.00  0.00     0.044 C 
ATOM     13  C   UNL A   1      30.387  27.841  23.615  1.00  0.00    -0.051 A 
ATOM     14  C   UNL A   1      31.289  27.341  22.189  1.00  0.00     0.005 A 
ATOM     15  C   UNL A   1      30.070  26.659  24.801  1.00  0.00     0.005 A 
ATOM     16  C   UNL A   1      31.863  25.582  21.902  1.00  0.00     0.026 A 
ATOM     17  C   UNL A   1      30.574  24.983  24.620  1.00  0.00     0.026 A 
ENDBRANCH   8  11
ENDBRANCH   6   7
ENDBRANCH   5   6
BRANCH   5  18
ATOM     18  N   UNL A   1      33.726  20.018  24.562  1.00  0.00    -0.319 N 
ATOM     19  C   UNL A   1      34.914  19.148  24.656  1.00  0.00     0.291 C 
ATOM     20  C   UNL A   1      32.620  19.369  25.318  1.00  0.00     0.291 C 
ATOM     21  H   UNL A   1      33.443  20.077  23.584  1.00  0.00     0.348 HD
ATOM     22  C   UNL A   1      34.677  17.637  24.381  1.00  0.00     0.221 C 
ATOM     23  C   UNL A   1      32.426  17.865  24.973  1.00  0.00     0.221 C 
ATOM     24  O   UNL A   1      33.616  17.108  25.185  1.00  0.00    -0.370 OA
ENDBRANCH   5  18
ENDBRANCH   3   5
ENDBRANCH   2   3
ENDBRANCH   1   2
BRANCH   1  25
ATOM     25  C   UNL A   1      37.404  22.150  25.633  1.00  0.00     0.275 C 
BRANCH  25  26
ATOM     26  O   UNL A   1      39.171  22.697  25.469  1.00  0.00    -0.458 OA
BRANCH  26  27
ATOM     27  C   UNL A   1      40.478  22.603  26.219  1.00  0.00     0.338 C 
ATOM     28  O   UNL A   1      41.095  21.542  26.090  1.00  0.00    -0.246 OA
BRANCH  27  29
ATOM     29  C   UNL A   1      41.338  23.861  26.808  1.00  0.00     0.060 A 
ATOM     30  C   UNL A   1      41.440  25.130  26.219  1.00  0.00     0.016 A 
ATOM     31  C   UNL A   1      41.832  23.875  28.091  1.00  0.00     0.016 A 
ATOM     32  C   UNL A   1      41.593  26.318  27.031  1.00  0.00     0.010 A 
ATOM     33  C   UNL A   1      41.395  24.941  28.870  1.00  0.00     0.010 A 
ATOM     34  C   UNL A   1      41.332  26.231  28.391  1.00  0.00    -0.014 A 
BRANCH  34  35
ATOM     35  C   UNL A   1      41.271  27.281  29.462  1.00  0.00     0.031 A 
ATOM     36  C   UNL A   1      40.186  28.350  29.473  1.00  0.00     0.074 A 
ATOM     37  C   UNL A   1      42.375  27.147  30.267  1.00  0.00     0.049 A 
ATOM     38  N   UNL A   1      40.317  29.604  29.172  1.00  0.00    -0.248 NA
ATOM     39  C   UNL A   1      38.765  28.067  29.818  1.00  0.00     0.031 C 
ATOM     40  C   UNL A   1      43.115  28.023  31.151  1.00  0.00     0.029 A 
ATOM     41  N   UNL A   1      43.328  26.093  30.123  1.00  0.00    -0.354 N 
ATOM     42  C   UNL A   1      39.195  30.268  29.693  1.00  0.00     0.074 A 
ATOM     43  C   UNL A   1      38.169  29.274  29.795  1.00  0.00     0.031 C 
ATOM     44  C   UNL A   1      44.437  27.763  30.925  1.00  0.00     0.029 A 
ATOM     45  C   UNL A   1      44.556  26.674  29.929  1.00  0.00     0.049 A 
ATOM     46  H   UNL A   1      43.139  25.128  30.156  1.00  0.00     0.167 HD
ATOM     47  C   UNL A   1      39.335  31.439  30.395  1.00  0.00     0.031 A 
ATOM     48  C   UNL A   1      44.997  26.710  28.630  1.00  0.00     0.031 A 
ATOM     49  C   UNL A   1      40.761  31.643  30.609  1.00  0.00     0.049 A 
ATOM     50  C   UNL A   1      44.952  28.154  28.205  1.00  0.00     0.074 A 
ATOM     51  C   UNL A   1      41.561  31.314  31.690  1.00  0.00     0.029 A 
ATOM     52  N   UNL A   1      41.600  31.777  29.514  1.00  0.00    -0.354 N 
ATOM     53  N   UNL A   1      43.997  29.005  28.495  1.00  0.00    -0.248 NA
ATOM     54  C   UNL A   1      46.155  28.774  27.682  1.00  0.00     0.031 C 
ATOM     55  C   UNL A   1      42.889  31.190  31.213  1.00  0.00     0.029 A 
ATOM     56  C   UNL A   1      42.876  31.356  29.837  1.00  0.00     0.049 A 
ATOM     57  H   UNL A   1      41.325  32.122  28.633  1.00  0.00     0.167 HD
ATOM     58  C   UNL A   1      44.515  30.276  28.392  1.00  0.00     0.074 A 
ATOM     59  C   UNL A   1      45.860  30.067  27.867  1.00  0.00     0.031 C 
ATOM     60  C   UNL A   1      43.926  31.430  28.839  1.00  0.00     0.031 A 
BRANCH  47  61
ATOM     61  C   UNL A   1      38.292  32.186  31.234  1.00  0.00    -0.014 A 
ATOM     62  C   UNL A   1      37.622  31.492  32.273  1.00  0.00     0.010 A 
ATOM     63  C   UNL A   1      37.987  33.560  31.134  1.00  0.00     0.010 A 
ATOM     64  C   UNL A   1      36.686  32.093  33.130  1.00  0.00     0.020 A 
ATOM     65  C   UNL A   1      37.047  34.185  32.002  1.00  0.00     0.020 A 
ATOM     66  C   UNL A   1      36.398  33.442  32.993  1.00  0.00     0.054 A 
BRANCH  66  67
ATOM     67  S   UNL A   1      35.195  34.179  34.145  1.00  0.00     0.124 S 
ATOM     68  O   UNL A   1      33.952  33.502  33.779  1.00  0.00    -0.237 OA
ATOM     69  O   UNL A   1      35.738  33.816  35.451  1.00  0.00    -0.237 OA
ATOM     70  O   UNL A   1      35.236  35.605  33.830  1.00  0.00    -0.744 OA
ENDBRANCH  66  67
ENDBRANCH  47  61
BRANCH  48  71
ATOM     71  C   UNL A   1      44.961  25.466  27.723  1.00  0.00    -0.014 A 
ATOM     72  C   UNL A   1      44.831  25.655  26.319  1.00  0.00     0.010 A 
ATOM     73  C   UNL A   1      45.138  24.120  28.126  1.00  0.00     0.010 A 
ATOM     74  C   UNL A   1      44.990  24.612  25.375  1.00  0.00     0.020 A 
ATOM     75  C   UNL A   1      45.302  23.053  27.178  1.00  0.00     0.020 A 
ATOM     76  C   UNL A   1      45.262  23.316  25.804  1.00  0.00     0.054 A 
BRANCH  76  77
ATOM     77  S   UNL A   1      45.846  22.115  24.541  1.00  0.00     0.124 S 
ATOM     78  O   UNL A   1      46.268  20.978  25.353  1.00  0.00    -0.237 OA
ATOM     79  O   UNL A   1      44.630  21.893  23.754  1.00  0.00    -0.237 OA
ATOM     80  O   UNL A   1      46.919  22.822  23.854  1.00  0.00    -0.744 OA
ENDBRANCH  76  77
ENDBRANCH  48  71
BRANCH  60  81
ATOM     81  C   UNL A   1      44.353  32.827  28.446  1.00  0.00    -0.014 A 
ATOM     82  C   UNL A   1      45.180  33.633  29.230  1.00  0.00     0.010 A 
ATOM     83  C   UNL A   1      44.031  33.309  27.149  1.00  0.00     0.010 A 
ATOM     84  C   UNL A   1      45.591  34.890  28.790  1.00  0.00     0.020 A 
ATOM     85  C   UNL A   1      44.512  34.519  26.662  1.00  0.00     0.020 A 
ATOM     86  C   UNL A   1      45.262  35.320  27.507  1.00  0.00     0.054 A 
BRANCH  86  87
ATOM     87  S   UNL A   1      45.879  36.913  26.945  1.00  0.00     0.124 S 
ATOM     88  O   UNL A   1      46.742  37.303  28.057  1.00  0.00    -0.237 OA
ATOM     89  O   UNL A   1      46.572  36.566  25.705  1.00  0.00    -0.237 OA
ATOM     90  O   UNL A   1      44.671  37.715  26.774  1.00  0.00    -0.744 OA
ENDBRANCH  86  87
ENDBRANCH  60  81
ENDBRANCH  34  35
ENDBRANCH  27  29
ENDBRANCH  26  27
ENDBRANCH  25  26
ENDBRANCH   1  25
TORSDOF 18
ENDMDL
