MODEL 1
REMARK VINA RESULT:     -11.3      0.000      0.000
REMARK SMILES O=C(OCCOC(=O)c1cc(-c2ccc(Cl)cc2)nc2c3c(C4CC4)cc(C(F)(F)F)nc3nn12)c1ccc(-c2c3nc(c(-c4ccc(S(=O)(=O)[O-])cc4)c4ccc([nH]4)c(-c4ccc(S(=O)(=O)[O-])cc4)c4nc(c(-c5ccc(S(=O)(=O)[O-])cc5)c5ccc2[nH]5)C=C4)C=C3)cc1
REMARK SMILES IDX 4 1 3 2 2 3 1 4 36 5 37 6 95 7 38 8 94 9 39 10 40 11 41 12
REMARK SMILES IDX 88 13 42 14 93 15 87 16 89 17 43 18 92 19 86 20 85 21 44 23
REMARK SMILES IDX 74 24 55 25 73 26 56 27 59 28 72 29 90 30 57 31 58 32 71 34
REMARK SMILES IDX 91 35 60 36 45 37 46 38 54 39 47 40 53 41 48 42 49 43 50 44
REMARK SMILES IDX 51 45 52 46 75 47 76 48 84 49 77 50 83 51 78 52 79 53 80 54
REMARK SMILES IDX 81 55 82 56 61 57 62 58 70 59 63 60 69 61 64 62 65 63 66 64
REMARK SMILES IDX 67 65 68 66 5 67 6 68 7 69 8 70 9 71 10 72 35 73 11 74 20 75
REMARK SMILES IDX 34 76 19 77 21 78 33 79 22 80 32 81 26 82 27 83 12 84 13 85
REMARK SMILES IDX 18 86 14 87 17 88 15 89 16 90 23 91 24 92 25 93 28 94 29 95
REMARK SMILES IDX 30 96 31 97
REMARK H PARENT 89 22 59 33
REMARK Flexibility Score: inf
ROOT
ATOM      1  C   UNL A   1      33.245  35.883  30.648  1.00  0.00     0.275 C 
ENDROOT
BRANCH   1   2
ATOM      2  O   UNL A   1      34.072  35.008  31.438  1.00  0.00    -0.458 OA
BRANCH   2   3
ATOM      3  C   UNL A   1      34.973  35.350  32.390  1.00  0.00     0.338 C 
ATOM      4  O   UNL A   1      34.737  36.306  33.127  1.00  0.00    -0.246 OA
BRANCH   3   5
ATOM      5  C   UNL A   1      36.246  34.607  32.604  1.00  0.00     0.060 A 
ATOM      6  C   UNL A   1      37.006  34.652  33.774  1.00  0.00     0.016 A 
ATOM      7  C   UNL A   1      36.664  33.757  31.567  1.00  0.00     0.016 A 
ATOM      8  C   UNL A   1      38.196  33.964  33.887  1.00  0.00     0.010 A 
ATOM      9  C   UNL A   1      37.856  33.046  31.679  1.00  0.00     0.010 A 
ATOM     10  C   UNL A   1      38.631  33.179  32.833  1.00  0.00    -0.014 A 
BRANCH  10  11
ATOM     11  C   UNL A   1      39.927  32.533  33.033  1.00  0.00     0.031 A 
ATOM     12  C   UNL A   1      41.091  33.443  32.921  1.00  0.00     0.074 A 
ATOM     13  C   UNL A   1      39.956  31.371  33.720  1.00  0.00     0.049 A 
ATOM     14  N   UNL A   1      41.377  34.244  33.901  1.00  0.00    -0.248 NA
ATOM     15  C   UNL A   1      41.766  33.781  31.670  1.00  0.00     0.031 C 
ATOM     16  C   UNL A   1      38.935  31.012  34.724  1.00  0.00     0.029 A 
ATOM     17  N   UNL A   1      40.918  30.411  33.866  1.00  0.00    -0.354 N 
ATOM     18  C   UNL A   1      42.212  35.222  33.410  1.00  0.00     0.074 A 
ATOM     19  C   UNL A   1      42.455  34.880  32.027  1.00  0.00     0.031 C 
ATOM     20  C   UNL A   1      39.430  30.047  35.521  1.00  0.00     0.029 A 
ATOM     21  C   UNL A   1      40.722  29.622  35.002  1.00  0.00     0.049 A 
ATOM     22  H   UNL A   1      41.668  30.289  33.240  1.00  0.00     0.167 HD
ATOM     23  C   UNL A   1      42.613  36.260  34.189  1.00  0.00     0.031 A 
ATOM     24  C   UNL A   1      41.742  29.144  35.765  1.00  0.00     0.031 A 
ATOM     25  C   UNL A   1      42.054  36.270  35.513  1.00  0.00     0.049 A 
ATOM     26  C   UNL A   1      42.250  30.441  36.372  1.00  0.00     0.074 A 
ATOM     27  C   UNL A   1      41.018  36.903  36.164  1.00  0.00     0.029 A 
ATOM     28  N   UNL A   1      42.525  35.343  36.415  1.00  0.00    -0.354 N 
ATOM     29  N   UNL A   1      41.675  31.125  37.327  1.00  0.00    -0.248 NA
ATOM     30  C   UNL A   1      43.249  31.198  35.610  1.00  0.00     0.031 C 
ATOM     31  C   UNL A   1      40.645  36.025  37.230  1.00  0.00     0.029 A 
ATOM     32  C   UNL A   1      41.456  34.893  37.149  1.00  0.00     0.049 A 
ATOM     33  H   UNL A   1      43.462  35.056  36.517  1.00  0.00     0.167 HD
ATOM     34  C   UNL A   1      42.007  32.463  37.090  1.00  0.00     0.074 A 
ATOM     35  C   UNL A   1      42.996  32.431  36.031  1.00  0.00     0.031 C 
ATOM     36  C   UNL A   1      41.342  33.528  37.632  1.00  0.00     0.031 A 
BRANCH  23  37
ATOM     37  C   UNL A   1      43.681  37.209  33.823  1.00  0.00    -0.014 A 
ATOM     38  C   UNL A   1      43.283  38.532  33.563  1.00  0.00     0.010 A 
ATOM     39  C   UNL A   1      44.989  36.806  33.521  1.00  0.00     0.010 A 
ATOM     40  C   UNL A   1      44.155  39.428  32.956  1.00  0.00     0.020 A 
ATOM     41  C   UNL A   1      45.878  37.712  32.921  1.00  0.00     0.020 A 
ATOM     42  C   UNL A   1      45.444  39.010  32.623  1.00  0.00     0.054 A 
BRANCH  42  43
ATOM     43  S   UNL A   1      46.502  40.174  31.721  1.00  0.00     0.124 S 
ATOM     44  O   UNL A   1      46.223  39.833  30.328  1.00  0.00    -0.237 OA
ATOM     45  O   UNL A   1      45.988  41.464  32.170  1.00  0.00    -0.237 OA
ATOM     46  O   UNL A   1      47.849  39.846  32.181  1.00  0.00    -0.744 OA
ENDBRANCH  42  43
ENDBRANCH  23  37
BRANCH  24  47
ATOM     47  C   UNL A   1      42.621  28.169  35.033  1.00  0.00    -0.014 A 
ATOM     48  C   UNL A   1      42.938  26.946  35.674  1.00  0.00     0.010 A 
ATOM     49  C   UNL A   1      43.116  28.366  33.735  1.00  0.00     0.010 A 
ATOM     50  C   UNL A   1      43.557  25.900  34.988  1.00  0.00     0.020 A 
ATOM     51  C   UNL A   1      43.725  27.314  33.033  1.00  0.00     0.020 A 
ATOM     52  C   UNL A   1      43.901  26.076  33.651  1.00  0.00     0.054 A 
BRANCH  52  53
ATOM     53  S   UNL A   1      44.527  24.646  32.732  1.00  0.00     0.124 S 
ATOM     54  O   UNL A   1      43.781  23.538  33.323  1.00  0.00    -0.237 OA
ATOM     55  O   UNL A   1      44.162  24.989  31.360  1.00  0.00    -0.237 OA
ATOM     56  O   UNL A   1      45.959  24.654  33.016  1.00  0.00    -0.744 OA
ENDBRANCH  52  53
ENDBRANCH  24  47
BRANCH  36  57
ATOM     57  C   UNL A   1      40.306  33.220  38.670  1.00  0.00    -0.014 A 
ATOM     58  C   UNL A   1      38.972  33.038  38.278  1.00  0.00     0.010 A 
ATOM     59  C   UNL A   1      40.663  32.991  40.013  1.00  0.00     0.010 A 
ATOM     60  C   UNL A   1      38.022  32.578  39.192  1.00  0.00     0.020 A 
ATOM     61  C   UNL A   1      39.719  32.519  40.931  1.00  0.00     0.020 A 
ATOM     62  C   UNL A   1      38.407  32.295  40.506  1.00  0.00     0.054 A 
BRANCH  62  63
ATOM     63  S   UNL A   1      37.172  31.588  41.630  1.00  0.00     0.124 S 
ATOM     64  O   UNL A   1      36.925  32.684  42.564  1.00  0.00    -0.237 OA
ATOM     65  O   UNL A   1      36.070  31.275  40.725  1.00  0.00    -0.237 OA
ATOM     66  O   UNL A   1      37.848  30.427  42.206  1.00  0.00    -0.744 OA
ENDBRANCH  62  63
ENDBRANCH  36  57
ENDBRANCH  10  11
ENDBRANCH   3   5
ENDBRANCH   2   3
ENDBRANCH   1   2
BRANCH   1  67
ATOM     67  C   UNL A   1      32.937  35.258  29.273  1.00  0.00     0.275 C 
BRANCH  67  68
ATOM     68  O   UNL A   1      33.337  33.871  29.194  1.00  0.00    -0.457 OA
BRANCH  68  69
ATOM     69  C   UNL A   1      34.101  33.514  28.136  1.00  0.00     0.357 C 
ATOM     70  O   UNL A   1      34.695  34.295  27.398  1.00  0.00    -0.244 OA
BRANCH  69  71
ATOM     71  C   UNL A   1      34.267  32.052  28.048  1.00  0.00     0.154 A 
ATOM     72  C   UNL A   1      35.320  31.548  28.714  1.00  0.00     0.065 A 
ATOM     73  N   UNL A   1      33.455  31.213  27.283  1.00  0.00    -0.205 N 
ATOM     74  C   UNL A   1      35.540  30.085  28.567  1.00  0.00     0.075 A 
ATOM     75  C   UNL A   1      33.808  29.854  27.110  1.00  0.00     0.166 A 
ATOM     76  N   UNL A   1      32.339  31.538  26.584  1.00  0.00    -0.145 NA
ATOM     77  N   UNL A   1      34.859  29.294  27.793  1.00  0.00    -0.228 NA
ATOM     78  C   UNL A   1      32.937  29.366  26.158  1.00  0.00     0.069 A 
ATOM     79  C   UNL A   1      32.025  30.434  25.915  1.00  0.00     0.184 A 
ATOM     80  C   UNL A   1      32.933  28.102  25.544  1.00  0.00    -0.028 A 
ATOM     81  N   UNL A   1      30.992  30.325  25.046  1.00  0.00    -0.222 NA
ATOM     82  C   UNL A   1      31.844  28.028  24.651  1.00  0.00     0.038 A 
ATOM     83  C   UNL A   1      30.932  29.099  24.430  1.00  0.00     0.147 A 
BRANCH  74  84
ATOM     84  C   UNL A   1      36.678  29.563  29.347  1.00  0.00     0.000 A 
ATOM     85  C   UNL A   1      36.641  29.670  30.740  1.00  0.00     0.012 A 
ATOM     86  C   UNL A   1      37.744  28.926  28.702  1.00  0.00     0.012 A 
ATOM     87  C   UNL A   1      37.671  29.112  31.498  1.00  0.00     0.021 A 
ATOM     88  C   UNL A   1      38.778  28.378  29.468  1.00  0.00     0.021 A 
ATOM     89  C   UNL A   1      38.732  28.467  30.862  1.00  0.00     0.041 A 
ATOM     90  Cl  UNL A   1      39.987  27.765  31.808  1.00  0.00    -0.084 Cl
ENDBRANCH  74  84
BRANCH  80  91
ATOM     91  C   UNL A   1      33.987  27.059  25.766  1.00  0.00     0.020 C 
ATOM     92  C   UNL A   1      33.654  25.616  26.080  1.00  0.00     0.009 C 
ATOM     93  C   UNL A   1      34.161  25.978  24.717  1.00  0.00     0.009 C 
ENDBRANCH  80  91
BRANCH  83  94
ATOM     94  C   UNL A   1      29.811  28.891  23.412  1.00  0.00     0.433 C 
ATOM     95  F   UNL A   1      30.236  28.972  22.122  1.00  0.00    -0.165 F 
ATOM     96  F   UNL A   1      29.195  27.680  23.536  1.00  0.00    -0.165 F 
ATOM     97  F   UNL A   1      28.804  29.812  23.522  1.00  0.00    -0.165 F 
ENDBRANCH  83  94
ENDBRANCH  69  71
ENDBRANCH  68  69
ENDBRANCH  67  68
ENDBRANCH   1  67
TORSDOF 17
ENDMDL
MODEL 2
REMARK VINA RESULT:     -11.2      8.980     16.418
REMARK SMILES O=C(OCCOC(=O)c1cc(-c2ccc(Cl)cc2)nc2c3c(C4CC4)cc(C(F)(F)F)nc3nn12)c1ccc(-c2c3nc(c(-c4ccc(S(=O)(=O)[O-])cc4)c4ccc([nH]4)c(-c4ccc(S(=O)(=O)[O-])cc4)c4nc(c(-c5ccc(S(=O)(=O)[O-])cc5)c5ccc2[nH]5)C=C4)C=C3)cc1
REMARK SMILES IDX 4 1 3 2 2 3 1 4 36 5 37 6 95 7 38 8 94 9 39 10 40 11 41 12
REMARK SMILES IDX 88 13 42 14 93 15 87 16 89 17 43 18 92 19 86 20 85 21 44 23
REMARK SMILES IDX 74 24 55 25 73 26 56 27 59 28 72 29 90 30 57 31 58 32 71 34
REMARK SMILES IDX 91 35 60 36 45 37 46 38 54 39 47 40 53 41 48 42 49 43 50 44
REMARK SMILES IDX 51 45 52 46 75 47 76 48 84 49 77 50 83 51 78 52 79 53 80 54
REMARK SMILES IDX 81 55 82 56 61 57 62 58 70 59 63 60 69 61 64 62 65 63 66 64
REMARK SMILES IDX 67 65 68 66 5 67 6 68 7 69 8 70 9 71 10 72 35 73 11 74 20 75
REMARK SMILES IDX 34 76 19 77 21 78 33 79 22 80 32 81 26 82 27 83 12 84 13 85
REMARK SMILES IDX 18 86 14 87 17 88 15 89 16 90 23 91 24 92 25 93 28 94 29 95
REMARK SMILES IDX 30 96 31 97
REMARK H PARENT 89 22 59 33
REMARK Flexibility Score: inf
ROOT
ATOM      1  C   UNL A   1      43.821  23.014  35.039  1.00  0.00     0.275 C 
ENDROOT
BRANCH   1   2
ATOM      2  O   UNL A   1      43.668  24.161  35.898  1.00  0.00    -0.458 OA
BRANCH   2   3
ATOM      3  C   UNL A   1      43.881  25.463  35.593  1.00  0.00     0.338 C 
ATOM      4  O   UNL A   1      43.687  26.323  36.450  1.00  0.00    -0.246 OA
BRANCH   3   5
ATOM      5  C   UNL A   1      44.360  25.913  34.255  1.00  0.00     0.060 A 
ATOM      6  C   UNL A   1      45.698  25.936  33.856  1.00  0.00     0.016 A 
ATOM      7  C   UNL A   1      43.377  26.277  33.321  1.00  0.00     0.016 A 
ATOM      8  C   UNL A   1      46.071  26.400  32.613  1.00  0.00     0.010 A 
ATOM      9  C   UNL A   1      43.743  26.732  32.057  1.00  0.00     0.010 A 
ATOM     10  C   UNL A   1      45.096  26.818  31.722  1.00  0.00    -0.014 A 
BRANCH  10  11
ATOM     11  C   UNL A   1      45.598  27.338  30.451  1.00  0.00     0.031 A 
ATOM     12  C   UNL A   1      45.693  26.330  29.370  1.00  0.00     0.074 A 
ATOM     13  C   UNL A   1      45.490  28.664  30.224  1.00  0.00     0.049 A 
ATOM     14  N   UNL A   1      44.618  25.949  28.750  1.00  0.00    -0.248 NA
ATOM     15  C   UNL A   1      46.842  25.455  29.146  1.00  0.00     0.031 C 
ATOM     16  C   UNL A   1      44.452  29.501  30.857  1.00  0.00     0.029 A 
ATOM     17  N   UNL A   1      46.060  29.489  29.293  1.00  0.00    -0.354 N 
ATOM     18  C   UNL A   1      44.906  24.768  28.104  1.00  0.00     0.074 A 
ATOM     19  C   UNL A   1      46.308  24.512  28.349  1.00  0.00     0.031 C 
ATOM     20  C   UNL A   1      44.318  30.637  30.148  1.00  0.00     0.029 A 
ATOM     21  C   UNL A   1      45.345  30.675  29.116  1.00  0.00     0.049 A 
ATOM     22  H   UNL A   1      46.884  29.269  28.800  1.00  0.00     0.167 HD
ATOM     23  C   UNL A   1      43.944  24.078  27.438  1.00  0.00     0.031 A 
ATOM     24  C   UNL A   1      45.209  31.293  27.912  1.00  0.00     0.031 A 
ATOM     25  C   UNL A   1      42.629  24.650  27.519  1.00  0.00     0.049 A 
ATOM     26  C   UNL A   1      44.323  30.287  27.196  1.00  0.00     0.074 A 
ATOM     27  C   UNL A   1      41.485  24.445  28.259  1.00  0.00     0.029 A 
ATOM     28  N   UNL A   1      42.381  25.795  26.796  1.00  0.00    -0.354 N 
ATOM     29  N   UNL A   1      43.044  30.102  27.399  1.00  0.00    -0.248 NA
ATOM     30  C   UNL A   1      44.985  29.184  26.493  1.00  0.00     0.031 C 
ATOM     31  C   UNL A   1      40.810  25.706  28.275  1.00  0.00     0.029 A 
ATOM     32  C   UNL A   1      41.596  26.616  27.568  1.00  0.00     0.049 A 
ATOM     33  H   UNL A   1      42.707  25.990  25.888  1.00  0.00     0.167 HD
ATOM     34  C   UNL A   1      42.809  28.749  27.131  1.00  0.00     0.074 A 
ATOM     35  C   UNL A   1      44.043  28.251  26.557  1.00  0.00     0.031 C 
ATOM     36  C   UNL A   1      41.701  28.064  27.548  1.00  0.00     0.031 A 
BRANCH  23  37
ATOM     37  C   UNL A   1      44.211  22.947  26.531  1.00  0.00    -0.014 A 
ATOM     38  C   UNL A   1      43.173  22.012  26.371  1.00  0.00     0.010 A 
ATOM     39  C   UNL A   1      45.484  22.662  26.019  1.00  0.00     0.010 A 
ATOM     40  C   UNL A   1      43.411  20.785  25.762  1.00  0.00     0.020 A 
ATOM     41  C   UNL A   1      45.726  21.431  25.391  1.00  0.00     0.020 A 
ATOM     42  C   UNL A   1      44.691  20.493  25.289  1.00  0.00     0.054 A 
BRANCH  42  43
ATOM     43  S   UNL A   1      44.983  18.834  24.617  1.00  0.00     0.124 S 
ATOM     44  O   UNL A   1      46.413  18.650  24.854  1.00  0.00    -0.237 OA
ATOM     45  O   UNL A   1      44.097  18.013  25.435  1.00  0.00    -0.237 OA
ATOM     46  O   UNL A   1      44.600  18.957  23.213  1.00  0.00    -0.744 OA
ENDBRANCH  42  43
ENDBRANCH  23  37
BRANCH  24  47
ATOM     47  C   UNL A   1      46.511  31.797  27.355  1.00  0.00    -0.014 A 
ATOM     48  C   UNL A   1      46.498  33.010  26.624  1.00  0.00     0.010 A 
ATOM     49  C   UNL A   1      47.752  31.171  27.548  1.00  0.00     0.010 A 
ATOM     50  C   UNL A   1      47.679  33.660  26.265  1.00  0.00     0.020 A 
ATOM     51  C   UNL A   1      48.945  31.826  27.205  1.00  0.00     0.020 A 
ATOM     52  C   UNL A   1      48.900  33.085  26.605  1.00  0.00     0.054 A 
BRANCH  52  53
ATOM     53  S   UNL A   1      50.411  34.035  26.299  1.00  0.00     0.124 S 
ATOM     54  O   UNL A   1      50.104  35.325  26.912  1.00  0.00    -0.237 OA
ATOM     55  O   UNL A   1      51.415  33.232  26.993  1.00  0.00    -0.237 OA
ATOM     56  O   UNL A   1      50.521  34.048  24.843  1.00  0.00    -0.744 OA
ENDBRANCH  52  53
ENDBRANCH  24  47
BRANCH  36  57
ATOM     57  C   UNL A   1      40.608  28.869  28.183  1.00  0.00    -0.014 A 
ATOM     58  C   UNL A   1      39.441  29.141  27.455  1.00  0.00     0.010 A 
ATOM     59  C   UNL A   1      40.677  29.255  29.536  1.00  0.00     0.010 A 
ATOM     60  C   UNL A   1      38.339  29.732  28.078  1.00  0.00     0.020 A 
ATOM     61  C   UNL A   1      39.573  29.836  30.169  1.00  0.00     0.020 A 
ATOM     62  C   UNL A   1      38.402  30.051  29.438  1.00  0.00     0.054 A 
BRANCH  62  63
ATOM     63  S   UNL A   1      36.913  30.707  30.236  1.00  0.00     0.124 S 
ATOM     64  O   UNL A   1      36.118  31.169  29.101  1.00  0.00    -0.237 OA
ATOM     65  O   UNL A   1      36.390  29.533  30.932  1.00  0.00    -0.237 OA
ATOM     66  O   UNL A   1      37.420  31.766  31.107  1.00  0.00    -0.744 OA
ENDBRANCH  62  63
ENDBRANCH  36  57
ENDBRANCH  10  11
ENDBRANCH   3   5
ENDBRANCH   2   3
ENDBRANCH   1   2
BRANCH   1  67
ATOM     67  C   UNL A   1      45.073  22.202  35.423  1.00  0.00     0.275 C 
BRANCH  67  68
ATOM     68  O   UNL A   1      45.231  21.014  34.616  1.00  0.00    -0.457 OA
BRANCH  68  69
ATOM     69  C   UNL A   1      45.528  19.867  35.268  1.00  0.00     0.357 C 
ATOM     70  O   UNL A   1      44.866  18.833  35.219  1.00  0.00    -0.244 OA
BRANCH  69  71
ATOM     71  C   UNL A   1      46.837  19.942  35.944  1.00  0.00     0.154 A 
ATOM     72  C   UNL A   1      47.890  20.164  35.139  1.00  0.00     0.065 A 
ATOM     73  N   UNL A   1      47.030  19.737  37.310  1.00  0.00    -0.205 N 
ATOM     74  C   UNL A   1      49.222  20.165  35.800  1.00  0.00     0.075 A 
ATOM     75  C   UNL A   1      48.342  19.641  37.832  1.00  0.00     0.166 A 
ATOM     76  N   UNL A   1      46.090  19.540  38.268  1.00  0.00    -0.145 NA
ATOM     77  N   UNL A   1      49.443  19.888  37.051  1.00  0.00    -0.228 NA
ATOM     78  C   UNL A   1      48.188  19.240  39.143  1.00  0.00     0.069 A 
ATOM     79  C   UNL A   1      46.780  19.248  39.365  1.00  0.00     0.184 A 
ATOM     80  C   UNL A   1      49.183  18.889  40.071  1.00  0.00    -0.028 A 
ATOM     81  N   UNL A   1      46.231  18.931  40.562  1.00  0.00    -0.222 NA
ATOM     82  C   UNL A   1      48.572  18.569  41.301  1.00  0.00     0.038 A 
ATOM     83  C   UNL A   1      47.163  18.597  41.512  1.00  0.00     0.147 A 
BRANCH  74  84
ATOM     84  C   UNL A   1      50.348  20.455  34.893  1.00  0.00     0.000 A 
ATOM     85  C   UNL A   1      50.331  21.646  34.163  1.00  0.00     0.012 A 
ATOM     86  C   UNL A   1      51.434  19.576  34.811  1.00  0.00     0.012 A 
ATOM     87  C   UNL A   1      51.423  21.974  33.359  1.00  0.00     0.021 A 
ATOM     88  C   UNL A   1      52.522  19.907  33.996  1.00  0.00     0.021 A 
ATOM     89  C   UNL A   1      52.514  21.107  33.282  1.00  0.00     0.041 A 
ATOM     90  Cl  UNL A   1      53.865  21.531  32.302  1.00  0.00    -0.084 Cl
ENDBRANCH  74  84
BRANCH  80  91
ATOM     91  C   UNL A   1      50.643  18.798  39.741  1.00  0.00     0.020 C 
ATOM     92  C   UNL A   1      51.696  18.480  40.781  1.00  0.00     0.009 C 
ATOM     93  C   UNL A   1      51.305  17.435  39.781  1.00  0.00     0.009 C 
ENDBRANCH  80  91
BRANCH  83  94
ATOM     94  C   UNL A   1      46.635  18.200  42.890  1.00  0.00     0.433 C 
ATOM     95  F   UNL A   1      45.448  17.537  42.839  1.00  0.00    -0.165 F 
ATOM     96  F   UNL A   1      47.494  17.394  43.579  1.00  0.00    -0.165 F 
ATOM     97  F   UNL A   1      46.418  19.271  43.714  1.00  0.00    -0.165 F 
ENDBRANCH  83  94
ENDBRANCH  69  71
ENDBRANCH  68  69
ENDBRANCH  67  68
ENDBRANCH   1  67
TORSDOF 17
ENDMDL
MODEL 3
REMARK VINA RESULT:     -11.0      6.146     12.896
REMARK SMILES O=C(OCCOC(=O)c1cc(-c2ccc(Cl)cc2)nc2c3c(C4CC4)cc(C(F)(F)F)nc3nn12)c1ccc(-c2c3nc(c(-c4ccc(S(=O)(=O)[O-])cc4)c4ccc([nH]4)c(-c4ccc(S(=O)(=O)[O-])cc4)c4nc(c(-c5ccc(S(=O)(=O)[O-])cc5)c5ccc2[nH]5)C=C4)C=C3)cc1
REMARK SMILES IDX 4 1 3 2 2 3 1 4 36 5 37 6 95 7 38 8 94 9 39 10 40 11 41 12
REMARK SMILES IDX 88 13 42 14 93 15 87 16 89 17 43 18 92 19 86 20 85 21 44 23
REMARK SMILES IDX 74 24 55 25 73 26 56 27 59 28 72 29 90 30 57 31 58 32 71 34
REMARK SMILES IDX 91 35 60 36 45 37 46 38 54 39 47 40 53 41 48 42 49 43 50 44
REMARK SMILES IDX 51 45 52 46 75 47 76 48 84 49 77 50 83 51 78 52 79 53 80 54
REMARK SMILES IDX 81 55 82 56 61 57 62 58 70 59 63 60 69 61 64 62 65 63 66 64
REMARK SMILES IDX 67 65 68 66 5 67 6 68 7 69 8 70 9 71 10 72 35 73 11 74 20 75
REMARK SMILES IDX 34 76 19 77 21 78 33 79 22 80 32 81 26 82 27 83 12 84 13 85
REMARK SMILES IDX 18 86 14 87 17 88 15 89 16 90 23 91 24 92 25 93 28 94 29 95
REMARK SMILES IDX 30 96 31 97
REMARK H PARENT 89 22 59 33
REMARK Flexibility Score: inf
ROOT
ATOM      1  C   UNL A   1      42.411  26.086  36.237  1.00  0.00     0.275 C 
ENDROOT
BRANCH   1   2
ATOM      2  O   UNL A   1      43.048  24.838  35.900  1.00  0.00    -0.458 OA
BRANCH   2   3
ATOM      3  C   UNL A   1      44.205  24.651  35.221  1.00  0.00     0.338 C 
ATOM      4  O   UNL A   1      45.042  23.865  35.661  1.00  0.00    -0.246 OA
BRANCH   3   5
ATOM      5  C   UNL A   1      44.513  25.349  33.941  1.00  0.00     0.060 A 
ATOM      6  C   UNL A   1      43.884  25.088  32.722  1.00  0.00     0.016 A 
ATOM      7  C   UNL A   1      45.461  26.382  33.997  1.00  0.00     0.016 A 
ATOM      8  C   UNL A   1      44.248  25.750  31.568  1.00  0.00     0.010 A 
ATOM      9  C   UNL A   1      45.823  27.068  32.841  1.00  0.00     0.010 A 
ATOM     10  C   UNL A   1      45.231  26.724  31.623  1.00  0.00    -0.014 A 
BRANCH  10  11
ATOM     11  C   UNL A   1      45.578  27.329  30.338  1.00  0.00     0.031 A 
ATOM     12  C   UNL A   1      45.655  26.373  29.210  1.00  0.00     0.074 A 
ATOM     13  C   UNL A   1      45.349  28.650  30.179  1.00  0.00     0.049 A 
ATOM     14  N   UNL A   1      44.563  25.929  28.667  1.00  0.00    -0.248 NA
ATOM     15  C   UNL A   1      46.844  25.602  28.852  1.00  0.00     0.031 C 
ATOM     16  C   UNL A   1      44.309  29.376  30.933  1.00  0.00     0.029 A 
ATOM     17  N   UNL A   1      45.769  29.551  29.240  1.00  0.00    -0.354 N 
ATOM     18  C   UNL A   1      44.884  24.800  27.948  1.00  0.00     0.074 A 
ATOM     19  C   UNL A   1      46.317  24.649  28.062  1.00  0.00     0.031 C 
ATOM     20  C   UNL A   1      44.026  30.524  30.288  1.00  0.00     0.029 A 
ATOM     21  C   UNL A   1      44.952  30.682  29.176  1.00  0.00     0.049 A 
ATOM     22  H   UNL A   1      46.561  29.417  28.671  1.00  0.00     0.167 HD
ATOM     23  C   UNL A   1      43.923  24.059  27.336  1.00  0.00     0.031 A 
ATOM     24  C   UNL A   1      44.663  31.330  28.016  1.00  0.00     0.031 A 
ATOM     25  C   UNL A   1      42.580  24.521  27.553  1.00  0.00     0.049 A 
ATOM     26  C   UNL A   1      43.799  30.284  27.335  1.00  0.00     0.074 A 
ATOM     27  C   UNL A   1      41.524  24.196  28.377  1.00  0.00     0.029 A 
ATOM     28  N   UNL A   1      42.182  25.667  26.904  1.00  0.00    -0.354 N 
ATOM     29  N   UNL A   1      42.560  29.988  27.636  1.00  0.00    -0.248 NA
ATOM     30  C   UNL A   1      44.480  29.264  26.530  1.00  0.00     0.031 C 
ATOM     31  C   UNL A   1      40.758  25.398  28.505  1.00  0.00     0.029 A 
ATOM     32  C   UNL A   1      41.407  26.393  27.775  1.00  0.00     0.049 A 
ATOM     33  H   UNL A   1      42.412  25.921  25.981  1.00  0.00     0.167 HD
ATOM     34  C   UNL A   1      42.408  28.632  27.331  1.00  0.00     0.074 A 
ATOM     35  C   UNL A   1      43.622  28.256  26.633  1.00  0.00     0.031 C 
ATOM     36  C   UNL A   1      41.397  27.845  27.809  1.00  0.00     0.031 A 
BRANCH  23  37
ATOM     37  C   UNL A   1      44.196  22.987  26.362  1.00  0.00    -0.014 A 
ATOM     38  C   UNL A   1      43.153  22.076  26.123  1.00  0.00     0.010 A 
ATOM     39  C   UNL A   1      45.476  22.725  25.854  1.00  0.00     0.010 A 
ATOM     40  C   UNL A   1      43.391  20.889  25.439  1.00  0.00     0.020 A 
ATOM     41  C   UNL A   1      45.718  21.535  25.150  1.00  0.00     0.020 A 
ATOM     42  C   UNL A   1      44.677  20.616  24.969  1.00  0.00     0.054 A 
BRANCH  42  43
ATOM     43  S   UNL A   1      44.967  19.002  24.194  1.00  0.00     0.124 S 
ATOM     44  O   UNL A   1      44.136  18.115  25.004  1.00  0.00    -0.237 OA
ATOM     45  O   UNL A   1      44.501  19.230  22.830  1.00  0.00    -0.237 OA
ATOM     46  O   UNL A   1      46.406  18.803  24.336  1.00  0.00    -0.744 OA
ENDBRANCH  42  43
ENDBRANCH  23  37
BRANCH  24  47
ATOM     47  C   UNL A   1      45.869  31.958  27.374  1.00  0.00    -0.014 A 
ATOM     48  C   UNL A   1      45.671  33.100  26.560  1.00  0.00     0.010 A 
ATOM     49  C   UNL A   1      47.188  31.517  27.562  1.00  0.00     0.010 A 
ATOM     50  C   UNL A   1      46.744  33.871  26.109  1.00  0.00     0.020 A 
ATOM     51  C   UNL A   1      48.272  32.296  27.126  1.00  0.00     0.020 A 
ATOM     52  C   UNL A   1      48.040  33.489  26.440  1.00  0.00     0.054 A 
BRANCH  52  53
ATOM     53  S   UNL A   1      49.401  34.604  26.008  1.00  0.00     0.124 S 
ATOM     54  O   UNL A   1      48.960  35.160  24.731  1.00  0.00    -0.237 OA
ATOM     55  O   UNL A   1      49.395  35.534  27.135  1.00  0.00    -0.237 OA
ATOM     56  O   UNL A   1      50.561  33.720  25.935  1.00  0.00    -0.744 OA
ENDBRANCH  52  53
ENDBRANCH  24  47
BRANCH  36  57
ATOM     57  C   UNL A   1      40.305  28.535  28.568  1.00  0.00    -0.014 A 
ATOM     58  C   UNL A   1      40.540  28.950  29.887  1.00  0.00     0.010 A 
ATOM     59  C   UNL A   1      39.091  28.884  27.947  1.00  0.00     0.010 A 
ATOM     60  C   UNL A   1      39.608  29.748  30.555  1.00  0.00     0.020 A 
ATOM     61  C   UNL A   1      38.158  29.693  28.605  1.00  0.00     0.020 A 
ATOM     62  C   UNL A   1      38.436  30.137  29.900  1.00  0.00     0.054 A 
BRANCH  62  63
ATOM     63  S   UNL A   1      37.309  31.270  30.757  1.00  0.00     0.124 S 
ATOM     64  O   UNL A   1      38.166  31.859  31.783  1.00  0.00    -0.237 OA
ATOM     65  O   UNL A   1      36.901  32.174  29.685  1.00  0.00    -0.237 OA
ATOM     66  O   UNL A   1      36.252  30.396  31.263  1.00  0.00    -0.744 OA
ENDBRANCH  62  63
ENDBRANCH  36  57
ENDBRANCH  10  11
ENDBRANCH   3   5
ENDBRANCH   2   3
ENDBRANCH   1   2
BRANCH   1  67
ATOM     67  C   UNL A   1      41.433  26.522  35.129  1.00  0.00     0.275 C 
BRANCH  67  68
ATOM     68  O   UNL A   1      41.197  27.948  35.129  1.00  0.00    -0.457 OA
BRANCH  68  69
ATOM     69  C   UNL A   1      40.482  28.450  34.097  1.00  0.00     0.357 C 
ATOM     70  O   UNL A   1      39.881  27.779  33.261  1.00  0.00    -0.244 OA
BRANCH  69  71
ATOM     71  C   UNL A   1      40.376  29.919  34.165  1.00  0.00     0.154 A 
ATOM     72  C   UNL A   1      41.183  30.596  33.330  1.00  0.00     0.065 A 
ATOM     73  N   UNL A   1      39.562  30.608  35.064  1.00  0.00    -0.205 N 
ATOM     74  C   UNL A   1      41.140  32.078  33.445  1.00  0.00     0.075 A 
ATOM     75  C   UNL A   1      39.672  32.014  35.183  1.00  0.00     0.166 A 
ATOM     76  N   UNL A   1      38.666  30.096  35.945  1.00  0.00    -0.145 NA
ATOM     77  N   UNL A   1      40.462  32.745  34.331  1.00  0.00    -0.228 NA
ATOM     78  C   UNL A   1      38.900  32.353  36.275  1.00  0.00     0.069 A 
ATOM     79  C   UNL A   1      38.266  31.137  36.666  1.00  0.00     0.184 A 
ATOM     80  C   UNL A   1      38.759  33.609  36.889  1.00  0.00    -0.028 A 
ATOM     81  N   UNL A   1      37.396  31.071  37.701  1.00  0.00    -0.222 NA
ATOM     82  C   UNL A   1      37.846  33.498  37.958  1.00  0.00     0.038 A 
ATOM     83  C   UNL A   1      37.208  32.279  38.327  1.00  0.00     0.147 A 
BRANCH  74  84
ATOM     84  C   UNL A   1      42.004  32.786  32.483  1.00  0.00     0.000 A 
ATOM     85  C   UNL A   1      41.455  33.198  31.266  1.00  0.00     0.012 A 
ATOM     86  C   UNL A   1      43.332  33.083  32.812  1.00  0.00     0.012 A 
ATOM     87  C   UNL A   1      42.237  33.936  30.377  1.00  0.00     0.021 A 
ATOM     88  C   UNL A   1      44.111  33.816  31.911  1.00  0.00     0.021 A 
ATOM     89  C   UNL A   1      43.558  34.245  30.703  1.00  0.00     0.041 A 
ATOM     90  Cl  UNL A   1      44.506  35.175  29.607  1.00  0.00    -0.084 Cl
ENDBRANCH  74  84
BRANCH  80  91
ATOM     91  C   UNL A   1      39.539  34.827  36.494  1.00  0.00     0.020 C 
ATOM     92  C   UNL A   1      39.666  36.040  37.391  1.00  0.00     0.009 C 
ATOM     93  C   UNL A   1      40.835  35.118  37.223  1.00  0.00     0.009 C 
ENDBRANCH  80  91
BRANCH  83  94
ATOM     94  C   UNL A   1      36.260  32.297  39.525  1.00  0.00     0.433 C 
ATOM     95  F   UNL A   1      36.788  32.914  40.618  1.00  0.00    -0.165 F 
ATOM     96  F   UNL A   1      35.080  32.930  39.263  1.00  0.00    -0.165 F 
ATOM     97  F   UNL A   1      35.903  31.046  39.950  1.00  0.00    -0.165 F 
ENDBRANCH  83  94
ENDBRANCH  69  71
ENDBRANCH  68  69
ENDBRANCH  67  68
ENDBRANCH   1  67
TORSDOF 17
ENDMDL
