MODEL 1
REMARK VINA RESULT:     -10.9      0.000      0.000
REMARK SMILES C[NH+]1CCC(NC(=O)N[C@@H]2C=C[C@H](C(=O)OCCOC(=O)c3ccc(-c4c5nc(c(-c6ccc(S(=O)(=O)[O-])cc6)c6ccc([nH]6)c(-c6ccc(S(=O)(=O)[O-])cc6)c6nc(c(-c7ccc(S(=O)(=O)[O-])cc7)c7ccc4[nH]7)C=C6)C=C5)cc3)C2)CC1
REMARK SMILES IDX 18 1 17 2 16 3 14 4 15 5 13 6 10 7 11 8 82 9 12 10 9 11 6 12
REMARK SMILES IDX 7 13 8 15 5 17 1 18 2 19 3 20 84 21 4 23 83 24 19 25 20 26
REMARK SMILES IDX 21 27 22 28 23 29 81 30 24 31 80 32 25 33 26 34 27 35 74 36
REMARK SMILES IDX 28 37 79 38 73 39 75 40 29 41 78 42 72 43 71 44 30 46 60 47
REMARK SMILES IDX 41 48 59 49 42 50 45 51 58 52 76 53 43 54 44 55 57 57 77 58
REMARK SMILES IDX 46 59 31 60 32 61 40 62 33 63 39 64 34 65 35 66 36 67 37 68
REMARK SMILES IDX 38 69 61 70 62 71 70 72 63 73 69 74 64 75 65 76 66 77 67 78
REMARK SMILES IDX 68 79 47 80 48 81 56 82 49 83 55 84 50 85 51 86 52 87 53 88
REMARK SMILES IDX 54 89
REMARK H PARENT 6 14 9 16 2 22 75 45 45 56
REMARK Flexibility Score: inf
ROOT
ATOM      1  C   UNL A   1      37.713  21.156  24.836  1.00  0.00     0.275 C 
ENDROOT
BRANCH   1   2
ATOM      2  C   UNL A   1      36.228  20.849  25.003  1.00  0.00     0.274 C 
BRANCH   2   3
ATOM      3  O   UNL A   1      35.427  21.847  24.339  1.00  0.00    -0.462 OA
BRANCH   3   4
ATOM      4  C   UNL A   1      34.083  21.829  24.570  1.00  0.00     0.312 C 
ATOM      5  O   UNL A   1      33.312  20.959  24.194  1.00  0.00    -0.252 OA
BRANCH   4   6
ATOM      6  C   UNL A   1      33.697  23.040  25.410  1.00  0.00     0.124 C 
ATOM      7  C   UNL A   1      32.842  24.988  24.162  1.00  0.00     0.107 C 
ATOM      8  C   UNL A   1      34.207  25.233  24.720  1.00  0.00    -0.006 C 
ATOM      9  C   UNL A   1      32.420  23.695  24.880  1.00  0.00     0.048 C 
ATOM     10  C   UNL A   1      34.693  24.160  25.354  1.00  0.00    -0.014 C 
BRANCH   7  11
ATOM     11  N   UNL A   1      33.027  24.889  22.729  1.00  0.00    -0.332 N 
ATOM     12  N   UNL A   1      32.434  26.989  21.787  1.00  0.00    -0.335 N 
ATOM     13  C   UNL A   1      32.908  25.737  21.692  1.00  0.00     0.315 C 
ATOM     14  H   UNL A   1      32.148  27.384  20.931  1.00  0.00     0.165 HD
ATOM     15  O   UNL A   1      33.235  25.323  20.579  1.00  0.00    -0.249 OA
ATOM     16  H   UNL A   1      33.307  23.988  22.448  1.00  0.00     0.165 HD
BRANCH  12  17
ATOM     17  C   UNL A   1      32.275  27.850  22.930  1.00  0.00     0.095 C 
ATOM     18  C   UNL A   1      31.780  30.286  26.226  1.00  0.00     0.332 C 
ATOM     19  N   UNL A   1      32.015  30.020  24.802  1.00  0.00    -0.337 N 
ATOM     20  C   UNL A   1      30.824  29.366  24.228  1.00  0.00     0.264 C 
ATOM     21  C   UNL A   1      33.277  29.278  24.640  1.00  0.00     0.264 C 
ATOM     22  H   UNL A   1      32.138  30.882  24.272  1.00  0.00     0.347 HD
ATOM     23  C   UNL A   1      31.051  28.752  22.848  1.00  0.00     0.086 C 
ATOM     24  C   UNL A   1      33.484  28.723  23.226  1.00  0.00     0.086 C 
ENDBRANCH  12  17
ENDBRANCH   7  11
ENDBRANCH   4   6
ENDBRANCH   3   4
ENDBRANCH   2   3
ENDBRANCH   1   2
BRANCH   1  25
ATOM     25  O   UNL A   1      38.129  22.079  25.857  1.00  0.00    -0.458 OA
BRANCH  25  26
ATOM     26  C   UNL A   1      39.350  21.867  26.391  1.00  0.00     0.338 C 
ATOM     27  O   UNL A   1      40.018  20.842  26.344  1.00  0.00    -0.246 OA
BRANCH  26  28
ATOM     28  C   UNL A   1      39.843  23.120  26.975  1.00  0.00     0.060 A 
ATOM     29  C   UNL A   1      39.424  24.307  26.391  1.00  0.00     0.016 A 
ATOM     30  C   UNL A   1      40.801  23.140  27.990  1.00  0.00     0.016 A 
ATOM     31  C   UNL A   1      40.032  25.501  26.746  1.00  0.00     0.010 A 
ATOM     32  C   UNL A   1      41.338  24.368  28.415  1.00  0.00     0.010 A 
ATOM     33  C   UNL A   1      40.975  25.563  27.774  1.00  0.00    -0.014 A 
BRANCH  33  34
ATOM     34  C   UNL A   1      41.574  26.889  28.103  1.00  0.00     0.031 A 
ATOM     35  C   UNL A   1      43.023  27.158  27.803  1.00  0.00     0.074 A 
ATOM     36  C   UNL A   1      40.796  27.897  28.552  1.00  0.00     0.049 A 
ATOM     37  N   UNL A   1      43.739  28.217  28.085  1.00  0.00    -0.248 NA
ATOM     38  C   UNL A   1      43.762  26.110  27.080  1.00  0.00     0.031 C 
ATOM     39  C   UNL A   1      39.347  27.823  28.755  1.00  0.00     0.029 A 
ATOM     40  N   UNL A   1      41.104  29.198  28.875  1.00  0.00    -0.354 N 
ATOM     41  C   UNL A   1      45.024  27.939  27.634  1.00  0.00     0.074 A 
ATOM     42  C   UNL A   1      44.983  26.625  27.030  1.00  0.00     0.031 C 
ATOM     43  C   UNL A   1      38.887  29.033  29.105  1.00  0.00     0.029 A 
ATOM     44  C   UNL A   1      40.013  29.947  29.252  1.00  0.00     0.049 A 
ATOM     45  H   UNL A   1      42.020  29.559  28.839  1.00  0.00     0.167 HD
ATOM     46  C   UNL A   1      46.137  28.702  27.738  1.00  0.00     0.031 A 
ATOM     47  C   UNL A   1      39.925  31.214  29.704  1.00  0.00     0.031 A 
ATOM     48  C   UNL A   1      46.169  30.019  28.315  1.00  0.00     0.049 A 
ATOM     49  C   UNL A   1      41.187  32.013  29.876  1.00  0.00     0.074 A 
ATOM     50  C   UNL A   1      47.262  30.845  28.513  1.00  0.00     0.029 A 
ATOM     51  N   UNL A   1      45.059  30.708  28.778  1.00  0.00    -0.354 N 
ATOM     52  N   UNL A   1      42.413  31.698  29.535  1.00  0.00    -0.248 NA
ATOM     53  C   UNL A   1      41.058  33.326  30.525  1.00  0.00     0.031 C 
ATOM     54  C   UNL A   1      46.820  32.014  29.141  1.00  0.00     0.029 A 
ATOM     55  C   UNL A   1      45.444  31.938  29.286  1.00  0.00     0.049 A 
ATOM     56  H   UNL A   1      44.134  30.374  28.748  1.00  0.00     0.167 HD
ATOM     57  C   UNL A   1      43.203  32.770  29.937  1.00  0.00     0.074 A 
ATOM     58  C   UNL A   1      42.312  33.757  30.509  1.00  0.00     0.031 C 
ATOM     59  C   UNL A   1      44.548  32.911  29.856  1.00  0.00     0.031 A 
BRANCH  46  60
ATOM     60  C   UNL A   1      47.439  28.086  27.309  1.00  0.00    -0.014 A 
ATOM     61  C   UNL A   1      47.919  28.196  25.993  1.00  0.00     0.010 A 
ATOM     62  C   UNL A   1      48.215  27.411  28.270  1.00  0.00     0.010 A 
ATOM     63  C   UNL A   1      49.143  27.618  25.641  1.00  0.00     0.020 A 
ATOM     64  C   UNL A   1      49.446  26.850  27.928  1.00  0.00     0.020 A 
ATOM     65  C   UNL A   1      49.896  26.943  26.609  1.00  0.00     0.054 A 
BRANCH  65  66
ATOM     66  S   UNL A   1      51.489  26.215  26.136  1.00  0.00     0.124 S 
ATOM     67  O   UNL A   1      51.486  26.402  24.688  1.00  0.00    -0.237 OA
ATOM     68  O   UNL A   1      52.449  27.035  26.872  1.00  0.00    -0.237 OA
ATOM     69  O   UNL A   1      51.385  24.829  26.585  1.00  0.00    -0.744 OA
ENDBRANCH  65  66
ENDBRANCH  46  60
BRANCH  47  70
ATOM     70  C   UNL A   1      38.606  31.775  30.122  1.00  0.00    -0.014 A 
ATOM     71  C   UNL A   1      37.816  32.515  29.226  1.00  0.00     0.010 A 
ATOM     72  C   UNL A   1      38.148  31.587  31.440  1.00  0.00     0.010 A 
ATOM     73  C   UNL A   1      36.603  33.074  29.647  1.00  0.00     0.020 A 
ATOM     74  C   UNL A   1      36.923  32.116  31.854  1.00  0.00     0.020 A 
ATOM     75  C   UNL A   1      36.166  32.873  30.960  1.00  0.00     0.054 A 
BRANCH  75  76
ATOM     76  S   UNL A   1      34.579  33.579  31.487  1.00  0.00     0.124 S 
ATOM     77  O   UNL A   1      33.895  33.769  30.212  1.00  0.00    -0.237 OA
ATOM     78  O   UNL A   1      34.031  32.536  32.351  1.00  0.00    -0.237 OA
ATOM     79  O   UNL A   1      34.968  34.807  32.179  1.00  0.00    -0.744 OA
ENDBRANCH  75  76
ENDBRANCH  47  70
BRANCH  59  80
ATOM     80  C   UNL A   1      45.144  34.182  30.397  1.00  0.00    -0.014 A 
ATOM     81  C   UNL A   1      45.584  34.260  31.730  1.00  0.00     0.010 A 
ATOM     82  C   UNL A   1      45.322  35.288  29.548  1.00  0.00     0.010 A 
ATOM     83  C   UNL A   1      46.173  35.432  32.211  1.00  0.00     0.020 A 
ATOM     84  C   UNL A   1      45.931  36.454  30.018  1.00  0.00     0.020 A 
ATOM     85  C   UNL A   1      46.343  36.521  31.352  1.00  0.00     0.054 A 
BRANCH  85  86
ATOM     86  S   UNL A   1      47.164  38.012  31.982  1.00  0.00     0.124 S 
ATOM     87  O   UNL A   1      46.585  38.137  33.317  1.00  0.00    -0.237 OA
ATOM     88  O   UNL A   1      48.577  37.645  31.942  1.00  0.00    -0.237 OA
ATOM     89  O   UNL A   1      46.769  39.051  31.034  1.00  0.00    -0.744 OA
ENDBRANCH  85  86
ENDBRANCH  59  80
ENDBRANCH  33  34
ENDBRANCH  26  28
ENDBRANCH  25  26
ENDBRANCH   1  25
TORSDOF 16
ENDMDL
MODEL 2
REMARK VINA RESULT:     -10.9      2.815      9.434
REMARK SMILES C[NH+]1CCC(NC(=O)N[C@@H]2C=C[C@H](C(=O)OCCOC(=O)c3ccc(-c4c5nc(c(-c6ccc(S(=O)(=O)[O-])cc6)c6ccc([nH]6)c(-c6ccc(S(=O)(=O)[O-])cc6)c6nc(c(-c7ccc(S(=O)(=O)[O-])cc7)c7ccc4[nH]7)C=C6)C=C5)cc3)C2)CC1
REMARK SMILES IDX 18 1 17 2 16 3 14 4 15 5 13 6 10 7 11 8 82 9 12 10 9 11 6 12
REMARK SMILES IDX 7 13 8 15 5 17 1 18 2 19 3 20 84 21 4 23 83 24 19 25 20 26
REMARK SMILES IDX 21 27 22 28 23 29 81 30 24 31 80 32 25 33 26 34 27 35 74 36
REMARK SMILES IDX 28 37 79 38 73 39 75 40 29 41 78 42 72 43 71 44 30 46 60 47
REMARK SMILES IDX 41 48 59 49 42 50 45 51 58 52 76 53 43 54 44 55 57 57 77 58
REMARK SMILES IDX 46 59 31 60 32 61 40 62 33 63 39 64 34 65 35 66 36 67 37 68
REMARK SMILES IDX 38 69 61 70 62 71 70 72 63 73 69 74 64 75 65 76 66 77 67 78
REMARK SMILES IDX 68 79 47 80 48 81 56 82 49 83 55 84 50 85 51 86 52 87 53 88
REMARK SMILES IDX 54 89
REMARK H PARENT 6 14 9 16 2 22 75 45 45 56
REMARK Flexibility Score: inf
ROOT
ATOM      1  C   UNL A   1      34.766  31.655  28.310  1.00  0.00     0.275 C 
ENDROOT
BRANCH   1   2
ATOM      2  C   UNL A   1      33.659  31.380  27.297  1.00  0.00     0.274 C 
BRANCH   2   3
ATOM      3  O   UNL A   1      33.120  30.055  27.483  1.00  0.00    -0.462 OA
BRANCH   3   4
ATOM      4  C   UNL A   1      33.034  29.253  26.383  1.00  0.00     0.312 C 
ATOM      5  O   UNL A   1      33.201  29.615  25.228  1.00  0.00    -0.252 OA
BRANCH   4   6
ATOM      6  C   UNL A   1      32.740  27.824  26.821  1.00  0.00     0.124 C 
ATOM      7  C   UNL A   1      32.999  26.090  25.086  1.00  0.00     0.107 C 
ATOM      8  C   UNL A   1      31.565  26.325  25.437  1.00  0.00    -0.006 C 
ATOM      9  C   UNL A   1      33.739  26.841  26.205  1.00  0.00     0.048 C 
ATOM     10  C   UNL A   1      31.419  27.301  26.341  1.00  0.00    -0.014 C 
BRANCH   7  11
ATOM     11  N   UNL A   1      33.157  26.624  23.749  1.00  0.00    -0.332 N 
ATOM     12  N   UNL A   1      33.846  24.834  22.344  1.00  0.00    -0.335 N 
ATOM     13  C   UNL A   1      33.471  26.106  22.548  1.00  0.00     0.315 C 
ATOM     14  H   UNL A   1      34.302  24.674  21.487  1.00  0.00     0.165 HD
ATOM     15  O   UNL A   1      33.433  26.862  21.576  1.00  0.00    -0.249 OA
ATOM     16  H   UNL A   1      32.996  27.594  23.710  1.00  0.00     0.165 HD
BRANCH  12  17
ATOM     17  C   UNL A   1      33.690  23.665  23.170  1.00  0.00     0.095 C 
ATOM     18  C   UNL A   1      33.263  20.340  25.581  1.00  0.00     0.332 C 
ATOM     19  N   UNL A   1      33.614  21.035  24.337  1.00  0.00    -0.337 N 
ATOM     20  C   UNL A   1      34.745  21.947  24.594  1.00  0.00     0.264 C 
ATOM     21  C   UNL A   1      32.413  21.670  23.769  1.00  0.00     0.264 C 
ATOM     22  H   UNL A   1      33.941  20.386  23.621  1.00  0.00     0.347 HD
ATOM     23  C   UNL A   1      35.003  22.956  23.475  1.00  0.00     0.086 C 
ATOM     24  C   UNL A   1      32.717  22.636  22.618  1.00  0.00     0.086 C 
ENDBRANCH  12  17
ENDBRANCH   7  11
ENDBRANCH   4   6
ENDBRANCH   3   4
ENDBRANCH   2   3
ENDBRANCH   1   2
BRANCH   1  25
ATOM     25  O   UNL A   1      35.391  30.415  28.685  1.00  0.00    -0.458 OA
BRANCH  25  26
ATOM     26  C   UNL A   1      36.285  30.479  29.694  1.00  0.00     0.338 C 
ATOM     27  O   UNL A   1      36.093  30.872  30.838  1.00  0.00    -0.246 OA
BRANCH  26  28
ATOM     28  C   UNL A   1      37.553  29.888  29.251  1.00  0.00     0.060 A 
ATOM     29  C   UNL A   1      38.457  29.504  30.231  1.00  0.00     0.016 A 
ATOM     30  C   UNL A   1      37.914  29.829  27.904  1.00  0.00     0.016 A 
ATOM     31  C   UNL A   1      39.752  29.159  29.876  1.00  0.00     0.010 A 
ATOM     32  C   UNL A   1      39.198  29.380  27.548  1.00  0.00     0.010 A 
ATOM     33  C   UNL A   1      40.142  29.065  28.539  1.00  0.00    -0.014 A 
BRANCH  33  34
ATOM     34  C   UNL A   1      41.550  28.676  28.240  1.00  0.00     0.031 A 
ATOM     35  C   UNL A   1      42.662  29.675  28.408  1.00  0.00     0.074 A 
ATOM     36  C   UNL A   1      41.856  27.395  27.940  1.00  0.00     0.049 A 
ATOM     37  N   UNL A   1      43.934  29.547  28.127  1.00  0.00    -0.248 NA
ATOM     38  C   UNL A   1      42.303  30.983  28.981  1.00  0.00     0.031 C 
ATOM     39  C   UNL A   1      40.899  26.288  27.880  1.00  0.00     0.029 A 
ATOM     40  N   UNL A   1      43.065  26.796  27.675  1.00  0.00    -0.354 N 
ATOM     41  C   UNL A   1      44.514  30.774  28.426  1.00  0.00     0.074 A 
ATOM     42  C   UNL A   1      43.463  31.624  28.941  1.00  0.00     0.031 C 
ATOM     43  C   UNL A   1      41.562  25.142  27.661  1.00  0.00     0.029 A 
ATOM     44  C   UNL A   1      42.974  25.439  27.461  1.00  0.00     0.049 A 
ATOM     45  H   UNL A   1      43.916  27.291  27.642  1.00  0.00     0.167 HD
ATOM     46  C   UNL A   1      45.802  31.159  28.261  1.00  0.00     0.031 A 
ATOM     47  C   UNL A   1      43.910  24.537  27.106  1.00  0.00     0.031 A 
ATOM     48  C   UNL A   1      46.850  30.304  27.773  1.00  0.00     0.049 A 
ATOM     49  C   UNL A   1      45.317  25.007  26.861  1.00  0.00     0.074 A 
ATOM     50  C   UNL A   1      48.173  30.623  27.521  1.00  0.00     0.029 A 
ATOM     51  N   UNL A   1      46.700  28.959  27.472  1.00  0.00    -0.354 N 
ATOM     52  N   UNL A   1      45.832  26.197  27.054  1.00  0.00    -0.248 NA
ATOM     53  C   UNL A   1      46.263  24.021  26.318  1.00  0.00     0.031 C 
ATOM     54  C   UNL A   1      48.812  29.484  27.020  1.00  0.00     0.029 A 
ATOM     55  C   UNL A   1      47.899  28.441  27.011  1.00  0.00     0.049 A 
ATOM     56  H   UNL A   1      45.865  28.448  27.573  1.00  0.00     0.167 HD
ATOM     57  C   UNL A   1      47.159  26.105  26.647  1.00  0.00     0.074 A 
ATOM     58  C   UNL A   1      47.377  24.734  26.235  1.00  0.00     0.031 C 
ATOM     59  C   UNL A   1      48.103  27.076  26.600  1.00  0.00     0.031 A 
BRANCH  46  60
ATOM     60  C   UNL A   1      46.128  32.604  28.514  1.00  0.00    -0.014 A 
ATOM     61  C   UNL A   1      46.604  33.056  29.756  1.00  0.00     0.010 A 
ATOM     62  C   UNL A   1      45.986  33.523  27.456  1.00  0.00     0.010 A 
ATOM     63  C   UNL A   1      46.908  34.409  29.942  1.00  0.00     0.020 A 
ATOM     64  C   UNL A   1      46.306  34.869  27.633  1.00  0.00     0.020 A 
ATOM     65  C   UNL A   1      46.751  35.307  28.881  1.00  0.00     0.054 A 
BRANCH  65  66
ATOM     66  S   UNL A   1      47.167  37.055  29.140  1.00  0.00     0.124 S 
ATOM     67  O   UNL A   1      46.160  37.727  28.324  1.00  0.00    -0.237 OA
ATOM     68  O   UNL A   1      47.012  37.212  30.584  1.00  0.00    -0.237 OA
ATOM     69  O   UNL A   1      48.539  37.162  28.648  1.00  0.00    -0.744 OA
ENDBRANCH  65  66
ENDBRANCH  46  60
BRANCH  47  70
ATOM     70  C   UNL A   1      43.531  23.114  26.862  1.00  0.00    -0.014 A 
ATOM     71  C   UNL A   1      42.907  22.348  27.862  1.00  0.00     0.010 A 
ATOM     72  C   UNL A   1      43.820  22.511  25.623  1.00  0.00     0.010 A 
ATOM     73  C   UNL A   1      42.599  21.001  27.634  1.00  0.00     0.020 A 
ATOM     74  C   UNL A   1      43.484  21.177  25.380  1.00  0.00     0.020 A 
ATOM     75  C   UNL A   1      42.893  20.423  26.395  1.00  0.00     0.054 A 
BRANCH  75  76
ATOM     76  S   UNL A   1      42.466  18.685  26.100  1.00  0.00     0.124 S 
ATOM     77  O   UNL A   1      42.706  18.088  27.410  1.00  0.00    -0.237 OA
ATOM     78  O   UNL A   1      41.066  18.761  25.687  1.00  0.00    -0.237 OA
ATOM     79  O   UNL A   1      43.395  18.280  25.047  1.00  0.00    -0.744 OA
ENDBRANCH  75  76
ENDBRANCH  47  70
BRANCH  59  80
ATOM     80  C   UNL A   1      49.465  26.692  26.088  1.00  0.00    -0.014 A 
ATOM     81  C   UNL A   1      49.859  27.018  24.779  1.00  0.00     0.010 A 
ATOM     82  C   UNL A   1      50.380  26.055  26.943  1.00  0.00     0.010 A 
ATOM     83  C   UNL A   1      51.140  26.695  24.326  1.00  0.00     0.020 A 
ATOM     84  C   UNL A   1      51.670  25.749  26.502  1.00  0.00     0.020 A 
ATOM     85  C   UNL A   1      52.038  26.062  25.191  1.00  0.00     0.054 A 
BRANCH  85  86
ATOM     86  S   UNL A   1      53.715  25.702  24.600  1.00  0.00     0.124 S 
ATOM     87  O   UNL A   1      53.604  25.990  23.173  1.00  0.00    -0.237 OA
ATOM     88  O   UNL A   1      54.535  26.637  25.367  1.00  0.00    -0.237 OA
ATOM     89  O   UNL A   1      53.907  24.294  24.938  1.00  0.00    -0.744 OA
ENDBRANCH  85  86
ENDBRANCH  59  80
ENDBRANCH  33  34
ENDBRANCH  26  28
ENDBRANCH  25  26
ENDBRANCH   1  25
TORSDOF 16
ENDMDL
MODEL 3
REMARK VINA RESULT:     -10.8      5.133      7.877
REMARK SMILES C[NH+]1CCC(NC(=O)N[C@@H]2C=C[C@H](C(=O)OCCOC(=O)c3ccc(-c4c5nc(c(-c6ccc(S(=O)(=O)[O-])cc6)c6ccc([nH]6)c(-c6ccc(S(=O)(=O)[O-])cc6)c6nc(c(-c7ccc(S(=O)(=O)[O-])cc7)c7ccc4[nH]7)C=C6)C=C5)cc3)C2)CC1
REMARK SMILES IDX 18 1 17 2 16 3 14 4 15 5 13 6 10 7 11 8 82 9 12 10 9 11 6 12
REMARK SMILES IDX 7 13 8 15 5 17 1 18 2 19 3 20 84 21 4 23 83 24 19 25 20 26
REMARK SMILES IDX 21 27 22 28 23 29 81 30 24 31 80 32 25 33 26 34 27 35 74 36
REMARK SMILES IDX 28 37 79 38 73 39 75 40 29 41 78 42 72 43 71 44 30 46 60 47
REMARK SMILES IDX 41 48 59 49 42 50 45 51 58 52 76 53 43 54 44 55 57 57 77 58
REMARK SMILES IDX 46 59 31 60 32 61 40 62 33 63 39 64 34 65 35 66 36 67 37 68
REMARK SMILES IDX 38 69 61 70 62 71 70 72 63 73 69 74 64 75 65 76 66 77 67 78
REMARK SMILES IDX 68 79 47 80 48 81 56 82 49 83 55 84 50 85 51 86 52 87 53 88
REMARK SMILES IDX 54 89
REMARK H PARENT 6 14 9 16 2 22 75 45 45 56
REMARK Flexibility Score: inf
ROOT
ATOM      1  C   UNL A   1      32.168  30.526  26.907  1.00  0.00     0.275 C 
ENDROOT
BRANCH   1   2
ATOM      2  C   UNL A   1      31.810  29.941  25.544  1.00  0.00     0.274 C 
BRANCH   2   3
ATOM      3  O   UNL A   1      31.485  28.542  25.664  1.00  0.00    -0.462 OA
BRANCH   3   4
ATOM      4  C   UNL A   1      31.294  27.841  24.508  1.00  0.00     0.312 C 
ATOM      5  O   UNL A   1      30.300  27.903  23.799  1.00  0.00    -0.252 OA
BRANCH   4   6
ATOM      6  C   UNL A   1      32.531  27.002  24.214  1.00  0.00     0.124 C 
ATOM      7  C   UNL A   1      32.446  24.657  24.972  1.00  0.00     0.107 C 
ATOM      8  C   UNL A   1      33.391  25.478  25.789  1.00  0.00    -0.006 C 
ATOM      9  C   UNL A   1      32.147  25.585  23.784  1.00  0.00     0.048 C 
ATOM     10  C   UNL A   1      33.400  26.762  25.413  1.00  0.00    -0.014 C 
BRANCH   7  11
ATOM     11  N   UNL A   1      31.332  24.368  25.851  1.00  0.00    -0.332 N 
ATOM     12  N   UNL A   1      31.575  22.124  26.597  1.00  0.00    -0.335 N 
ATOM     13  C   UNL A   1      30.956  23.315  26.597  1.00  0.00     0.315 C 
ATOM     14  H   UNL A   1      31.040  21.384  26.966  1.00  0.00     0.165 HD
ATOM     15  O   UNL A   1      29.960  23.450  27.310  1.00  0.00    -0.249 OA
ATOM     16  H   UNL A   1      30.702  25.122  25.919  1.00  0.00     0.165 HD
BRANCH  12  17
ATOM     17  C   UNL A   1      32.891  21.749  26.148  1.00  0.00     0.095 C 
ATOM     18  C   UNL A   1      36.648  20.683  24.810  1.00  0.00     0.332 C 
ATOM     19  N   UNL A   1      35.470  20.563  25.676  1.00  0.00    -0.337 N 
ATOM     20  C   UNL A   1      34.302  20.190  24.856  1.00  0.00     0.264 C 
ATOM     21  C   UNL A   1      35.312  21.793  26.471  1.00  0.00     0.264 C 
ATOM     22  H   UNL A   1      35.577  19.813  26.358  1.00  0.00     0.347 HD
ATOM     23  C   UNL A   1      32.960  20.342  25.572  1.00  0.00     0.086 C 
ATOM     24  C   UNL A   1      33.972  21.878  27.210  1.00  0.00     0.086 C 
ENDBRANCH  12  17
ENDBRANCH   7  11
ENDBRANCH   4   6
ENDBRANCH   3   4
ENDBRANCH   2   3
ENDBRANCH   1   2
BRANCH   1  25
ATOM     25  O   UNL A   1      33.597  30.531  27.066  1.00  0.00    -0.458 OA
BRANCH  25  26
ATOM     26  C   UNL A   1      34.125  31.608  27.683  1.00  0.00     0.338 C 
ATOM     27  O   UNL A   1      33.597  32.698  27.866  1.00  0.00    -0.246 OA
BRANCH  26  28
ATOM     28  C   UNL A   1      35.441  31.253  28.228  1.00  0.00     0.060 A 
ATOM     29  C   UNL A   1      35.563  30.019  28.852  1.00  0.00     0.016 A 
ATOM     30  C   UNL A   1      36.504  32.157  28.251  1.00  0.00     0.016 A 
ATOM     31  C   UNL A   1      36.704  29.728  29.583  1.00  0.00     0.010 A 
ATOM     32  C   UNL A   1      37.696  31.810  28.909  1.00  0.00     0.010 A 
ATOM     33  C   UNL A   1      37.797  30.596  29.608  1.00  0.00    -0.014 A 
BRANCH  33  34
ATOM     34  C   UNL A   1      38.992  30.204  30.409  1.00  0.00     0.031 A 
ATOM     35  C   UNL A   1      39.962  29.188  29.872  1.00  0.00     0.074 A 
ATOM     36  C   UNL A   1      39.282  30.846  31.561  1.00  0.00     0.049 A 
ATOM     37  N   UNL A   1      41.013  28.665  30.452  1.00  0.00    -0.248 NA
ATOM     38  C   UNL A   1      39.733  28.706  28.500  1.00  0.00     0.031 C 
ATOM     39  C   UNL A   1      38.508  31.950  32.134  1.00  0.00     0.029 A 
ATOM     40  N   UNL A   1      40.333  30.697  32.436  1.00  0.00    -0.354 N 
ATOM     41  C   UNL A   1      41.531  27.749  29.545  1.00  0.00     0.074 A 
ATOM     42  C   UNL A   1      40.700  27.809  28.362  1.00  0.00     0.031 C 
ATOM     43  C   UNL A   1      39.140  32.417  33.221  1.00  0.00     0.029 A 
ATOM     44  C   UNL A   1      40.307  31.585  33.487  1.00  0.00     0.049 A 
ATOM     45  H   UNL A   1      41.038  30.018  32.321  1.00  0.00     0.167 HD
ATOM     46  C   UNL A   1      42.590  26.918  29.698  1.00  0.00     0.031 A 
ATOM     47  C   UNL A   1      41.105  31.698  34.568  1.00  0.00     0.031 A 
ATOM     48  C   UNL A   1      43.430  26.879  30.864  1.00  0.00     0.049 A 
ATOM     49  C   UNL A   1      42.230  30.716  34.746  1.00  0.00     0.074 A 
ATOM     50  C   UNL A   1      44.491  26.031  31.131  1.00  0.00     0.029 A 
ATOM     51  N   UNL A   1      43.313  27.728  31.954  1.00  0.00    -0.354 N 
ATOM     52  N   UNL A   1      42.649  29.787  33.922  1.00  0.00    -0.248 NA
ATOM     53  C   UNL A   1      42.968  30.776  36.016  1.00  0.00     0.031 C 
ATOM     54  C   UNL A   1      44.986  26.335  32.405  1.00  0.00     0.029 A 
ATOM     55  C   UNL A   1      44.266  27.407  32.907  1.00  0.00     0.049 A 
ATOM     56  H   UNL A   1      42.653  28.452  32.037  1.00  0.00     0.167 HD
ATOM     57  C   UNL A   1      43.693  29.145  34.578  1.00  0.00     0.074 A 
ATOM     58  C   UNL A   1      43.868  29.817  35.848  1.00  0.00     0.031 C 
ATOM     59  C   UNL A   1      44.427  28.081  34.170  1.00  0.00     0.031 A 
BRANCH  46  60
ATOM     60  C   UNL A   1      42.835  25.906  28.615  1.00  0.00    -0.014 A 
ATOM     61  C   UNL A   1      43.690  26.166  27.530  1.00  0.00     0.010 A 
ATOM     62  C   UNL A   1      42.216  24.646  28.716  1.00  0.00     0.010 A 
ATOM     63  C   UNL A   1      43.900  25.189  26.551  1.00  0.00     0.020 A 
ATOM     64  C   UNL A   1      42.438  23.662  27.751  1.00  0.00     0.020 A 
ATOM     65  C   UNL A   1      43.268  23.946  26.665  1.00  0.00     0.054 A 
BRANCH  65  66
ATOM     66  S   UNL A   1      43.567  22.686  25.393  1.00  0.00     0.124 S 
ATOM     67  O   UNL A   1      43.887  23.506  24.228  1.00  0.00    -0.237 OA
ATOM     68  O   UNL A   1      44.683  21.925  25.950  1.00  0.00    -0.237 OA
ATOM     69  O   UNL A   1      42.301  21.962  25.317  1.00  0.00    -0.744 OA
ENDBRANCH  65  66
ENDBRANCH  46  60
BRANCH  47  70
ATOM     70  C   UNL A   1      40.812  32.718  35.617  1.00  0.00    -0.014 A 
ATOM     71  C   UNL A   1      41.392  33.998  35.568  1.00  0.00     0.010 A 
ATOM     72  C   UNL A   1      39.962  32.397  36.693  1.00  0.00     0.010 A 
ATOM     73  C   UNL A   1      41.145  34.928  36.584  1.00  0.00     0.020 A 
ATOM     74  C   UNL A   1      39.686  33.334  37.692  1.00  0.00     0.020 A 
ATOM     75  C   UNL A   1      40.295  34.589  37.642  1.00  0.00     0.054 A 
BRANCH  75  76
ATOM     76  S   UNL A   1      39.959  35.811  38.940  1.00  0.00     0.124 S 
ATOM     77  O   UNL A   1      38.923  35.144  39.722  1.00  0.00    -0.237 OA
ATOM     78  O   UNL A   1      41.256  35.950  39.598  1.00  0.00    -0.237 OA
ATOM     79  O   UNL A   1      39.521  36.989  38.192  1.00  0.00    -0.744 OA
ENDBRANCH  75  76
ENDBRANCH  47  70
BRANCH  59  80
ATOM     80  C   UNL A   1      45.491  27.575  35.105  1.00  0.00    -0.014 A 
ATOM     81  C   UNL A   1      45.204  26.571  36.046  1.00  0.00     0.010 A 
ATOM     82  C   UNL A   1      46.805  28.064  35.000  1.00  0.00     0.010 A 
ATOM     83  C   UNL A   1      46.209  26.079  36.882  1.00  0.00     0.020 A 
ATOM     84  C   UNL A   1      47.818  27.559  35.819  1.00  0.00     0.020 A 
ATOM     85  C   UNL A   1      47.511  26.576  36.763  1.00  0.00     0.054 A 
BRANCH  85  86
ATOM     86  S   UNL A   1      48.813  25.882  37.819  1.00  0.00     0.124 S 
ATOM     87  O   UNL A   1      49.988  25.981  36.958  1.00  0.00    -0.237 OA
ATOM     88  O   UNL A   1      48.803  26.776  38.974  1.00  0.00    -0.237 OA
ATOM     89  O   UNL A   1      48.351  24.522  38.088  1.00  0.00    -0.744 OA
ENDBRANCH  85  86
ENDBRANCH  59  80
ENDBRANCH  33  34
ENDBRANCH  26  28
ENDBRANCH  25  26
ENDBRANCH   1  25
TORSDOF 16
ENDMDL
