MODEL 1
REMARK VINA RESULT:     -11.1      0.000      0.000
REMARK SMILES COc1ccc(OC)c(N2C(=O)c3ccc(C(=O)OCCOC(=O)c4ccc(-c5c6nc(c(-c7ccc(S(=O)(=O)[O-])cc7)c7ccc([nH]7)c(-c7ccc(S(=O)(=O)[O-])cc7)c7nc(c(-c8ccc(S(=O)(=O)[O-])cc8)c8ccc5[nH]8)C=C7)C=C6)cc4)cc3C2=O)c1
REMARK SMILES IDX 21 1 20 2 19 3 17 4 18 5 16 6 10 7 11 8 87 9 12 10 13 11
REMARK SMILES IDX 86 12 88 13 14 14 85 15 15 16 9 17 3 18 4 19 89 20 5 21 6 22
REMARK SMILES IDX 2 23 1 24 7 25 8 26 22 27 23 28 24 29 25 30 26 31 84 32
REMARK SMILES IDX 27 33 83 34 28 35 29 36 30 37 77 38 31 39 82 40 76 41 78 42
REMARK SMILES IDX 32 43 81 44 75 45 74 46 33 48 63 49 44 50 62 51 45 52 48 53
REMARK SMILES IDX 61 54 79 55 46 56 47 57 60 59 80 60 49 61 34 62 35 63 43 64
REMARK SMILES IDX 36 65 42 66 37 67 38 68 39 69 40 70 41 71 64 72 65 73 73 74
REMARK SMILES IDX 66 75 72 76 67 77 68 78 69 79 70 80 71 81 50 82 51 83 59 84
REMARK SMILES IDX 52 85 58 86 53 87 54 88 55 89 56 90 57 91
REMARK H PARENT 78 47 48 58
REMARK Flexibility Score: inf
ROOT
ATOM      1  C   UNL A   1      38.098  24.202  26.094  1.00  0.00     0.275 C 
ENDROOT
BRANCH   1   2
ATOM      2  C   UNL A   1      37.844  22.700  25.988  1.00  0.00     0.275 C 
BRANCH   2   3
ATOM      3  O   UNL A   1      37.026  22.404  24.838  1.00  0.00    -0.458 OA
BRANCH   3   4
ATOM      4  C   UNL A   1      35.783  21.969  25.133  1.00  0.00     0.338 C 
ATOM      5  O   UNL A   1      35.381  20.819  25.179  1.00  0.00    -0.246 OA
BRANCH   4   6
ATOM      6  C   UNL A   1      34.904  23.095  25.473  1.00  0.00     0.060 A 
ATOM      7  N   UNL A   1      32.089  26.640  24.753  1.00  0.00    -0.238 N 
ATOM      8  C   UNL A   1      31.750  25.776  25.772  1.00  0.00     0.266 C 
ATOM      9  C   UNL A   1      33.260  26.230  24.149  1.00  0.00     0.266 C 
ATOM     10  O   UNL A   1      30.778  25.719  26.505  1.00  0.00    -0.268 OA
ATOM     11  C   UNL A   1      32.798  24.785  25.857  1.00  0.00     0.053 A 
ATOM     12  C   UNL A   1      33.668  24.991  24.808  1.00  0.00     0.054 A 
ATOM     13  O   UNL A   1      34.020  26.762  23.362  1.00  0.00    -0.268 OA
ATOM     14  C   UNL A   1      32.982  23.798  26.796  1.00  0.00     0.015 A 
ATOM     15  C   UNL A   1      34.727  24.138  24.561  1.00  0.00     0.030 A 
ATOM     16  C   UNL A   1      34.085  22.972  26.616  1.00  0.00     0.016 A 
BRANCH   7  17
ATOM     17  C   UNL A   1      31.335  27.816  24.467  1.00  0.00     0.098 A 
ATOM     18  C   UNL A   1      29.570  28.836  23.090  1.00  0.00     0.121 A 
ATOM     19  C   UNL A   1      29.830  30.068  23.679  1.00  0.00     0.050 A 
ATOM     20  C   UNL A   1      30.303  27.728  23.507  1.00  0.00     0.077 A 
ATOM     21  C   UNL A   1      30.819  30.186  24.662  1.00  0.00     0.052 A 
ATOM     22  C   UNL A   1      31.568  29.066  25.058  1.00  0.00     0.143 A 
BRANCH  18  23
ATOM     23  O   UNL A   1      28.607  28.824  22.118  1.00  0.00    -0.497 OA
ATOM     24  C   UNL A   1      28.137  30.096  21.665  1.00  0.00     0.278 C 
ENDBRANCH  18  23
BRANCH  22  25
ATOM     25  O   UNL A   1      32.652  29.270  25.870  1.00  0.00    -0.495 OA
ATOM     26  C   UNL A   1      32.258  29.641  27.194  1.00  0.00     0.278 C 
ENDBRANCH  22  25
ENDBRANCH   7  17
ENDBRANCH   4   6
ENDBRANCH   3   4
ENDBRANCH   2   3
ENDBRANCH   1   2
BRANCH   1  27
ATOM     27  O   UNL A   1      39.092  24.481  27.100  1.00  0.00    -0.458 OA
BRANCH  27  28
ATOM     28  C   UNL A   1      39.854  25.570  26.856  1.00  0.00     0.338 C 
ATOM     29  O   UNL A   1      40.597  25.753  25.905  1.00  0.00    -0.246 OA
BRANCH  28  30
ATOM     30  C   UNL A   1      39.656  26.602  27.885  1.00  0.00     0.060 A 
ATOM     31  C   UNL A   1      40.202  27.871  27.701  1.00  0.00     0.016 A 
ATOM     32  C   UNL A   1      39.148  26.230  29.130  1.00  0.00     0.016 A 
ATOM     33  C   UNL A   1      40.393  28.702  28.804  1.00  0.00     0.010 A 
ATOM     34  C   UNL A   1      39.208  27.130  30.198  1.00  0.00     0.010 A 
ATOM     35  C   UNL A   1      39.883  28.357  30.068  1.00  0.00    -0.014 A 
BRANCH  35  36
ATOM     36  C   UNL A   1      40.059  29.259  31.245  1.00  0.00     0.031 A 
ATOM     37  C   UNL A   1      41.246  29.105  32.170  1.00  0.00     0.074 A 
ATOM     38  C   UNL A   1      39.148  30.221  31.505  1.00  0.00     0.049 A 
ATOM     39  N   UNL A   1      41.459  29.652  33.341  1.00  0.00    -0.248 NA
ATOM     40  C   UNL A   1      42.326  28.206  31.729  1.00  0.00     0.031 C 
ATOM     41  C   UNL A   1      37.969  30.520  30.688  1.00  0.00     0.029 A 
ATOM     42  N   UNL A   1      39.073  31.132  32.531  1.00  0.00    -0.354 N 
ATOM     43  C   UNL A   1      42.657  29.116  33.805  1.00  0.00     0.074 A 
ATOM     44  C   UNL A   1      43.126  28.200  32.788  1.00  0.00     0.031 C 
ATOM     45  C   UNL A   1      37.322  31.570  31.212  1.00  0.00     0.029 A 
ATOM     46  C   UNL A   1      37.971  31.951  32.459  1.00  0.00     0.049 A 
ATOM     47  H   UNL A   1      39.745  31.192  33.249  1.00  0.00     0.167 HD
ATOM     48  C   UNL A   1      43.302  29.358  34.973  1.00  0.00     0.031 A 
ATOM     49  C   UNL A   1      37.495  32.874  33.317  1.00  0.00     0.031 A 
ATOM     50  C   UNL A   1      42.859  30.306  35.963  1.00  0.00     0.049 A 
ATOM     51  C   UNL A   1      38.211  33.108  34.614  1.00  0.00     0.074 A 
ATOM     52  C   UNL A   1      43.454  30.632  37.171  1.00  0.00     0.029 A 
ATOM     53  N   UNL A   1      41.722  31.091  35.856  1.00  0.00    -0.354 N 
ATOM     54  N   UNL A   1      39.305  32.543  35.062  1.00  0.00    -0.248 NA
ATOM     55  C   UNL A   1      37.614  34.089  35.531  1.00  0.00     0.031 C 
ATOM     56  C   UNL A   1      42.654  31.587  37.811  1.00  0.00     0.029 A 
ATOM     57  C   UNL A   1      41.589  31.891  36.979  1.00  0.00     0.049 A 
ATOM     58  H   UNL A   1      41.100  31.082  35.093  1.00  0.00     0.167 HD
ATOM     59  C   UNL A   1      39.533  33.105  36.312  1.00  0.00     0.074 A 
ATOM     60  C   UNL A   1      38.476  34.069  36.538  1.00  0.00     0.031 C 
ATOM     61  C   UNL A   1      40.526  32.839  37.195  1.00  0.00     0.031 A 
BRANCH  48  62
ATOM     62  C   UNL A   1      44.542  28.550  35.271  1.00  0.00    -0.014 A 
ATOM     63  C   UNL A   1      45.824  29.003  34.914  1.00  0.00     0.010 A 
ATOM     64  C   UNL A   1      44.417  27.330  35.963  1.00  0.00     0.010 A 
ATOM     65  C   UNL A   1      46.953  28.229  35.202  1.00  0.00     0.020 A 
ATOM     66  C   UNL A   1      45.547  26.566  36.277  1.00  0.00     0.020 A 
ATOM     67  C   UNL A   1      46.807  27.012  35.875  1.00  0.00     0.054 A 
BRANCH  67  68
ATOM     68  S   UNL A   1      48.288  26.029  36.243  1.00  0.00     0.124 S 
ATOM     69  O   UNL A   1      47.995  25.539  37.588  1.00  0.00    -0.237 OA
ATOM     70  O   UNL A   1      48.273  25.017  35.190  1.00  0.00    -0.237 OA
ATOM     71  O   UNL A   1      49.377  26.998  36.156  1.00  0.00    -0.744 OA
ENDBRANCH  67  68
ENDBRANCH  48  62
BRANCH  49  72
ATOM     72  C   UNL A   1      36.238  33.599  32.989  1.00  0.00    -0.014 A 
ATOM     73  C   UNL A   1      34.990  33.067  33.351  1.00  0.00     0.010 A 
ATOM     74  C   UNL A   1      36.289  34.853  32.352  1.00  0.00     0.010 A 
ATOM     75  C   UNL A   1      33.815  33.776  33.084  1.00  0.00     0.020 A 
ATOM     76  C   UNL A   1      35.121  35.578  32.111  1.00  0.00     0.020 A 
ATOM     77  C   UNL A   1      33.890  35.031  32.471  1.00  0.00     0.054 A 
BRANCH  77  78
ATOM     78  S   UNL A   1      32.361  35.974  32.208  1.00  0.00     0.124 S 
ATOM     79  O   UNL A   1      31.338  34.999  32.572  1.00  0.00    -0.237 OA
ATOM     80  O   UNL A   1      32.519  37.099  33.126  1.00  0.00    -0.237 OA
ATOM     81  O   UNL A   1      32.419  36.325  30.791  1.00  0.00    -0.744 OA
ENDBRANCH  77  78
ENDBRANCH  49  72
BRANCH  61  82
ATOM     82  C   UNL A   1      40.527  33.622  38.480  1.00  0.00    -0.014 A 
ATOM     83  C   UNL A   1      39.869  33.138  39.624  1.00  0.00     0.010 A 
ATOM     84  C   UNL A   1      41.223  34.842  38.550  1.00  0.00     0.010 A 
ATOM     85  C   UNL A   1      39.880  33.878  40.809  1.00  0.00     0.020 A 
ATOM     86  C   UNL A   1      41.257  35.573  39.739  1.00  0.00     0.020 A 
ATOM     87  C   UNL A   1      40.572  35.093  40.858  1.00  0.00     0.054 A 
BRANCH  87  88
ATOM     88  S   UNL A   1      40.602  36.019  42.418  1.00  0.00     0.124 S 
ATOM     89  O   UNL A   1      40.553  34.947  43.408  1.00  0.00    -0.237 OA
ATOM     90  O   UNL A   1      41.868  36.744  42.337  1.00  0.00    -0.237 OA
ATOM     91  O   UNL A   1      39.406  36.856  42.345  1.00  0.00    -0.744 OA
ENDBRANCH  87  88
ENDBRANCH  61  82
ENDBRANCH  35  36
ENDBRANCH  28  30
ENDBRANCH  27  28
ENDBRANCH   1  27
TORSDOF 17
ENDMDL
MODEL 2
REMARK VINA RESULT:     -11.1      2.777      8.180
REMARK SMILES COc1ccc(OC)c(N2C(=O)c3ccc(C(=O)OCCOC(=O)c4ccc(-c5c6nc(c(-c7ccc(S(=O)(=O)[O-])cc7)c7ccc([nH]7)c(-c7ccc(S(=O)(=O)[O-])cc7)c7nc(c(-c8ccc(S(=O)(=O)[O-])cc8)c8ccc5[nH]8)C=C7)C=C6)cc4)cc3C2=O)c1
REMARK SMILES IDX 21 1 20 2 19 3 17 4 18 5 16 6 10 7 11 8 87 9 12 10 13 11
REMARK SMILES IDX 86 12 88 13 14 14 85 15 15 16 9 17 3 18 4 19 89 20 5 21 6 22
REMARK SMILES IDX 2 23 1 24 7 25 8 26 22 27 23 28 24 29 25 30 26 31 84 32
REMARK SMILES IDX 27 33 83 34 28 35 29 36 30 37 77 38 31 39 82 40 76 41 78 42
REMARK SMILES IDX 32 43 81 44 75 45 74 46 33 48 63 49 44 50 62 51 45 52 48 53
REMARK SMILES IDX 61 54 79 55 46 56 47 57 60 59 80 60 49 61 34 62 35 63 43 64
REMARK SMILES IDX 36 65 42 66 37 67 38 68 39 69 40 70 41 71 64 72 65 73 73 74
REMARK SMILES IDX 66 75 72 76 67 77 68 78 69 79 70 80 71 81 50 82 51 83 59 84
REMARK SMILES IDX 52 85 58 86 53 87 54 88 55 89 56 90 57 91
REMARK H PARENT 78 47 48 58
REMARK Flexibility Score: inf
ROOT
ATOM      1  C   UNL A   1      32.254  30.139  26.900  1.00  0.00     0.275 C 
ENDROOT
BRANCH   1   2
ATOM      2  C   UNL A   1      31.436  30.306  25.621  1.00  0.00     0.275 C 
BRANCH   2   3
ATOM      3  O   UNL A   1      31.944  29.450  24.578  1.00  0.00    -0.458 OA
BRANCH   3   4
ATOM      4  C   UNL A   1      31.066  28.526  24.135  1.00  0.00     0.338 C 
ATOM      5  O   UNL A   1      30.074  28.701  23.448  1.00  0.00    -0.246 OA
BRANCH   4   6
ATOM      6  C   UNL A   1      31.478  27.177  24.543  1.00  0.00     0.060 A 
ATOM      7  N   UNL A   1      34.275  23.589  25.098  1.00  0.00    -0.238 N 
ATOM      8  C   UNL A   1      33.446  23.898  26.155  1.00  0.00     0.266 C 
ATOM      9  C   UNL A   1      34.065  24.467  24.054  1.00  0.00     0.266 C 
ATOM     10  O   UNL A   1      33.351  23.439  27.280  1.00  0.00    -0.268 OA
ATOM     11  C   UNL A   1      32.621  25.009  25.739  1.00  0.00     0.053 A 
ATOM     12  C   UNL A   1      33.060  25.428  24.502  1.00  0.00     0.054 A 
ATOM     13  O   UNL A   1      34.413  24.470  22.888  1.00  0.00    -0.268 OA
ATOM     14  C   UNL A   1      31.554  25.585  26.387  1.00  0.00     0.015 A 
ATOM     15  C   UNL A   1      32.530  26.542  23.879  1.00  0.00     0.030 A 
ATOM     16  C   UNL A   1      30.950  26.660  25.746  1.00  0.00     0.016 A 
BRANCH   7  17
ATOM     17  C   UNL A   1      35.145  22.460  25.116  1.00  0.00     0.098 A 
ATOM     18  C   UNL A   1      37.460  21.659  25.347  1.00  0.00     0.121 A 
ATOM     19  C   UNL A   1      37.036  20.366  25.063  1.00  0.00     0.050 A 
ATOM     20  C   UNL A   1      36.512  22.678  25.395  1.00  0.00     0.077 A 
ATOM     21  C   UNL A   1      35.683  20.105  24.819  1.00  0.00     0.052 A 
ATOM     22  C   UNL A   1      34.740  21.145  24.847  1.00  0.00     0.143 A 
BRANCH  18  23
ATOM     23  O   UNL A   1      38.805  21.822  25.543  1.00  0.00    -0.497 OA
ATOM     24  C   UNL A   1      39.199  22.805  26.504  1.00  0.00     0.278 C 
ENDBRANCH  18  23
BRANCH  22  25
ATOM     25  O   UNL A   1      33.471  20.876  24.407  1.00  0.00    -0.495 OA
ATOM     26  C   UNL A   1      33.207  19.471  24.377  1.00  0.00     0.278 C 
ENDBRANCH  22  25
ENDBRANCH   7  17
ENDBRANCH   4   6
ENDBRANCH   3   4
ENDBRANCH   2   3
ENDBRANCH   1   2
BRANCH   1  27
ATOM     27  O   UNL A   1      33.637  30.473  26.668  1.00  0.00    -0.458 OA
BRANCH  27  28
ATOM     28  C   UNL A   1      34.180  31.302  27.586  1.00  0.00     0.338 C 
ATOM     29  O   UNL A   1      33.654  32.273  28.107  1.00  0.00    -0.246 OA
BRANCH  28  30
ATOM     30  C   UNL A   1      35.536  30.871  27.960  1.00  0.00     0.060 A 
ATOM     31  C   UNL A   1      35.732  29.593  28.482  1.00  0.00     0.016 A 
ATOM     32  C   UNL A   1      36.556  31.819  28.023  1.00  0.00     0.016 A 
ATOM     33  C   UNL A   1      36.886  29.323  29.216  1.00  0.00     0.010 A 
ATOM     34  C   UNL A   1      37.771  31.489  28.631  1.00  0.00     0.010 A 
ATOM     35  C   UNL A   1      37.934  30.257  29.289  1.00  0.00    -0.014 A 
BRANCH  35  36
ATOM     36  C   UNL A   1      39.184  29.958  30.050  1.00  0.00     0.031 A 
ATOM     37  C   UNL A   1      40.149  28.896  29.571  1.00  0.00     0.074 A 
ATOM     38  C   UNL A   1      39.463  30.630  31.188  1.00  0.00     0.049 A 
ATOM     39  N   UNL A   1      41.168  28.361  30.197  1.00  0.00    -0.248 NA
ATOM     40  C   UNL A   1      39.929  28.351  28.221  1.00  0.00     0.031 C 
ATOM     41  C   UNL A   1      38.652  31.707  31.760  1.00  0.00     0.029 A 
ATOM     42  N   UNL A   1      40.512  30.509  32.066  1.00  0.00    -0.354 N 
ATOM     43  C   UNL A   1      41.668  27.376  29.350  1.00  0.00     0.074 A 
ATOM     44  C   UNL A   1      40.840  27.388  28.163  1.00  0.00     0.031 C 
ATOM     45  C   UNL A   1      39.256  32.181  32.858  1.00  0.00     0.029 A 
ATOM     46  C   UNL A   1      40.437  31.374  33.133  1.00  0.00     0.049 A 
ATOM     47  H   UNL A   1      41.246  29.864  31.944  1.00  0.00     0.167 HD
ATOM     48  C   UNL A   1      42.714  26.535  29.545  1.00  0.00     0.031 A 
ATOM     49  C   UNL A   1      41.195  31.482  34.241  1.00  0.00     0.031 A 
ATOM     50  C   UNL A   1      43.566  26.558  30.706  1.00  0.00     0.049 A 
ATOM     51  C   UNL A   1      42.332  30.526  34.449  1.00  0.00     0.074 A 
ATOM     52  C   UNL A   1      44.660  25.756  30.988  1.00  0.00     0.029 A 
ATOM     53  N   UNL A   1      43.432  27.434  31.772  1.00  0.00    -0.354 N 
ATOM     54  N   UNL A   1      42.746  29.560  33.666  1.00  0.00    -0.248 NA
ATOM     55  C   UNL A   1      43.089  30.661  35.701  1.00  0.00     0.031 C 
ATOM     56  C   UNL A   1      45.163  26.123  32.241  1.00  0.00     0.029 A 
ATOM     57  C   UNL A   1      44.413  27.186  32.718  1.00  0.00     0.049 A 
ATOM     58  H   UNL A   1      42.741  28.132  31.845  1.00  0.00     0.167 HD
ATOM     59  C   UNL A   1      43.818  28.975  34.327  1.00  0.00     0.074 A 
ATOM     60  C   UNL A   1      44.001  29.709  35.563  1.00  0.00     0.031 C 
ATOM     61  C   UNL A   1      44.578  27.919  33.947  1.00  0.00     0.031 A 
BRANCH  48  62
ATOM     62  C   UNL A   1      42.973  25.482  28.496  1.00  0.00    -0.014 A 
ATOM     63  C   UNL A   1      43.814  25.724  27.396  1.00  0.00     0.010 A 
ATOM     64  C   UNL A   1      42.392  24.208  28.643  1.00  0.00     0.010 A 
ATOM     65  C   UNL A   1      44.032  24.728  26.440  1.00  0.00     0.020 A 
ATOM     66  C   UNL A   1      42.630  23.200  27.703  1.00  0.00     0.020 A 
ATOM     67  C   UNL A   1      43.433  23.473  26.594  1.00  0.00     0.054 A 
BRANCH  67  68
ATOM     68  S   UNL A   1      43.736  22.195  25.343  1.00  0.00     0.124 S 
ATOM     69  O   UNL A   1      45.125  21.832  25.617  1.00  0.00    -0.237 OA
ATOM     70  O   UNL A   1      42.745  21.175  25.676  1.00  0.00    -0.237 OA
ATOM     71  O   UNL A   1      43.511  22.888  24.077  1.00  0.00    -0.744 OA
ENDBRANCH  67  68
ENDBRANCH  48  62
BRANCH  49  72
ATOM     72  C   UNL A   1      40.854  32.508  35.264  1.00  0.00    -0.014 A 
ATOM     73  C   UNL A   1      39.951  32.213  36.299  1.00  0.00     0.010 A 
ATOM     74  C   UNL A   1      41.472  33.772  35.232  1.00  0.00     0.010 A 
ATOM     75  C   UNL A   1      39.673  33.164  37.285  1.00  0.00     0.020 A 
ATOM     76  C   UNL A   1      41.219  34.714  36.231  1.00  0.00     0.020 A 
ATOM     77  C   UNL A   1      40.315  34.407  37.248  1.00  0.00     0.054 A 
BRANCH  77  78
ATOM     78  S   UNL A   1      40.004  35.598  38.582  1.00  0.00     0.124 S 
ATOM     79  O   UNL A   1      38.873  34.989  39.273  1.00  0.00    -0.237 OA
ATOM     80  O   UNL A   1      41.269  35.594  39.313  1.00  0.00    -0.237 OA
ATOM     81  O   UNL A   1      39.711  36.839  37.868  1.00  0.00    -0.744 OA
ENDBRANCH  77  78
ENDBRANCH  49  72
BRANCH  61  82
ATOM     82  C   UNL A   1      45.693  27.510  34.870  1.00  0.00    -0.014 A 
ATOM     83  C   UNL A   1      46.998  28.001  34.692  1.00  0.00     0.010 A 
ATOM     84  C   UNL A   1      45.422  26.649  35.949  1.00  0.00     0.010 A 
ATOM     85  C   UNL A   1      48.022  27.612  35.560  1.00  0.00     0.020 A 
ATOM     86  C   UNL A   1      46.438  26.276  36.831  1.00  0.00     0.020 A 
ATOM     87  C   UNL A   1      47.735  26.749  36.622  1.00  0.00     0.054 A 
BRANCH  87  88
ATOM     88  S   UNL A   1      49.073  26.285  37.756  1.00  0.00     0.124 S 
ATOM     89  O   UNL A   1      48.338  25.670  38.858  1.00  0.00    -0.237 OA
ATOM     90  O   UNL A   1      49.878  25.371  36.949  1.00  0.00    -0.237 OA
ATOM     91  O   UNL A   1      49.717  27.559  38.070  1.00  0.00    -0.744 OA
ENDBRANCH  87  88
ENDBRANCH  61  82
ENDBRANCH  35  36
ENDBRANCH  28  30
ENDBRANCH  27  28
ENDBRANCH   1  27
TORSDOF 17
ENDMDL
MODEL 3
REMARK VINA RESULT:     -10.9      2.907      8.254
REMARK SMILES COc1ccc(OC)c(N2C(=O)c3ccc(C(=O)OCCOC(=O)c4ccc(-c5c6nc(c(-c7ccc(S(=O)(=O)[O-])cc7)c7ccc([nH]7)c(-c7ccc(S(=O)(=O)[O-])cc7)c7nc(c(-c8ccc(S(=O)(=O)[O-])cc8)c8ccc5[nH]8)C=C7)C=C6)cc4)cc3C2=O)c1
REMARK SMILES IDX 21 1 20 2 19 3 17 4 18 5 16 6 10 7 11 8 87 9 12 10 13 11
REMARK SMILES IDX 86 12 88 13 14 14 85 15 15 16 9 17 3 18 4 19 89 20 5 21 6 22
REMARK SMILES IDX 2 23 1 24 7 25 8 26 22 27 23 28 24 29 25 30 26 31 84 32
REMARK SMILES IDX 27 33 83 34 28 35 29 36 30 37 77 38 31 39 82 40 76 41 78 42
REMARK SMILES IDX 32 43 81 44 75 45 74 46 33 48 63 49 44 50 62 51 45 52 48 53
REMARK SMILES IDX 61 54 79 55 46 56 47 57 60 59 80 60 49 61 34 62 35 63 43 64
REMARK SMILES IDX 36 65 42 66 37 67 38 68 39 69 40 70 41 71 64 72 65 73 73 74
REMARK SMILES IDX 66 75 72 76 67 77 68 78 69 79 70 80 71 81 50 82 51 83 59 84
REMARK SMILES IDX 52 85 58 86 53 87 54 88 55 89 56 90 57 91
REMARK H PARENT 78 47 48 58
REMARK Flexibility Score: inf
ROOT
ATOM      1  C   UNL A   1      32.447  30.115  27.160  1.00  0.00     0.275 C 
ENDROOT
BRANCH   1   2
ATOM      2  C   UNL A   1      31.534  30.361  25.962  1.00  0.00     0.275 C 
BRANCH   2   3
ATOM      3  O   UNL A   1      32.148  29.885  24.748  1.00  0.00    -0.458 OA
BRANCH   3   4
ATOM      4  C   UNL A   1      31.410  28.990  24.060  1.00  0.00     0.338 C 
ATOM      5  O   UNL A   1      30.270  29.118  23.646  1.00  0.00    -0.246 OA
BRANCH   4   6
ATOM      6  C   UNL A   1      32.186  27.775  23.786  1.00  0.00     0.060 A 
ATOM      7  N   UNL A   1      33.362  23.352  24.041  1.00  0.00    -0.238 N 
ATOM      8  C   UNL A   1      33.416  23.937  22.795  1.00  0.00     0.266 C 
ATOM      9  C   UNL A   1      32.952  24.273  24.984  1.00  0.00     0.266 C 
ATOM     10  O   UNL A   1      33.653  23.482  21.689  1.00  0.00    -0.268 OA
ATOM     11  C   UNL A   1      33.069  25.330  22.962  1.00  0.00     0.053 A 
ATOM     12  C   UNL A   1      32.685  25.521  24.271  1.00  0.00     0.054 A 
ATOM     13  O   UNL A   1      32.941  24.270  26.201  1.00  0.00    -0.268 OA
ATOM     14  C   UNL A   1      33.113  26.349  22.040  1.00  0.00     0.015 A 
ATOM     15  C   UNL A   1      32.200  26.735  24.719  1.00  0.00     0.030 A 
ATOM     16  C   UNL A   1      32.705  27.601  22.485  1.00  0.00     0.016 A 
BRANCH   7  17
ATOM     17  C   UNL A   1      33.763  22.003  24.270  1.00  0.00     0.098 A 
ATOM     18  C   UNL A   1      33.039  19.671  24.570  1.00  0.00     0.121 A 
ATOM     19  C   UNL A   1      34.353  19.302  24.834  1.00  0.00     0.050 A 
ATOM     20  C   UNL A   1      32.767  21.003  24.267  1.00  0.00     0.077 A 
ATOM     21  C   UNL A   1      35.374  20.259  24.807  1.00  0.00     0.052 A 
ATOM     22  C   UNL A   1      35.083  21.603  24.524  1.00  0.00     0.143 A 
BRANCH  18  23
ATOM     23  O   UNL A   1      32.106  18.673  24.648  1.00  0.00    -0.497 OA
ATOM     24  C   UNL A   1      32.510  17.468  25.304  1.00  0.00     0.278 C 
ENDBRANCH  18  23
BRANCH  22  25
ATOM     25  O   UNL A   1      36.076  22.530  24.706  1.00  0.00    -0.495 OA
ATOM     26  C   UNL A   1      37.054  22.080  25.647  1.00  0.00     0.278 C 
ENDBRANCH  22  25
ENDBRANCH   7  17
ENDBRANCH   4   6
ENDBRANCH   3   4
ENDBRANCH   2   3
ENDBRANCH   1   2
BRANCH   1  27
ATOM     27  O   UNL A   1      33.802  30.505  26.857  1.00  0.00    -0.458 OA
BRANCH  27  28
ATOM     28  C   UNL A   1      34.369  31.329  27.765  1.00  0.00     0.338 C 
ATOM     29  O   UNL A   1      33.866  32.310  28.289  1.00  0.00    -0.246 OA
BRANCH  28  30
ATOM     30  C   UNL A   1      35.723  30.877  28.123  1.00  0.00     0.060 A 
ATOM     31  C   UNL A   1      35.908  29.589  28.624  1.00  0.00     0.016 A 
ATOM     32  C   UNL A   1      36.754  31.813  28.194  1.00  0.00     0.016 A 
ATOM     33  C   UNL A   1      37.064  29.295  29.347  1.00  0.00     0.010 A 
ATOM     34  C   UNL A   1      37.969  31.460  28.790  1.00  0.00     0.010 A 
ATOM     35  C   UNL A   1      38.123  30.216  29.427  1.00  0.00    -0.014 A 
BRANCH  35  36
ATOM     36  C   UNL A   1      39.374  29.892  30.175  1.00  0.00     0.031 A 
ATOM     37  C   UNL A   1      40.321  28.823  29.677  1.00  0.00     0.074 A 
ATOM     38  C   UNL A   1      39.670  30.546  31.319  1.00  0.00     0.049 A 
ATOM     39  N   UNL A   1      41.338  28.268  30.289  1.00  0.00    -0.248 NA
ATOM     40  C   UNL A   1      40.085  28.298  28.321  1.00  0.00     0.031 C 
ATOM     41  C   UNL A   1      38.877  31.627  31.910  1.00  0.00     0.029 A 
ATOM     42  N   UNL A   1      40.723  30.401  32.188  1.00  0.00    -0.354 N 
ATOM     43  C   UNL A   1      41.819  27.287  29.426  1.00  0.00     0.074 A 
ATOM     44  C   UNL A   1      40.983  27.324  28.245  1.00  0.00     0.031 C 
ATOM     45  C   UNL A   1      39.495  32.079  33.010  1.00  0.00     0.029 A 
ATOM     46  C   UNL A   1      40.667  31.254  33.266  1.00  0.00     0.049 A 
ATOM     47  H   UNL A   1      41.448  29.749  32.053  1.00  0.00     0.167 HD
ATOM     48  C   UNL A   1      42.855  26.430  29.603  1.00  0.00     0.031 A 
ATOM     49  C   UNL A   1      41.435  31.339  34.370  1.00  0.00     0.031 A 
ATOM     50  C   UNL A   1      43.716  26.427  30.758  1.00  0.00     0.049 A 
ATOM     51  C   UNL A   1      42.561  30.366  34.557  1.00  0.00     0.074 A 
ATOM     52  C   UNL A   1      44.802  25.608  31.022  1.00  0.00     0.029 A 
ATOM     53  N   UNL A   1      43.601  27.293  31.835  1.00  0.00    -0.354 N 
ATOM     54  N   UNL A   1      42.957  29.404  33.760  1.00  0.00    -0.248 NA
ATOM     55  C   UNL A   1      43.328  30.475  35.805  1.00  0.00     0.031 C 
ATOM     56  C   UNL A   1      45.318  25.953  32.276  1.00  0.00     0.029 A 
ATOM     57  C   UNL A   1      44.586  27.020  32.771  1.00  0.00     0.049 A 
ATOM     58  H   UNL A   1      42.920  27.998  31.922  1.00  0.00     0.167 HD
ATOM     59  C   UNL A   1      44.026  28.797  34.406  1.00  0.00     0.074 A 
ATOM     60  C   UNL A   1      44.227  29.514  35.649  1.00  0.00     0.031 C 
ATOM     61  C   UNL A   1      44.769  27.736  34.007  1.00  0.00     0.031 A 
BRANCH  48  62
ATOM     62  C   UNL A   1      43.093  25.386  28.540  1.00  0.00    -0.014 A 
ATOM     63  C   UNL A   1      43.880  25.651  27.406  1.00  0.00     0.010 A 
ATOM     64  C   UNL A   1      42.548  24.099  28.706  1.00  0.00     0.010 A 
ATOM     65  C   UNL A   1      44.080  24.663  26.436  1.00  0.00     0.020 A 
ATOM     66  C   UNL A   1      42.768  23.099  27.752  1.00  0.00     0.020 A 
ATOM     67  C   UNL A   1      43.516  23.395  26.611  1.00  0.00     0.054 A 
BRANCH  67  68
ATOM     68  S   UNL A   1      43.795  22.127  25.343  1.00  0.00     0.124 S 
ATOM     69  O   UNL A   1      45.106  21.607  25.723  1.00  0.00    -0.237 OA
ATOM     70  O   UNL A   1      42.674  21.213  25.549  1.00  0.00    -0.237 OA
ATOM     71  O   UNL A   1      43.760  22.877  24.090  1.00  0.00    -0.744 OA
ENDBRANCH  67  68
ENDBRANCH  48  62
BRANCH  49  72
ATOM     72  C   UNL A   1      41.115  32.356  35.407  1.00  0.00    -0.014 A 
ATOM     73  C   UNL A   1      40.263  32.042  36.478  1.00  0.00     0.010 A 
ATOM     74  C   UNL A   1      41.703  33.634  35.351  1.00  0.00     0.010 A 
ATOM     75  C   UNL A   1      40.005  32.986  37.476  1.00  0.00     0.020 A 
ATOM     76  C   UNL A   1      41.472  34.569  36.362  1.00  0.00     0.020 A 
ATOM     77  C   UNL A   1      40.618  34.242  37.414  1.00  0.00     0.054 A 
BRANCH  77  78
ATOM     78  S   UNL A   1      40.338  35.426  38.762  1.00  0.00     0.124 S 
ATOM     79  O   UNL A   1      41.422  35.098  39.682  1.00  0.00    -0.237 OA
ATOM     80  O   UNL A   1      40.452  36.714  38.083  1.00  0.00    -0.237 OA
ATOM     81  O   UNL A   1      38.994  35.095  39.230  1.00  0.00    -0.744 OA
ENDBRANCH  77  78
ENDBRANCH  49  72
BRANCH  61  82
ATOM     82  C   UNL A   1      45.885  27.302  34.917  1.00  0.00    -0.014 A 
ATOM     83  C   UNL A   1      47.170  27.862  34.807  1.00  0.00     0.010 A 
ATOM     84  C   UNL A   1      45.635  26.343  35.916  1.00  0.00     0.010 A 
ATOM     85  C   UNL A   1      48.195  27.448  35.661  1.00  0.00     0.020 A 
ATOM     86  C   UNL A   1      46.651  25.944  36.787  1.00  0.00     0.020 A 
ATOM     87  C   UNL A   1      47.929  26.488  36.644  1.00  0.00     0.054 A 
BRANCH  87  88
ATOM     88  S   UNL A   1      49.267  25.991  37.764  1.00  0.00     0.124 S 
ATOM     89  O   UNL A   1      50.338  25.656  36.829  1.00  0.00    -0.237 OA
ATOM     90  O   UNL A   1      49.483  27.195  38.563  1.00  0.00    -0.237 OA
ATOM     91  O   UNL A   1      48.702  24.859  38.496  1.00  0.00    -0.744 OA
ENDBRANCH  87  88
ENDBRANCH  61  82
ENDBRANCH  35  36
ENDBRANCH  28  30
ENDBRANCH  27  28
ENDBRANCH   1  27
TORSDOF 17
ENDMDL
