MODEL 1
REMARK VINA RESULT:     -11.5      0.000      0.000
REMARK SMILES CC1(C)S[C@H](c2ccc(Cl)cc2Cl)[NH2+][C@H]1C(=O)OCCOC(=O)c1ccc(-c2c3nc(c(-c4ccc(S(=O)(=O)[O-])cc4)c4ccc([nH]4)c(-c4ccc(S(=O)(=O)[O-])cc4)c4nc(c(-c5ccc(S(=O)(=O)[O-])cc5)c5ccc2[nH]5)C=C4)C=C3)cc1
REMARK SMILES IDX 20 1 19 2 18 3 16 4 17 5 15 6 1 7 2 8 3 9 4 10 5 11 14 12
REMARK SMILES IDX 6 15 7 16 12 17 8 18 11 19 13 20 9 21 10 22 21 23 22 24
REMARK SMILES IDX 23 25 24 26 25 27 83 28 26 29 82 30 27 31 28 32 29 33 76 34
REMARK SMILES IDX 30 35 81 36 75 37 77 38 31 39 80 40 74 41 73 42 32 44 62 45
REMARK SMILES IDX 43 46 61 47 44 48 47 49 60 50 78 51 45 52 46 53 59 55 79 56
REMARK SMILES IDX 48 57 33 58 34 59 42 60 35 61 41 62 36 63 37 64 38 65 39 66
REMARK SMILES IDX 40 67 63 68 64 69 72 70 65 71 71 72 66 73 67 74 68 75 69 76
REMARK SMILES IDX 70 77 49 78 50 79 58 80 51 81 57 82 52 83 53 84 54 85 55 86
REMARK SMILES IDX 56 87
REMARK H PARENT 14 13 14 14 77 43 47 54
REMARK Flexibility Score: inf
ROOT
ATOM      1  C   UNL A   1      39.239  22.502  26.112  1.00  0.00     0.275 C 
ENDROOT
BRANCH   1   2
ATOM      2  C   UNL A   1      37.859  22.075  25.599  1.00  0.00     0.274 C 
BRANCH   2   3
ATOM      3  O   UNL A   1      37.085  23.178  25.084  1.00  0.00    -0.458 OA
BRANCH   3   4
ATOM      4  C   UNL A   1      36.215  22.861  24.093  1.00  0.00     0.366 C 
ATOM      5  O   UNL A   1      36.482  22.978  22.900  1.00  0.00    -0.245 OA
BRANCH   4   6
ATOM      6  C   UNL A   1      34.824  22.412  24.575  1.00  0.00     0.310 C 
ATOM      7  C   UNL A   1      34.068  24.709  25.592  1.00  0.00     0.030 C 
ATOM      8  C   UNL A   1      34.074  23.181  25.682  1.00  0.00     0.079 C 
ATOM      9  C   UNL A   1      34.486  22.726  27.084  1.00  0.00     0.030 C 
ATOM     10  S   UNL A   1      32.327  22.639  25.409  1.00  0.00    -0.081 SA
ATOM     11  C   UNL A   1      32.689  21.665  23.889  1.00  0.00     0.276 C 
ATOM     12  N   UNL A   1      33.923  22.272  23.397  1.00  0.00    -0.319 N 
ATOM     13  H   UNL A   1      33.727  23.188  22.993  1.00  0.00     0.348 HD
ATOM     14  H   UNL A   1      34.352  21.699  22.670  1.00  0.00     0.348 HD
BRANCH  11  15
ATOM     15  C   UNL A   1      32.673  20.148  24.136  1.00  0.00     0.039 A 
ATOM     16  C   UNL A   1      32.786  19.710  25.482  1.00  0.00     0.014 A 
ATOM     17  C   UNL A   1      32.466  19.139  23.170  1.00  0.00     0.052 A 
ATOM     18  C   UNL A   1      32.778  18.356  25.833  1.00  0.00     0.021 A 
ATOM     19  C   UNL A   1      32.484  17.777  23.523  1.00  0.00     0.041 A 
ATOM     20  Cl  UNL A   1      32.109  19.438  21.505  1.00  0.00    -0.084 Cl
ATOM     21  C   UNL A   1      32.643  17.394  24.846  1.00  0.00     0.042 A 
ATOM     22  Cl  UNL A   1      32.630  15.729  25.272  1.00  0.00    -0.084 Cl
ENDBRANCH  11  15
ENDBRANCH   4   6
ENDBRANCH   3   4
ENDBRANCH   2   3
ENDBRANCH   1   2
BRANCH   1  23
ATOM     23  O   UNL A   1      39.191  23.750  26.830  1.00  0.00    -0.458 OA
BRANCH  23  24
ATOM     24  C   UNL A   1      40.364  24.422  26.887  1.00  0.00     0.338 C 
ATOM     25  O   UNL A   1      41.364  24.205  26.225  1.00  0.00    -0.246 OA
BRANCH  24  26
ATOM     26  C   UNL A   1      40.251  25.557  27.816  1.00  0.00     0.060 A 
ATOM     27  C   UNL A   1      41.249  26.534  27.808  1.00  0.00     0.016 A 
ATOM     28  C   UNL A   1      39.229  25.600  28.763  1.00  0.00     0.016 A 
ATOM     29  C   UNL A   1      41.238  27.559  28.750  1.00  0.00     0.010 A 
ATOM     30  C   UNL A   1      39.210  26.639  29.701  1.00  0.00     0.010 A 
ATOM     31  C   UNL A   1      40.219  27.618  29.707  1.00  0.00    -0.014 A 
BRANCH  31  32
ATOM     32  C   UNL A   1      40.225  28.689  30.731  1.00  0.00     0.031 A 
ATOM     33  C   UNL A   1      41.184  28.619  31.884  1.00  0.00     0.074 A 
ATOM     34  C   UNL A   1      39.372  29.725  30.621  1.00  0.00     0.049 A 
ATOM     35  N   UNL A   1      41.262  29.389  32.939  1.00  0.00    -0.248 NA
ATOM     36  C   UNL A   1      42.187  27.543  31.846  1.00  0.00     0.031 C 
ATOM     37  C   UNL A   1      38.434  29.936  29.517  1.00  0.00     0.029 A 
ATOM     38  N   UNL A   1      39.154  30.792  31.455  1.00  0.00    -0.354 N 
ATOM     39  C   UNL A   1      42.301  28.875  33.705  1.00  0.00     0.074 A 
ATOM     40  C   UNL A   1      42.821  27.725  32.997  1.00  0.00     0.031 C 
ATOM     41  C   UNL A   1      37.737  31.061  29.745  1.00  0.00     0.029 A 
ATOM     42  C   UNL A   1      38.142  31.620  31.032  1.00  0.00     0.049 A 
ATOM     43  H   UNL A   1      39.671  30.949  32.278  1.00  0.00     0.167 HD
ATOM     44  C   UNL A   1      42.774  29.320  34.894  1.00  0.00     0.031 A 
ATOM     45  C   UNL A   1      37.577  32.688  31.630  1.00  0.00     0.031 A 
ATOM     46  C   UNL A   1      42.255  30.465  35.596  1.00  0.00     0.049 A 
ATOM     47  C   UNL A   1      38.076  33.123  32.979  1.00  0.00     0.074 A 
ATOM     48  C   UNL A   1      42.668  30.994  36.807  1.00  0.00     0.029 A 
ATOM     49  N   UNL A   1      41.210  31.258  35.148  1.00  0.00    -0.354 N 
ATOM     50  N   UNL A   1      39.043  32.612  33.703  1.00  0.00    -0.248 NA
ATOM     51  C   UNL A   1      37.401  34.273  33.596  1.00  0.00     0.031 C 
ATOM     52  C   UNL A   1      41.845  32.084  37.110  1.00  0.00     0.029 A 
ATOM     53  C   UNL A   1      40.949  32.261  36.066  1.00  0.00     0.049 A 
ATOM     54  H   UNL A   1      40.724  31.128  34.301  1.00  0.00     0.167 HD
ATOM     55  C   UNL A   1      39.103  33.390  34.855  1.00  0.00     0.074 A 
ATOM     56  C   UNL A   1      38.085  34.411  34.725  1.00  0.00     0.031 C 
ATOM     57  C   UNL A   1      39.929  33.267  35.923  1.00  0.00     0.031 A 
BRANCH  44  58
ATOM     58  C   UNL A   1      43.886  28.534  35.534  1.00  0.00    -0.014 A 
ATOM     59  C   UNL A   1      45.234  28.798  35.233  1.00  0.00     0.010 A 
ATOM     60  C   UNL A   1      43.575  27.532  36.470  1.00  0.00     0.010 A 
ATOM     61  C   UNL A   1      46.250  28.046  35.830  1.00  0.00     0.020 A 
ATOM     62  C   UNL A   1      44.589  26.792  37.085  1.00  0.00     0.020 A 
ATOM     63  C   UNL A   1      45.921  27.042  36.746  1.00  0.00     0.054 A 
BRANCH  63  64
ATOM     64  S   UNL A   1      47.256  26.084  37.514  1.00  0.00     0.124 S 
ATOM     65  O   UNL A   1      48.086  27.137  38.095  1.00  0.00    -0.237 OA
ATOM     66  O   UNL A   1      46.543  25.246  38.474  1.00  0.00    -0.237 OA
ATOM     67  O   UNL A   1      47.856  25.366  36.391  1.00  0.00    -0.744 OA
ENDBRANCH  63  64
ENDBRANCH  44  58
BRANCH  45  68
ATOM     68  C   UNL A   1      36.447  33.391  30.968  1.00  0.00    -0.014 A 
ATOM     69  C   UNL A   1      35.224  33.566  31.635  1.00  0.00     0.010 A 
ATOM     70  C   UNL A   1      36.601  33.908  29.668  1.00  0.00     0.010 A 
ATOM     71  C   UNL A   1      34.169  34.239  31.011  1.00  0.00     0.020 A 
ATOM     72  C   UNL A   1      35.556  34.601  29.051  1.00  0.00     0.020 A 
ATOM     73  C   UNL A   1      34.342  34.753  29.723  1.00  0.00     0.054 A 
BRANCH  73  74
ATOM     74  S   UNL A   1      32.983  35.676  28.953  1.00  0.00     0.124 S 
ATOM     75  O   UNL A   1      32.387  34.668  28.082  1.00  0.00    -0.237 OA
ATOM     76  O   UNL A   1      32.176  36.077  30.102  1.00  0.00    -0.237 OA
ATOM     77  O   UNL A   1      33.663  36.773  28.267  1.00  0.00    -0.744 OA
ENDBRANCH  73  74
ENDBRANCH  45  68
BRANCH  57  78
ATOM     78  C   UNL A   1      39.782  34.279  37.025  1.00  0.00    -0.014 A 
ATOM     79  C   UNL A   1      39.020  33.997  38.171  1.00  0.00     0.010 A 
ATOM     80  C   UNL A   1      40.461  35.508  36.934  1.00  0.00     0.010 A 
ATOM     81  C   UNL A   1      38.918  34.938  39.199  1.00  0.00     0.020 A 
ATOM     82  C   UNL A   1      40.377  36.443  37.970  1.00  0.00     0.020 A 
ATOM     83  C   UNL A   1      39.596  36.156  39.091  1.00  0.00     0.054 A 
BRANCH  83  84
ATOM     84  S   UNL A   1      39.490  37.344  40.458  1.00  0.00     0.124 S 
ATOM     85  O   UNL A   1      40.898  37.606  40.742  1.00  0.00    -0.237 OA
ATOM     86  O   UNL A   1      38.751  38.456  39.865  1.00  0.00    -0.237 OA
ATOM     87  O   UNL A   1      38.770  36.612  41.498  1.00  0.00    -0.744 OA
ENDBRANCH  83  84
ENDBRANCH  57  78
ENDBRANCH  31  32
ENDBRANCH  24  26
ENDBRANCH  23  24
ENDBRANCH   1  23
TORSDOF 15
ENDMDL
MODEL 2
REMARK VINA RESULT:     -11.4      1.952      3.207
REMARK SMILES CC1(C)S[C@H](c2ccc(Cl)cc2Cl)[NH2+][C@H]1C(=O)OCCOC(=O)c1ccc(-c2c3nc(c(-c4ccc(S(=O)(=O)[O-])cc4)c4ccc([nH]4)c(-c4ccc(S(=O)(=O)[O-])cc4)c4nc(c(-c5ccc(S(=O)(=O)[O-])cc5)c5ccc2[nH]5)C=C4)C=C3)cc1
REMARK SMILES IDX 20 1 19 2 18 3 16 4 17 5 15 6 1 7 2 8 3 9 4 10 5 11 14 12
REMARK SMILES IDX 6 15 7 16 12 17 8 18 11 19 13 20 9 21 10 22 21 23 22 24
REMARK SMILES IDX 23 25 24 26 25 27 83 28 26 29 82 30 27 31 28 32 29 33 76 34
REMARK SMILES IDX 30 35 81 36 75 37 77 38 31 39 80 40 74 41 73 42 32 44 62 45
REMARK SMILES IDX 43 46 61 47 44 48 47 49 60 50 78 51 45 52 46 53 59 55 79 56
REMARK SMILES IDX 48 57 33 58 34 59 42 60 35 61 41 62 36 63 37 64 38 65 39 66
REMARK SMILES IDX 40 67 63 68 64 69 72 70 65 71 71 72 66 73 67 74 68 75 69 76
REMARK SMILES IDX 70 77 49 78 50 79 58 80 51 81 57 82 52 83 53 84 54 85 55 86
REMARK SMILES IDX 56 87
REMARK H PARENT 14 13 14 14 77 43 47 54
REMARK Flexibility Score: inf
ROOT
ATOM      1  C   UNL A   1      38.791  22.772  26.354  1.00  0.00     0.275 C 
ENDROOT
BRANCH   1   2
ATOM      2  C   UNL A   1      37.637  22.468  25.393  1.00  0.00     0.274 C 
BRANCH   2   3
ATOM      3  O   UNL A   1      36.699  23.559  25.278  1.00  0.00    -0.458 OA
BRANCH   3   4
ATOM      4  C   UNL A   1      35.776  23.427  24.293  1.00  0.00     0.366 C 
ATOM      5  O   UNL A   1      36.069  23.368  23.101  1.00  0.00    -0.245 OA
BRANCH   4   6
ATOM      6  C   UNL A   1      34.314  23.435  24.773  1.00  0.00     0.310 C 
ATOM      7  C   UNL A   1      34.233  20.955  25.626  1.00  0.00     0.030 C 
ATOM      8  C   UNL A   1      33.520  22.123  24.940  1.00  0.00     0.079 C 
ATOM      9  C   UNL A   1      32.876  21.665  23.629  1.00  0.00     0.030 C 
ATOM     10  S   UNL A   1      32.159  22.642  26.080  1.00  0.00    -0.081 SA
ATOM     11  C   UNL A   1      32.801  24.347  26.343  1.00  0.00     0.276 C 
ATOM     12  N   UNL A   1      34.224  24.212  26.041  1.00  0.00    -0.319 N 
ATOM     13  H   UNL A   1      34.697  23.713  26.795  1.00  0.00     0.348 HD
ATOM     14  H   UNL A   1      34.670  25.124  25.948  1.00  0.00     0.348 HD
BRANCH  11  15
ATOM     15  C   UNL A   1      31.995  25.411  25.582  1.00  0.00     0.039 A 
ATOM     16  C   UNL A   1      30.862  24.965  24.852  1.00  0.00     0.014 A 
ATOM     17  C   UNL A   1      32.208  26.807  25.606  1.00  0.00     0.052 A 
ATOM     18  C   UNL A   1      30.047  25.839  24.126  1.00  0.00     0.021 A 
ATOM     19  C   UNL A   1      31.402  27.681  24.854  1.00  0.00     0.041 A 
ATOM     20  Cl  UNL A   1      33.399  27.598  26.578  1.00  0.00    -0.084 Cl
ATOM     21  C   UNL A   1      30.332  27.194  24.117  1.00  0.00     0.042 A 
ATOM     22  Cl  UNL A   1      29.332  28.273  23.229  1.00  0.00    -0.084 Cl
ENDBRANCH  11  15
ENDBRANCH   4   6
ENDBRANCH   3   4
ENDBRANCH   2   3
ENDBRANCH   1   2
BRANCH   1  23
ATOM     23  O   UNL A   1      38.978  24.186  26.552  1.00  0.00    -0.458 OA
BRANCH  23  24
ATOM     24  C   UNL A   1      40.264  24.578  26.701  1.00  0.00     0.338 C 
ATOM     25  O   UNL A   1      41.213  24.252  26.008  1.00  0.00    -0.246 OA
BRANCH  24  26
ATOM     26  C   UNL A   1      40.370  25.565  27.786  1.00  0.00     0.060 A 
ATOM     27  C   UNL A   1      39.328  25.663  28.710  1.00  0.00     0.016 A 
ATOM     28  C   UNL A   1      41.436  26.463  27.827  1.00  0.00     0.016 A 
ATOM     29  C   UNL A   1      39.337  26.663  29.679  1.00  0.00     0.010 A 
ATOM     30  C   UNL A   1      41.453  27.459  28.810  1.00  0.00     0.010 A 
ATOM     31  C   UNL A   1      40.399  27.571  29.735  1.00  0.00    -0.014 A 
BRANCH  31  32
ATOM     32  C   UNL A   1      40.395  28.656  30.745  1.00  0.00     0.031 A 
ATOM     33  C   UNL A   1      41.357  28.614  31.897  1.00  0.00     0.074 A 
ATOM     34  C   UNL A   1      39.529  29.680  30.622  1.00  0.00     0.049 A 
ATOM     35  N   UNL A   1      41.428  29.399  32.940  1.00  0.00    -0.248 NA
ATOM     36  C   UNL A   1      42.372  27.549  31.871  1.00  0.00     0.031 C 
ATOM     37  C   UNL A   1      38.586  29.865  29.517  1.00  0.00     0.029 A 
ATOM     38  N   UNL A   1      39.300  30.757  31.442  1.00  0.00    -0.354 N 
ATOM     39  C   UNL A   1      42.475  28.908  33.711  1.00  0.00     0.074 A 
ATOM     40  C   UNL A   1      43.007  27.755  33.017  1.00  0.00     0.031 C 
ATOM     41  C   UNL A   1      37.876  30.985  29.732  1.00  0.00     0.029 A 
ATOM     42  C   UNL A   1      38.278  31.566  31.010  1.00  0.00     0.049 A 
ATOM     43  H   UNL A   1      39.817  30.931  32.262  1.00  0.00     0.167 HD
ATOM     44  C   UNL A   1      42.945  29.375  34.893  1.00  0.00     0.031 A 
ATOM     45  C   UNL A   1      37.701  32.635  31.594  1.00  0.00     0.031 A 
ATOM     46  C   UNL A   1      42.414  30.524  35.579  1.00  0.00     0.049 A 
ATOM     47  C   UNL A   1      38.198  33.096  32.936  1.00  0.00     0.074 A 
ATOM     48  C   UNL A   1      42.823  31.075  36.782  1.00  0.00     0.029 A 
ATOM     49  N   UNL A   1      41.359  31.298  35.123  1.00  0.00    -0.354 N 
ATOM     50  N   UNL A   1      39.173  32.606  33.665  1.00  0.00    -0.248 NA
ATOM     51  C   UNL A   1      37.511  34.246  33.538  1.00  0.00     0.031 C 
ATOM     52  C   UNL A   1      41.988  32.159  37.072  1.00  0.00     0.029 A 
ATOM     53  C   UNL A   1      41.088  32.311  36.028  1.00  0.00     0.049 A 
ATOM     54  H   UNL A   1      40.873  31.150  34.279  1.00  0.00     0.167 HD
ATOM     55  C   UNL A   1      39.226  33.400  34.805  1.00  0.00     0.074 A 
ATOM     56  C   UNL A   1      38.195  34.408  34.663  1.00  0.00     0.031 C 
ATOM     57  C   UNL A   1      40.055  33.303  35.873  1.00  0.00     0.031 A 
BRANCH  44  58
ATOM     58  C   UNL A   1      44.068  28.612  35.540  1.00  0.00    -0.014 A 
ATOM     59  C   UNL A   1      43.812  27.549  36.425  1.00  0.00     0.010 A 
ATOM     60  C   UNL A   1      45.399  28.949  35.238  1.00  0.00     0.010 A 
ATOM     61  C   UNL A   1      44.872  26.862  37.026  1.00  0.00     0.020 A 
ATOM     62  C   UNL A   1      46.461  28.250  35.820  1.00  0.00     0.020 A 
ATOM     63  C   UNL A   1      46.189  27.222  36.726  1.00  0.00     0.054 A 
BRANCH  63  64
ATOM     64  S   UNL A   1      47.547  26.312  37.511  1.00  0.00     0.124 S 
ATOM     65  O   UNL A   1      47.326  24.955  37.014  1.00  0.00    -0.237 OA
ATOM     66  O   UNL A   1      48.733  26.985  36.989  1.00  0.00    -0.237 OA
ATOM     67  O   UNL A   1      47.308  26.498  38.940  1.00  0.00    -0.744 OA
ENDBRANCH  63  64
ENDBRANCH  44  58
BRANCH  45  68
ATOM     68  C   UNL A   1      36.561  33.316  30.926  1.00  0.00    -0.014 A 
ATOM     69  C   UNL A   1      35.304  33.385  31.547  1.00  0.00     0.010 A 
ATOM     70  C   UNL A   1      36.738  33.918  29.665  1.00  0.00     0.010 A 
ATOM     71  C   UNL A   1      34.240  34.037  30.918  1.00  0.00     0.020 A 
ATOM     72  C   UNL A   1      35.683  34.590  29.044  1.00  0.00     0.020 A 
ATOM     73  C   UNL A   1      34.436  34.637  29.670  1.00  0.00     0.054 A 
BRANCH  73  74
ATOM     74  S   UNL A   1      33.060  35.530  28.896  1.00  0.00     0.124 S 
ATOM     75  O   UNL A   1      33.758  36.564  28.139  1.00  0.00    -0.237 OA
ATOM     76  O   UNL A   1      32.412  34.491  28.099  1.00  0.00    -0.237 OA
ATOM     77  O   UNL A   1      32.280  36.007  30.036  1.00  0.00    -0.744 OA
ENDBRANCH  73  74
ENDBRANCH  45  68
BRANCH  57  78
ATOM     78  C   UNL A   1      39.899  34.328  36.962  1.00  0.00    -0.014 A 
ATOM     79  C   UNL A   1      40.516  35.587  36.865  1.00  0.00     0.010 A 
ATOM     80  C   UNL A   1      39.080  34.045  38.070  1.00  0.00     0.010 A 
ATOM     81  C   UNL A   1      40.336  36.539  37.872  1.00  0.00     0.020 A 
ATOM     82  C   UNL A   1      38.882  35.003  39.069  1.00  0.00     0.020 A 
ATOM     83  C   UNL A   1      39.522  36.240  38.969  1.00  0.00     0.054 A 
BRANCH  83  84
ATOM     84  S   UNL A   1      39.263  37.507  40.241  1.00  0.00     0.124 S 
ATOM     85  O   UNL A   1      38.782  36.711  41.367  1.00  0.00    -0.237 OA
ATOM     86  O   UNL A   1      40.597  38.082  40.402  1.00  0.00    -0.237 OA
ATOM     87  O   UNL A   1      38.275  38.401  39.643  1.00  0.00    -0.744 OA
ENDBRANCH  83  84
ENDBRANCH  57  78
ENDBRANCH  31  32
ENDBRANCH  24  26
ENDBRANCH  23  24
ENDBRANCH   1  23
TORSDOF 15
ENDMDL
MODEL 3
REMARK VINA RESULT:     -11.3      6.736     12.138
REMARK SMILES CC1(C)S[C@H](c2ccc(Cl)cc2Cl)[NH2+][C@H]1C(=O)OCCOC(=O)c1ccc(-c2c3nc(c(-c4ccc(S(=O)(=O)[O-])cc4)c4ccc([nH]4)c(-c4ccc(S(=O)(=O)[O-])cc4)c4nc(c(-c5ccc(S(=O)(=O)[O-])cc5)c5ccc2[nH]5)C=C4)C=C3)cc1
REMARK SMILES IDX 20 1 19 2 18 3 16 4 17 5 15 6 1 7 2 8 3 9 4 10 5 11 14 12
REMARK SMILES IDX 6 15 7 16 12 17 8 18 11 19 13 20 9 21 10 22 21 23 22 24
REMARK SMILES IDX 23 25 24 26 25 27 83 28 26 29 82 30 27 31 28 32 29 33 76 34
REMARK SMILES IDX 30 35 81 36 75 37 77 38 31 39 80 40 74 41 73 42 32 44 62 45
REMARK SMILES IDX 43 46 61 47 44 48 47 49 60 50 78 51 45 52 46 53 59 55 79 56
REMARK SMILES IDX 48 57 33 58 34 59 42 60 35 61 41 62 36 63 37 64 38 65 39 66
REMARK SMILES IDX 40 67 63 68 64 69 72 70 65 71 71 72 66 73 67 74 68 75 69 76
REMARK SMILES IDX 70 77 49 78 50 79 58 80 51 81 57 82 52 83 53 84 54 85 55 86
REMARK SMILES IDX 56 87
REMARK H PARENT 14 13 14 14 77 43 47 54
REMARK Flexibility Score: inf
ROOT
ATOM      1  C   UNL A   1      34.137  30.611  27.685  1.00  0.00     0.275 C 
ENDROOT
BRANCH   1   2
ATOM      2  C   UNL A   1      33.061  29.819  26.934  1.00  0.00     0.274 C 
BRANCH   2   3
ATOM      3  O   UNL A   1      33.259  28.392  27.011  1.00  0.00    -0.458 OA
BRANCH   3   4
ATOM      4  C   UNL A   1      32.169  27.640  26.712  1.00  0.00     0.366 C 
ATOM      5  O   UNL A   1      31.240  27.461  27.496  1.00  0.00    -0.245 OA
BRANCH   4   6
ATOM      6  C   UNL A   1      32.216  26.957  25.334  1.00  0.00     0.310 C 
ATOM      7  C   UNL A   1      31.431  29.019  23.915  1.00  0.00     0.030 C 
ATOM      8  C   UNL A   1      31.406  27.505  24.141  1.00  0.00     0.079 C 
ATOM      9  C   UNL A   1      29.967  26.983  24.129  1.00  0.00     0.030 C 
ATOM     10  S   UNL A   1      32.288  26.751  22.701  1.00  0.00    -0.081 SA
ATOM     11  C   UNL A   1      33.627  25.985  23.705  1.00  0.00     0.276 C 
ATOM     12  N   UNL A   1      33.638  26.803  24.915  1.00  0.00    -0.319 N 
ATOM     13  H   UNL A   1      34.047  27.717  24.718  1.00  0.00     0.348 HD
ATOM     14  H   UNL A   1      34.194  26.368  25.651  1.00  0.00     0.348 HD
BRANCH  11  15
ATOM     15  C   UNL A   1      33.462  24.465  23.858  1.00  0.00     0.039 A 
ATOM     16  C   UNL A   1      32.367  23.862  23.184  1.00  0.00     0.014 A 
ATOM     17  C   UNL A   1      34.341  23.584  24.526  1.00  0.00     0.052 A 
ATOM     18  C   UNL A   1      32.117  22.487  23.242  1.00  0.00     0.021 A 
ATOM     19  C   UNL A   1      34.072  22.206  24.604  1.00  0.00     0.041 A 
ATOM     20  Cl  UNL A   1      35.837  24.059  25.249  1.00  0.00    -0.084 Cl
ATOM     21  C   UNL A   1      32.964  21.666  23.967  1.00  0.00     0.042 A 
ATOM     22  Cl  UNL A   1      32.662  19.976  24.040  1.00  0.00    -0.084 Cl
ENDBRANCH  11  15
ENDBRANCH   4   6
ENDBRANCH   3   4
ENDBRANCH   2   3
ENDBRANCH   1   2
BRANCH   1  23
ATOM     23  O   UNL A   1      35.216  29.772  28.138  1.00  0.00    -0.458 OA
BRANCH  23  24
ATOM     24  C   UNL A   1      36.103  30.376  28.962  1.00  0.00     0.338 C 
ATOM     25  O   UNL A   1      35.854  31.196  29.829  1.00  0.00    -0.246 OA
BRANCH  24  26
ATOM     26  C   UNL A   1      37.450  29.826  28.745  1.00  0.00     0.060 A 
ATOM     27  C   UNL A   1      38.223  29.482  29.856  1.00  0.00     0.016 A 
ATOM     28  C   UNL A   1      37.989  29.755  27.461  1.00  0.00     0.016 A 
ATOM     29  C   UNL A   1      39.543  29.070  29.695  1.00  0.00     0.010 A 
ATOM     30  C   UNL A   1      39.311  29.327  27.298  1.00  0.00     0.010 A 
ATOM     31  C   UNL A   1      40.099  28.992  28.414  1.00  0.00    -0.014 A 
BRANCH  31  32
ATOM     32  C   UNL A   1      41.515  28.586  28.243  1.00  0.00     0.031 A 
ATOM     33  C   UNL A   1      42.605  29.614  28.329  1.00  0.00     0.074 A 
ATOM     34  C   UNL A   1      41.817  27.294  28.016  1.00  0.00     0.049 A 
ATOM     35  N   UNL A   1      43.885  29.480  28.091  1.00  0.00    -0.248 NA
ATOM     36  C   UNL A   1      42.205  30.971  28.736  1.00  0.00     0.031 C 
ATOM     37  C   UNL A   1      40.853  26.193  27.970  1.00  0.00     0.029 A 
ATOM     38  N   UNL A   1      43.026  26.691  27.776  1.00  0.00    -0.354 N 
ATOM     39  C   UNL A   1      44.440  30.739  28.290  1.00  0.00     0.074 A 
ATOM     40  C   UNL A   1      43.357  31.624  28.664  1.00  0.00     0.031 C 
ATOM     41  C   UNL A   1      41.508  25.050  27.711  1.00  0.00     0.029 A 
ATOM     42  C   UNL A   1      42.925  25.344  27.523  1.00  0.00     0.049 A 
ATOM     43  H   UNL A   1      43.883  27.177  27.782  1.00  0.00     0.167 HD
ATOM     44  C   UNL A   1      45.733  31.121  28.167  1.00  0.00     0.031 A 
ATOM     45  C   UNL A   1      43.862  24.452  27.146  1.00  0.00     0.031 A 
ATOM     46  C   UNL A   1      46.807  30.237  27.796  1.00  0.00     0.049 A 
ATOM     47  C   UNL A   1      45.280  24.914  26.952  1.00  0.00     0.074 A 
ATOM     48  C   UNL A   1      48.152  30.530  27.644  1.00  0.00     0.029 A 
ATOM     49  N   UNL A   1      46.659  28.886  27.519  1.00  0.00    -0.354 N 
ATOM     50  N   UNL A   1      45.785  26.112  27.120  1.00  0.00    -0.248 NA
ATOM     51  C   UNL A   1      46.251  23.904  26.509  1.00  0.00     0.031 C 
ATOM     52  C   UNL A   1      48.810  29.364  27.236  1.00  0.00     0.029 A 
ATOM     53  C   UNL A   1      47.882  28.335  27.178  1.00  0.00     0.049 A 
ATOM     54  H   UNL A   1      45.808  28.392  27.558  1.00  0.00     0.167 HD
ATOM     55  C   UNL A   1      47.138  25.997  26.819  1.00  0.00     0.074 A 
ATOM     56  C   UNL A   1      47.374  24.611  26.471  1.00  0.00     0.031 C 
ATOM     57  C   UNL A   1      48.098  26.954  26.830  1.00  0.00     0.031 A 
BRANCH  44  58
ATOM     58  C   UNL A   1      46.050  32.573  28.394  1.00  0.00    -0.014 A 
ATOM     59  C   UNL A   1      46.074  33.490  27.328  1.00  0.00     0.010 A 
ATOM     60  C   UNL A   1      46.303  33.031  29.700  1.00  0.00     0.010 A 
ATOM     61  C   UNL A   1      46.384  34.834  27.561  1.00  0.00     0.020 A 
ATOM     62  C   UNL A   1      46.593  34.377  29.939  1.00  0.00     0.020 A 
ATOM     63  C   UNL A   1      46.649  35.267  28.864  1.00  0.00     0.054 A 
BRANCH  63  64
ATOM     64  S   UNL A   1      47.041  37.016  29.143  1.00  0.00     0.124 S 
ATOM     65  O   UNL A   1      46.114  37.681  28.231  1.00  0.00    -0.237 OA
ATOM     66  O   UNL A   1      46.755  37.189  30.565  1.00  0.00    -0.237 OA
ATOM     67  O   UNL A   1      48.453  37.116  28.779  1.00  0.00    -0.744 OA
ENDBRANCH  63  64
ENDBRANCH  44  58
BRANCH  45  68
ATOM     68  C   UNL A   1      43.476  23.041  26.887  1.00  0.00    -0.014 A 
ATOM     69  C   UNL A   1      43.611  22.484  25.605  1.00  0.00     0.010 A 
ATOM     70  C   UNL A   1      42.986  22.239  27.935  1.00  0.00     0.010 A 
ATOM     71  C   UNL A   1      43.256  21.152  25.372  1.00  0.00     0.020 A 
ATOM     72  C   UNL A   1      42.652  20.901  27.711  1.00  0.00     0.020 A 
ATOM     73  C   UNL A   1      42.779  20.368  26.427  1.00  0.00     0.054 A 
BRANCH  73  74
ATOM     74  S   UNL A   1      42.381  18.625  26.119  1.00  0.00     0.124 S 
ATOM     75  O   UNL A   1      43.303  18.290  25.039  1.00  0.00    -0.237 OA
ATOM     76  O   UNL A   1      42.663  18.000  27.409  1.00  0.00    -0.237 OA
ATOM     77  O   UNL A   1      40.967  18.660  25.750  1.00  0.00    -0.744 OA
ENDBRANCH  73  74
ENDBRANCH  45  68
BRANCH  57  78
ATOM     78  C   UNL A   1      49.497  26.529  26.480  1.00  0.00    -0.014 A 
ATOM     79  C   UNL A   1      50.002  26.697  25.179  1.00  0.00     0.010 A 
ATOM     80  C   UNL A   1      50.334  26.004  27.481  1.00  0.00     0.010 A 
ATOM     81  C   UNL A   1      51.314  26.324  24.879  1.00  0.00     0.020 A 
ATOM     82  C   UNL A   1      51.654  25.649  27.188  1.00  0.00     0.020 A 
ATOM     83  C   UNL A   1      52.132  25.800  25.885  1.00  0.00     0.054 A 
BRANCH  83  84
ATOM     84  S   UNL A   1      53.847  25.366  25.485  1.00  0.00     0.124 S 
ATOM     85  O   UNL A   1      53.679  24.130  24.727  1.00  0.00    -0.237 OA
ATOM     86  O   UNL A   1      54.302  26.520  24.712  1.00  0.00    -0.237 OA
ATOM     87  O   UNL A   1      54.479  25.215  26.794  1.00  0.00    -0.744 OA
ENDBRANCH  83  84
ENDBRANCH  57  78
ENDBRANCH  31  32
ENDBRANCH  24  26
ENDBRANCH  23  24
ENDBRANCH   1  23
TORSDOF 15
ENDMDL
