MODEL 1
REMARK VINA RESULT:      -8.4      0.000      0.000
REMARK SMILES O=C(CCCc1ccc2c(c1Br)C=CC2)OCCOC(=O)c1ccc(-c2c3nc(c(-c4ccc(S(=O)(=O)[O-])cc4)c4ccc([nH]4)c(-c4ccc(S(=O)(=O)[O-])cc4)c4nc(c(-c5ccc(S(=O)(=O)[O-])cc5)c5ccc2[nH]5)C=C4)C=C3)cc1
REMARK SMILES IDX 17 1 16 2 2 3 1 4 3 5 4 6 5 7 6 8 7 9 11 10 8 11 10 12 12 13
REMARK SMILES IDX 9 14 13 15 15 16 14 17 18 18 19 19 20 20 21 21 22 22 23 23
REMARK SMILES IDX 81 24 24 25 80 26 25 27 26 28 27 29 74 30 28 31 79 32 73 33
REMARK SMILES IDX 75 34 29 35 78 36 72 37 71 38 30 40 60 41 41 42 59 43 42 44
REMARK SMILES IDX 45 45 58 46 76 47 43 48 44 49 57 51 77 52 46 53 31 54 32 55
REMARK SMILES IDX 40 56 33 57 39 58 34 59 35 60 36 61 37 62 38 63 61 64 62 65
REMARK SMILES IDX 70 66 63 67 69 68 64 69 65 70 66 71 67 72 68 73 47 74 48 75
REMARK SMILES IDX 56 76 49 77 55 78 50 79 51 80 52 81 53 82 54 83
REMARK H PARENT 75 39 45 50
REMARK Flexibility Score: inf
ROOT
ATOM      1  C   UNL A   1      34.333  33.362  29.807  1.00  0.00     0.274 C 
ENDROOT
BRANCH   1   2
ATOM      2  O   UNL A   1      34.312  32.500  30.958  1.00  0.00    -0.462 OA
BRANCH   2   3
ATOM      3  C   UNL A   1      34.672  32.977  32.179  1.00  0.00     0.305 C 
ATOM      4  O   UNL A   1      33.838  33.122  33.067  1.00  0.00    -0.252 OA
BRANCH   3   5
ATOM      5  C   UNL A   1      36.096  33.464  32.339  1.00  0.00     0.123 C 
BRANCH   5   6
ATOM      6  C   UNL A   1      37.173  32.398  32.151  1.00  0.00     0.016 C 
BRANCH   6   7
ATOM      7  C   UNL A   1      37.098  31.153  33.057  1.00  0.00     0.037 C 
BRANCH   7   8
ATOM      8  C   UNL A   1      38.310  30.256  33.266  1.00  0.00    -0.033 A 
ATOM      9  C   UNL A   1      38.218  28.950  32.702  1.00  0.00     0.005 A 
ATOM     10  C   UNL A   1      39.493  30.603  33.951  1.00  0.00     0.028 A 
ATOM     11  C   UNL A   1      39.292  28.059  32.702  1.00  0.00     0.005 A 
ATOM     12  C   UNL A   1      40.582  29.728  33.901  1.00  0.00    -0.008 A 
ATOM     13  Br  UNL A   1      39.654  32.186  34.987  1.00  0.00    -0.050 Br
ATOM     14  C   UNL A   1      40.475  28.477  33.274  1.00  0.00    -0.036 A 
ATOM     15  C   UNL A   1      41.951  29.862  34.394  1.00  0.00     0.005 C 
ATOM     16  C   UNL A   1      41.780  27.744  33.348  1.00  0.00     0.063 C 
ATOM     17  C   UNL A   1      42.631  28.752  34.071  1.00  0.00    -0.022 C 
ENDBRANCH   7   8
ENDBRANCH   6   7
ENDBRANCH   5   6
ENDBRANCH   3   5
ENDBRANCH   2   3
ENDBRANCH   1   2
BRANCH   1  18
ATOM     18  C   UNL A   1      35.343  32.928  28.743  1.00  0.00     0.275 C 
BRANCH  18  19
ATOM     19  O   UNL A   1      34.699  32.224  27.670  1.00  0.00    -0.458 OA
BRANCH  19  20
ATOM     20  C   UNL A   1      34.516  30.899  27.899  1.00  0.00     0.338 C 
ATOM     21  O   UNL A   1      33.470  30.286  27.804  1.00  0.00    -0.246 OA
BRANCH  20  22
ATOM     22  C   UNL A   1      35.822  30.243  28.129  1.00  0.00     0.060 A 
ATOM     23  C   UNL A   1      36.060  29.717  29.404  1.00  0.00     0.016 A 
ATOM     24  C   UNL A   1      36.811  30.174  27.142  1.00  0.00     0.016 A 
ATOM     25  C   UNL A   1      37.305  29.176  29.717  1.00  0.00     0.010 A 
ATOM     26  C   UNL A   1      38.065  29.641  27.460  1.00  0.00     0.010 A 
ATOM     27  C   UNL A   1      38.331  29.184  28.763  1.00  0.00    -0.014 A 
BRANCH  27  28
ATOM     28  C   UNL A   1      39.729  28.974  29.213  1.00  0.00     0.031 A 
ATOM     29  C   UNL A   1      40.372  27.648  28.897  1.00  0.00     0.074 A 
ATOM     30  C   UNL A   1      40.441  29.942  29.819  1.00  0.00     0.049 A 
ATOM     31  N   UNL A   1      41.580  27.228  29.168  1.00  0.00    -0.248 NA
ATOM     32  C   UNL A   1      39.545  26.669  28.166  1.00  0.00     0.031 C 
ATOM     33  C   UNL A   1      39.964  31.290  30.121  1.00  0.00     0.029 A 
ATOM     34  N   UNL A   1      41.737  29.933  30.274  1.00  0.00    -0.354 N 
ATOM     35  C   UNL A   1      41.661  25.949  28.632  1.00  0.00     0.074 A 
ATOM     36  C   UNL A   1      40.376  25.645  28.045  1.00  0.00     0.031 C 
ATOM     37  C   UNL A   1      40.962  31.984  30.701  1.00  0.00     0.029 A 
ATOM     38  C   UNL A   1      42.136  31.122  30.835  1.00  0.00     0.049 A 
ATOM     39  H   UNL A   1      42.324  29.146  30.206  1.00  0.00     0.167 HD
ATOM     40  C   UNL A   1      42.713  25.100  28.618  1.00  0.00     0.031 A 
ATOM     41  C   UNL A   1      43.313  31.469  31.396  1.00  0.00     0.031 A 
ATOM     42  C   UNL A   1      43.991  25.382  29.207  1.00  0.00     0.049 A 
ATOM     43  C   UNL A   1      44.432  30.462  31.469  1.00  0.00     0.074 A 
ATOM     44  C   UNL A   1      45.109  24.568  29.259  1.00  0.00     0.029 A 
ATOM     45  N   UNL A   1      44.320  26.563  29.847  1.00  0.00    -0.354 N 
ATOM     46  N   UNL A   1      44.484  29.247  30.978  1.00  0.00    -0.248 NA
ATOM     47  C   UNL A   1      45.653  30.875  32.181  1.00  0.00     0.031 C 
ATOM     48  C   UNL A   1      46.106  25.246  29.965  1.00  0.00     0.029 A 
ATOM     49  C   UNL A   1      45.619  26.495  30.317  1.00  0.00     0.049 A 
ATOM     50  H   UNL A   1      43.721  27.336  29.953  1.00  0.00     0.167 HD
ATOM     51  C   UNL A   1      45.744  28.758  31.309  1.00  0.00     0.074 A 
ATOM     52  C   UNL A   1      46.430  29.810  32.029  1.00  0.00     0.031 C 
ATOM     53  C   UNL A   1      46.286  27.546  31.038  1.00  0.00     0.031 A 
BRANCH  40  54
ATOM     54  C   UNL A   1      42.525  23.771  27.949  1.00  0.00    -0.014 A 
ATOM     55  C   UNL A   1      42.742  23.630  26.568  1.00  0.00     0.010 A 
ATOM     56  C   UNL A   1      42.204  22.640  28.721  1.00  0.00     0.010 A 
ATOM     57  C   UNL A   1      42.640  22.375  25.966  1.00  0.00     0.020 A 
ATOM     58  C   UNL A   1      42.116  21.381  28.124  1.00  0.00     0.020 A 
ATOM     59  C   UNL A   1      42.337  21.256  26.751  1.00  0.00     0.054 A 
BRANCH  59  60
ATOM     60  S   UNL A   1      42.269  19.633  25.947  1.00  0.00     0.124 S 
ATOM     61  O   UNL A   1      43.232  19.789  24.860  1.00  0.00    -0.237 OA
ATOM     62  O   UNL A   1      42.675  18.733  27.023  1.00  0.00    -0.237 OA
ATOM     63  O   UNL A   1      40.875  19.510  25.525  1.00  0.00    -0.744 OA
ENDBRANCH  59  60
ENDBRANCH  40  54
BRANCH  41  64
ATOM     64  C   UNL A   1      43.504  32.832  31.963  1.00  0.00    -0.014 A 
ATOM     65  C   UNL A   1      43.047  33.134  33.257  1.00  0.00     0.010 A 
ATOM     66  C   UNL A   1      44.101  33.845  31.192  1.00  0.00     0.010 A 
ATOM     67  C   UNL A   1      43.166  34.432  33.764  1.00  0.00     0.020 A 
ATOM     68  C   UNL A   1      44.241  35.138  31.703  1.00  0.00     0.020 A 
ATOM     69  C   UNL A   1      43.765  35.425  32.985  1.00  0.00     0.054 A 
BRANCH  69  70
ATOM     70  S   UNL A   1      43.916  37.098  33.671  1.00  0.00     0.124 S 
ATOM     71  O   UNL A   1      43.692  37.935  32.496  1.00  0.00    -0.237 OA
ATOM     72  O   UNL A   1      42.852  37.117  34.672  1.00  0.00    -0.237 OA
ATOM     73  O   UNL A   1      45.273  37.129  34.211  1.00  0.00    -0.744 OA
ENDBRANCH  69  70
ENDBRANCH  41  64
BRANCH  53  74
ATOM     74  C   UNL A   1      47.687  27.280  31.512  1.00  0.00    -0.014 A 
ATOM     75  C   UNL A   1      47.923  26.690  32.765  1.00  0.00     0.010 A 
ATOM     76  C   UNL A   1      48.775  27.538  30.657  1.00  0.00     0.010 A 
ATOM     77  C   UNL A   1      49.225  26.377  33.163  1.00  0.00     0.020 A 
ATOM     78  C   UNL A   1      50.076  27.208  31.042  1.00  0.00     0.020 A 
ATOM     79  C   UNL A   1      50.293  26.632  32.296  1.00  0.00     0.054 A 
BRANCH  79  80
ATOM     80  S   UNL A   1      51.966  26.171  32.825  1.00  0.00     0.124 S 
ATOM     81  O   UNL A   1      52.412  25.321  31.725  1.00  0.00    -0.237 OA
ATOM     82  O   UNL A   1      52.632  27.466  32.930  1.00  0.00    -0.237 OA
ATOM     83  O   UNL A   1      51.751  25.480  34.096  1.00  0.00    -0.744 OA
ENDBRANCH  79  80
ENDBRANCH  53  74
ENDBRANCH  27  28
ENDBRANCH  20  22
ENDBRANCH  19  20
ENDBRANCH  18  19
ENDBRANCH   1  18
TORSDOF 17
ENDMDL
MODEL 2
REMARK VINA RESULT:      -8.3      1.097      8.602
REMARK SMILES O=C(CCCc1ccc2c(c1Br)C=CC2)OCCOC(=O)c1ccc(-c2c3nc(c(-c4ccc(S(=O)(=O)[O-])cc4)c4ccc([nH]4)c(-c4ccc(S(=O)(=O)[O-])cc4)c4nc(c(-c5ccc(S(=O)(=O)[O-])cc5)c5ccc2[nH]5)C=C4)C=C3)cc1
REMARK SMILES IDX 17 1 16 2 2 3 1 4 3 5 4 6 5 7 6 8 7 9 11 10 8 11 10 12 12 13
REMARK SMILES IDX 9 14 13 15 15 16 14 17 18 18 19 19 20 20 21 21 22 22 23 23
REMARK SMILES IDX 81 24 24 25 80 26 25 27 26 28 27 29 74 30 28 31 79 32 73 33
REMARK SMILES IDX 75 34 29 35 78 36 72 37 71 38 30 40 60 41 41 42 59 43 42 44
REMARK SMILES IDX 45 45 58 46 76 47 43 48 44 49 57 51 77 52 46 53 31 54 32 55
REMARK SMILES IDX 40 56 33 57 39 58 34 59 35 60 36 61 37 62 38 63 61 64 62 65
REMARK SMILES IDX 70 66 63 67 69 68 64 69 65 70 66 71 67 72 68 73 47 74 48 75
REMARK SMILES IDX 56 76 49 77 55 78 50 79 51 80 52 81 53 82 54 83
REMARK H PARENT 75 39 45 50
REMARK Flexibility Score: inf
ROOT
ATOM      1  C   UNL A   1      33.817  34.588  29.132  1.00  0.00     0.274 C 
ENDROOT
BRANCH   1   2
ATOM      2  O   UNL A   1      33.263  34.379  30.442  1.00  0.00    -0.462 OA
BRANCH   2   3
ATOM      3  C   UNL A   1      33.193  35.406  31.329  1.00  0.00     0.305 C 
ATOM      4  O   UNL A   1      32.980  36.553  30.946  1.00  0.00    -0.252 OA
BRANCH   3   5
ATOM      5  C   UNL A   1      33.542  35.102  32.769  1.00  0.00     0.123 C 
BRANCH   5   6
ATOM      6  C   UNL A   1      34.911  35.603  33.226  1.00  0.00     0.016 C 
BRANCH   6   7
ATOM      7  C   UNL A   1      36.148  35.027  32.509  1.00  0.00     0.037 C 
BRANCH   7   8
ATOM      8  C   UNL A   1      36.656  33.626  32.816  1.00  0.00    -0.033 A 
ATOM      9  C   UNL A   1      35.847  32.555  32.336  1.00  0.00     0.005 A 
ATOM     10  C   UNL A   1      37.838  33.305  33.516  1.00  0.00     0.028 A 
ATOM     11  C   UNL A   1      36.241  31.220  32.429  1.00  0.00     0.005 A 
ATOM     12  C   UNL A   1      38.253  31.970  33.559  1.00  0.00    -0.008 A 
ATOM     13  Br  UNL A   1      38.864  34.600  34.450  1.00  0.00    -0.050 Br
ATOM     14  C   UNL A   1      37.462  30.949  33.011  1.00  0.00    -0.036 A 
ATOM     15  C   UNL A   1      39.469  31.355  34.087  1.00  0.00     0.005 C 
ATOM     16  C   UNL A   1      38.137  29.621  33.176  1.00  0.00     0.063 C 
ATOM     17  C   UNL A   1      39.412  30.034  33.860  1.00  0.00    -0.022 C 
ENDBRANCH   7   8
ENDBRANCH   6   7
ENDBRANCH   5   6
ENDBRANCH   3   5
ENDBRANCH   2   3
ENDBRANCH   1   2
BRANCH   1  18
ATOM     18  C   UNL A   1      33.768  33.340  28.248  1.00  0.00     0.275 C 
BRANCH  18  19
ATOM     19  O   UNL A   1      34.464  32.243  28.857  1.00  0.00    -0.458 OA
BRANCH  19  20
ATOM     20  C   UNL A   1      34.331  31.062  28.201  1.00  0.00     0.338 C 
ATOM     21  O   UNL A   1      33.380  30.710  27.529  1.00  0.00    -0.246 OA
BRANCH  20  22
ATOM     22  C   UNL A   1      35.598  30.300  28.273  1.00  0.00     0.060 A 
ATOM     23  C   UNL A   1      35.933  29.731  29.508  1.00  0.00     0.016 A 
ATOM     24  C   UNL A   1      36.461  30.174  27.181  1.00  0.00     0.016 A 
ATOM     25  C   UNL A   1      37.157  29.086  29.671  1.00  0.00     0.010 A 
ATOM     26  C   UNL A   1      37.696  29.537  27.348  1.00  0.00     0.010 A 
ATOM     27  C   UNL A   1      38.068  29.034  28.607  1.00  0.00    -0.014 A 
BRANCH  27  28
ATOM     28  C   UNL A   1      39.485  28.705  28.894  1.00  0.00     0.031 A 
ATOM     29  C   UNL A   1      40.307  29.737  29.625  1.00  0.00     0.074 A 
ATOM     30  C   UNL A   1      40.020  27.508  28.590  1.00  0.00     0.049 A 
ATOM     31  N   UNL A   1      41.557  29.682  30.003  1.00  0.00    -0.248 NA
ATOM     32  C   UNL A   1      39.623  30.993  29.985  1.00  0.00     0.031 C 
ATOM     33  C   UNL A   1      39.319  26.398  27.949  1.00  0.00     0.029 A 
ATOM     34  N   UNL A   1      41.289  27.027  28.803  1.00  0.00    -0.354 N 
ATOM     35  C   UNL A   1      41.803  30.885  30.655  1.00  0.00     0.074 A 
ATOM     36  C   UNL A   1      40.587  31.663  30.599  1.00  0.00     0.031 C 
ATOM     37  C   UNL A   1      40.167  25.358  27.832  1.00  0.00     0.029 A 
ATOM     38  C   UNL A   1      41.474  25.738  28.366  1.00  0.00     0.049 A 
ATOM     39  H   UNL A   1      42.001  27.558  29.229  1.00  0.00     0.167 HD
ATOM     40  C   UNL A   1      42.937  31.306  31.259  1.00  0.00     0.031 A 
ATOM     41  C   UNL A   1      42.576  24.959  28.389  1.00  0.00     0.031 A 
ATOM     42  C   UNL A   1      44.155  30.551  31.314  1.00  0.00     0.049 A 
ATOM     43  C   UNL A   1      43.860  25.498  28.967  1.00  0.00     0.074 A 
ATOM     44  C   UNL A   1      45.363  30.911  31.887  1.00  0.00     0.029 A 
ATOM     45  N   UNL A   1      44.325  29.288  30.775  1.00  0.00    -0.354 N 
ATOM     46  N   UNL A   1      44.082  26.648  29.558  1.00  0.00    -0.248 NA
ATOM     47  C   UNL A   1      45.047  24.632  28.872  1.00  0.00     0.031 C 
ATOM     48  C   UNL A   1      46.276  29.877  31.661  1.00  0.00     0.029 A 
ATOM     49  C   UNL A   1      45.623  28.860  30.983  1.00  0.00     0.049 A 
ATOM     50  H   UNL A   1      43.627  28.771  30.313  1.00  0.00     0.167 HD
ATOM     51  C   UNL A   1      45.426  26.636  29.917  1.00  0.00     0.074 A 
ATOM     52  C   UNL A   1      45.966  25.362  29.491  1.00  0.00     0.031 C 
ATOM     53  C   UNL A   1      46.149  27.594  30.547  1.00  0.00     0.031 A 
BRANCH  40  54
ATOM     54  C   UNL A   1      42.918  32.659  31.907  1.00  0.00    -0.014 A 
ATOM     55  C   UNL A   1      42.622  32.791  33.274  1.00  0.00     0.010 A 
ATOM     56  C   UNL A   1      43.274  33.795  31.159  1.00  0.00     0.010 A 
ATOM     57  C   UNL A   1      42.683  34.045  33.886  1.00  0.00     0.020 A 
ATOM     58  C   UNL A   1      43.349  35.047  31.772  1.00  0.00     0.020 A 
ATOM     59  C   UNL A   1      43.056  35.163  33.133  1.00  0.00     0.054 A 
BRANCH  59  60
ATOM     60  S   UNL A   1      43.179  36.765  33.971  1.00  0.00     0.124 S 
ATOM     61  O   UNL A   1      44.198  36.502  34.985  1.00  0.00    -0.237 OA
ATOM     62  O   UNL A   1      43.586  37.656  32.889  1.00  0.00    -0.237 OA
ATOM     63  O   UNL A   1      41.833  36.992  34.492  1.00  0.00    -0.744 OA
ENDBRANCH  59  60
ENDBRANCH  40  54
BRANCH  41  64
ATOM     64  C   UNL A   1      42.537  23.581  27.829  1.00  0.00    -0.014 A 
ATOM     65  C   UNL A   1      43.108  23.307  26.575  1.00  0.00     0.010 A 
ATOM     66  C   UNL A   1      41.885  22.549  28.527  1.00  0.00     0.010 A 
ATOM     67  C   UNL A   1      43.013  22.028  26.018  1.00  0.00     0.020 A 
ATOM     68  C   UNL A   1      41.805  21.264  27.983  1.00  0.00     0.020 A 
ATOM     69  C   UNL A   1      42.364  21.013  26.728  1.00  0.00     0.054 A 
BRANCH  69  70
ATOM     70  S   UNL A   1      42.263  19.360  25.986  1.00  0.00     0.124 S 
ATOM     71  O   UNL A   1      40.830  19.217  25.747  1.00  0.00    -0.237 OA
ATOM     72  O   UNL A   1      43.091  19.508  24.792  1.00  0.00    -0.237 OA
ATOM     73  O   UNL A   1      42.815  18.485  27.017  1.00  0.00    -0.744 OA
ENDBRANCH  69  70
ENDBRANCH  41  64
BRANCH  53  74
ATOM     74  C   UNL A   1      47.599  27.314  30.822  1.00  0.00    -0.014 A 
ATOM     75  C   UNL A   1      47.991  26.603  31.969  1.00  0.00     0.010 A 
ATOM     76  C   UNL A   1      48.574  27.689  29.878  1.00  0.00     0.010 A 
ATOM     77  C   UNL A   1      49.334  26.282  32.175  1.00  0.00     0.020 A 
ATOM     78  C   UNL A   1      49.916  27.352  30.071  1.00  0.00     0.020 A 
ATOM     79  C   UNL A   1      50.288  26.654  31.222  1.00  0.00     0.054 A 
BRANCH  79  80
ATOM     80  S   UNL A   1      52.018  26.181  31.499  1.00  0.00     0.124 S 
ATOM     81  O   UNL A   1      52.403  27.060  32.600  1.00  0.00    -0.237 OA
ATOM     82  O   UNL A   1      51.908  24.764  31.833  1.00  0.00    -0.237 OA
ATOM     83  O   UNL A   1      52.666  26.468  30.220  1.00  0.00    -0.744 OA
ENDBRANCH  79  80
ENDBRANCH  53  74
ENDBRANCH  27  28
ENDBRANCH  20  22
ENDBRANCH  19  20
ENDBRANCH  18  19
ENDBRANCH   1  18
TORSDOF 17
ENDMDL
MODEL 3
REMARK VINA RESULT:      -7.9      3.957      9.860
REMARK SMILES O=C(CCCc1ccc2c(c1Br)C=CC2)OCCOC(=O)c1ccc(-c2c3nc(c(-c4ccc(S(=O)(=O)[O-])cc4)c4ccc([nH]4)c(-c4ccc(S(=O)(=O)[O-])cc4)c4nc(c(-c5ccc(S(=O)(=O)[O-])cc5)c5ccc2[nH]5)C=C4)C=C3)cc1
REMARK SMILES IDX 17 1 16 2 2 3 1 4 3 5 4 6 5 7 6 8 7 9 11 10 8 11 10 12 12 13
REMARK SMILES IDX 9 14 13 15 15 16 14 17 18 18 19 19 20 20 21 21 22 22 23 23
REMARK SMILES IDX 81 24 24 25 80 26 25 27 26 28 27 29 74 30 28 31 79 32 73 33
REMARK SMILES IDX 75 34 29 35 78 36 72 37 71 38 30 40 60 41 41 42 59 43 42 44
REMARK SMILES IDX 45 45 58 46 76 47 43 48 44 49 57 51 77 52 46 53 31 54 32 55
REMARK SMILES IDX 40 56 33 57 39 58 34 59 35 60 36 61 37 62 38 63 61 64 62 65
REMARK SMILES IDX 70 66 63 67 69 68 64 69 65 70 66 71 67 72 68 73 47 74 48 75
REMARK SMILES IDX 56 76 49 77 55 78 50 79 51 80 52 81 53 82 54 83
REMARK H PARENT 75 39 45 50
REMARK Flexibility Score: inf
ROOT
ATOM      1  C   UNL A   1      37.203  20.437  24.929  1.00  0.00     0.274 C 
ENDROOT
BRANCH   1   2
ATOM      2  O   UNL A   1      36.229  21.491  25.029  1.00  0.00    -0.462 OA
BRANCH   2   3
ATOM      3  C   UNL A   1      34.952  21.212  25.401  1.00  0.00     0.305 C 
ATOM      4  O   UNL A   1      34.169  20.691  24.613  1.00  0.00    -0.252 OA
BRANCH   3   5
ATOM      5  C   UNL A   1      34.502  21.712  26.756  1.00  0.00     0.123 C 
BRANCH   5   6
ATOM      6  C   UNL A   1      34.462  23.231  26.908  1.00  0.00     0.016 C 
BRANCH   6   7
ATOM      7  C   UNL A   1      33.181  23.953  26.443  1.00  0.00     0.037 C 
BRANCH   7   8
ATOM      8  C   UNL A   1      33.251  25.197  25.569  1.00  0.00    -0.033 A 
ATOM      9  C   UNL A   1      33.413  26.432  26.263  1.00  0.00     0.005 A 
ATOM     10  C   UNL A   1      33.177  25.230  24.161  1.00  0.00     0.028 A 
ATOM     11  C   UNL A   1      33.617  27.642  25.598  1.00  0.00     0.005 A 
ATOM     12  C   UNL A   1      33.436  26.435  23.501  1.00  0.00    -0.008 A 
ATOM     13  Br  UNL A   1      32.686  23.719  23.122  1.00  0.00    -0.050 Br
ATOM     14  C   UNL A   1      33.661  27.619  24.220  1.00  0.00    -0.036 A 
ATOM     15  C   UNL A   1      33.555  26.750  22.079  1.00  0.00     0.005 C 
ATOM     16  C   UNL A   1      33.925  28.757  23.282  1.00  0.00     0.063 C 
ATOM     17  C   UNL A   1      33.845  28.054  21.954  1.00  0.00    -0.022 C 
ENDBRANCH   7   8
ENDBRANCH   6   7
ENDBRANCH   5   6
ENDBRANCH   3   5
ENDBRANCH   2   3
ENDBRANCH   1   2
BRANCH   1  18
ATOM     18  C   UNL A   1      38.626  20.895  25.251  1.00  0.00     0.275 C 
BRANCH  18  19
ATOM     19  O   UNL A   1      38.623  22.137  25.972  1.00  0.00    -0.458 OA
BRANCH  19  20
ATOM     20  C   UNL A   1      39.849  22.547  26.386  1.00  0.00     0.338 C 
ATOM     21  O   UNL A   1      40.899  21.951  26.241  1.00  0.00    -0.246 OA
BRANCH  20  22
ATOM     22  C   UNL A   1      39.767  23.930  26.906  1.00  0.00     0.060 A 
ATOM     23  C   UNL A   1      40.351  24.941  26.132  1.00  0.00     0.016 A 
ATOM     24  C   UNL A   1      39.175  24.236  28.134  1.00  0.00     0.016 A 
ATOM     25  C   UNL A   1      40.398  26.249  26.610  1.00  0.00     0.010 A 
ATOM     26  C   UNL A   1      39.232  25.548  28.620  1.00  0.00     0.010 A 
ATOM     27  C   UNL A   1      39.887  26.548  27.880  1.00  0.00    -0.014 A 
BRANCH  27  28
ATOM     28  C   UNL A   1      40.284  27.822  28.528  1.00  0.00     0.031 A 
ATOM     29  C   UNL A   1      41.721  27.968  28.959  1.00  0.00     0.074 A 
ATOM     30  C   UNL A   1      39.429  28.851  28.671  1.00  0.00     0.049 A 
ATOM     31  N   UNL A   1      42.315  28.983  29.530  1.00  0.00    -0.248 NA
ATOM     32  C   UNL A   1      42.609  26.820  28.700  1.00  0.00     0.031 C 
ATOM     33  C   UNL A   1      38.034  28.869  28.235  1.00  0.00     0.029 A 
ATOM     34  N   UNL A   1      39.628  30.097  29.215  1.00  0.00    -0.354 N 
ATOM     35  C   UNL A   1      43.642  28.601  29.686  1.00  0.00     0.074 A 
ATOM     36  C   UNL A   1      43.766  27.254  29.177  1.00  0.00     0.031 C 
ATOM     37  C   UNL A   1      37.506  30.075  28.519  1.00  0.00     0.029 A 
ATOM     38  C   UNL A   1      38.515  30.902  29.178  1.00  0.00     0.049 A 
ATOM     39  H   UNL A   1      40.488  30.385  29.598  1.00  0.00     0.167 HD
ATOM     40  C   UNL A   1      44.674  29.309  30.197  1.00  0.00     0.031 A 
ATOM     41  C   UNL A   1      38.334  32.160  29.631  1.00  0.00     0.031 A 
ATOM     42  C   UNL A   1      44.565  30.642  30.716  1.00  0.00     0.049 A 
ATOM     43  C   UNL A   1      39.474  32.885  30.301  1.00  0.00     0.074 A 
ATOM     44  C   UNL A   1      45.558  31.429  31.275  1.00  0.00     0.029 A 
ATOM     45  N   UNL A   1      43.398  31.384  30.744  1.00  0.00    -0.354 N 
ATOM     46  N   UNL A   1      40.717  32.499  30.461  1.00  0.00    -0.248 NA
ATOM     47  C   UNL A   1      39.181  34.215  30.858  1.00  0.00     0.031 C 
ATOM     48  C   UNL A   1      44.980  32.636  31.676  1.00  0.00     0.029 A 
ATOM     49  C   UNL A   1      43.638  32.614  31.330  1.00  0.00     0.049 A 
ATOM     50  H   UNL A   1      42.527  31.083  30.399  1.00  0.00     0.167 HD
ATOM     51  C   UNL A   1      41.355  33.544  31.124  1.00  0.00     0.074 A 
ATOM     52  C   UNL A   1      40.368  34.583  31.323  1.00  0.00     0.031 C 
ATOM     53  C   UNL A   1      42.646  33.635  31.528  1.00  0.00     0.031 A 
BRANCH  40  54
ATOM     54  C   UNL A   1      46.021  28.649  30.230  1.00  0.00    -0.014 A 
ATOM     55  C   UNL A   1      46.904  28.775  29.144  1.00  0.00     0.010 A 
ATOM     56  C   UNL A   1      46.434  27.964  31.386  1.00  0.00     0.010 A 
ATOM     57  C   UNL A   1      48.184  28.223  29.214  1.00  0.00     0.020 A 
ATOM     58  C   UNL A   1      47.718  27.424  31.465  1.00  0.00     0.020 A 
ATOM     59  C   UNL A   1      48.587  27.559  30.379  1.00  0.00     0.054 A 
BRANCH  59  60
ATOM     60  S   UNL A   1      50.275  26.904  30.458  1.00  0.00     0.124 S 
ATOM     61  O   UNL A   1      50.201  26.008  31.609  1.00  0.00    -0.237 OA
ATOM     62  O   UNL A   1      50.420  26.251  29.160  1.00  0.00    -0.237 OA
ATOM     63  O   UNL A   1      51.103  28.093  30.652  1.00  0.00    -0.744 OA
ENDBRANCH  59  60
ENDBRANCH  40  54
BRANCH  41  64
ATOM     64  C   UNL A   1      37.012  32.828  29.493  1.00  0.00    -0.014 A 
ATOM     65  C   UNL A   1      36.624  33.392  28.265  1.00  0.00     0.010 A 
ATOM     66  C   UNL A   1      36.155  32.945  30.602  1.00  0.00     0.010 A 
ATOM     67  C   UNL A   1      35.410  34.078  28.153  1.00  0.00     0.020 A 
ATOM     68  C   UNL A   1      34.933  33.613  30.489  1.00  0.00     0.020 A 
ATOM     69  C   UNL A   1      34.571  34.181  29.266  1.00  0.00     0.054 A 
BRANCH  69  70
ATOM     70  S   UNL A   1      32.998  35.069  29.090  1.00  0.00     0.124 S 
ATOM     71  O   UNL A   1      32.316  34.287  28.063  1.00  0.00    -0.237 OA
ATOM     72  O   UNL A   1      32.438  34.972  30.436  1.00  0.00    -0.237 OA
ATOM     73  O   UNL A   1      33.404  36.413  28.685  1.00  0.00    -0.744 OA
ENDBRANCH  69  70
ENDBRANCH  41  64
BRANCH  53  74
ATOM     74  C   UNL A   1      43.078  34.895  32.224  1.00  0.00    -0.014 A 
ATOM     75  C   UNL A   1      43.582  35.984  31.493  1.00  0.00     0.010 A 
ATOM     76  C   UNL A   1      42.893  35.025  33.613  1.00  0.00     0.010 A 
ATOM     77  C   UNL A   1      43.908  37.177  32.141  1.00  0.00     0.020 A 
ATOM     78  C   UNL A   1      43.199  36.223  34.262  1.00  0.00     0.020 A 
ATOM     79  C   UNL A   1      43.709  37.292  33.522  1.00  0.00     0.054 A 
BRANCH  79  80
ATOM     80  S   UNL A   1      44.099  38.871  34.324  1.00  0.00     0.124 S 
ATOM     81  O   UNL A   1      44.098  38.505  35.738  1.00  0.00    -0.237 OA
ATOM     82  O   UNL A   1      45.406  39.196  33.760  1.00  0.00    -0.237 OA
ATOM     83  O   UNL A   1      43.009  39.752  33.909  1.00  0.00    -0.744 OA
ENDBRANCH  79  80
ENDBRANCH  53  74
ENDBRANCH  27  28
ENDBRANCH  20  22
ENDBRANCH  19  20
ENDBRANCH  18  19
ENDBRANCH   1  18
TORSDOF 17
ENDMDL
