MODEL 1
REMARK VINA RESULT:     -12.1      0.000      0.000
REMARK SMILES COc1ccc2c(c1)c(CC(=O)OCCOC(=O)c1ccc(-c3c4nc(c(-c5ccc(S(=O)(=O)[O-])cc5)c5ccc([nH]5)c(-c5ccc(S(=O)(=O)[O-])cc5)c5nc(c(-c6ccc(S(=O)(=O)[O-])cc6)c6ccc3[nH]6)C=C5)C=C4)cc1)c(C(F)(F)F)n2C(=O)c1ccc(Cl)cc1
REMARK SMILES IDX 14 1 13 2 11 3 12 4 10 5 9 6 3 7 4 8 8 9 5 10 7 11 6 12
REMARK SMILES IDX 84 13 79 14 2 15 1 16 85 17 86 18 87 19 88 20 93 21 89 22
REMARK SMILES IDX 92 23 90 24 91 25 80 26 81 27 82 28 83 29 15 30 16 31 17 32
REMARK SMILES IDX 18 33 19 34 20 35 78 36 21 37 77 38 22 39 23 40 24 41 71 42
REMARK SMILES IDX 25 43 76 44 70 45 72 46 26 47 75 48 69 49 68 50 27 52 57 53
REMARK SMILES IDX 38 54 56 55 39 56 42 57 55 58 73 59 40 60 41 61 54 63 74 64
REMARK SMILES IDX 43 65 28 66 29 67 37 68 30 69 36 70 31 71 32 72 33 73 34 74
REMARK SMILES IDX 35 75 58 76 59 77 67 78 60 79 66 80 61 81 62 82 63 83 64 84
REMARK SMILES IDX 65 85 44 86 45 87 53 88 46 89 52 90 47 91 48 92 49 93 50 94
REMARK SMILES IDX 51 95
REMARK H PARENT 72 51 42 62
REMARK Flexibility Score: inf
ROOT
ATOM      1  C   UNL A   1      36.447  22.440  26.068  1.00  0.00     0.274 C 
ENDROOT
BRANCH   1   2
ATOM      2  O   UNL A   1      35.408  21.499  26.421  1.00  0.00    -0.462 OA
BRANCH   2   3
ATOM      3  C   UNL A   1      34.373  22.030  27.117  1.00  0.00     0.310 C 
ATOM      4  O   UNL A   1      33.831  21.478  28.070  1.00  0.00    -0.252 OA
BRANCH   3   5
ATOM      5  C   UNL A   1      33.837  23.321  26.574  1.00  0.00     0.161 C 
BRANCH   5   6
ATOM      6  C   UNL A   1      33.230  23.427  25.196  1.00  0.00     0.002 A 
ATOM      7  C   UNL A   1      32.276  20.261  23.194  1.00  0.00     0.119 A 
ATOM      8  C   UNL A   1      32.108  20.904  21.983  1.00  0.00     0.048 A 
ATOM      9  C   UNL A   1      32.562  21.022  24.339  1.00  0.00     0.057 A 
ATOM     10  C   UNL A   1      32.219  22.294  21.902  1.00  0.00     0.031 A 
ATOM     11  C   UNL A   1      32.761  22.423  24.285  1.00  0.00     0.008 A 
ATOM     12  C   UNL A   1      32.524  23.052  23.056  1.00  0.00     0.057 A 
ATOM     13  N   UNL A   1      32.589  24.433  23.280  1.00  0.00    -0.271 N 
ATOM     14  C   UNL A   1      33.262  24.622  24.475  1.00  0.00     0.135 A 
BRANCH   7  15
ATOM     15  O   UNL A   1      32.190  18.909  23.389  1.00  0.00    -0.497 OA
ATOM     16  C   UNL A   1      32.251  18.072  22.238  1.00  0.00     0.278 C 
ENDBRANCH   7  15
BRANCH  13  17
ATOM     17  C   UNL A   1      32.023  25.449  22.471  1.00  0.00     0.262 C 
ATOM     18  O   UNL A   1      32.583  25.749  21.422  1.00  0.00    -0.268 OA
BRANCH  17  19
ATOM     19  C   UNL A   1      30.862  26.257  22.855  1.00  0.00     0.040 A 
ATOM     20  C   UNL A   1      29.850  25.670  23.623  1.00  0.00     0.015 A 
ATOM     21  C   UNL A   1      30.752  27.569  22.384  1.00  0.00     0.015 A 
ATOM     22  C   UNL A   1      28.685  26.393  23.876  1.00  0.00     0.021 A 
ATOM     23  C   UNL A   1      29.585  28.286  22.647  1.00  0.00     0.021 A 
ATOM     24  C   UNL A   1      28.554  27.692  23.380  1.00  0.00     0.041 A 
ATOM     25  Cl  UNL A   1      27.095  28.560  23.656  1.00  0.00    -0.084 Cl
ENDBRANCH  17  19
ENDBRANCH  13  17
BRANCH  14  26
ATOM     26  C   UNL A   1      33.878  25.923  24.880  1.00  0.00     0.432 C 
ATOM     27  F   UNL A   1      33.083  26.595  25.746  1.00  0.00    -0.165 F 
ATOM     28  F   UNL A   1      35.052  25.696  25.534  1.00  0.00    -0.165 F 
ATOM     29  F   UNL A   1      34.202  26.742  23.856  1.00  0.00    -0.165 F 
ENDBRANCH  14  26
ENDBRANCH   5   6
ENDBRANCH   3   5
ENDBRANCH   2   3
ENDBRANCH   1   2
BRANCH   1  30
ATOM     30  C   UNL A   1      37.757  21.713  25.754  1.00  0.00     0.275 C 
BRANCH  30  31
ATOM     31  O   UNL A   1      38.842  22.646  25.850  1.00  0.00    -0.458 OA
BRANCH  31  32
ATOM     32  C   UNL A   1      39.656  22.546  26.929  1.00  0.00     0.338 C 
ATOM     33  O   UNL A   1      40.173  21.535  27.373  1.00  0.00    -0.246 OA
BRANCH  32  34
ATOM     34  C   UNL A   1      40.075  23.926  27.231  1.00  0.00     0.060 A 
ATOM     35  C   UNL A   1      41.150  24.167  28.087  1.00  0.00     0.016 A 
ATOM     36  C   UNL A   1      39.214  24.962  26.854  1.00  0.00     0.016 A 
ATOM     37  C   UNL A   1      41.269  25.421  28.674  1.00  0.00     0.010 A 
ATOM     38  C   UNL A   1      39.299  26.191  27.489  1.00  0.00     0.010 A 
ATOM     39  C   UNL A   1      40.296  26.402  28.435  1.00  0.00    -0.014 A 
BRANCH  39  40
ATOM     40  C   UNL A   1      40.502  27.740  28.965  1.00  0.00     0.031 A 
ATOM     41  C   UNL A   1      41.728  28.370  28.429  1.00  0.00     0.074 A 
ATOM     42  C   UNL A   1      39.701  28.471  29.760  1.00  0.00     0.049 A 
ATOM     43  N   UNL A   1      42.863  28.480  29.030  1.00  0.00    -0.248 NA
ATOM     44  C   UNL A   1      41.733  28.787  27.021  1.00  0.00     0.031 C 
ATOM     45  C   UNL A   1      38.312  28.257  30.161  1.00  0.00     0.029 A 
ATOM     46  N   UNL A   1      40.014  29.662  30.347  1.00  0.00    -0.354 N 
ATOM     47  C   UNL A   1      43.704  29.113  28.131  1.00  0.00     0.074 A 
ATOM     48  C   UNL A   1      43.010  29.138  26.867  1.00  0.00     0.031 C 
ATOM     49  C   UNL A   1      37.849  29.375  30.779  1.00  0.00     0.029 A 
ATOM     50  C   UNL A   1      38.955  30.303  30.968  1.00  0.00     0.049 A 
ATOM     51  H   UNL A   1      40.925  30.036  30.334  1.00  0.00     0.167 HD
ATOM     52  C   UNL A   1      44.850  29.727  28.525  1.00  0.00     0.031 A 
ATOM     53  C   UNL A   1      39.014  31.513  31.578  1.00  0.00     0.031 A 
ATOM     54  C   UNL A   1      45.214  29.380  29.875  1.00  0.00     0.049 A 
ATOM     55  C   UNL A   1      40.429  31.750  31.957  1.00  0.00     0.074 A 
ATOM     56  C   UNL A   1      45.548  28.198  30.506  1.00  0.00     0.029 A 
ATOM     57  N   UNL A   1      44.845  30.253  30.871  1.00  0.00    -0.354 N 
ATOM     58  N   UNL A   1      41.065  31.062  32.862  1.00  0.00    -0.248 NA
ATOM     59  C   UNL A   1      41.269  32.549  31.081  1.00  0.00     0.031 C 
ATOM     60  C   UNL A   1      44.933  28.274  31.791  1.00  0.00     0.029 A 
ATOM     61  C   UNL A   1      44.301  29.516  31.897  1.00  0.00     0.049 A 
ATOM     62  H   UNL A   1      44.950  31.231  30.853  1.00  0.00     0.167 HD
ATOM     63  C   UNL A   1      42.375  31.004  32.414  1.00  0.00     0.074 A 
ATOM     64  C   UNL A   1      42.464  32.040  31.390  1.00  0.00     0.031 C 
ATOM     65  C   UNL A   1      43.188  29.950  32.727  1.00  0.00     0.031 A 
BRANCH  52  66
ATOM     66  C   UNL A   1      45.481  30.850  27.756  1.00  0.00    -0.014 A 
ATOM     67  C   UNL A   1      44.814  32.069  27.516  1.00  0.00     0.010 A 
ATOM     68  C   UNL A   1      46.842  30.784  27.411  1.00  0.00     0.010 A 
ATOM     69  C   UNL A   1      45.439  33.145  26.889  1.00  0.00     0.020 A 
ATOM     70  C   UNL A   1      47.496  31.879  26.826  1.00  0.00     0.020 A 
ATOM     71  C   UNL A   1      46.782  33.045  26.551  1.00  0.00     0.054 A 
BRANCH  71  72
ATOM     72  S   UNL A   1      47.580  34.490  25.813  1.00  0.00     0.124 S 
ATOM     73  O   UNL A   1      46.652  34.826  24.734  1.00  0.00    -0.237 OA
ATOM     74  O   UNL A   1      47.617  35.433  26.927  1.00  0.00    -0.237 OA
ATOM     75  O   UNL A   1      48.880  33.983  25.384  1.00  0.00    -0.744 OA
ENDBRANCH  71  72
ENDBRANCH  52  66
BRANCH  53  76
ATOM     76  C   UNL A   1      38.042  32.633  31.547  1.00  0.00    -0.014 A 
ATOM     77  C   UNL A   1      37.730  33.320  32.736  1.00  0.00     0.010 A 
ATOM     78  C   UNL A   1      37.159  32.764  30.454  1.00  0.00     0.010 A 
ATOM     79  C   UNL A   1      36.521  34.014  32.869  1.00  0.00     0.020 A 
ATOM     80  C   UNL A   1      35.944  33.455  30.583  1.00  0.00     0.020 A 
ATOM     81  C   UNL A   1      35.614  34.035  31.808  1.00  0.00     0.054 A 
BRANCH  81  82
ATOM     82  S   UNL A   1      33.960  34.728  32.099  1.00  0.00     0.124 S 
ATOM     83  O   UNL A   1      34.276  36.043  32.651  1.00  0.00    -0.237 OA
ATOM     84  O   UNL A   1      33.379  34.734  30.759  1.00  0.00    -0.237 OA
ATOM     85  O   UNL A   1      33.348  33.788  33.036  1.00  0.00    -0.744 OA
ENDBRANCH  81  82
ENDBRANCH  53  76
BRANCH  65  86
ATOM     86  C   UNL A   1      42.768  29.018  33.852  1.00  0.00    -0.014 A 
ATOM     87  C   UNL A   1      43.540  29.023  35.029  1.00  0.00     0.010 A 
ATOM     88  C   UNL A   1      41.740  28.058  33.743  1.00  0.00     0.010 A 
ATOM     89  C   UNL A   1      43.313  28.098  36.052  1.00  0.00     0.020 A 
ATOM     90  C   UNL A   1      41.485  27.144  34.779  1.00  0.00     0.020 A 
ATOM     91  C   UNL A   1      42.289  27.158  35.921  1.00  0.00     0.054 A 
BRANCH  91  92
ATOM     92  S   UNL A   1      42.044  25.961  37.262  1.00  0.00     0.124 S 
ATOM     93  O   UNL A   1      42.947  26.464  38.296  1.00  0.00    -0.237 OA
ATOM     94  O   UNL A   1      40.620  26.098  37.562  1.00  0.00    -0.237 OA
ATOM     95  O   UNL A   1      42.428  24.680  36.672  1.00  0.00    -0.744 OA
ENDBRANCH  91  92
ENDBRANCH  65  86
ENDBRANCH  39  40
ENDBRANCH  32  34
ENDBRANCH  31  32
ENDBRANCH  30  31
ENDBRANCH   1  30
TORSDOF 19
ENDMDL
MODEL 2
REMARK VINA RESULT:     -12.1      1.851      2.582
REMARK SMILES COc1ccc2c(c1)c(CC(=O)OCCOC(=O)c1ccc(-c3c4nc(c(-c5ccc(S(=O)(=O)[O-])cc5)c5ccc([nH]5)c(-c5ccc(S(=O)(=O)[O-])cc5)c5nc(c(-c6ccc(S(=O)(=O)[O-])cc6)c6ccc3[nH]6)C=C5)C=C4)cc1)c(C(F)(F)F)n2C(=O)c1ccc(Cl)cc1
REMARK SMILES IDX 14 1 13 2 11 3 12 4 10 5 9 6 3 7 4 8 8 9 5 10 7 11 6 12
REMARK SMILES IDX 84 13 79 14 2 15 1 16 85 17 86 18 87 19 88 20 93 21 89 22
REMARK SMILES IDX 92 23 90 24 91 25 80 26 81 27 82 28 83 29 15 30 16 31 17 32
REMARK SMILES IDX 18 33 19 34 20 35 78 36 21 37 77 38 22 39 23 40 24 41 71 42
REMARK SMILES IDX 25 43 76 44 70 45 72 46 26 47 75 48 69 49 68 50 27 52 57 53
REMARK SMILES IDX 38 54 56 55 39 56 42 57 55 58 73 59 40 60 41 61 54 63 74 64
REMARK SMILES IDX 43 65 28 66 29 67 37 68 30 69 36 70 31 71 32 72 33 73 34 74
REMARK SMILES IDX 35 75 58 76 59 77 67 78 60 79 66 80 61 81 62 82 63 83 64 84
REMARK SMILES IDX 65 85 44 86 45 87 53 88 46 89 52 90 47 91 48 92 49 93 50 94
REMARK SMILES IDX 51 95
REMARK H PARENT 72 51 42 62
REMARK Flexibility Score: inf
ROOT
ATOM      1  C   UNL A   1      39.980  20.687  26.525  1.00  0.00     0.274 C 
ENDROOT
BRANCH   1   2
ATOM      2  O   UNL A   1      39.092  20.698  25.385  1.00  0.00    -0.462 OA
BRANCH   2   3
ATOM      3  C   UNL A   1      38.189  21.709  25.377  1.00  0.00     0.310 C 
ATOM      4  O   UNL A   1      38.202  22.648  26.168  1.00  0.00    -0.252 OA
BRANCH   3   5
ATOM      5  C   UNL A   1      37.072  21.556  24.388  1.00  0.00     0.161 C 
BRANCH   5   6
ATOM      6  C   UNL A   1      35.630  21.426  24.812  1.00  0.00     0.002 A 
ATOM      7  C   UNL A   1      33.768  18.051  24.522  1.00  0.00     0.119 A 
ATOM      8  C   UNL A   1      32.502  18.571  24.710  1.00  0.00     0.048 A 
ATOM      9  C   UNL A   1      34.880  18.903  24.626  1.00  0.00     0.057 A 
ATOM     10  C   UNL A   1      32.333  19.926  25.002  1.00  0.00     0.031 A 
ATOM     11  C   UNL A   1      34.746  20.296  24.842  1.00  0.00     0.008 A 
ATOM     12  C   UNL A   1      33.455  20.780  25.089  1.00  0.00     0.057 A 
ATOM     13  N   UNL A   1      33.584  22.125  25.462  1.00  0.00    -0.271 N 
ATOM     14  C   UNL A   1      34.832  22.549  25.037  1.00  0.00     0.135 A 
BRANCH   7  15
ATOM     15  O   UNL A   1      34.050  16.743  24.234  1.00  0.00    -0.497 OA
ATOM     16  C   UNL A   1      33.405  15.742  25.015  1.00  0.00     0.278 C 
ENDBRANCH   7  15
BRANCH  13  17
ATOM     17  C   UNL A   1      32.643  22.894  26.188  1.00  0.00     0.262 C 
ATOM     18  O   UNL A   1      32.500  22.675  27.387  1.00  0.00    -0.268 OA
BRANCH  17  19
ATOM     19  C   UNL A   1      31.733  23.871  25.582  1.00  0.00     0.040 A 
ATOM     20  C   UNL A   1      31.188  23.600  24.322  1.00  0.00     0.015 A 
ATOM     21  C   UNL A   1      31.491  25.082  26.236  1.00  0.00     0.015 A 
ATOM     22  C   UNL A   1      30.431  24.582  23.685  1.00  0.00     0.021 A 
ATOM     23  C   UNL A   1      30.728  26.057  25.593  1.00  0.00     0.021 A 
ATOM     24  C   UNL A   1      30.213  25.808  24.317  1.00  0.00     0.041 A 
ATOM     25  Cl  UNL A   1      29.318  27.031  23.505  1.00  0.00    -0.084 Cl
ENDBRANCH  17  19
ENDBRANCH  13  17
BRANCH  14  26
ATOM     26  C   UNL A   1      35.209  23.989  24.889  1.00  0.00     0.432 C 
ATOM     27  F   UNL A   1      36.399  24.123  24.258  1.00  0.00    -0.165 F 
ATOM     28  F   UNL A   1      34.290  24.631  24.113  1.00  0.00    -0.165 F 
ATOM     29  F   UNL A   1      35.242  24.690  26.043  1.00  0.00    -0.165 F 
ENDBRANCH  14  26
ENDBRANCH   5   6
ENDBRANCH   3   5
ENDBRANCH   2   3
ENDBRANCH   1   2
BRANCH   1  30
ATOM     30  C   UNL A   1      41.386  21.141  26.125  1.00  0.00     0.275 C 
BRANCH  30  31
ATOM     31  O   UNL A   1      41.533  22.533  26.440  1.00  0.00    -0.458 OA
BRANCH  31  32
ATOM     32  C   UNL A   1      42.483  23.227  25.767  1.00  0.00     0.338 C 
ATOM     33  O   UNL A   1      43.057  22.893  24.745  1.00  0.00    -0.246 OA
BRANCH  32  34
ATOM     34  C   UNL A   1      42.418  24.598  26.303  1.00  0.00     0.060 A 
ATOM     35  C   UNL A   1      43.081  24.927  27.486  1.00  0.00     0.016 A 
ATOM     36  C   UNL A   1      41.476  25.469  25.746  1.00  0.00     0.016 A 
ATOM     37  C   UNL A   1      42.687  26.064  28.179  1.00  0.00     0.010 A 
ATOM     38  C   UNL A   1      41.043  26.567  26.471  1.00  0.00     0.010 A 
ATOM     39  C   UNL A   1      41.614  26.835  27.710  1.00  0.00    -0.014 A 
BRANCH  39  40
ATOM     40  C   UNL A   1      41.296  28.082  28.385  1.00  0.00     0.031 A 
ATOM     41  C   UNL A   1      42.327  29.118  28.162  1.00  0.00     0.074 A 
ATOM     42  C   UNL A   1      40.186  28.420  29.066  1.00  0.00     0.049 A 
ATOM     43  N   UNL A   1      43.255  29.470  28.984  1.00  0.00    -0.248 NA
ATOM     44  C   UNL A   1      42.428  29.717  26.825  1.00  0.00     0.031 C 
ATOM     45  C   UNL A   1      38.892  27.748  29.163  1.00  0.00     0.029 A 
ATOM     46  N   UNL A   1      40.005  29.551  29.807  1.00  0.00    -0.354 N 
ATOM     47  C   UNL A   1      43.985  30.448  28.329  1.00  0.00     0.074 A 
ATOM     48  C   UNL A   1      43.533  30.449  26.960  1.00  0.00     0.031 C 
ATOM     49  C   UNL A   1      38.004  28.577  29.771  1.00  0.00     0.029 A 
ATOM     50  C   UNL A   1      38.711  29.753  30.258  1.00  0.00     0.049 A 
ATOM     51  H   UNL A   1      40.739  30.176  30.007  1.00  0.00     0.167 HD
ATOM     52  C   UNL A   1      44.797  31.309  28.996  1.00  0.00     0.031 A 
ATOM     53  C   UNL A   1      38.283  30.824  30.971  1.00  0.00     0.031 A 
ATOM     54  C   UNL A   1      45.029  30.893  30.355  1.00  0.00     0.049 A 
ATOM     55  C   UNL A   1      39.469  31.411  31.644  1.00  0.00     0.074 A 
ATOM     56  C   UNL A   1      45.614  29.784  30.934  1.00  0.00     0.029 A 
ATOM     57  N   UNL A   1      44.246  31.463  31.331  1.00  0.00    -0.354 N 
ATOM     58  N   UNL A   1      40.135  30.819  32.593  1.00  0.00    -0.248 NA
ATOM     59  C   UNL A   1      40.142  32.542  31.026  1.00  0.00     0.031 C 
ATOM     60  C   UNL A   1      44.808  29.487  32.072  1.00  0.00     0.029 A 
ATOM     61  C   UNL A   1      43.806  30.457  32.159  1.00  0.00     0.049 A 
ATOM     62  H   UNL A   1      44.036  32.420  31.420  1.00  0.00     0.167 HD
ATOM     63  C   UNL A   1      41.450  31.216  32.411  1.00  0.00     0.074 A 
ATOM     64  C   UNL A   1      41.370  32.370  31.520  1.00  0.00     0.031 C 
ATOM     65  C   UNL A   1      42.493  30.417  32.786  1.00  0.00     0.031 A 
BRANCH  52  66
ATOM     66  C   UNL A   1      45.155  32.667  28.469  1.00  0.00    -0.014 A 
ATOM     67  C   UNL A   1      44.301  33.781  28.611  1.00  0.00     0.010 A 
ATOM     68  C   UNL A   1      46.449  32.909  27.978  1.00  0.00     0.010 A 
ATOM     69  C   UNL A   1      44.679  35.061  28.211  1.00  0.00     0.020 A 
ATOM     70  C   UNL A   1      46.859  34.203  27.619  1.00  0.00     0.020 A 
ATOM     71  C   UNL A   1      45.961  35.266  27.720  1.00  0.00     0.054 A 
BRANCH  71  72
ATOM     72  S   UNL A   1      46.442  36.954  27.286  1.00  0.00     0.124 S 
ATOM     73  O   UNL A   1      47.406  36.723  26.212  1.00  0.00    -0.237 OA
ATOM     74  O   UNL A   1      45.173  37.547  26.875  1.00  0.00    -0.237 OA
ATOM     75  O   UNL A   1      47.003  37.481  28.526  1.00  0.00    -0.744 OA
ENDBRANCH  71  72
ENDBRANCH  52  66
BRANCH  53  76
ATOM     76  C   UNL A   1      37.024  31.598  30.846  1.00  0.00    -0.014 A 
ATOM     77  C   UNL A   1      36.999  32.767  30.062  1.00  0.00     0.010 A 
ATOM     78  C   UNL A   1      35.987  31.405  31.783  1.00  0.00     0.010 A 
ATOM     79  C   UNL A   1      36.041  33.764  30.289  1.00  0.00     0.020 A 
ATOM     80  C   UNL A   1      35.028  32.402  32.018  1.00  0.00     0.020 A 
ATOM     81  C   UNL A   1      35.093  33.596  31.299  1.00  0.00     0.054 A 
BRANCH  81  82
ATOM     82  S   UNL A   1      34.030  35.005  31.730  1.00  0.00     0.124 S 
ATOM     83  O   UNL A   1      34.944  35.849  32.496  1.00  0.00    -0.237 OA
ATOM     84  O   UNL A   1      33.646  35.525  30.420  1.00  0.00    -0.237 OA
ATOM     85  O   UNL A   1      32.945  34.401  32.500  1.00  0.00    -0.744 OA
ENDBRANCH  81  82
ENDBRANCH  53  76
BRANCH  65  86
ATOM     86  C   UNL A   1      42.215  29.249  33.719  1.00  0.00    -0.014 A 
ATOM     87  C   UNL A   1      42.403  29.454  35.099  1.00  0.00     0.010 A 
ATOM     88  C   UNL A   1      41.911  27.942  33.283  1.00  0.00     0.010 A 
ATOM     89  C   UNL A   1      42.311  28.399  36.010  1.00  0.00     0.020 A 
ATOM     90  C   UNL A   1      41.787  26.882  34.195  1.00  0.00     0.020 A 
ATOM     91  C   UNL A   1      42.008  27.115  35.554  1.00  0.00     0.054 A 
BRANCH  91  92
ATOM     92  S   UNL A   1      41.921  25.770  36.768  1.00  0.00     0.124 S 
ATOM     93  O   UNL A   1      42.656  26.326  37.903  1.00  0.00    -0.237 OA
ATOM     94  O   UNL A   1      40.482  25.614  36.977  1.00  0.00    -0.237 OA
ATOM     95  O   UNL A   1      42.570  24.643  36.100  1.00  0.00    -0.744 OA
ENDBRANCH  91  92
ENDBRANCH  65  86
ENDBRANCH  39  40
ENDBRANCH  32  34
ENDBRANCH  31  32
ENDBRANCH  30  31
ENDBRANCH   1  30
TORSDOF 19
ENDMDL
MODEL 3
REMARK VINA RESULT:     -11.5      7.445     12.798
REMARK SMILES COc1ccc2c(c1)c(CC(=O)OCCOC(=O)c1ccc(-c3c4nc(c(-c5ccc(S(=O)(=O)[O-])cc5)c5ccc([nH]5)c(-c5ccc(S(=O)(=O)[O-])cc5)c5nc(c(-c6ccc(S(=O)(=O)[O-])cc6)c6ccc3[nH]6)C=C5)C=C4)cc1)c(C(F)(F)F)n2C(=O)c1ccc(Cl)cc1
REMARK SMILES IDX 14 1 13 2 11 3 12 4 10 5 9 6 3 7 4 8 8 9 5 10 7 11 6 12
REMARK SMILES IDX 84 13 79 14 2 15 1 16 85 17 86 18 87 19 88 20 93 21 89 22
REMARK SMILES IDX 92 23 90 24 91 25 80 26 81 27 82 28 83 29 15 30 16 31 17 32
REMARK SMILES IDX 18 33 19 34 20 35 78 36 21 37 77 38 22 39 23 40 24 41 71 42
REMARK SMILES IDX 25 43 76 44 70 45 72 46 26 47 75 48 69 49 68 50 27 52 57 53
REMARK SMILES IDX 38 54 56 55 39 56 42 57 55 58 73 59 40 60 41 61 54 63 74 64
REMARK SMILES IDX 43 65 28 66 29 67 37 68 30 69 36 70 31 71 32 72 33 73 34 74
REMARK SMILES IDX 35 75 58 76 59 77 67 78 60 79 66 80 61 81 62 82 63 83 64 84
REMARK SMILES IDX 65 85 44 86 45 87 53 88 46 89 52 90 47 91 48 92 49 93 50 94
REMARK SMILES IDX 51 95
REMARK H PARENT 72 51 42 62
REMARK Flexibility Score: inf
ROOT
ATOM      1  C   UNL A   1      39.705  32.747  33.189  1.00  0.00     0.274 C 
ENDROOT
BRANCH   1   2
ATOM      2  O   UNL A   1      38.910  33.063  34.354  1.00  0.00    -0.462 OA
BRANCH   2   3
ATOM      3  C   UNL A   1      37.811  33.815  34.104  1.00  0.00     0.310 C 
ATOM      4  O   UNL A   1      37.728  35.015  34.351  1.00  0.00    -0.252 OA
BRANCH   3   5
ATOM      5  C   UNL A   1      36.623  33.055  33.594  1.00  0.00     0.161 C 
BRANCH   5   6
ATOM      6  C   UNL A   1      36.032  33.302  32.227  1.00  0.00     0.002 A 
ATOM      7  C   UNL A   1      33.447  36.119  31.658  1.00  0.00     0.119 A 
ATOM      8  C   UNL A   1      33.039  35.687  30.411  1.00  0.00     0.048 A 
ATOM      9  C   UNL A   1      34.497  35.447  32.305  1.00  0.00     0.057 A 
ATOM     10  C   UNL A   1      33.666  34.597  29.802  1.00  0.00     0.031 A 
ATOM     11  C   UNL A   1      35.105  34.291  31.758  1.00  0.00     0.008 A 
ATOM     12  C   UNL A   1      34.711  33.916  30.467  1.00  0.00     0.057 A 
ATOM     13  N   UNL A   1      35.566  32.884  30.059  1.00  0.00    -0.271 N 
ATOM     14  C   UNL A   1      36.154  32.365  31.200  1.00  0.00     0.135 A 
BRANCH   7  15
ATOM     15  O   UNL A   1      32.907  37.172  32.344  1.00  0.00    -0.497 OA
ATOM     16  C   UNL A   1      33.782  38.229  32.726  1.00  0.00     0.278 C 
ENDBRANCH   7  15
BRANCH  13  17
ATOM     17  C   UNL A   1      35.829  32.480  28.727  1.00  0.00     0.262 C 
ATOM     18  O   UNL A   1      36.618  33.136  28.056  1.00  0.00    -0.268 OA
BRANCH  17  19
ATOM     19  C   UNL A   1      35.131  31.386  28.044  1.00  0.00     0.040 A 
ATOM     20  C   UNL A   1      33.753  31.493  27.824  1.00  0.00     0.015 A 
ATOM     21  C   UNL A   1      35.837  30.231  27.698  1.00  0.00     0.015 A 
ATOM     22  C   UNL A   1      33.064  30.401  27.298  1.00  0.00     0.021 A 
ATOM     23  C   UNL A   1      35.140  29.146  27.167  1.00  0.00     0.021 A 
ATOM     24  C   UNL A   1      33.757  29.231  26.981  1.00  0.00     0.041 A 
ATOM     25  Cl  UNL A   1      32.893  27.873  26.377  1.00  0.00    -0.084 Cl
ENDBRANCH  17  19
ENDBRANCH  13  17
BRANCH  14  26
ATOM     26  C   UNL A   1      36.819  31.026  31.252  1.00  0.00     0.432 C 
ATOM     27  F   UNL A   1      37.246  30.737  32.504  1.00  0.00    -0.165 F 
ATOM     28  F   UNL A   1      35.925  30.053  30.918  1.00  0.00    -0.165 F 
ATOM     29  F   UNL A   1      37.846  30.867  30.389  1.00  0.00    -0.165 F 
ENDBRANCH  14  26
ENDBRANCH   5   6
ENDBRANCH   3   5
ENDBRANCH   2   3
ENDBRANCH   1   2
BRANCH   1  30
ATOM     30  C   UNL A   1      40.462  33.982  32.693  1.00  0.00     0.275 C 
BRANCH  30  31
ATOM     31  O   UNL A   1      41.152  33.650  31.480  1.00  0.00    -0.458 OA
BRANCH  31  32
ATOM     32  C   UNL A   1      40.511  33.895  30.312  1.00  0.00     0.338 C 
ATOM     33  O   UNL A   1      39.329  33.724  30.067  1.00  0.00    -0.246 OA
BRANCH  32  34
ATOM     34  C   UNL A   1      41.435  34.737  29.529  1.00  0.00     0.060 A 
ATOM     35  C   UNL A   1      42.543  35.325  30.139  1.00  0.00     0.016 A 
ATOM     36  C   UNL A   1      41.026  35.132  28.251  1.00  0.00     0.016 A 
ATOM     37  C   UNL A   1      43.149  36.411  29.519  1.00  0.00     0.010 A 
ATOM     38  C   UNL A   1      41.593  36.254  27.667  1.00  0.00     0.010 A 
ATOM     39  C   UNL A   1      42.620  36.921  28.326  1.00  0.00    -0.014 A 
BRANCH  39  40
ATOM     40  C   UNL A   1      43.336  37.981  27.635  1.00  0.00     0.031 A 
ATOM     41  C   UNL A   1      44.767  37.658  27.448  1.00  0.00     0.074 A 
ATOM     42  C   UNL A   1      42.858  39.112  27.085  1.00  0.00     0.049 A 
ATOM     43  N   UNL A   1      45.754  38.104  28.146  1.00  0.00    -0.248 NA
ATOM     44  C   UNL A   1      45.120  36.612  26.480  1.00  0.00     0.031 C 
ATOM     45  C   UNL A   1      41.483  39.528  26.818  1.00  0.00     0.029 A 
ATOM     46  N   UNL A   1      43.597  40.142  26.582  1.00  0.00    -0.354 N 
ATOM     47  C   UNL A   1      46.887  37.508  27.618  1.00  0.00     0.074 A 
ATOM     48  C   UNL A   1      46.428  36.490  26.706  1.00  0.00     0.031 C 
ATOM     49  C   UNL A   1      41.497  40.641  26.040  1.00  0.00     0.029 A 
ATOM     50  C   UNL A   1      42.870  41.107  25.906  1.00  0.00     0.049 A 
ATOM     51  H   UNL A   1      44.575  40.196  26.693  1.00  0.00     0.167 HD
ATOM     52  C   UNL A   1      48.133  38.004  27.838  1.00  0.00     0.031 A 
ATOM     53  C   UNL A   1      43.390  42.195  25.286  1.00  0.00     0.031 A 
ATOM     54  C   UNL A   1      48.146  38.988  28.890  1.00  0.00     0.049 A 
ATOM     55  C   UNL A   1      44.709  42.473  25.909  1.00  0.00     0.074 A 
ATOM     56  C   UNL A   1      47.843  38.958  30.237  1.00  0.00     0.029 A 
ATOM     57  N   UNL A   1      48.091  40.310  28.517  1.00  0.00    -0.354 N 
ATOM     58  N   UNL A   1      44.863  42.876  27.137  1.00  0.00    -0.248 NA
ATOM     59  C   UNL A   1      45.912  41.973  25.264  1.00  0.00     0.031 C 
ATOM     60  C   UNL A   1      47.183  40.194  30.500  1.00  0.00     0.029 A 
ATOM     61  C   UNL A   1      47.161  40.935  29.316  1.00  0.00     0.049 A 
ATOM     62  H   UNL A   1      48.621  40.734  27.805  1.00  0.00     0.167 HD
ATOM     63  C   UNL A   1      46.052  42.302  27.557  1.00  0.00     0.074 A 
ATOM     64  C   UNL A   1      46.711  41.870  26.328  1.00  0.00     0.031 C 
ATOM     65  C   UNL A   1      46.270  41.996  28.871  1.00  0.00     0.031 A 
BRANCH  52  66
ATOM     66  C   UNL A   1      49.281  37.773  26.902  1.00  0.00    -0.014 A 
ATOM     67  C   UNL A   1      50.566  38.307  27.135  1.00  0.00     0.010 A 
ATOM     68  C   UNL A   1      49.151  36.851  25.849  1.00  0.00     0.010 A 
ATOM     69  C   UNL A   1      51.653  38.007  26.318  1.00  0.00     0.020 A 
ATOM     70  C   UNL A   1      50.250  36.502  25.050  1.00  0.00     0.020 A 
ATOM     71  C   UNL A   1      51.490  37.100  25.279  1.00  0.00     0.054 A 
BRANCH  71  72
ATOM     72  S   UNL A   1      52.942  36.675  24.289  1.00  0.00     0.124 S 
ATOM     73  O   UNL A   1      52.344  35.924  23.187  1.00  0.00    -0.237 OA
ATOM     74  O   UNL A   1      53.479  37.986  23.938  1.00  0.00    -0.237 OA
ATOM     75  O   UNL A   1      53.765  35.891  25.206  1.00  0.00    -0.744 OA
ENDBRANCH  71  72
ENDBRANCH  52  66
BRANCH  53  76
ATOM     76  C   UNL A   1      43.028  42.799  23.981  1.00  0.00    -0.014 A 
ATOM     77  C   UNL A   1      42.332  42.034  23.027  1.00  0.00     0.010 A 
ATOM     78  C   UNL A   1      43.691  43.965  23.540  1.00  0.00     0.010 A 
ATOM     79  C   UNL A   1      42.394  42.353  21.664  1.00  0.00     0.020 A 
ATOM     80  C   UNL A   1      43.761  44.287  22.176  1.00  0.00     0.020 A 
ATOM     81  C   UNL A   1      43.149  43.449  21.244  1.00  0.00     0.054 A 
BRANCH  81  82
ATOM     82  S   UNL A   1      43.411  43.686  19.461  1.00  0.00     0.124 S 
ATOM     83  O   UNL A   1      42.985  45.071  19.275  1.00  0.00    -0.237 OA
ATOM     84  O   UNL A   1      44.845  43.446  19.317  1.00  0.00    -0.237 OA
ATOM     85  O   UNL A   1      42.549  42.680  18.846  1.00  0.00    -0.744 OA
ENDBRANCH  81  82
ENDBRANCH  53  76
BRANCH  65  86
ATOM     86  C   UNL A   1      45.352  42.603  29.920  1.00  0.00    -0.014 A 
ATOM     87  C   UNL A   1      45.943  43.377  30.938  1.00  0.00     0.010 A 
ATOM     88  C   UNL A   1      43.971  42.334  30.016  1.00  0.00     0.010 A 
ATOM     89  C   UNL A   1      45.194  43.850  32.019  1.00  0.00     0.020 A 
ATOM     90  C   UNL A   1      43.205  42.831  31.083  1.00  0.00     0.020 A 
ATOM     91  C   UNL A   1      43.829  43.570  32.091  1.00  0.00     0.054 A 
BRANCH  91  92
ATOM     92  S   UNL A   1      42.900  44.184  33.523  1.00  0.00     0.124 S 
ATOM     93  O   UNL A   1      42.065  45.227  32.928  1.00  0.00    -0.237 OA
ATOM     94  O   UNL A   1      42.179  42.996  33.975  1.00  0.00    -0.237 OA
ATOM     95  O   UNL A   1      43.933  44.663  34.439  1.00  0.00    -0.744 OA
ENDBRANCH  91  92
ENDBRANCH  65  86
ENDBRANCH  39  40
ENDBRANCH  32  34
ENDBRANCH  31  32
ENDBRANCH  30  31
ENDBRANCH   1  30
TORSDOF 19
ENDMDL
