MODEL 1
REMARK VINA RESULT:     -12.0      0.000      0.000
REMARK SMILES C[NH+]1CCC2(CC1)OC[C@H](C(=O)OCCOC(=O)c1ccc(-c3c4nc(c(-c5ccc(S(=O)(=O)[O-])cc5)c5ccc([nH]5)c(-c5ccc(S(=O)(=O)[O-])cc5)c5nc(c(-c6ccc(S(=O)(=O)[O-])cc6)c6ccc3[nH]6)C=C5)C=C4)cc1)N2C(=O)c1cc(C(F)(F)F)cc(C(F)(F)F)c1
REMARK SMILES IDX 14 1 13 2 11 3 12 4 10 5 1 6 2 7 3 8 7 9 4 11 6 12 5 13 8 14
REMARK SMILES IDX 79 15 9 16 80 17 81 18 82 19 83 20 95 21 84 22 90 23 89 24
REMARK SMILES IDX 85 25 86 26 87 27 88 28 91 29 92 30 93 31 94 32 15 33 16 34
REMARK SMILES IDX 17 35 18 36 19 37 20 38 78 39 21 40 77 41 22 42 23 43 24 44
REMARK SMILES IDX 71 45 25 46 76 47 70 48 72 49 26 50 75 51 69 52 68 53 27 55
REMARK SMILES IDX 57 56 38 57 56 58 39 59 42 60 55 61 73 62 40 63 41 64 54 66
REMARK SMILES IDX 74 67 43 68 28 69 29 70 37 71 30 72 36 73 31 74 32 75 33 76
REMARK SMILES IDX 34 77 35 78 58 79 59 80 67 81 60 82 66 83 61 84 62 85 63 86
REMARK SMILES IDX 64 87 65 88 44 89 45 90 53 91 46 92 52 93 47 94 48 95 49 96
REMARK SMILES IDX 50 97 51 98
REMARK H PARENT 2 10 72 54 42 65
REMARK Flexibility Score: inf
ROOT
ATOM      1  C   UNL A   1      33.414  29.476  26.599  1.00  0.00     0.274 C 
ENDROOT
BRANCH   1   2
ATOM      2  O   UNL A   1      33.143  28.233  27.278  1.00  0.00    -0.460 OA
BRANCH   2   3
ATOM      3  C   UNL A   1      33.162  27.113  26.507  1.00  0.00     0.331 C 
ATOM      4  O   UNL A   1      34.159  26.712  25.912  1.00  0.00    -0.250 OA
BRANCH   3   5
ATOM      5  C   UNL A   1      31.810  26.378  26.478  1.00  0.00     0.224 C 
ATOM      6  C   UNL A   1      33.087  23.836  20.808  1.00  0.00     0.332 C 
ATOM      7  N   UNL A   1      33.062  23.752  22.259  1.00  0.00    -0.337 N 
ATOM      8  C   UNL A   1      33.749  24.865  22.900  1.00  0.00     0.267 C 
ATOM      9  C   UNL A   1      31.769  23.335  22.798  1.00  0.00     0.267 C 
ATOM     10  H   UNL A   1      33.644  22.963  22.539  1.00  0.00     0.347 HD
ATOM     11  C   UNL A   1      32.852  25.938  23.460  1.00  0.00     0.120 C 
ATOM     12  C   UNL A   1      30.915  24.362  23.533  1.00  0.00     0.120 C 
ATOM     13  C   UNL A   1      31.700  25.404  24.317  1.00  0.00     0.155 C 
ATOM     14  O   UNL A   1      30.801  26.570  24.369  1.00  0.00    -0.352 OA
ATOM     15  N   UNL A   1      31.982  25.132  25.738  1.00  0.00    -0.293 N 
ATOM     16  C   UNL A   1      30.712  27.054  25.715  1.00  0.00     0.200 C 
BRANCH  15  17
ATOM     17  C   UNL A   1      32.290  24.005  26.494  1.00  0.00     0.256 C 
ATOM     18  O   UNL A   1      31.681  23.729  27.528  1.00  0.00    -0.269 OA
BRANCH  17  19
ATOM     19  C   UNL A   1      33.327  23.033  26.126  1.00  0.00     0.041 A 
ATOM     20  C   UNL A   1      32.956  21.737  25.750  1.00  0.00     0.027 A 
ATOM     21  C   UNL A   1      34.674  23.345  26.292  1.00  0.00     0.027 A 
ATOM     22  C   UNL A   1      33.936  20.788  25.405  1.00  0.00     0.057 A 
ATOM     23  C   UNL A   1      35.668  22.459  25.847  1.00  0.00     0.057 A 
ATOM     24  C   UNL A   1      35.288  21.175  25.421  1.00  0.00     0.026 A 
BRANCH  22  25
ATOM     25  C   UNL A   1      33.536  19.382  25.025  1.00  0.00     0.416 C 
ATOM     26  F   UNL A   1      32.833  18.751  26.001  1.00  0.00    -0.166 F 
ATOM     27  F   UNL A   1      32.748  19.352  23.912  1.00  0.00    -0.166 F 
ATOM     28  F   UNL A   1      34.598  18.578  24.741  1.00  0.00    -0.166 F 
ENDBRANCH  22  25
BRANCH  23  29
ATOM     29  C   UNL A   1      37.111  22.899  25.737  1.00  0.00     0.416 C 
ATOM     30  F   UNL A   1      37.988  21.946  26.146  1.00  0.00    -0.166 F 
ATOM     31  F   UNL A   1      37.454  23.187  24.447  1.00  0.00    -0.166 F 
ATOM     32  F   UNL A   1      37.399  24.021  26.453  1.00  0.00    -0.166 F 
ENDBRANCH  23  29
ENDBRANCH  17  19
ENDBRANCH  15  17
ENDBRANCH   3   5
ENDBRANCH   2   3
ENDBRANCH   1   2
BRANCH   1  33
ATOM     33  C   UNL A   1      34.460  30.308  27.346  1.00  0.00     0.275 C 
BRANCH  33  34
ATOM     34  O   UNL A   1      35.410  29.484  28.046  1.00  0.00    -0.458 OA
BRANCH  34  35
ATOM     35  C   UNL A   1      36.092  30.108  29.033  1.00  0.00     0.338 C 
ATOM     36  O   UNL A   1      35.615  30.732  29.977  1.00  0.00    -0.246 OA
BRANCH  35  37
ATOM     37  C   UNL A   1      37.517  29.774  28.938  1.00  0.00     0.060 A 
ATOM     38  C   UNL A   1      38.064  29.689  27.659  1.00  0.00     0.016 A 
ATOM     39  C   UNL A   1      38.298  29.489  30.055  1.00  0.00     0.016 A 
ATOM     40  C   UNL A   1      39.385  29.318  27.470  1.00  0.00     0.010 A 
ATOM     41  C   UNL A   1      39.639  29.129  29.870  1.00  0.00     0.010 A 
ATOM     42  C   UNL A   1      40.187  29.045  28.576  1.00  0.00    -0.014 A 
BRANCH  42  43
ATOM     43  C   UNL A   1      41.596  28.655  28.360  1.00  0.00     0.031 A 
ATOM     44  C   UNL A   1      42.674  29.693  28.438  1.00  0.00     0.074 A 
ATOM     45  C   UNL A   1      41.900  27.362  28.135  1.00  0.00     0.049 A 
ATOM     46  N   UNL A   1      43.939  29.589  28.131  1.00  0.00    -0.248 NA
ATOM     47  C   UNL A   1      42.276  31.022  28.932  1.00  0.00     0.031 C 
ATOM     48  C   UNL A   1      40.944  26.252  28.150  1.00  0.00     0.029 A 
ATOM     49  N   UNL A   1      43.101  26.763  27.852  1.00  0.00    -0.354 N 
ATOM     50  C   UNL A   1      44.486  30.844  28.365  1.00  0.00     0.074 A 
ATOM     51  C   UNL A   1      43.415  31.695  28.837  1.00  0.00     0.031 C 
ATOM     52  C   UNL A   1      41.595  25.109  27.882  1.00  0.00     0.029 A 
ATOM     53  C   UNL A   1      42.994  25.415  27.607  1.00  0.00     0.049 A 
ATOM     54  H   UNL A   1      43.955  27.252  27.826  1.00  0.00     0.167 HD
ATOM     55  C   UNL A   1      45.766  31.245  28.190  1.00  0.00     0.031 A 
ATOM     56  C   UNL A   1      43.910  24.536  27.156  1.00  0.00     0.031 A 
ATOM     57  C   UNL A   1      46.817  30.381  27.720  1.00  0.00     0.049 A 
ATOM     58  C   UNL A   1      45.295  25.035  26.846  1.00  0.00     0.074 A 
ATOM     59  C   UNL A   1      48.146  30.686  27.491  1.00  0.00     0.029 A 
ATOM     60  N   UNL A   1      46.653  29.040  27.406  1.00  0.00    -0.354 N 
ATOM     61  N   UNL A   1      45.795  26.236  27.022  1.00  0.00    -0.248 NA
ATOM     62  C   UNL A   1      46.231  24.071  26.256  1.00  0.00     0.031 C 
ATOM     63  C   UNL A   1      48.773  29.542  26.986  1.00  0.00     0.029 A 
ATOM     64  C   UNL A   1      47.848  28.511  26.951  1.00  0.00     0.049 A 
ATOM     65  H   UNL A   1      45.810  28.538  27.493  1.00  0.00     0.167 HD
ATOM     66  C   UNL A   1      47.106  26.170  26.570  1.00  0.00     0.074 A 
ATOM     67  C   UNL A   1      47.329  24.806  26.132  1.00  0.00     0.031 C 
ATOM     68  C   UNL A   1      48.041  27.151  26.515  1.00  0.00     0.031 A 
BRANCH  55  69
ATOM     69  C   UNL A   1      46.087  32.691  28.452  1.00  0.00    -0.014 A 
ATOM     70  C   UNL A   1      46.012  33.656  27.432  1.00  0.00     0.010 A 
ATOM     71  C   UNL A   1      46.440  33.094  29.754  1.00  0.00     0.010 A 
ATOM     72  C   UNL A   1      46.315  34.994  27.704  1.00  0.00     0.020 A 
ATOM     73  C   UNL A   1      46.722  34.434  30.034  1.00  0.00     0.020 A 
ATOM     74  C   UNL A   1      46.672  35.374  29.002  1.00  0.00     0.054 A 
BRANCH  74  75
ATOM     75  S   UNL A   1      47.040  37.119  29.331  1.00  0.00     0.124 S 
ATOM     76  O   UNL A   1      47.820  37.489  28.153  1.00  0.00    -0.237 OA
ATOM     77  O   UNL A   1      45.711  37.718  29.418  1.00  0.00    -0.237 OA
ATOM     78  O   UNL A   1      47.788  37.086  30.586  1.00  0.00    -0.744 OA
ENDBRANCH  74  75
ENDBRANCH  55  69
BRANCH  56  79
ATOM     79  C   UNL A   1      43.522  23.125  26.889  1.00  0.00    -0.014 A 
ATOM     80  C   UNL A   1      43.702  22.557  25.618  1.00  0.00     0.010 A 
ATOM     81  C   UNL A   1      42.971  22.338  27.918  1.00  0.00     0.010 A 
ATOM     82  C   UNL A   1      43.327  21.230  25.377  1.00  0.00     0.020 A 
ATOM     83  C   UNL A   1      42.620  21.005  27.690  1.00  0.00     0.020 A 
ATOM     84  C   UNL A   1      42.789  20.464  26.415  1.00  0.00     0.054 A 
BRANCH  84  85
ATOM     85  S   UNL A   1      42.348  18.732  26.093  1.00  0.00     0.124 S 
ATOM     86  O   UNL A   1      43.269  18.381  25.016  1.00  0.00    -0.237 OA
ATOM     87  O   UNL A   1      42.608  18.094  27.381  1.00  0.00    -0.237 OA
ATOM     88  O   UNL A   1      40.939  18.803  25.714  1.00  0.00    -0.744 OA
ENDBRANCH  84  85
ENDBRANCH  56  79
BRANCH  68  89
ATOM     89  C   UNL A   1      49.394  26.783  25.972  1.00  0.00    -0.014 A 
ATOM     90  C   UNL A   1      49.724  27.040  24.631  1.00  0.00     0.010 A 
ATOM     91  C   UNL A   1      50.368  26.247  26.834  1.00  0.00     0.010 A 
ATOM     92  C   UNL A   1      51.005  26.758  24.155  1.00  0.00     0.020 A 
ATOM     93  C   UNL A   1      51.658  25.986  26.367  1.00  0.00     0.020 A 
ATOM     94  C   UNL A   1      51.966  26.237  25.028  1.00  0.00     0.054 A 
BRANCH  94  95
ATOM     95  S   UNL A   1      53.645  25.949  24.404  1.00  0.00     0.124 S 
ATOM     96  O   UNL A   1      54.401  27.006  25.068  1.00  0.00    -0.237 OA
ATOM     97  O   UNL A   1      53.929  24.591  24.860  1.00  0.00    -0.237 OA
ATOM     98  O   UNL A   1      53.507  26.097  22.956  1.00  0.00    -0.744 OA
ENDBRANCH  94  95
ENDBRANCH  68  89
ENDBRANCH  42  43
ENDBRANCH  35  37
ENDBRANCH  34  35
ENDBRANCH  33  34
ENDBRANCH   1  33
TORSDOF 18
ENDMDL
MODEL 2
REMARK VINA RESULT:     -11.8      5.593     10.694
REMARK SMILES C[NH+]1CCC2(CC1)OC[C@H](C(=O)OCCOC(=O)c1ccc(-c3c4nc(c(-c5ccc(S(=O)(=O)[O-])cc5)c5ccc([nH]5)c(-c5ccc(S(=O)(=O)[O-])cc5)c5nc(c(-c6ccc(S(=O)(=O)[O-])cc6)c6ccc3[nH]6)C=C5)C=C4)cc1)N2C(=O)c1cc(C(F)(F)F)cc(C(F)(F)F)c1
REMARK SMILES IDX 14 1 13 2 11 3 12 4 10 5 1 6 2 7 3 8 7 9 4 11 6 12 5 13 8 14
REMARK SMILES IDX 79 15 9 16 80 17 81 18 82 19 83 20 95 21 84 22 90 23 89 24
REMARK SMILES IDX 85 25 86 26 87 27 88 28 91 29 92 30 93 31 94 32 15 33 16 34
REMARK SMILES IDX 17 35 18 36 19 37 20 38 78 39 21 40 77 41 22 42 23 43 24 44
REMARK SMILES IDX 71 45 25 46 76 47 70 48 72 49 26 50 75 51 69 52 68 53 27 55
REMARK SMILES IDX 57 56 38 57 56 58 39 59 42 60 55 61 73 62 40 63 41 64 54 66
REMARK SMILES IDX 74 67 43 68 28 69 29 70 37 71 30 72 36 73 31 74 32 75 33 76
REMARK SMILES IDX 34 77 35 78 58 79 59 80 67 81 60 82 66 83 61 84 62 85 63 86
REMARK SMILES IDX 64 87 65 88 44 89 45 90 53 91 46 92 52 93 47 94 48 95 49 96
REMARK SMILES IDX 50 97 51 98
REMARK H PARENT 2 10 72 54 42 65
REMARK Flexibility Score: inf
ROOT
ATOM      1  C   UNL A   1      36.735  22.493  24.127  1.00  0.00     0.274 C 
ENDROOT
BRANCH   1   2
ATOM      2  O   UNL A   1      35.298  22.606  24.070  1.00  0.00    -0.460 OA
BRANCH   2   3
ATOM      3  C   UNL A   1      34.803  23.862  23.901  1.00  0.00     0.331 C 
ATOM      4  O   UNL A   1      35.102  24.814  24.616  1.00  0.00    -0.250 OA
BRANCH   3   5
ATOM      5  C   UNL A   1      33.850  23.976  22.698  1.00  0.00     0.224 C 
ATOM      6  C   UNL A   1      28.894  25.135  26.485  1.00  0.00     0.332 C 
ATOM      7  N   UNL A   1      29.973  25.601  25.629  1.00  0.00    -0.337 N 
ATOM      8  C   UNL A   1      31.271  25.066  26.017  1.00  0.00     0.267 C 
ATOM      9  C   UNL A   1      29.628  25.616  24.210  1.00  0.00     0.267 C 
ATOM     10  H   UNL A   1      30.103  26.598  25.801  1.00  0.00     0.347 HD
ATOM     11  C   UNL A   1      31.778  23.930  25.167  1.00  0.00     0.120 C 
ATOM     12  C   UNL A   1      30.269  24.587  23.287  1.00  0.00     0.120 C 
ATOM     13  C   UNL A   1      31.692  24.191  23.660  1.00  0.00     0.155 C 
ATOM     14  O   UNL A   1      31.844  22.832  23.112  1.00  0.00    -0.352 OA
ATOM     15  N   UNL A   1      32.801  24.933  23.035  1.00  0.00    -0.293 N 
ATOM     16  C   UNL A   1      33.064  22.745  22.364  1.00  0.00     0.200 C 
BRANCH  15  17
ATOM     17  C   UNL A   1      33.029  26.253  22.657  1.00  0.00     0.256 C 
ATOM     18  O   UNL A   1      33.606  26.539  21.608  1.00  0.00    -0.269 OA
BRANCH  17  19
ATOM     19  C   UNL A   1      32.583  27.414  23.437  1.00  0.00     0.041 A 
ATOM     20  C   UNL A   1      31.418  28.094  23.059  1.00  0.00     0.027 A 
ATOM     21  C   UNL A   1      33.385  27.931  24.452  1.00  0.00     0.027 A 
ATOM     22  C   UNL A   1      30.982  29.216  23.786  1.00  0.00     0.057 A 
ATOM     23  C   UNL A   1      32.917  28.976  25.264  1.00  0.00     0.057 A 
ATOM     24  C   UNL A   1      31.721  29.623  24.911  1.00  0.00     0.026 A 
BRANCH  22  25
ATOM     25  C   UNL A   1      29.740  29.965  23.361  1.00  0.00     0.416 C 
ATOM     26  F   UNL A   1      28.637  29.173  23.317  1.00  0.00    -0.166 F 
ATOM     27  F   UNL A   1      29.438  30.988  24.211  1.00  0.00    -0.166 F 
ATOM     28  F   UNL A   1      29.850  30.535  22.129  1.00  0.00    -0.166 F 
ENDBRANCH  22  25
BRANCH  23  29
ATOM     29  C   UNL A   1      33.629  29.343  26.546  1.00  0.00     0.416 C 
ATOM     30  F   UNL A   1      33.403  30.627  26.929  1.00  0.00    -0.166 F 
ATOM     31  F   UNL A   1      33.218  28.568  27.593  1.00  0.00    -0.166 F 
ATOM     32  F   UNL A   1      34.981  29.192  26.486  1.00  0.00    -0.166 F 
ENDBRANCH  23  29
ENDBRANCH  17  19
ENDBRANCH  15  17
ENDBRANCH   3   5
ENDBRANCH   2   3
ENDBRANCH   1   2
BRANCH   1  33
ATOM     33  C   UNL A   1      37.255  22.647  25.559  1.00  0.00     0.275 C 
BRANCH  33  34
ATOM     34  O   UNL A   1      38.109  23.796  25.705  1.00  0.00    -0.458 OA
BRANCH  34  35
ATOM     35  C   UNL A   1      39.304  23.551  26.288  1.00  0.00     0.338 C 
ATOM     36  O   UNL A   1      40.036  22.585  26.089  1.00  0.00    -0.246 OA
BRANCH  35  37
ATOM     37  C   UNL A   1      39.721  24.717  27.073  1.00  0.00     0.060 A 
ATOM     38  C   UNL A   1      39.188  24.841  28.356  1.00  0.00     0.016 A 
ATOM     39  C   UNL A   1      40.560  25.705  26.565  1.00  0.00     0.016 A 
ATOM     40  C   UNL A   1      39.476  25.941  29.145  1.00  0.00     0.010 A 
ATOM     41  C   UNL A   1      40.867  26.812  27.366  1.00  0.00     0.010 A 
ATOM     42  C   UNL A   1      40.327  26.932  28.660  1.00  0.00    -0.014 A 
BRANCH  42  43
ATOM     43  C   UNL A   1      40.629  28.099  29.516  1.00  0.00     0.031 A 
ATOM     44  C   UNL A   1      41.881  28.112  30.339  1.00  0.00     0.074 A 
ATOM     45  C   UNL A   1      39.795  29.156  29.515  1.00  0.00     0.049 A 
ATOM     46  N   UNL A   1      42.250  28.959  31.261  1.00  0.00    -0.248 NA
ATOM     47  C   UNL A   1      42.848  27.031  30.086  1.00  0.00     0.031 C 
ATOM     48  C   UNL A   1      38.607  29.298  28.668  1.00  0.00     0.029 A 
ATOM     49  N   UNL A   1      39.820  30.314  30.250  1.00  0.00    -0.354 N 
ATOM     50  C   UNL A   1      43.477  28.501  31.723  1.00  0.00     0.074 A 
ATOM     51  C   UNL A   1      43.790  27.299  30.981  1.00  0.00     0.031 C 
ATOM     52  C   UNL A   1      38.015  30.473  28.937  1.00  0.00     0.029 A 
ATOM     53  C   UNL A   1      38.738  31.130  30.020  1.00  0.00     0.049 A 
ATOM     54  H   UNL A   1      40.541  30.538  30.881  1.00  0.00     0.167 HD
ATOM     55  C   UNL A   1      44.262  29.036  32.686  1.00  0.00     0.031 A 
ATOM     56  C   UNL A   1      38.343  32.253  30.651  1.00  0.00     0.031 A 
ATOM     57  C   UNL A   1      43.932  30.234  33.412  1.00  0.00     0.049 A 
ATOM     58  C   UNL A   1      39.166  32.756  31.805  1.00  0.00     0.074 A 
ATOM     59  C   UNL A   1      44.645  30.856  34.420  1.00  0.00     0.029 A 
ATOM     60  N   UNL A   1      42.787  30.990  33.206  1.00  0.00    -0.354 N 
ATOM     61  N   UNL A   1      40.301  32.291  32.270  1.00  0.00    -0.248 NA
ATOM     62  C   UNL A   1      38.644  33.920  32.534  1.00  0.00     0.031 C 
ATOM     63  C   UNL A   1      43.905  31.958  34.860  1.00  0.00     0.029 A 
ATOM     64  C   UNL A   1      42.756  32.054  34.091  1.00  0.00     0.049 A 
ATOM     65  H   UNL A   1      42.098  30.799  32.529  1.00  0.00     0.167 HD
ATOM     66  C   UNL A   1      40.634  33.108  33.343  1.00  0.00     0.074 A 
ATOM     67  C   UNL A   1      39.591  34.110  33.445  1.00  0.00     0.031 C 
ATOM     68  C   UNL A   1      41.702  33.033  34.174  1.00  0.00     0.031 A 
BRANCH  55  69
ATOM     69  C   UNL A   1      45.522  28.299  33.050  1.00  0.00    -0.014 A 
ATOM     70  C   UNL A   1      46.744  28.575  32.412  1.00  0.00     0.010 A 
ATOM     71  C   UNL A   1      45.484  27.335  34.074  1.00  0.00     0.010 A 
ATOM     72  C   UNL A   1      47.900  27.875  32.771  1.00  0.00     0.020 A 
ATOM     73  C   UNL A   1      46.643  26.650  34.451  1.00  0.00     0.020 A 
ATOM     74  C   UNL A   1      47.842  26.914  33.785  1.00  0.00     0.054 A 
BRANCH  74  75
ATOM     75  S   UNL A   1      49.361  26.036  34.245  1.00  0.00     0.124 S 
ATOM     76  O   UNL A   1      49.368  26.190  35.698  1.00  0.00    -0.237 OA
ATOM     77  O   UNL A   1      49.110  24.682  33.759  1.00  0.00    -0.237 OA
ATOM     78  O   UNL A   1      50.412  26.764  33.537  1.00  0.00    -0.744 OA
ENDBRANCH  74  75
ENDBRANCH  55  69
BRANCH  56  79
ATOM     79  C   UNL A   1      37.071  32.919  30.263  1.00  0.00    -0.014 A 
ATOM     80  C   UNL A   1      35.907  32.753  31.031  1.00  0.00     0.010 A 
ATOM     81  C   UNL A   1      37.022  33.733  29.115  1.00  0.00     0.010 A 
ATOM     82  C   UNL A   1      34.714  33.379  30.653  1.00  0.00     0.020 A 
ATOM     83  C   UNL A   1      35.841  34.382  28.748  1.00  0.00     0.020 A 
ATOM     84  C   UNL A   1      34.689  34.190  29.513  1.00  0.00     0.054 A 
BRANCH  84  85
ATOM     85  S   UNL A   1      33.143  35.027  29.063  1.00  0.00     0.124 S 
ATOM     86  O   UNL A   1      32.465  35.123  30.352  1.00  0.00    -0.237 OA
ATOM     87  O   UNL A   1      33.618  36.290  28.502  1.00  0.00    -0.237 OA
ATOM     88  O   UNL A   1      32.530  34.117  28.099  1.00  0.00    -0.744 OA
ENDBRANCH  84  85
ENDBRANCH  56  79
BRANCH  68  89
ATOM     89  C   UNL A   1      41.804  34.068  35.260  1.00  0.00    -0.014 A 
ATOM     90  C   UNL A   1      41.171  33.873  36.500  1.00  0.00     0.010 A 
ATOM     91  C   UNL A   1      42.604  35.208  35.064  1.00  0.00     0.010 A 
ATOM     92  C   UNL A   1      41.328  34.808  37.524  1.00  0.00     0.020 A 
ATOM     93  C   UNL A   1      42.783  36.133  36.095  1.00  0.00     0.020 A 
ATOM     94  C   UNL A   1      42.138  35.930  37.317  1.00  0.00     0.054 A 
BRANCH  94  95
ATOM     95  S   UNL A   1      42.387  37.090  38.689  1.00  0.00     0.124 S 
ATOM     96  O   UNL A   1      43.335  38.040  38.116  1.00  0.00    -0.237 OA
ATOM     97  O   UNL A   1      41.040  37.607  38.921  1.00  0.00    -0.237 OA
ATOM     98  O   UNL A   1      42.917  36.250  39.762  1.00  0.00    -0.744 OA
ENDBRANCH  94  95
ENDBRANCH  68  89
ENDBRANCH  42  43
ENDBRANCH  35  37
ENDBRANCH  34  35
ENDBRANCH  33  34
ENDBRANCH   1  33
TORSDOF 18
ENDMDL
MODEL 3
REMARK VINA RESULT:     -11.8      2.279      3.030
REMARK SMILES C[NH+]1CCC2(CC1)OC[C@H](C(=O)OCCOC(=O)c1ccc(-c3c4nc(c(-c5ccc(S(=O)(=O)[O-])cc5)c5ccc([nH]5)c(-c5ccc(S(=O)(=O)[O-])cc5)c5nc(c(-c6ccc(S(=O)(=O)[O-])cc6)c6ccc3[nH]6)C=C5)C=C4)cc1)N2C(=O)c1cc(C(F)(F)F)cc(C(F)(F)F)c1
REMARK SMILES IDX 14 1 13 2 11 3 12 4 10 5 1 6 2 7 3 8 7 9 4 11 6 12 5 13 8 14
REMARK SMILES IDX 79 15 9 16 80 17 81 18 82 19 83 20 95 21 84 22 90 23 89 24
REMARK SMILES IDX 85 25 86 26 87 27 88 28 91 29 92 30 93 31 94 32 15 33 16 34
REMARK SMILES IDX 17 35 18 36 19 37 20 38 78 39 21 40 77 41 22 42 23 43 24 44
REMARK SMILES IDX 71 45 25 46 76 47 70 48 72 49 26 50 75 51 69 52 68 53 27 55
REMARK SMILES IDX 57 56 38 57 56 58 39 59 42 60 55 61 73 62 40 63 41 64 54 66
REMARK SMILES IDX 74 67 43 68 28 69 29 70 37 71 30 72 36 73 31 74 32 75 33 76
REMARK SMILES IDX 34 77 35 78 58 79 59 80 67 81 60 82 66 83 61 84 62 85 63 86
REMARK SMILES IDX 64 87 65 88 44 89 45 90 53 91 46 92 52 93 47 94 48 95 49 96
REMARK SMILES IDX 50 97 51 98
REMARK H PARENT 2 10 72 54 42 65
REMARK Flexibility Score: inf
ROOT
ATOM      1  C   UNL A   1      31.585  28.975  26.631  1.00  0.00     0.274 C 
ENDROOT
BRANCH   1   2
ATOM      2  O   UNL A   1      31.653  27.919  25.651  1.00  0.00    -0.460 OA
BRANCH   2   3
ATOM      3  C   UNL A   1      32.090  26.713  26.102  1.00  0.00     0.331 C 
ATOM      4  O   UNL A   1      33.235  26.506  26.494  1.00  0.00    -0.250 OA
BRANCH   3   5
ATOM      5  C   UNL A   1      30.991  25.635  26.101  1.00  0.00     0.224 C 
ATOM      6  C   UNL A   1      33.092  23.217  20.625  1.00  0.00     0.332 C 
ATOM      7  N   UNL A   1      33.045  23.214  22.079  1.00  0.00    -0.337 N 
ATOM      8  C   UNL A   1      33.382  24.508  22.656  1.00  0.00     0.267 C 
ATOM      9  C   UNL A   1      31.899  22.490  22.624  1.00  0.00     0.267 C 
ATOM     10  H   UNL A   1      33.812  22.633  22.417  1.00  0.00     0.347 HD
ATOM     11  C   UNL A   1      32.208  25.325  23.133  1.00  0.00     0.120 C 
ATOM     12  C   UNL A   1      30.774  23.284  23.279  1.00  0.00     0.120 C 
ATOM     13  C   UNL A   1      31.220  24.546  24.006  1.00  0.00     0.155 C 
ATOM     14  O   UNL A   1      30.035  25.421  23.969  1.00  0.00    -0.352 OA
ATOM     15  N   UNL A   1      31.520  24.443  25.445  1.00  0.00    -0.293 N 
ATOM     16  C   UNL A   1      29.775  25.938  25.280  1.00  0.00     0.200 C 
BRANCH  15  17
ATOM     17  C   UNL A   1      32.100  23.490  26.277  1.00  0.00     0.256 C 
ATOM     18  O   UNL A   1      31.739  23.339  27.445  1.00  0.00    -0.269 OA
BRANCH  17  19
ATOM     19  C   UNL A   1      33.154  22.563  25.846  1.00  0.00     0.041 A 
ATOM     20  C   UNL A   1      32.829  21.229  25.571  1.00  0.00     0.027 A 
ATOM     21  C   UNL A   1      34.488  22.962  25.853  1.00  0.00     0.027 A 
ATOM     22  C   UNL A   1      33.828  20.323  25.168  1.00  0.00     0.057 A 
ATOM     23  C   UNL A   1      35.485  22.114  25.347  1.00  0.00     0.057 A 
ATOM     24  C   UNL A   1      35.146  20.789  25.023  1.00  0.00     0.026 A 
BRANCH  22  25
ATOM     25  C   UNL A   1      33.481  18.878  24.897  1.00  0.00     0.416 C 
ATOM     26  F   UNL A   1      32.724  18.717  23.780  1.00  0.00    -0.166 F 
ATOM     27  F   UNL A   1      34.591  18.106  24.716  1.00  0.00    -0.166 F 
ATOM     28  F   UNL A   1      32.790  18.290  25.913  1.00  0.00    -0.166 F 
ENDBRANCH  22  25
BRANCH  23  29
ATOM     29  C   UNL A   1      36.878  22.631  25.064  1.00  0.00     0.416 C 
ATOM     30  F   UNL A   1      36.951  23.987  25.071  1.00  0.00    -0.166 F 
ATOM     31  F   UNL A   1      37.774  22.209  26.004  1.00  0.00    -0.166 F 
ATOM     32  F   UNL A   1      37.382  22.224  23.866  1.00  0.00    -0.166 F 
ENDBRANCH  23  29
ENDBRANCH  17  19
ENDBRANCH  15  17
ENDBRANCH   3   5
ENDBRANCH   2   3
ENDBRANCH   1   2
BRANCH   1  33
ATOM     33  C   UNL A   1      32.824  29.873  26.576  1.00  0.00     0.275 C 
BRANCH  33  34
ATOM     34  O   UNL A   1      33.782  29.538  27.595  1.00  0.00    -0.458 OA
BRANCH  34  35
ATOM     35  C   UNL A   1      34.465  30.587  28.107  1.00  0.00     0.338 C 
ATOM     36  O   UNL A   1      33.993  31.642  28.519  1.00  0.00    -0.246 OA
BRANCH  35  37
ATOM     37  C   UNL A   1      35.873  30.219  28.291  1.00  0.00     0.060 A 
ATOM     38  C   UNL A   1      36.261  29.814  29.567  1.00  0.00     0.016 A 
ATOM     39  C   UNL A   1      36.815  30.319  27.271  1.00  0.00     0.016 A 
ATOM     40  C   UNL A   1      37.581  29.508  29.848  1.00  0.00     0.010 A 
ATOM     41  C   UNL A   1      38.150  29.996  27.547  1.00  0.00     0.010 A 
ATOM     42  C   UNL A   1      38.536  29.587  28.838  1.00  0.00    -0.014 A 
BRANCH  42  43
ATOM     43  C   UNL A   1      39.942  29.252  29.151  1.00  0.00     0.031 A 
ATOM     44  C   UNL A   1      40.833  30.290  29.762  1.00  0.00     0.074 A 
ATOM     45  C   UNL A   1      40.393  28.004  28.922  1.00  0.00     0.049 A 
ATOM     46  N   UNL A   1      42.122  30.248  29.968  1.00  0.00    -0.248 NA
ATOM     47  C   UNL A   1      40.188  31.537  30.205  1.00  0.00     0.031 C 
ATOM     48  C   UNL A   1      39.582  26.885  28.436  1.00  0.00     0.029 A 
ATOM     49  N   UNL A   1      41.647  27.467  29.069  1.00  0.00    -0.354 N 
ATOM     50  C   UNL A   1      42.451  31.472  30.536  1.00  0.00     0.074 A 
ATOM     51  C   UNL A   1      41.227  32.237  30.641  1.00  0.00     0.031 C 
ATOM     52  C   UNL A   1      40.360  25.797  28.320  1.00  0.00     0.029 A 
ATOM     53  C   UNL A   1      41.733  26.160  28.653  1.00  0.00     0.049 A 
ATOM     54  H   UNL A   1      42.410  27.969  29.436  1.00  0.00     0.167 HD
ATOM     55  C   UNL A   1      43.670  31.914  30.925  1.00  0.00     0.031 A 
ATOM     56  C   UNL A   1      42.808  25.363  28.503  1.00  0.00     0.031 A 
ATOM     57  C   UNL A   1      44.875  31.135  30.813  1.00  0.00     0.049 A 
ATOM     58  C   UNL A   1      44.168  25.921  28.821  1.00  0.00     0.074 A 
ATOM     59  C   UNL A   1      46.166  31.490  31.160  1.00  0.00     0.029 A 
ATOM     60  N   UNL A   1      44.935  29.843  30.312  1.00  0.00    -0.354 N 
ATOM     61  N   UNL A   1      44.480  27.097  29.312  1.00  0.00    -0.248 NA
ATOM     62  C   UNL A   1      45.322  25.056  28.543  1.00  0.00     0.031 C 
ATOM     63  C   UNL A   1      47.014  30.431  30.818  1.00  0.00     0.029 A 
ATOM     64  C   UNL A   1      46.245  29.397  30.307  1.00  0.00     0.049 A 
ATOM     65  H   UNL A   1      44.160  29.320  30.004  1.00  0.00     0.167 HD
ATOM     66  C   UNL A   1      45.866  27.112  29.408  1.00  0.00     0.074 A 
ATOM     67  C   UNL A   1      46.330  25.820  28.943  1.00  0.00     0.031 C 
ATOM     68  C   UNL A   1      46.681  28.108  29.834  1.00  0.00     0.031 A 
BRANCH  55  69
ATOM     69  C   UNL A   1      43.768  33.319  31.451  1.00  0.00    -0.014 A 
ATOM     70  C   UNL A   1      43.886  34.421  30.585  1.00  0.00     0.010 A 
ATOM     71  C   UNL A   1      43.708  33.541  32.839  1.00  0.00     0.010 A 
ATOM     72  C   UNL A   1      43.974  35.717  31.102  1.00  0.00     0.020 A 
ATOM     73  C   UNL A   1      43.773  34.837  33.358  1.00  0.00     0.020 A 
ATOM     74  C   UNL A   1      43.921  35.917  32.485  1.00  0.00     0.054 A 
BRANCH  74  75
ATOM     75  S   UNL A   1      44.017  37.611  33.127  1.00  0.00     0.124 S 
ATOM     76  O   UNL A   1      45.310  37.601  33.808  1.00  0.00    -0.237 OA
ATOM     77  O   UNL A   1      43.953  38.420  31.913  1.00  0.00    -0.237 OA
ATOM     78  O   UNL A   1      42.853  37.716  34.005  1.00  0.00    -0.744 OA
ENDBRANCH  74  75
ENDBRANCH  55  69
BRANCH  56  79
ATOM     79  C   UNL A   1      42.648  23.991  27.950  1.00  0.00    -0.014 A 
ATOM     80  C   UNL A   1      42.397  22.898  28.797  1.00  0.00     0.010 A 
ATOM     81  C   UNL A   1      42.741  23.773  26.562  1.00  0.00     0.010 A 
ATOM     82  C   UNL A   1      42.254  21.611  28.267  1.00  0.00     0.020 A 
ATOM     83  C   UNL A   1      42.572  22.494  26.026  1.00  0.00     0.020 A 
ATOM     84  C   UNL A   1      42.343  21.418  26.884  1.00  0.00     0.054 A 
BRANCH  84  85
ATOM     85  S   UNL A   1      42.113  19.747  26.213  1.00  0.00     0.124 S 
ATOM     86  O   UNL A   1      42.480  18.911  27.351  1.00  0.00    -0.237 OA
ATOM     87  O   UNL A   1      40.696  19.742  25.855  1.00  0.00    -0.237 OA
ATOM     88  O   UNL A   1      43.034  19.705  25.080  1.00  0.00    -0.744 OA
ENDBRANCH  84  85
ENDBRANCH  56  79
BRANCH  68  89
ATOM     89  C   UNL A   1      48.160  27.836  29.830  1.00  0.00    -0.014 A 
ATOM     90  C   UNL A   1      48.793  27.286  30.958  1.00  0.00     0.010 A 
ATOM     91  C   UNL A   1      48.906  28.059  28.658  1.00  0.00     0.010 A 
ATOM     92  C   UNL A   1      50.152  26.974  30.918  1.00  0.00     0.020 A 
ATOM     93  C   UNL A   1      50.261  27.725  28.608  1.00  0.00     0.020 A 
ATOM     94  C   UNL A   1      50.877  27.191  29.742  1.00  0.00     0.054 A 
BRANCH  94  95
ATOM     95  S   UNL A   1      52.624  26.706  29.693  1.00  0.00     0.124 S 
ATOM     96  O   UNL A   1      52.727  25.821  30.849  1.00  0.00    -0.237 OA
ATOM     97  O   UNL A   1      52.740  26.055  28.390  1.00  0.00    -0.237 OA
ATOM     98  O   UNL A   1      53.340  27.975  29.813  1.00  0.00    -0.744 OA
ENDBRANCH  94  95
ENDBRANCH  68  89
ENDBRANCH  42  43
ENDBRANCH  35  37
ENDBRANCH  34  35
ENDBRANCH  33  34
ENDBRANCH   1  33
TORSDOF 18
ENDMDL
