MODEL 1
REMARK VINA RESULT:      -9.7      0.000      0.000
REMARK SMILES CC(C)C[C@H](CNC(=O)c1cc(F)ccc1Br)C(=O)OCCOC(=O)c1ccc(-c2c3nc(c(-c4ccc(S(=O)(=O)[O-])cc4)c4ccc([nH]4)c(-c4ccc(S(=O)(=O)[O-])cc4)c4nc(c(-c5ccc(S(=O)(=O)[O-])cc5)c5ccc2[nH]5)C=C4)C=C3)cc1
REMARK SMILES IDX 21 1 20 2 18 3 19 4 5 5 4 6 2 7 1 8 3 9 6 10 7 11 8 12 9 14
REMARK SMILES IDX 10 15 11 16 16 17 12 18 15 19 17 20 13 21 14 22 22 23 23 24
REMARK SMILES IDX 24 25 25 26 26 27 27 28 85 29 28 30 84 31 29 32 30 33 31 34
REMARK SMILES IDX 78 35 32 36 83 37 77 38 79 39 33 40 82 41 76 42 75 43 34 45
REMARK SMILES IDX 64 46 45 47 63 48 46 49 49 50 62 51 80 52 47 53 48 54 61 56
REMARK SMILES IDX 81 57 50 58 35 59 36 60 44 61 37 62 43 63 38 64 39 65 40 66
REMARK SMILES IDX 41 67 42 68 65 69 66 70 74 71 67 72 73 73 68 74 69 75 70 76
REMARK SMILES IDX 71 77 72 78 51 79 52 80 60 81 53 82 59 83 54 84 55 85 56 86
REMARK SMILES IDX 57 87 58 88
REMARK H PARENT 7 13 79 44 49 55
REMARK Flexibility Score: inf
ROOT
ATOM      1  C   UNL A   1      32.038  29.567  26.509  1.00  0.00     0.274 C 
ENDROOT
BRANCH   1   2
ATOM      2  O   UNL A   1      32.560  28.347  25.942  1.00  0.00    -0.462 OA
BRANCH   2   3
ATOM      3  C   UNL A   1      32.088  27.192  26.482  1.00  0.00     0.310 C 
ATOM      4  O   UNL A   1      31.205  27.136  27.330  1.00  0.00    -0.252 OA
BRANCH   3   5
ATOM      5  C   UNL A   1      32.761  25.948  25.939  1.00  0.00     0.118 C 
BRANCH   5   6
ATOM      6  C   UNL A   1      33.713  26.129  24.743  1.00  0.00     0.020 C 
BRANCH   6   7
ATOM      7  C   UNL A   1      33.261  25.701  23.335  1.00  0.00    -0.017 C 
ATOM      8  C   UNL A   1      33.356  26.829  22.301  1.00  0.00     0.007 C 
ATOM      9  C   UNL A   1      34.161  24.548  22.870  1.00  0.00     0.007 C 
ENDBRANCH   6   7
ENDBRANCH   5   6
BRANCH   5  10
ATOM     10  C   UNL A   1      31.828  24.738  25.798  1.00  0.00     0.131 C 
BRANCH  10  11
ATOM     11  N   UNL A   1      31.829  23.833  26.935  1.00  0.00    -0.351 N 
ATOM     12  C   UNL A   1      32.759  22.897  27.306  1.00  0.00     0.252 C 
ATOM     13  H   UNL A   1      31.046  23.902  27.527  1.00  0.00     0.163 HD
ATOM     14  O   UNL A   1      32.639  22.276  28.358  1.00  0.00    -0.269 OA
BRANCH  12  15
ATOM     15  C   UNL A   1      33.925  22.640  26.438  1.00  0.00     0.056 A 
ATOM     16  C   UNL A   1      35.116  23.334  26.693  1.00  0.00     0.054 A 
ATOM     17  C   UNL A   1      33.870  21.693  25.407  1.00  0.00     0.030 A 
ATOM     18  C   UNL A   1      36.224  23.101  25.888  1.00  0.00     0.124 A 
ATOM     19  C   UNL A   1      35.002  21.462  24.615  1.00  0.00     0.019 A 
ATOM     20  Br  UNL A   1      32.301  20.711  24.989  1.00  0.00    -0.050 Br
ATOM     21  F   UNL A   1      37.355  23.782  26.110  1.00  0.00    -0.207 F 
ATOM     22  C   UNL A   1      36.179  22.174  24.853  1.00  0.00     0.040 A 
ENDBRANCH  12  15
ENDBRANCH  10  11
ENDBRANCH   5  10
ENDBRANCH   3   5
ENDBRANCH   2   3
ENDBRANCH   1   2
BRANCH   1  23
ATOM     23  C   UNL A   1      33.141  30.574  26.858  1.00  0.00     0.275 C 
BRANCH  23  24
ATOM     24  O   UNL A   1      34.242  29.958  27.551  1.00  0.00    -0.458 OA
BRANCH  24  25
ATOM     25  C   UNL A   1      34.943  30.783  28.364  1.00  0.00     0.338 C 
ATOM     26  O   UNL A   1      34.513  31.737  28.989  1.00  0.00    -0.246 OA
BRANCH  25  27
ATOM     27  C   UNL A   1      36.312  30.275  28.530  1.00  0.00     0.060 A 
ATOM     28  C   UNL A   1      36.736  29.941  29.819  1.00  0.00     0.016 A 
ATOM     29  C   UNL A   1      37.194  30.200  27.453  1.00  0.00     0.016 A 
ATOM     30  C   UNL A   1      38.039  29.520  30.047  1.00  0.00     0.010 A 
ATOM     31  C   UNL A   1      38.509  29.784  27.682  1.00  0.00     0.010 A 
ATOM     32  C   UNL A   1      38.938  29.448  28.979  1.00  0.00    -0.014 A 
BRANCH  32  33
ATOM     33  C   UNL A   1      40.347  29.077  29.227  1.00  0.00     0.031 A 
ATOM     34  C   UNL A   1      41.306  30.118  29.718  1.00  0.00     0.074 A 
ATOM     35  C   UNL A   1      40.757  27.817  29.001  1.00  0.00     0.049 A 
ATOM     36  N   UNL A   1      42.603  30.048  29.849  1.00  0.00    -0.248 NA
ATOM     37  C   UNL A   1      40.726  31.413  30.107  1.00  0.00     0.031 C 
ATOM     38  C   UNL A   1      39.896  26.709  28.585  1.00  0.00     0.029 A 
ATOM     39  N   UNL A   1      42.010  27.263  29.069  1.00  0.00    -0.354 N 
ATOM     40  C   UNL A   1      43.004  31.300  30.298  1.00  0.00     0.074 A 
ATOM     41  C   UNL A   1      41.810  32.109  30.420  1.00  0.00     0.031 C 
ATOM     42  C   UNL A   1      40.651  25.613  28.407  1.00  0.00     0.029 A 
ATOM     43  C   UNL A   1      42.051  25.957  28.644  1.00  0.00     0.049 A 
ATOM     44  H   UNL A   1      42.801  27.753  29.389  1.00  0.00     0.167 HD
ATOM     45  C   UNL A   1      44.257  31.734  30.570  1.00  0.00     0.031 A 
ATOM     46  C   UNL A   1      43.102  25.145  28.420  1.00  0.00     0.031 A 
ATOM     47  C   UNL A   1      45.433  30.918  30.438  1.00  0.00     0.049 A 
ATOM     48  C   UNL A   1      44.490  25.664  28.669  1.00  0.00     0.074 A 
ATOM     49  C   UNL A   1      46.750  31.254  30.698  1.00  0.00     0.029 A 
ATOM     50  N   UNL A   1      45.435  29.602  29.998  1.00  0.00    -0.354 N 
ATOM     51  N   UNL A   1      44.860  26.850  29.093  1.00  0.00    -0.248 NA
ATOM     52  C   UNL A   1      45.604  24.741  28.410  1.00  0.00     0.031 C 
ATOM     53  C   UNL A   1      47.552  30.156  30.369  1.00  0.00     0.029 A 
ATOM     54  C   UNL A   1      46.731  29.119  29.954  1.00  0.00     0.049 A 
ATOM     55  H   UNL A   1      44.632  29.087  29.753  1.00  0.00     0.167 HD
ATOM     56  C   UNL A   1      46.247  26.812  29.165  1.00  0.00     0.074 A 
ATOM     57  C   UNL A   1      46.650  25.482  28.752  1.00  0.00     0.031 C 
ATOM     58  C   UNL A   1      47.108  27.790  29.541  1.00  0.00     0.031 A 
BRANCH  45  59
ATOM     59  C   UNL A   1      44.414  33.176  30.970  1.00  0.00    -0.014 A 
ATOM     60  C   UNL A   1      44.303  33.584  32.312  1.00  0.00     0.010 A 
ATOM     61  C   UNL A   1      44.672  34.141  29.980  1.00  0.00     0.010 A 
ATOM     62  C   UNL A   1      44.393  34.938  32.647  1.00  0.00     0.020 A 
ATOM     63  C   UNL A   1      44.788  35.492  30.314  1.00  0.00     0.020 A 
ATOM     64  C   UNL A   1      44.623  35.885  31.643  1.00  0.00     0.054 A 
BRANCH  64  65
ATOM     65  S   UNL A   1      44.720  37.639  32.099  1.00  0.00     0.124 S 
ATOM     66  O   UNL A   1      46.144  37.914  31.927  1.00  0.00    -0.237 OA
ATOM     67  O   UNL A   1      43.835  38.274  31.126  1.00  0.00    -0.237 OA
ATOM     68  O   UNL A   1      44.242  37.664  33.479  1.00  0.00    -0.744 OA
ENDBRANCH  64  65
ENDBRANCH  45  59
BRANCH  46  69
ATOM     69  C   UNL A   1      42.866  23.779  27.879  1.00  0.00    -0.014 A 
ATOM     70  C   UNL A   1      42.623  22.696  28.738  1.00  0.00     0.010 A 
ATOM     71  C   UNL A   1      42.827  23.573  26.486  1.00  0.00     0.010 A 
ATOM     72  C   UNL A   1      42.338  21.431  28.216  1.00  0.00     0.020 A 
ATOM     73  C   UNL A   1      42.517  22.316  25.961  1.00  0.00     0.020 A 
ATOM     74  C   UNL A   1      42.279  21.250  26.830  1.00  0.00     0.054 A 
BRANCH  74  75
ATOM     75  S   UNL A   1      41.818  19.622  26.175  1.00  0.00     0.124 S 
ATOM     76  O   UNL A   1      42.621  19.545  24.959  1.00  0.00    -0.237 OA
ATOM     77  O   UNL A   1      42.216  18.721  27.255  1.00  0.00    -0.237 OA
ATOM     78  O   UNL A   1      40.376  19.733  25.969  1.00  0.00    -0.744 OA
ENDBRANCH  74  75
ENDBRANCH  46  69
BRANCH  58  79
ATOM     79  C   UNL A   1      48.574  27.456  29.556  1.00  0.00    -0.014 A 
ATOM     80  C   UNL A   1      49.393  27.738  28.449  1.00  0.00     0.010 A 
ATOM     81  C   UNL A   1      49.154  26.939  30.729  1.00  0.00     0.010 A 
ATOM     82  C   UNL A   1      50.769  27.502  28.515  1.00  0.00     0.020 A 
ATOM     83  C   UNL A   1      50.531  26.722  30.805  1.00  0.00     0.020 A 
ATOM     84  C   UNL A   1      51.330  26.999  29.694  1.00  0.00     0.054 A 
BRANCH  84  85
ATOM     85  S   UNL A   1      53.128  26.776  29.782  1.00  0.00     0.124 S 
ATOM     86  O   UNL A   1      53.264  25.840  30.895  1.00  0.00    -0.237 OA
ATOM     87  O   UNL A   1      53.452  26.236  28.464  1.00  0.00    -0.237 OA
ATOM     88  O   UNL A   1      53.631  28.124  30.037  1.00  0.00    -0.744 OA
ENDBRANCH  84  85
ENDBRANCH  58  79
ENDBRANCH  32  33
ENDBRANCH  25  27
ENDBRANCH  24  25
ENDBRANCH  23  24
ENDBRANCH   1  23
TORSDOF 19
ENDMDL
MODEL 2
REMARK VINA RESULT:      -9.5      1.608      2.170
REMARK SMILES CC(C)C[C@H](CNC(=O)c1cc(F)ccc1Br)C(=O)OCCOC(=O)c1ccc(-c2c3nc(c(-c4ccc(S(=O)(=O)[O-])cc4)c4ccc([nH]4)c(-c4ccc(S(=O)(=O)[O-])cc4)c4nc(c(-c5ccc(S(=O)(=O)[O-])cc5)c5ccc2[nH]5)C=C4)C=C3)cc1
REMARK SMILES IDX 21 1 20 2 18 3 19 4 5 5 4 6 2 7 1 8 3 9 6 10 7 11 8 12 9 14
REMARK SMILES IDX 10 15 11 16 16 17 12 18 15 19 17 20 13 21 14 22 22 23 23 24
REMARK SMILES IDX 24 25 25 26 26 27 27 28 85 29 28 30 84 31 29 32 30 33 31 34
REMARK SMILES IDX 78 35 32 36 83 37 77 38 79 39 33 40 82 41 76 42 75 43 34 45
REMARK SMILES IDX 64 46 45 47 63 48 46 49 49 50 62 51 80 52 47 53 48 54 61 56
REMARK SMILES IDX 81 57 50 58 35 59 36 60 44 61 37 62 43 63 38 64 39 65 40 66
REMARK SMILES IDX 41 67 42 68 65 69 66 70 74 71 67 72 73 73 68 74 69 75 70 76
REMARK SMILES IDX 71 77 72 78 51 79 52 80 60 81 53 82 59 83 54 84 55 85 56 86
REMARK SMILES IDX 57 87 58 88
REMARK H PARENT 7 13 79 44 49 55
REMARK Flexibility Score: inf
ROOT
ATOM      1  C   UNL A   1      32.063  29.288  26.292  1.00  0.00     0.274 C 
ENDROOT
BRANCH   1   2
ATOM      2  O   UNL A   1      31.744  28.896  24.941  1.00  0.00    -0.462 OA
BRANCH   2   3
ATOM      3  C   UNL A   1      31.206  27.656  24.794  1.00  0.00     0.310 C 
ATOM      4  O   UNL A   1      30.740  26.991  25.713  1.00  0.00    -0.252 OA
BRANCH   3   5
ATOM      5  C   UNL A   1      31.231  27.149  23.367  1.00  0.00     0.118 C 
BRANCH   5   6
ATOM      6  C   UNL A   1      30.231  27.777  22.379  1.00  0.00     0.020 C 
BRANCH   6   7
ATOM      7  C   UNL A   1      29.350  28.956  22.831  1.00  0.00    -0.017 C 
ATOM      8  C   UNL A   1      29.325  30.111  21.823  1.00  0.00     0.007 C 
ATOM      9  C   UNL A   1      27.913  28.443  23.007  1.00  0.00     0.007 C 
ENDBRANCH   6   7
ENDBRANCH   5   6
BRANCH   5  10
ATOM     10  C   UNL A   1      31.334  25.623  23.243  1.00  0.00     0.131 C 
BRANCH  10  11
ATOM     11  N   UNL A   1      31.989  25.152  22.034  1.00  0.00    -0.351 N 
ATOM     12  C   UNL A   1      32.984  24.221  21.885  1.00  0.00     0.252 C 
ATOM     13  H   UNL A   1      31.672  25.563  21.198  1.00  0.00     0.163 HD
ATOM     14  O   UNL A   1      33.360  23.878  20.769  1.00  0.00    -0.269 OA
BRANCH  12  15
ATOM     15  C   UNL A   1      33.602  23.614  23.080  1.00  0.00     0.056 A 
ATOM     16  C   UNL A   1      34.518  24.374  23.820  1.00  0.00     0.054 A 
ATOM     17  C   UNL A   1      33.256  22.324  23.502  1.00  0.00     0.030 A 
ATOM     18  C   UNL A   1      35.106  23.819  24.950  1.00  0.00     0.124 A 
ATOM     19  C   UNL A   1      33.850  21.786  24.652  1.00  0.00     0.019 A 
ATOM     20  Br  UNL A   1      32.029  21.223  22.561  1.00  0.00    -0.050 Br
ATOM     21  F   UNL A   1      36.003  24.530  25.644  1.00  0.00    -0.207 F 
ATOM     22  C   UNL A   1      34.782  22.535  25.372  1.00  0.00     0.040 A 
ENDBRANCH  12  15
ENDBRANCH  10  11
ENDBRANCH   5  10
ENDBRANCH   3   5
ENDBRANCH   2   3
ENDBRANCH   1   2
BRANCH   1  23
ATOM     23  C   UNL A   1      33.572  29.276  26.568  1.00  0.00     0.275 C 
BRANCH  23  24
ATOM     24  O   UNL A   1      33.873  29.443  27.965  1.00  0.00    -0.458 OA
BRANCH  24  25
ATOM     25  C   UNL A   1      34.698  30.475  28.257  1.00  0.00     0.338 C 
ATOM     26  O   UNL A   1      34.376  31.625  28.502  1.00  0.00    -0.246 OA
BRANCH  25  27
ATOM     27  C   UNL A   1      36.077  29.987  28.399  1.00  0.00     0.060 A 
ATOM     28  C   UNL A   1      36.477  29.505  29.648  1.00  0.00     0.016 A 
ATOM     29  C   UNL A   1      36.989  30.072  27.347  1.00  0.00     0.016 A 
ATOM     30  C   UNL A   1      37.786  29.094  29.861  1.00  0.00     0.010 A 
ATOM     31  C   UNL A   1      38.309  29.666  27.562  1.00  0.00     0.010 A 
ATOM     32  C   UNL A   1      38.714  29.182  28.820  1.00  0.00    -0.014 A 
BRANCH  32  33
ATOM     33  C   UNL A   1      40.127  28.820  29.062  1.00  0.00     0.031 A 
ATOM     34  C   UNL A   1      41.075  29.862  29.572  1.00  0.00     0.074 A 
ATOM     35  C   UNL A   1      40.550  27.568  28.812  1.00  0.00     0.049 A 
ATOM     36  N   UNL A   1      42.373  29.802  29.702  1.00  0.00    -0.248 NA
ATOM     37  C   UNL A   1      40.482  31.143  29.986  1.00  0.00     0.031 C 
ATOM     38  C   UNL A   1      39.701  26.460  28.374  1.00  0.00     0.029 A 
ATOM     39  N   UNL A   1      41.809  27.026  28.870  1.00  0.00    -0.354 N 
ATOM     40  C   UNL A   1      42.760  31.049  30.176  1.00  0.00     0.074 A 
ATOM     41  C   UNL A   1      41.559  31.843  30.312  1.00  0.00     0.031 C 
ATOM     42  C   UNL A   1      40.467  25.375  28.176  1.00  0.00     0.029 A 
ATOM     43  C   UNL A   1      41.863  25.729  28.420  1.00  0.00     0.049 A 
ATOM     44  H   UNL A   1      42.595  27.518  29.199  1.00  0.00     0.167 HD
ATOM     45  C   UNL A   1      44.009  31.491  30.456  1.00  0.00     0.031 A 
ATOM     46  C   UNL A   1      42.922  24.933  28.181  1.00  0.00     0.031 A 
ATOM     47  C   UNL A   1      45.194  30.689  30.309  1.00  0.00     0.049 A 
ATOM     48  C   UNL A   1      44.305  25.460  28.441  1.00  0.00     0.074 A 
ATOM     49  C   UNL A   1      46.507  31.034  30.576  1.00  0.00     0.029 A 
ATOM     50  N   UNL A   1      45.209  29.382  29.845  1.00  0.00    -0.354 N 
ATOM     51  N   UNL A   1      44.662  26.642  28.887  1.00  0.00    -0.248 NA
ATOM     52  C   UNL A   1      45.428  24.554  28.165  1.00  0.00     0.031 C 
ATOM     53  C   UNL A   1      47.320  29.950  30.227  1.00  0.00     0.029 A 
ATOM     54  C   UNL A   1      46.510  28.913  29.793  1.00  0.00     0.049 A 
ATOM     55  H   UNL A   1      44.412  28.864  29.590  1.00  0.00     0.167 HD
ATOM     56  C   UNL A   1      46.050  26.617  28.959  1.00  0.00     0.074 A 
ATOM     57  C   UNL A   1      46.466  25.299  28.522  1.00  0.00     0.031 C 
ATOM     58  C   UNL A   1      46.901  27.596  29.355  1.00  0.00     0.031 A 
BRANCH  45  59
ATOM     59  C   UNL A   1      44.151  32.927  30.884  1.00  0.00    -0.014 A 
ATOM     60  C   UNL A   1      44.313  33.962  29.946  1.00  0.00     0.010 A 
ATOM     61  C   UNL A   1      44.126  33.242  32.255  1.00  0.00     0.010 A 
ATOM     62  C   UNL A   1      44.503  35.279  30.374  1.00  0.00     0.020 A 
ATOM     63  C   UNL A   1      44.290  34.561  32.686  1.00  0.00     0.020 A 
ATOM     64  C   UNL A   1      44.503  35.568  31.742  1.00  0.00     0.054 A 
BRANCH  64  65
ATOM     65  S   UNL A   1      44.768  37.281  32.276  1.00  0.00     0.124 S 
ATOM     66  O   UNL A   1      44.949  37.967  30.999  1.00  0.00    -0.237 OA
ATOM     67  O   UNL A   1      43.530  37.594  32.984  1.00  0.00    -0.237 OA
ATOM     68  O   UNL A   1      45.959  37.202  33.116  1.00  0.00    -0.744 OA
ENDBRANCH  64  65
ENDBRANCH  45  59
BRANCH  46  69
ATOM     69  C   UNL A   1      42.700  23.575  27.615  1.00  0.00    -0.014 A 
ATOM     70  C   UNL A   1      42.863  23.331  26.241  1.00  0.00     0.010 A 
ATOM     71  C   UNL A   1      42.381  22.501  28.468  1.00  0.00     0.010 A 
ATOM     72  C   UNL A   1      42.715  22.038  25.731  1.00  0.00     0.020 A 
ATOM     73  C   UNL A   1      42.258  21.204  27.966  1.00  0.00     0.020 A 
ATOM     74  C   UNL A   1      42.422  20.980  26.598  1.00  0.00     0.054 A 
BRANCH  74  75
ATOM     75  S   UNL A   1      42.325  19.296  25.930  1.00  0.00     0.124 S 
ATOM     76  O   UNL A   1      43.156  19.395  24.735  1.00  0.00    -0.237 OA
ATOM     77  O   UNL A   1      42.875  18.491  27.019  1.00  0.00    -0.237 OA
ATOM     78  O   UNL A   1      40.897  19.106  25.688  1.00  0.00    -0.744 OA
ENDBRANCH  74  75
ENDBRANCH  46  69
BRANCH  58  79
ATOM     79  C   UNL A   1      48.370  27.277  29.364  1.00  0.00    -0.014 A 
ATOM     80  C   UNL A   1      49.187  27.588  28.263  1.00  0.00     0.010 A 
ATOM     81  C   UNL A   1      48.955  26.744  30.528  1.00  0.00     0.010 A 
ATOM     82  C   UNL A   1      50.565  27.365  28.325  1.00  0.00     0.020 A 
ATOM     83  C   UNL A   1      50.334  26.540  30.600  1.00  0.00     0.020 A 
ATOM     84  C   UNL A   1      51.130  26.845  29.495  1.00  0.00     0.054 A 
BRANCH  84  85
ATOM     85  S   UNL A   1      52.931  26.640  29.580  1.00  0.00     0.124 S 
ATOM     86  O   UNL A   1      53.226  26.021  28.289  1.00  0.00    -0.237 OA
ATOM     87  O   UNL A   1      53.405  28.012  29.742  1.00  0.00    -0.237 OA
ATOM     88  O   UNL A   1      53.126  25.777  30.743  1.00  0.00    -0.744 OA
ENDBRANCH  84  85
ENDBRANCH  58  79
ENDBRANCH  32  33
ENDBRANCH  25  27
ENDBRANCH  24  25
ENDBRANCH  23  24
ENDBRANCH   1  23
TORSDOF 19
ENDMDL
MODEL 3
REMARK VINA RESULT:      -9.4      2.131      2.658
REMARK SMILES CC(C)C[C@H](CNC(=O)c1cc(F)ccc1Br)C(=O)OCCOC(=O)c1ccc(-c2c3nc(c(-c4ccc(S(=O)(=O)[O-])cc4)c4ccc([nH]4)c(-c4ccc(S(=O)(=O)[O-])cc4)c4nc(c(-c5ccc(S(=O)(=O)[O-])cc5)c5ccc2[nH]5)C=C4)C=C3)cc1
REMARK SMILES IDX 21 1 20 2 18 3 19 4 5 5 4 6 2 7 1 8 3 9 6 10 7 11 8 12 9 14
REMARK SMILES IDX 10 15 11 16 16 17 12 18 15 19 17 20 13 21 14 22 22 23 23 24
REMARK SMILES IDX 24 25 25 26 26 27 27 28 85 29 28 30 84 31 29 32 30 33 31 34
REMARK SMILES IDX 78 35 32 36 83 37 77 38 79 39 33 40 82 41 76 42 75 43 34 45
REMARK SMILES IDX 64 46 45 47 63 48 46 49 49 50 62 51 80 52 47 53 48 54 61 56
REMARK SMILES IDX 81 57 50 58 35 59 36 60 44 61 37 62 43 63 38 64 39 65 40 66
REMARK SMILES IDX 41 67 42 68 65 69 66 70 74 71 67 72 73 73 68 74 69 75 70 76
REMARK SMILES IDX 71 77 72 78 51 79 52 80 60 81 53 82 59 83 54 84 55 85 56 86
REMARK SMILES IDX 57 87 58 88
REMARK H PARENT 7 13 79 44 49 55
REMARK Flexibility Score: inf
ROOT
ATOM      1  C   UNL A   1      33.203  30.182  27.129  1.00  0.00     0.274 C 
ENDROOT
BRANCH   1   2
ATOM      2  O   UNL A   1      33.368  29.679  25.787  1.00  0.00    -0.462 OA
BRANCH   2   3
ATOM      3  C   UNL A   1      33.400  28.326  25.659  1.00  0.00     0.310 C 
ATOM      4  O   UNL A   1      34.056  27.579  26.377  1.00  0.00    -0.252 OA
BRANCH   3   5
ATOM      5  C   UNL A   1      32.538  27.802  24.529  1.00  0.00     0.118 C 
BRANCH   5   6
ATOM      6  C   UNL A   1      31.030  28.107  24.595  1.00  0.00     0.020 C 
BRANCH   6   7
ATOM      7  C   UNL A   1      30.191  28.087  23.305  1.00  0.00    -0.017 C 
ATOM      8  C   UNL A   1      28.807  27.455  23.493  1.00  0.00     0.007 C 
ATOM      9  C   UNL A   1      29.995  29.537  22.837  1.00  0.00     0.007 C 
ENDBRANCH   6   7
ENDBRANCH   5   6
BRANCH   5  10
ATOM     10  C   UNL A   1      32.851  26.358  24.116  1.00  0.00     0.131 C 
BRANCH  10  11
ATOM     11  N   UNL A   1      32.400  25.344  25.055  1.00  0.00    -0.351 N 
ATOM     12  C   UNL A   1      33.029  24.199  25.473  1.00  0.00     0.252 C 
ATOM     13  H   UNL A   1      31.513  25.502  25.449  1.00  0.00     0.163 HD
ATOM     14  O   UNL A   1      32.534  23.497  26.349  1.00  0.00    -0.269 OA
BRANCH  12  15
ATOM     15  C   UNL A   1      34.320  23.813  24.873  1.00  0.00     0.056 A 
ATOM     16  C   UNL A   1      35.500  24.120  25.565  1.00  0.00     0.054 A 
ATOM     17  C   UNL A   1      34.379  23.114  23.660  1.00  0.00     0.030 A 
ATOM     18  C   UNL A   1      36.724  23.760  25.016  1.00  0.00     0.124 A 
ATOM     19  C   UNL A   1      35.623  22.747  23.129  1.00  0.00     0.019 A 
ATOM     20  Br  UNL A   1      32.835  22.659  22.654  1.00  0.00    -0.050 Br
ATOM     21  F   UNL A   1      37.854  24.076  25.659  1.00  0.00    -0.207 F 
ATOM     22  C   UNL A   1      36.797  23.078  23.806  1.00  0.00     0.040 A 
ENDBRANCH  12  15
ENDBRANCH  10  11
ENDBRANCH   5  10
ENDBRANCH   3   5
ENDBRANCH   2   3
ENDBRANCH   1   2
BRANCH   1  23
ATOM     23  C   UNL A   1      34.468  30.865  27.662  1.00  0.00     0.275 C 
BRANCH  23  24
ATOM     24  O   UNL A   1      35.417  29.921  28.190  1.00  0.00    -0.458 OA
BRANCH  24  25
ATOM     25  C   UNL A   1      36.237  30.407  29.151  1.00  0.00     0.338 C 
ATOM     26  O   UNL A   1      35.918  31.076  30.119  1.00  0.00    -0.246 OA
BRANCH  25  27
ATOM     27  C   UNL A   1      37.595  29.877  28.964  1.00  0.00     0.060 A 
ATOM     28  C   UNL A   1      38.366  29.631  30.103  1.00  0.00     0.016 A 
ATOM     29  C   UNL A   1      38.134  29.697  27.691  1.00  0.00     0.016 A 
ATOM     30  C   UNL A   1      39.679  29.194  29.986  1.00  0.00     0.010 A 
ATOM     31  C   UNL A   1      39.459  29.266  27.571  1.00  0.00     0.010 A 
ATOM     32  C   UNL A   1      40.237  29.018  28.718  1.00  0.00    -0.014 A 
BRANCH  32  33
ATOM     33  C   UNL A   1      41.658  28.630  28.586  1.00  0.00     0.031 A 
ATOM     34  C   UNL A   1      42.718  29.686  28.658  1.00  0.00     0.074 A 
ATOM     35  C   UNL A   1      41.984  27.340  28.393  1.00  0.00     0.049 A 
ATOM     36  N   UNL A   1      43.997  29.588  28.414  1.00  0.00    -0.248 NA
ATOM     37  C   UNL A   1      42.277  31.033  29.051  1.00  0.00     0.031 C 
ATOM     38  C   UNL A   1      41.039  26.223  28.371  1.00  0.00     0.029 A 
ATOM     39  N   UNL A   1      43.203  26.756  28.156  1.00  0.00    -0.354 N 
ATOM     40  C   UNL A   1      44.511  30.867  28.585  1.00  0.00     0.074 A 
ATOM     41  C   UNL A   1      43.405  31.723  28.957  1.00  0.00     0.031 C 
ATOM     42  C   UNL A   1      41.710  25.090  28.106  1.00  0.00     0.029 A 
ATOM     43  C   UNL A   1      43.118  25.412  27.887  1.00  0.00     0.049 A 
ATOM     44  H   UNL A   1      44.053  27.251  28.176  1.00  0.00     0.167 HD
ATOM     45  C   UNL A   1      45.789  31.287  28.431  1.00  0.00     0.031 A 
ATOM     46  C   UNL A   1      44.058  24.547  27.460  1.00  0.00     0.031 A 
ATOM     47  C   UNL A   1      46.876  30.423  28.055  1.00  0.00     0.049 A 
ATOM     48  C   UNL A   1      45.458  25.043  27.236  1.00  0.00     0.074 A 
ATOM     49  C   UNL A   1      48.211  30.743  27.883  1.00  0.00     0.029 A 
ATOM     50  N   UNL A   1      46.749  29.069  27.785  1.00  0.00    -0.354 N 
ATOM     51  N   UNL A   1      45.935  26.256  27.399  1.00  0.00    -0.248 NA
ATOM     52  C   UNL A   1      46.448  24.063  26.770  1.00  0.00     0.031 C 
ATOM     53  C   UNL A   1      48.882  29.590  27.461  1.00  0.00     0.029 A 
ATOM     54  C   UNL A   1      47.976  28.542  27.421  1.00  0.00     0.049 A 
ATOM     55  H   UNL A   1      45.910  28.557  27.842  1.00  0.00     0.167 HD
ATOM     56  C   UNL A   1      47.283  26.181  27.069  1.00  0.00     0.074 A 
ATOM     57  C   UNL A   1      47.548  24.802  26.709  1.00  0.00     0.031 C 
ATOM     58  C   UNL A   1      48.216  27.164  27.068  1.00  0.00     0.031 A 
BRANCH  45  59
ATOM     59  C   UNL A   1      46.056  32.758  28.605  1.00  0.00    -0.014 A 
ATOM     60  C   UNL A   1      46.410  33.299  29.853  1.00  0.00     0.010 A 
ATOM     61  C   UNL A   1      45.943  33.613  27.493  1.00  0.00     0.010 A 
ATOM     62  C   UNL A   1      46.593  34.678  29.998  1.00  0.00     0.020 A 
ATOM     63  C   UNL A   1      46.150  34.988  27.629  1.00  0.00     0.020 A 
ATOM     64  C   UNL A   1      46.449  35.515  28.887  1.00  0.00     0.054 A 
BRANCH  64  65
ATOM     65  S   UNL A   1      46.674  37.302  29.102  1.00  0.00     0.124 S 
ATOM     66  O   UNL A   1      48.119  37.400  29.297  1.00  0.00    -0.237 OA
ATOM     67  O   UNL A   1      46.174  37.844  27.841  1.00  0.00    -0.237 OA
ATOM     68  O   UNL A   1      45.864  37.614  30.276  1.00  0.00    -0.744 OA
ENDBRANCH  64  65
ENDBRANCH  45  59
BRANCH  46  69
ATOM     69  C   UNL A   1      43.674  23.139  27.167  1.00  0.00    -0.014 A 
ATOM     70  C   UNL A   1      43.104  22.326  28.160  1.00  0.00     0.010 A 
ATOM     71  C   UNL A   1      43.828  22.626  25.864  1.00  0.00     0.010 A 
ATOM     72  C   UNL A   1      42.689  21.026  27.854  1.00  0.00     0.020 A 
ATOM     73  C   UNL A   1      43.390  21.337  25.550  1.00  0.00     0.020 A 
ATOM     74  C   UNL A   1      42.827  20.543  26.550  1.00  0.00     0.054 A 
BRANCH  74  75
ATOM     75  S   UNL A   1      42.197  18.887  26.154  1.00  0.00     0.124 S 
ATOM     76  O   UNL A   1      42.255  18.222  27.451  1.00  0.00    -0.237 OA
ATOM     77  O   UNL A   1      40.856  19.172  25.647  1.00  0.00    -0.237 OA
ATOM     78  O   UNL A   1      43.140  18.394  25.152  1.00  0.00    -0.744 OA
ENDBRANCH  74  75
ENDBRANCH  46  69
BRANCH  58  79
ATOM     79  C   UNL A   1      49.623  26.786  26.694  1.00  0.00    -0.014 A 
ATOM     80  C   UNL A   1      50.072  26.887  25.366  1.00  0.00     0.010 A 
ATOM     81  C   UNL A   1      50.531  26.416  27.703  1.00  0.00     0.010 A 
ATOM     82  C   UNL A   1      51.407  26.616  25.053  1.00  0.00     0.020 A 
ATOM     83  C   UNL A   1      51.869  26.165  27.397  1.00  0.00     0.020 A 
ATOM     84  C   UNL A   1      52.298  26.260  26.072  1.00  0.00     0.054 A 
BRANCH  84  85
ATOM     85  S   UNL A   1      54.043  25.991  25.653  1.00  0.00     0.124 S 
ATOM     86  O   UNL A   1      54.524  25.252  26.818  1.00  0.00    -0.237 OA
ATOM     87  O   UNL A   1      53.963  25.225  24.412  1.00  0.00    -0.237 OA
ATOM     88  O   UNL A   1      54.576  27.344  25.510  1.00  0.00    -0.744 OA
ENDBRANCH  84  85
ENDBRANCH  58  79
ENDBRANCH  32  33
ENDBRANCH  25  27
ENDBRANCH  24  25
ENDBRANCH  23  24
ENDBRANCH   1  23
TORSDOF 19
ENDMDL
