MODEL 1
REMARK VINA RESULT:     -10.7      0.000      0.000
REMARK SMILES CCOC(=O)c1cc(CC)sc1NC(=O)[C@H]1[C@@H]2CC[C@@H](C2)[C@@H]1C(=O)OCCOC(=O)c1ccc(-c2c3nc(c(-c4ccc(S(=O)(=O)[O-])cc4)c4ccc([nH]4)c(-c4ccc(S(=O)(=O)[O-])cc4)c4nc(c(-c5ccc(S(=O)(=O)[O-])cc5)c5ccc2[nH]5)C=C4)C=C3)cc1
REMARK SMILES IDX 26 1 25 2 23 3 24 4 22 5 16 6 17 7 18 8 21 9 20 10 19 11
REMARK SMILES IDX 14 12 13 13 15 15 12 16 6 17 7 18 8 19 11 20 4 21 5 22 3 23
REMARK SMILES IDX 2 24 1 25 9 26 10 27 27 28 28 29 29 30 30 31 31 32 32 33
REMARK SMILES IDX 90 34 33 35 89 36 34 37 35 38 36 39 83 40 37 41 88 42 82 43
REMARK SMILES IDX 84 44 38 45 87 46 81 47 80 48 39 50 69 51 50 52 68 53 51 54
REMARK SMILES IDX 54 55 67 56 85 57 52 58 53 59 66 61 86 62 55 63 40 64 41 65
REMARK SMILES IDX 49 66 42 67 48 68 43 69 44 70 45 71 46 72 47 73 70 74 71 75
REMARK SMILES IDX 79 76 72 77 78 78 73 79 74 80 75 81 76 82 77 83 56 84 57 85
REMARK SMILES IDX 65 86 58 87 64 88 59 89 60 90 61 91 62 92 63 93
REMARK H PARENT 13 14 84 49 54 60
REMARK Flexibility Score: inf
ROOT
ATOM      1  C   UNL A   1      36.016  21.249  25.139  1.00  0.00     0.274 C 
ENDROOT
BRANCH   1   2
ATOM      2  O   UNL A   1      35.576  22.040  24.015  1.00  0.00    -0.462 OA
BRANCH   2   3
ATOM      3  C   UNL A   1      35.144  23.307  24.290  1.00  0.00     0.310 C 
ATOM      4  O   UNL A   1      35.665  24.063  25.095  1.00  0.00    -0.252 OA
BRANCH   3   5
ATOM      5  C   UNL A   1      33.844  23.562  23.556  1.00  0.00     0.115 C 
ATOM      6  C   UNL A   1      33.151  24.898  23.798  1.00  0.00     0.096 C 
ATOM      7  C   UNL A   1      31.665  24.486  24.029  1.00  0.00     0.003 C 
ATOM      8  C   UNL A   1      31.523  23.801  25.405  1.00  0.00     0.005 C 
ATOM      9  C   UNL A   1      31.505  23.263  23.137  1.00  0.00     0.009 C 
ATOM     10  C   UNL A   1      32.707  22.532  23.754  1.00  0.00     0.004 C 
ATOM     11  C   UNL A   1      32.248  22.461  25.216  1.00  0.00     0.005 C 
BRANCH   6  12
ATOM     12  C   UNL A   1      33.347  26.068  22.813  1.00  0.00     0.229 C 
ATOM     13  N   UNL A   1      33.082  27.397  22.956  1.00  0.00    -0.317 N 
ATOM     14  H   UNL A   1      33.149  27.914  22.120  1.00  0.00     0.170 HD
ATOM     15  O   UNL A   1      33.937  25.791  21.752  1.00  0.00    -0.274 OA
BRANCH  13  16
ATOM     16  C   UNL A   1      32.738  28.144  24.054  1.00  0.00     0.110 A 
ATOM     17  C   UNL A   1      31.584  28.872  24.298  1.00  0.00     0.095 A 
ATOM     18  C   UNL A   1      31.850  29.786  25.388  1.00  0.00     0.033 A 
ATOM     19  C   UNL A   1      33.021  29.454  26.054  1.00  0.00     0.007 A 
ATOM     20  S   UNL A   1      33.438  27.862  25.578  1.00  0.00    -0.122 S 
BRANCH  17  21
ATOM     21  C   UNL A   1      30.388  28.740  23.472  1.00  0.00     0.341 C 
ATOM     22  O   UNL A   1      30.096  27.693  22.935  1.00  0.00    -0.246 OA
BRANCH  21  23
ATOM     23  O   UNL A   1      29.622  29.865  23.472  1.00  0.00    -0.462 OA
BRANCH  23  24
ATOM     24  C   UNL A   1      28.565  29.887  22.495  1.00  0.00     0.230 C 
ATOM     25  C   UNL A   1      27.210  29.481  23.051  1.00  0.00     0.049 C 
ENDBRANCH  23  24
ENDBRANCH  21  23
ENDBRANCH  17  21
BRANCH  19  26
ATOM     26  C   UNL A   1      33.841  30.251  27.030  1.00  0.00     0.043 C 
ATOM     27  C   UNL A   1      35.110  29.581  27.545  1.00  0.00     0.010 C 
ENDBRANCH  19  26
ENDBRANCH  13  16
ENDBRANCH   6  12
ENDBRANCH   3   5
ENDBRANCH   2   3
ENDBRANCH   1   2
BRANCH   1  28
ATOM     28  C   UNL A   1      37.525  21.039  25.095  1.00  0.00     0.275 C 
BRANCH  28  29
ATOM     29  O   UNL A   1      38.163  22.135  25.765  1.00  0.00    -0.458 OA
BRANCH  29  30
ATOM     30  C   UNL A   1      39.361  21.851  26.325  1.00  0.00     0.338 C 
ATOM     31  O   UNL A   1      39.960  20.792  26.301  1.00  0.00    -0.246 OA
BRANCH  30  32
ATOM     32  C   UNL A   1      39.902  23.075  26.930  1.00  0.00     0.060 A 
ATOM     33  C   UNL A   1      39.519  24.298  26.393  1.00  0.00     0.016 A 
ATOM     34  C   UNL A   1      40.882  23.018  27.918  1.00  0.00     0.016 A 
ATOM     35  C   UNL A   1      40.194  25.452  26.757  1.00  0.00     0.010 A 
ATOM     36  C   UNL A   1      41.486  24.205  28.357  1.00  0.00     0.010 A 
ATOM     37  C   UNL A   1      41.176  25.433  27.748  1.00  0.00    -0.014 A 
BRANCH  37  38
ATOM     38  C   UNL A   1      41.910  26.693  28.052  1.00  0.00     0.031 A 
ATOM     39  C   UNL A   1      41.211  27.807  28.784  1.00  0.00     0.074 A 
ATOM     40  C   UNL A   1      43.232  26.797  27.800  1.00  0.00     0.049 A 
ATOM     41  N   UNL A   1      41.617  29.030  29.009  1.00  0.00    -0.248 NA
ATOM     42  C   UNL A   1      39.883  27.504  29.343  1.00  0.00     0.031 C 
ATOM     43  C   UNL A   1      44.081  25.739  27.244  1.00  0.00     0.029 A 
ATOM     44  N   UNL A   1      44.110  27.828  28.029  1.00  0.00    -0.354 N 
ATOM     45  C   UNL A   1      40.572  29.661  29.675  1.00  0.00     0.074 A 
ATOM     46  C   UNL A   1      39.518  28.681  29.831  1.00  0.00     0.031 C 
ATOM     47  C   UNL A   1      45.360  26.141  27.261  1.00  0.00     0.029 A 
ATOM     48  C   UNL A   1      45.409  27.533  27.691  1.00  0.00     0.049 A 
ATOM     49  H   UNL A   1      43.834  28.697  28.402  1.00  0.00     0.167 HD
ATOM     50  C   UNL A   1      40.494  30.946  30.099  1.00  0.00     0.031 A 
ATOM     51  C   UNL A   1      46.511  28.307  27.668  1.00  0.00     0.031 A 
ATOM     52  C   UNL A   1      41.559  31.902  29.956  1.00  0.00     0.049 A 
ATOM     53  C   UNL A   1      46.369  29.761  28.012  1.00  0.00     0.074 A 
ATOM     54  C   UNL A   1      41.564  33.249  30.273  1.00  0.00     0.029 A 
ATOM     55  N   UNL A   1      42.823  31.602  29.468  1.00  0.00    -0.354 N 
ATOM     56  N   UNL A   1      45.323  30.397  28.484  1.00  0.00    -0.248 NA
ATOM     57  C   UNL A   1      47.541  30.614  27.774  1.00  0.00     0.031 C 
ATOM     58  C   UNL A   1      42.819  33.772  29.935  1.00  0.00     0.029 A 
ATOM     59  C   UNL A   1      43.611  32.740  29.458  1.00  0.00     0.049 A 
ATOM     60  H   UNL A   1      43.117  30.710  29.172  1.00  0.00     0.167 HD
ATOM     61  C   UNL A   1      45.711  31.725  28.602  1.00  0.00     0.074 A 
ATOM     62  C   UNL A   1      47.094  31.796  28.173  1.00  0.00     0.031 C 
ATOM     63  C   UNL A   1      44.985  32.791  29.022  1.00  0.00     0.031 A 
BRANCH  50  64
ATOM     64  C   UNL A   1      39.170  31.401  30.654  1.00  0.00    -0.014 A 
ATOM     65  C   UNL A   1      38.121  31.834  29.823  1.00  0.00     0.010 A 
ATOM     66  C   UNL A   1      38.992  31.429  32.049  1.00  0.00     0.010 A 
ATOM     67  C   UNL A   1      36.944  32.345  30.381  1.00  0.00     0.020 A 
ATOM     68  C   UNL A   1      37.808  31.915  32.610  1.00  0.00     0.020 A 
ATOM     69  C   UNL A   1      36.802  32.396  31.772  1.00  0.00     0.054 A 
BRANCH  69  70
ATOM     70  S   UNL A   1      35.286  33.102  32.478  1.00  0.00     0.124 S 
ATOM     71  O   UNL A   1      35.439  34.520  32.163  1.00  0.00    -0.237 OA
ATOM     72  O   UNL A   1      34.233  32.406  31.743  1.00  0.00    -0.237 OA
ATOM     73  O   UNL A   1      35.376  32.766  33.896  1.00  0.00    -0.744 OA
ENDBRANCH  69  70
ENDBRANCH  50  64
BRANCH  51  74
ATOM     74  C   UNL A   1      47.815  27.743  27.217  1.00  0.00    -0.014 A 
ATOM     75  C   UNL A   1      48.163  27.741  25.855  1.00  0.00     0.010 A 
ATOM     76  C   UNL A   1      48.729  27.224  28.154  1.00  0.00     0.010 A 
ATOM     77  C   UNL A   1      49.399  27.234  25.441  1.00  0.00     0.020 A 
ATOM     78  C   UNL A   1      49.977  26.747  27.749  1.00  0.00     0.020 A 
ATOM     79  C   UNL A   1      50.301  26.746  26.392  1.00  0.00     0.054 A 
BRANCH  79  80
ATOM     80  S   UNL A   1      51.928  26.158  25.843  1.00  0.00     0.124 S 
ATOM     81  O   UNL A   1      51.902  24.761  26.263  1.00  0.00    -0.237 OA
ATOM     82  O   UNL A   1      51.879  26.388  24.402  1.00  0.00    -0.237 OA
ATOM     83  O   UNL A   1      52.864  27.013  26.571  1.00  0.00    -0.744 OA
ENDBRANCH  79  80
ENDBRANCH  51  74
BRANCH  63  84
ATOM     84  C   UNL A   1      45.685  34.120  29.065  1.00  0.00    -0.014 A 
ATOM     85  C   UNL A   1      45.650  34.996  27.966  1.00  0.00     0.010 A 
ATOM     86  C   UNL A   1      46.352  34.512  30.239  1.00  0.00     0.010 A 
ATOM     87  C   UNL A   1      46.291  36.235  28.033  1.00  0.00     0.020 A 
ATOM     88  C   UNL A   1      46.974  35.760  30.317  1.00  0.00     0.020 A 
ATOM     89  C   UNL A   1      46.950  36.609  29.209  1.00  0.00     0.054 A 
BRANCH  89  90
ATOM     90  S   UNL A   1      47.733  38.243  29.291  1.00  0.00     0.124 S 
ATOM     91  O   UNL A   1      48.641  38.086  30.425  1.00  0.00    -0.237 OA
ATOM     92  O   UNL A   1      48.376  38.358  27.985  1.00  0.00    -0.237 OA
ATOM     93  O   UNL A   1      46.613  39.153  29.511  1.00  0.00    -0.744 OA
ENDBRANCH  89  90
ENDBRANCH  63  84
ENDBRANCH  37  38
ENDBRANCH  30  32
ENDBRANCH  29  30
ENDBRANCH  28  29
ENDBRANCH   1  28
TORSDOF 20
ENDMDL
MODEL 2
REMARK VINA RESULT:     -10.6      4.994     10.406
REMARK SMILES CCOC(=O)c1cc(CC)sc1NC(=O)[C@H]1[C@@H]2CC[C@@H](C2)[C@@H]1C(=O)OCCOC(=O)c1ccc(-c2c3nc(c(-c4ccc(S(=O)(=O)[O-])cc4)c4ccc([nH]4)c(-c4ccc(S(=O)(=O)[O-])cc4)c4nc(c(-c5ccc(S(=O)(=O)[O-])cc5)c5ccc2[nH]5)C=C4)C=C3)cc1
REMARK SMILES IDX 26 1 25 2 23 3 24 4 22 5 16 6 17 7 18 8 21 9 20 10 19 11
REMARK SMILES IDX 14 12 13 13 15 15 12 16 6 17 7 18 8 19 11 20 4 21 5 22 3 23
REMARK SMILES IDX 2 24 1 25 9 26 10 27 27 28 28 29 29 30 30 31 31 32 32 33
REMARK SMILES IDX 90 34 33 35 89 36 34 37 35 38 36 39 83 40 37 41 88 42 82 43
REMARK SMILES IDX 84 44 38 45 87 46 81 47 80 48 39 50 69 51 50 52 68 53 51 54
REMARK SMILES IDX 54 55 67 56 85 57 52 58 53 59 66 61 86 62 55 63 40 64 41 65
REMARK SMILES IDX 49 66 42 67 48 68 43 69 44 70 45 71 46 72 47 73 70 74 71 75
REMARK SMILES IDX 79 76 72 77 78 78 73 79 74 80 75 81 76 82 77 83 56 84 57 85
REMARK SMILES IDX 65 86 58 87 64 88 59 89 60 90 61 91 62 92 63 93
REMARK H PARENT 13 14 84 49 54 60
REMARK Flexibility Score: inf
ROOT
ATOM      1  C   UNL A   1      31.730  29.303  25.942  1.00  0.00     0.274 C 
ENDROOT
BRANCH   1   2
ATOM      2  O   UNL A   1      31.797  28.027  26.611  1.00  0.00    -0.462 OA
BRANCH   2   3
ATOM      3  C   UNL A   1      32.603  27.080  26.044  1.00  0.00     0.310 C 
ATOM      4  O   UNL A   1      33.791  27.228  25.803  1.00  0.00    -0.252 OA
BRANCH   3   5
ATOM      5  C   UNL A   1      31.762  25.891  25.630  1.00  0.00     0.115 C 
ATOM      6  C   UNL A   1      32.482  24.567  25.399  1.00  0.00     0.096 C 
ATOM      7  C   UNL A   1      31.877  24.070  24.050  1.00  0.00     0.003 C 
ATOM      8  C   UNL A   1      32.418  24.932  22.889  1.00  0.00     0.005 C 
ATOM      9  C   UNL A   1      30.452  24.600  24.096  1.00  0.00     0.009 C 
ATOM     10  C   UNL A   1      30.892  26.047  24.361  1.00  0.00     0.004 C 
ATOM     11  C   UNL A   1      31.744  26.295  23.110  1.00  0.00     0.005 C 
BRANCH   6  12
ATOM     12  C   UNL A   1      32.531  23.501  26.512  1.00  0.00     0.229 C 
ATOM     13  N   UNL A   1      33.333  22.409  26.654  1.00  0.00    -0.317 N 
ATOM     14  H   UNL A   1      33.058  21.797  27.375  1.00  0.00     0.170 HD
ATOM     15  O   UNL A   1      31.800  23.712  27.498  1.00  0.00    -0.274 OA
BRANCH  13  16
ATOM     16  C   UNL A   1      34.456  22.009  25.974  1.00  0.00     0.110 A 
ATOM     17  C   UNL A   1      34.641  20.912  25.148  1.00  0.00     0.095 A 
ATOM     18  C   UNL A   1      36.064  20.700  24.991  1.00  0.00     0.033 A 
ATOM     19  C   UNL A   1      36.791  21.800  25.425  1.00  0.00     0.007 A 
ATOM     20  S   UNL A   1      35.690  23.106  25.570  1.00  0.00    -0.122 S 
BRANCH  17  21
ATOM     21  C   UNL A   1      33.526  20.107  24.657  1.00  0.00     0.341 C 
ATOM     22  O   UNL A   1      32.558  20.613  24.131  1.00  0.00    -0.246 OA
BRANCH  21  23
ATOM     23  O   UNL A   1      33.756  18.771  24.762  1.00  0.00    -0.462 OA
BRANCH  23  24
ATOM     24  C   UNL A   1      33.156  17.962  23.733  1.00  0.00     0.230 C 
ATOM     25  C   UNL A   1      34.046  16.827  23.251  1.00  0.00     0.049 C 
ENDBRANCH  23  24
ENDBRANCH  21  23
ENDBRANCH  17  21
BRANCH  19  26
ATOM     26  C   UNL A   1      38.256  21.935  25.728  1.00  0.00     0.043 C 
ATOM     27  C   UNL A   1      38.680  23.220  26.433  1.00  0.00     0.010 C 
ENDBRANCH  19  26
ENDBRANCH  13  16
ENDBRANCH   6  12
ENDBRANCH   3   5
ENDBRANCH   2   3
ENDBRANCH   1   2
BRANCH   1  28
ATOM     28  C   UNL A   1      32.147  30.430  26.879  1.00  0.00     0.275 C 
BRANCH  28  29
ATOM     29  O   UNL A   1      33.513  30.224  27.268  1.00  0.00    -0.458 OA
BRANCH  29  30
ATOM     30  C   UNL A   1      34.164  31.331  27.694  1.00  0.00     0.338 C 
ATOM     31  O   UNL A   1      33.737  32.470  27.748  1.00  0.00    -0.246 OA
BRANCH  30  32
ATOM     32  C   UNL A   1      35.494  30.939  28.177  1.00  0.00     0.060 A 
ATOM     33  C   UNL A   1      35.643  29.678  28.742  1.00  0.00     0.016 A 
ATOM     34  C   UNL A   1      36.547  31.850  28.208  1.00  0.00     0.016 A 
ATOM     35  C   UNL A   1      36.800  29.366  29.437  1.00  0.00     0.010 A 
ATOM     36  C   UNL A   1      37.754  31.487  28.822  1.00  0.00     0.010 A 
ATOM     37  C   UNL A   1      37.878  30.253  29.481  1.00  0.00    -0.014 A 
BRANCH  37  38
ATOM     38  C   UNL A   1      39.070  29.888  30.296  1.00  0.00     0.031 A 
ATOM     39  C   UNL A   1      40.052  28.875  29.772  1.00  0.00     0.074 A 
ATOM     40  C   UNL A   1      39.353  30.551  31.437  1.00  0.00     0.049 A 
ATOM     41  N   UNL A   1      41.062  28.311  30.382  1.00  0.00    -0.248 NA
ATOM     42  C   UNL A   1      39.882  28.446  28.373  1.00  0.00     0.031 C 
ATOM     43  C   UNL A   1      38.581  31.671  31.988  1.00  0.00     0.029 A 
ATOM     44  N   UNL A   1      40.400  30.419  32.316  1.00  0.00    -0.354 N 
ATOM     45  C   UNL A   1      41.605  27.414  29.469  1.00  0.00     0.074 A 
ATOM     46  C   UNL A   1      40.822  27.520  28.257  1.00  0.00     0.031 C 
ATOM     47  C   UNL A   1      39.227  32.175  33.048  1.00  0.00     0.029 A 
ATOM     48  C   UNL A   1      40.378  31.331  33.344  1.00  0.00     0.049 A 
ATOM     49  H   UNL A   1      41.102  29.735  32.217  1.00  0.00     0.167 HD
ATOM     50  C   UNL A   1      42.650  26.566  29.636  1.00  0.00     0.031 A 
ATOM     51  C   UNL A   1      41.156  31.445  34.438  1.00  0.00     0.031 A 
ATOM     52  C   UNL A   1      43.433  26.489  30.840  1.00  0.00     0.049 A 
ATOM     53  C   UNL A   1      42.220  30.411  34.667  1.00  0.00     0.074 A 
ATOM     54  C   UNL A   1      44.459  25.616  31.154  1.00  0.00     0.029 A 
ATOM     55  N   UNL A   1      43.285  27.337  31.929  1.00  0.00    -0.354 N 
ATOM     56  N   UNL A   1      42.620  29.450  33.869  1.00  0.00    -0.248 NA
ATOM     57  C   UNL A   1      42.904  30.445  35.967  1.00  0.00     0.031 C 
ATOM     58  C   UNL A   1      44.902  25.908  32.450  1.00  0.00     0.029 A 
ATOM     59  C   UNL A   1      44.188  26.998  32.922  1.00  0.00     0.049 A 
ATOM     60  H   UNL A   1      42.633  28.073  31.987  1.00  0.00     0.167 HD
ATOM     61  C   UNL A   1      43.605  28.765  34.567  1.00  0.00     0.074 A 
ATOM     62  C   UNL A   1      43.755  29.436  35.844  1.00  0.00     0.031 C 
ATOM     63  C   UNL A   1      44.317  27.675  34.189  1.00  0.00     0.031 A 
BRANCH  50  64
ATOM     64  C   UNL A   1      42.921  25.590  28.522  1.00  0.00    -0.014 A 
ATOM     65  C   UNL A   1      42.224  24.374  28.409  1.00  0.00     0.010 A 
ATOM     66  C   UNL A   1      43.928  25.890  27.586  1.00  0.00     0.010 A 
ATOM     67  C   UNL A   1      42.575  23.448  27.420  1.00  0.00     0.020 A 
ATOM     68  C   UNL A   1      44.264  24.980  26.582  1.00  0.00     0.020 A 
ATOM     69  C   UNL A   1      43.604  23.751  26.522  1.00  0.00     0.054 A 
BRANCH  69  70
ATOM     70  S   UNL A   1      44.075  22.522  25.273  1.00  0.00     0.124 S 
ATOM     71  O   UNL A   1      43.572  21.285  25.864  1.00  0.00    -0.237 OA
ATOM     72  O   UNL A   1      43.364  22.982  24.082  1.00  0.00    -0.237 OA
ATOM     73  O   UNL A   1      45.529  22.635  25.207  1.00  0.00    -0.744 OA
ENDBRANCH  69  70
ENDBRANCH  50  64
BRANCH  51  74
ATOM     74  C   UNL A   1      40.893  32.519  35.436  1.00  0.00    -0.014 A 
ATOM     75  C   UNL A   1      40.001  32.306  36.501  1.00  0.00     0.010 A 
ATOM     76  C   UNL A   1      41.555  33.758  35.340  1.00  0.00     0.010 A 
ATOM     77  C   UNL A   1      39.778  33.310  37.450  1.00  0.00     0.020 A 
ATOM     78  C   UNL A   1      41.361  34.751  36.303  1.00  0.00     0.020 A 
ATOM     79  C   UNL A   1      40.466  34.524  37.348  1.00  0.00     0.054 A 
BRANCH  79  80
ATOM     80  S   UNL A   1      40.218  35.787  38.628  1.00  0.00     0.124 S 
ATOM     81  O   UNL A   1      41.554  35.900  39.204  1.00  0.00    -0.237 OA
ATOM     82  O   UNL A   1      39.763  36.938  37.852  1.00  0.00    -0.237 OA
ATOM     83  O   UNL A   1      39.207  35.194  39.501  1.00  0.00    -0.744 OA
ENDBRANCH  79  80
ENDBRANCH  51  74
BRANCH  63  84
ATOM     84  C   UNL A   1      45.344  27.160  35.157  1.00  0.00    -0.014 A 
ATOM     85  C   UNL A   1      46.652  27.672  35.171  1.00  0.00     0.010 A 
ATOM     86  C   UNL A   1      44.977  26.177  36.095  1.00  0.00     0.010 A 
ATOM     87  C   UNL A   1      47.587  27.192  36.092  1.00  0.00     0.020 A 
ATOM     88  C   UNL A   1      45.902  25.713  37.032  1.00  0.00     0.020 A 
ATOM     89  C   UNL A   1      47.205  26.215  37.017  1.00  0.00     0.054 A 
BRANCH  89  90
ATOM     90  S   UNL A   1      48.420  25.642  38.236  1.00  0.00     0.124 S 
ATOM     91  O   UNL A   1      48.518  24.219  37.920  1.00  0.00    -0.237 OA
ATOM     92  O   UNL A   1      49.600  26.440  37.914  1.00  0.00    -0.237 OA
ATOM     93  O   UNL A   1      47.796  25.955  39.519  1.00  0.00    -0.744 OA
ENDBRANCH  89  90
ENDBRANCH  63  84
ENDBRANCH  37  38
ENDBRANCH  30  32
ENDBRANCH  29  30
ENDBRANCH  28  29
ENDBRANCH   1  28
TORSDOF 20
ENDMDL
MODEL 3
REMARK VINA RESULT:     -10.6      1.211      8.108
REMARK SMILES CCOC(=O)c1cc(CC)sc1NC(=O)[C@H]1[C@@H]2CC[C@@H](C2)[C@@H]1C(=O)OCCOC(=O)c1ccc(-c2c3nc(c(-c4ccc(S(=O)(=O)[O-])cc4)c4ccc([nH]4)c(-c4ccc(S(=O)(=O)[O-])cc4)c4nc(c(-c5ccc(S(=O)(=O)[O-])cc5)c5ccc2[nH]5)C=C4)C=C3)cc1
REMARK SMILES IDX 26 1 25 2 23 3 24 4 22 5 16 6 17 7 18 8 21 9 20 10 19 11
REMARK SMILES IDX 14 12 13 13 15 15 12 16 6 17 7 18 8 19 11 20 4 21 5 22 3 23
REMARK SMILES IDX 2 24 1 25 9 26 10 27 27 28 28 29 29 30 30 31 31 32 32 33
REMARK SMILES IDX 90 34 33 35 89 36 34 37 35 38 36 39 83 40 37 41 88 42 82 43
REMARK SMILES IDX 84 44 38 45 87 46 81 47 80 48 39 50 69 51 50 52 68 53 51 54
REMARK SMILES IDX 54 55 67 56 85 57 52 58 53 59 66 61 86 62 55 63 40 64 41 65
REMARK SMILES IDX 49 66 42 67 48 68 43 69 44 70 45 71 46 72 47 73 70 74 71 75
REMARK SMILES IDX 79 76 72 77 78 78 73 79 74 80 75 81 76 82 77 83 56 84 57 85
REMARK SMILES IDX 65 86 58 87 64 88 59 89 60 90 61 91 62 92 63 93
REMARK H PARENT 13 14 84 49 54 60
REMARK Flexibility Score: inf
ROOT
ATOM      1  C   UNL A   1      36.317  21.922  24.030  1.00  0.00     0.274 C 
ENDROOT
BRANCH   1   2
ATOM      2  O   UNL A   1      34.985  21.748  24.556  1.00  0.00    -0.462 OA
BRANCH   2   3
ATOM      3  C   UNL A   1      34.393  22.853  25.101  1.00  0.00     0.310 C 
ATOM      4  O   UNL A   1      34.658  23.317  26.199  1.00  0.00    -0.252 OA
BRANCH   3   5
ATOM      5  C   UNL A   1      33.266  23.312  24.200  1.00  0.00     0.115 C 
ATOM      6  C   UNL A   1      32.824  24.768  24.313  1.00  0.00     0.096 C 
ATOM      7  C   UNL A   1      31.270  24.659  24.363  1.00  0.00     0.003 C 
ATOM      8  C   UNL A   1      30.832  24.088  25.729  1.00  0.00     0.005 C 
ATOM      9  C   UNL A   1      30.981  23.444  23.494  1.00  0.00     0.009 C 
ATOM     10  C   UNL A   1      31.933  22.531  24.280  1.00  0.00     0.004 C 
ATOM     11  C   UNL A   1      31.297  22.626  25.673  1.00  0.00     0.005 C 
BRANCH   6  12
ATOM     12  C   UNL A   1      33.363  25.824  23.328  1.00  0.00     0.229 C 
ATOM     13  N   UNL A   1      33.363  27.184  23.405  1.00  0.00    -0.317 N 
ATOM     14  H   UNL A   1      33.626  27.636  22.570  1.00  0.00     0.170 HD
ATOM     15  O   UNL A   1      33.994  25.382  22.349  1.00  0.00    -0.274 OA
BRANCH  13  16
ATOM     16  C   UNL A   1      33.065  28.038  24.437  1.00  0.00     0.110 A 
ATOM     17  C   UNL A   1      31.992  28.904  24.581  1.00  0.00     0.095 A 
ATOM     18  C   UNL A   1      32.318  29.855  25.622  1.00  0.00     0.033 A 
ATOM     19  C   UNL A   1      33.417  29.442  26.360  1.00  0.00     0.007 A 
ATOM     20  S   UNL A   1      33.669  27.785  26.005  1.00  0.00    -0.122 S 
BRANCH  17  21
ATOM     21  C   UNL A   1      30.821  28.848  23.711  1.00  0.00     0.341 C 
ATOM     22  O   UNL A   1      30.649  27.937  22.930  1.00  0.00    -0.246 OA
BRANCH  21  23
ATOM     23  O   UNL A   1      29.935  29.851  23.957  1.00  0.00    -0.462 OA
BRANCH  23  24
ATOM     24  C   UNL A   1      29.228  30.343  22.803  1.00  0.00     0.230 C 
ATOM     25  C   UNL A   1      27.908  31.019  23.137  1.00  0.00     0.049 C 
ENDBRANCH  23  24
ENDBRANCH  21  23
ENDBRANCH  17  21
BRANCH  19  26
ATOM     26  C   UNL A   1      34.284  30.209  27.320  1.00  0.00     0.043 C 
ATOM     27  C   UNL A   1      35.611  29.557  27.693  1.00  0.00     0.010 C 
ENDBRANCH  19  26
ENDBRANCH  13  16
ENDBRANCH   6  12
ENDBRANCH   3   5
ENDBRANCH   2   3
ENDBRANCH   1   2
BRANCH   1  28
ATOM     28  C   UNL A   1      37.353  21.309  24.965  1.00  0.00     0.275 C 
BRANCH  28  29
ATOM     29  O   UNL A   1      37.933  22.353  25.759  1.00  0.00    -0.458 OA
BRANCH  29  30
ATOM     30  C   UNL A   1      39.146  22.070  26.288  1.00  0.00     0.338 C 
ATOM     31  O   UNL A   1      39.779  21.036  26.182  1.00  0.00    -0.246 OA
BRANCH  30  32
ATOM     32  C   UNL A   1      39.651  23.264  26.977  1.00  0.00     0.060 A 
ATOM     33  C   UNL A   1      39.062  24.489  26.686  1.00  0.00     0.016 A 
ATOM     34  C   UNL A   1      40.781  23.204  27.788  1.00  0.00     0.016 A 
ATOM     35  C   UNL A   1      39.666  25.662  27.107  1.00  0.00     0.010 A 
ATOM     36  C   UNL A   1      41.326  24.391  28.299  1.00  0.00     0.010 A 
ATOM     37  C   UNL A   1      40.796  25.639  27.928  1.00  0.00    -0.014 A 
BRANCH  37  38
ATOM     38  C   UNL A   1      41.438  26.931  28.298  1.00  0.00     0.031 A 
ATOM     39  C   UNL A   1      42.901  27.147  28.016  1.00  0.00     0.074 A 
ATOM     40  C   UNL A   1      40.697  27.959  28.760  1.00  0.00     0.049 A 
ATOM     41  N   UNL A   1      43.678  28.128  28.393  1.00  0.00    -0.248 NA
ATOM     42  C   UNL A   1      43.576  26.129  27.194  1.00  0.00     0.031 C 
ATOM     43  C   UNL A   1      39.240  27.953  28.932  1.00  0.00     0.029 A 
ATOM     44  N   UNL A   1      41.058  29.234  29.121  1.00  0.00    -0.354 N 
ATOM     45  C   UNL A   1      44.945  27.814  27.914  1.00  0.00     0.074 A 
ATOM     46  C   UNL A   1      44.829  26.559  27.205  1.00  0.00     0.031 C 
ATOM     47  C   UNL A   1      38.829  29.182  29.273  1.00  0.00     0.029 A 
ATOM     48  C   UNL A   1      39.996  30.027  29.487  1.00  0.00     0.049 A 
ATOM     49  H   UNL A   1      41.991  29.550  29.117  1.00  0.00     0.167 HD
ATOM     50  C   UNL A   1      46.102  28.504  28.070  1.00  0.00     0.031 A 
ATOM     51  C   UNL A   1      39.962  31.273  29.998  1.00  0.00     0.031 A 
ATOM     52  C   UNL A   1      46.197  29.763  28.758  1.00  0.00     0.049 A 
ATOM     53  C   UNL A   1      41.264  31.962  30.287  1.00  0.00     0.074 A 
ATOM     54  C   UNL A   1      47.324  30.511  29.048  1.00  0.00     0.029 A 
ATOM     55  N   UNL A   1      45.110  30.472  29.251  1.00  0.00    -0.354 N 
ATOM     56  N   UNL A   1      42.482  31.581  29.983  1.00  0.00    -0.248 NA
ATOM     57  C   UNL A   1      41.192  33.225  31.033  1.00  0.00     0.031 C 
ATOM     58  C   UNL A   1      46.922  31.652  29.755  1.00  0.00     0.029 A 
ATOM     59  C   UNL A   1      45.540  31.640  29.858  1.00  0.00     0.049 A 
ATOM     60  H   UNL A   1      44.170  30.187  29.180  1.00  0.00     0.167 HD
ATOM     61  C   UNL A   1      43.323  32.559  30.498  1.00  0.00     0.074 A 
ATOM     62  C   UNL A   1      42.472  33.559  31.113  1.00  0.00     0.031 C 
ATOM     63  C   UNL A   1      44.677  32.620  30.470  1.00  0.00     0.031 A 
BRANCH  50  64
ATOM     64  C   UNL A   1      47.361  27.843  27.574  1.00  0.00    -0.014 A 
ATOM     65  C   UNL A   1      48.077  26.918  28.356  1.00  0.00     0.010 A 
ATOM     66  C   UNL A   1      47.856  28.190  26.303  1.00  0.00     0.010 A 
ATOM     67  C   UNL A   1      49.296  26.405  27.901  1.00  0.00     0.020 A 
ATOM     68  C   UNL A   1      49.060  27.660  25.835  1.00  0.00     0.020 A 
ATOM     69  C   UNL A   1      49.787  26.791  26.649  1.00  0.00     0.054 A 
BRANCH  69  70
ATOM     70  S   UNL A   1      51.390  26.147  26.094  1.00  0.00     0.124 S 
ATOM     71  O   UNL A   1      51.244  26.188  24.641  1.00  0.00    -0.237 OA
ATOM     72  O   UNL A   1      52.337  27.106  26.656  1.00  0.00    -0.237 OA
ATOM     73  O   UNL A   1      51.447  24.809  26.676  1.00  0.00    -0.744 OA
ENDBRANCH  69  70
ENDBRANCH  50  64
BRANCH  51  74
ATOM     74  C   UNL A   1      38.659  31.903  30.352  1.00  0.00    -0.014 A 
ATOM     75  C   UNL A   1      37.968  32.696  29.419  1.00  0.00     0.010 A 
ATOM     76  C   UNL A   1      38.089  31.693  31.622  1.00  0.00     0.010 A 
ATOM     77  C   UNL A   1      36.732  33.264  29.750  1.00  0.00     0.020 A 
ATOM     78  C   UNL A   1      36.841  32.231  31.945  1.00  0.00     0.020 A 
ATOM     79  C   UNL A   1      36.174  33.021  31.008  1.00  0.00     0.054 A 
BRANCH  79  80
ATOM     80  S   UNL A   1      34.538  33.706  31.394  1.00  0.00     0.124 S 
ATOM     81  O   UNL A   1      33.971  32.672  32.252  1.00  0.00    -0.237 OA
ATOM     82  O   UNL A   1      34.870  34.966  32.054  1.00  0.00    -0.237 OA
ATOM     83  O   UNL A   1      33.909  33.846  30.082  1.00  0.00    -0.744 OA
ENDBRANCH  79  80
ENDBRANCH  51  74
BRANCH  63  84
ATOM     84  C   UNL A   1      45.320  33.824  31.098  1.00  0.00    -0.014 A 
ATOM     85  C   UNL A   1      45.459  35.028  30.387  1.00  0.00     0.010 A 
ATOM     86  C   UNL A   1      45.751  33.759  32.435  1.00  0.00     0.010 A 
ATOM     87  C   UNL A   1      46.042  36.143  30.995  1.00  0.00     0.020 A 
ATOM     88  C   UNL A   1      46.313  34.878  33.053  1.00  0.00     0.020 A 
ATOM     89  C   UNL A   1      46.466  36.060  32.325  1.00  0.00     0.054 A 
BRANCH  89  90
ATOM     90  S   UNL A   1      47.175  37.532  33.111  1.00  0.00     0.124 S 
ATOM     91  O   UNL A   1      46.300  38.592  32.615  1.00  0.00    -0.237 OA
ATOM     92  O   UNL A   1      47.050  37.230  34.535  1.00  0.00    -0.237 OA
ATOM     93  O   UNL A   1      48.545  37.568  32.607  1.00  0.00    -0.744 OA
ENDBRANCH  89  90
ENDBRANCH  63  84
ENDBRANCH  37  38
ENDBRANCH  30  32
ENDBRANCH  29  30
ENDBRANCH  28  29
ENDBRANCH   1  28
TORSDOF 20
ENDMDL
