MODEL 1
REMARK VINA RESULT:     -10.9      0.000      0.000
REMARK SMILES CC1(C)[C@@H](C(=O)NCCc2ccc(S(N)(=O)=O)cc2)[C@@H]1C(=O)OCCOC(=O)c1ccc(-c2c3nc(c(-c4ccc(S(=O)(=O)[O-])cc4)c4ccc([nH]4)c(-c4ccc(S(=O)(=O)[O-])cc4)c4nc(c(-c5ccc(S(=O)(=O)[O-])cc5)c5ccc2[nH]5)C=C4)C=C3)cc1
REMARK SMILES IDX 23 1 21 2 22 3 20 4 1 5 2 6 3 7 4 8 5 9 6 10 7 11 8 13 9 14
REMARK SMILES IDX 10 15 11 16 19 17 12 18 18 19 13 20 14 21 16 22 17 23 15 24
REMARK SMILES IDX 24 27 25 28 26 29 27 30 28 31 29 32 30 33 88 34 31 35 87 36
REMARK SMILES IDX 32 37 33 38 34 39 81 40 35 41 86 42 80 43 82 44 36 45 85 46
REMARK SMILES IDX 79 47 78 48 37 50 67 51 48 52 66 53 49 54 52 55 65 56 83 57
REMARK SMILES IDX 50 58 51 59 64 61 84 62 53 63 38 64 39 65 47 66 40 67 46 68
REMARK SMILES IDX 41 69 42 70 43 71 44 72 45 73 68 74 69 75 77 76 70 77 76 78
REMARK SMILES IDX 71 79 72 80 73 81 74 82 75 83 54 84 55 85 63 86 56 87 62 88
REMARK SMILES IDX 57 89 58 90 59 91 60 92 61 93
REMARK H PARENT 7 12 15 25 15 26 82 49 52 60
REMARK Flexibility Score: inf
ROOT
ATOM      1  O   UNL A   1      34.610  22.372  23.271  1.00  0.00    -0.462 OA
ENDROOT
BRANCH   1   2
ATOM      2  C   UNL A   1      33.286  22.353  23.588  1.00  0.00     0.310 C 
ATOM      3  O   UNL A   1      32.394  21.898  22.898  1.00  0.00    -0.252 OA
BRANCH   2   4
ATOM      4  C   UNL A   1      33.055  22.796  24.980  1.00  0.00     0.118 C 
ATOM      5  C   UNL A   1      33.826  22.256  27.372  1.00  0.00     0.013 C 
ATOM      6  C   UNL A   1      33.064  21.821  26.138  1.00  0.00    -0.009 C 
ATOM      7  C   UNL A   1      33.152  20.337  25.884  1.00  0.00     0.013 C 
ATOM      8  C   UNL A   1      31.771  22.550  25.724  1.00  0.00     0.100 C 
BRANCH   8   9
ATOM      9  C   UNL A   1      31.203  23.516  26.698  1.00  0.00     0.224 C 
ATOM     10  O   UNL A   1      30.505  23.102  27.619  1.00  0.00    -0.275 OA
ATOM     11  N   UNL A   1      31.477  24.851  26.612  1.00  0.00    -0.355 N 
ATOM     12  H   UNL A   1      31.289  25.359  27.434  1.00  0.00     0.163 HD
BRANCH  11  13
ATOM     13  C   UNL A   1      31.999  25.655  25.516  1.00  0.00     0.120 C 
BRANCH  13  14
ATOM     14  C   UNL A   1      32.021  27.157  25.835  1.00  0.00     0.056 C 
BRANCH  14  15
ATOM     15  C   UNL A   1      31.158  28.028  24.945  1.00  0.00    -0.046 A 
ATOM     16  C   UNL A   1      30.242  27.436  24.058  1.00  0.00     0.005 A 
ATOM     17  C   UNL A   1      31.209  29.428  25.022  1.00  0.00     0.005 A 
ATOM     18  C   UNL A   1      29.409  28.223  23.261  1.00  0.00     0.022 A 
ATOM     19  C   UNL A   1      30.402  30.222  24.204  1.00  0.00     0.022 A 
ATOM     20  C   UNL A   1      29.501  29.614  23.332  1.00  0.00     0.082 A 
BRANCH  20  21
ATOM     21  S   UNL A   1      28.437  30.610  22.334  1.00  0.00     0.238 S 
ATOM     22  O   UNL A   1      28.206  29.926  21.081  1.00  0.00    -0.207 OA
ATOM     23  O   UNL A   1      27.360  31.130  23.142  1.00  0.00    -0.207 OA
BRANCH  21  24
ATOM     24  N   UNL A   1      29.401  31.935  21.973  1.00  0.00    -0.225 NA
ATOM     25  H   UNL A   1      29.269  32.196  20.995  1.00  0.00     0.137 HD
ATOM     26  H   UNL A   1      30.380  31.697  22.132  1.00  0.00     0.137 HD
ENDBRANCH  21  24
ENDBRANCH  20  21
ENDBRANCH  14  15
ENDBRANCH  13  14
ENDBRANCH  11  13
ENDBRANCH   8   9
ENDBRANCH   2   4
ENDBRANCH   1   2
BRANCH   1  27
ATOM     27  C   UNL A   1      35.381  23.377  23.955  1.00  0.00     0.274 C 
BRANCH  27  28
ATOM     28  C   UNL A   1      36.649  22.783  24.582  1.00  0.00     0.275 C 
BRANCH  28  29
ATOM     29  O   UNL A   1      37.482  23.783  25.205  1.00  0.00    -0.458 OA
BRANCH  29  30
ATOM     30  C   UNL A   1      38.469  23.300  25.997  1.00  0.00     0.338 C 
ATOM     31  O   UNL A   1      38.866  22.144  26.041  1.00  0.00    -0.246 OA
BRANCH  30  32
ATOM     32  C   UNL A   1      39.132  24.394  26.734  1.00  0.00     0.060 A 
ATOM     33  C   UNL A   1      38.771  24.594  28.069  1.00  0.00     0.016 A 
ATOM     34  C   UNL A   1      40.023  25.273  26.116  1.00  0.00     0.016 A 
ATOM     35  C   UNL A   1      39.277  25.667  28.790  1.00  0.00     0.010 A 
ATOM     36  C   UNL A   1      40.534  26.358  26.841  1.00  0.00     0.010 A 
ATOM     37  C   UNL A   1      40.150  26.568  28.178  1.00  0.00    -0.014 A 
BRANCH  37  38
ATOM     38  C   UNL A   1      40.585  27.755  28.948  1.00  0.00     0.031 A 
ATOM     39  C   UNL A   1      41.978  27.813  29.504  1.00  0.00     0.074 A 
ATOM     40  C   UNL A   1      39.760  28.813  29.062  1.00  0.00     0.049 A 
ATOM     41  N   UNL A   1      42.556  28.772  30.181  1.00  0.00    -0.248 NA
ATOM     42  C   UNL A   1      42.837  26.643  29.261  1.00  0.00     0.031 C 
ATOM     43  C   UNL A   1      38.410  28.896  28.502  1.00  0.00     0.029 A 
ATOM     44  N   UNL A   1      39.945  30.028  29.671  1.00  0.00    -0.354 N 
ATOM     45  C   UNL A   1      43.840  28.318  30.459  1.00  0.00     0.074 A 
ATOM     46  C   UNL A   1      43.950  26.990  29.894  1.00  0.00     0.031 C 
ATOM     47  C   UNL A   1      37.893  30.103  28.785  1.00  0.00     0.029 A 
ATOM     48  C   UNL A   1      38.856  30.861  29.579  1.00  0.00     0.049 A 
ATOM     49  H   UNL A   1      40.779  30.279  30.131  1.00  0.00     0.167 HD
ATOM     50  C   UNL A   1      44.835  28.951  31.123  1.00  0.00     0.031 A 
ATOM     51  C   UNL A   1      38.650  32.090  30.091  1.00  0.00     0.031 A 
ATOM     52  C   UNL A   1      44.717  30.271  31.686  1.00  0.00     0.049 A 
ATOM     53  C   UNL A   1      39.750  32.746  30.880  1.00  0.00     0.074 A 
ATOM     54  C   UNL A   1      45.667  30.998  32.382  1.00  0.00     0.029 A 
ATOM     55  N   UNL A   1      43.580  31.062  31.618  1.00  0.00    -0.354 N 
ATOM     56  N   UNL A   1      40.955  32.298  31.143  1.00  0.00    -0.248 NA
ATOM     57  C   UNL A   1      39.464  34.074  31.436  1.00  0.00     0.031 C 
ATOM     58  C   UNL A   1      45.088  32.210  32.776  1.00  0.00     0.029 A 
ATOM     59  C   UNL A   1      43.796  32.260  32.276  1.00  0.00     0.049 A 
ATOM     60  H   UNL A   1      42.742  30.809  31.167  1.00  0.00     0.167 HD
ATOM     61  C   UNL A   1      41.580  33.301  31.875  1.00  0.00     0.074 A 
ATOM     62  C   UNL A   1      40.624  34.383  32.002  1.00  0.00     0.031 C 
ATOM     63  C   UNL A   1      42.832  33.326  32.394  1.00  0.00     0.031 A 
BRANCH  50  64
ATOM     64  C   UNL A   1      46.127  28.203  31.315  1.00  0.00    -0.014 A 
ATOM     65  C   UNL A   1      47.154  28.257  30.356  1.00  0.00     0.010 A 
ATOM     66  C   UNL A   1      46.324  27.452  32.488  1.00  0.00     0.010 A 
ATOM     67  C   UNL A   1      48.339  27.543  30.550  1.00  0.00     0.020 A 
ATOM     68  C   UNL A   1      47.517  26.755  32.697  1.00  0.00     0.020 A 
ATOM     69  C   UNL A   1      48.511  26.791  31.717  1.00  0.00     0.054 A 
BRANCH  69  70
ATOM     70  S   UNL A   1      50.063  25.880  31.948  1.00  0.00     0.124 S 
ATOM     71  O   UNL A   1      49.605  24.679  32.643  1.00  0.00    -0.237 OA
ATOM     72  O   UNL A   1      50.523  25.675  30.578  1.00  0.00    -0.237 OA
ATOM     73  O   UNL A   1      50.881  26.787  32.749  1.00  0.00    -0.744 OA
ENDBRANCH  69  70
ENDBRANCH  50  64
BRANCH  51  74
ATOM     74  C   UNL A   1      37.341  32.766  29.890  1.00  0.00    -0.014 A 
ATOM     75  C   UNL A   1      36.300  32.614  30.822  1.00  0.00     0.010 A 
ATOM     76  C   UNL A   1      37.135  33.580  28.760  1.00  0.00     0.010 A 
ATOM     77  C   UNL A   1      35.071  33.251  30.620  1.00  0.00     0.020 A 
ATOM     78  C   UNL A   1      35.918  34.239  28.569  1.00  0.00     0.020 A 
ATOM     79  C   UNL A   1      34.889  34.061  29.494  1.00  0.00     0.054 A 
BRANCH  79  80
ATOM     80  S   UNL A   1      33.306  34.920  29.276  1.00  0.00     0.124 S 
ATOM     81  O   UNL A   1      32.659  34.109  28.250  1.00  0.00    -0.237 OA
ATOM     82  O   UNL A   1      32.716  34.841  30.610  1.00  0.00    -0.237 OA
ATOM     83  O   UNL A   1      33.701  36.263  28.858  1.00  0.00    -0.744 OA
ENDBRANCH  79  80
ENDBRANCH  51  74
BRANCH  63  84
ATOM     84  C   UNL A   1      43.256  34.578  33.115  1.00  0.00    -0.014 A 
ATOM     85  C   UNL A   1      43.204  34.666  34.517  1.00  0.00     0.010 A 
ATOM     86  C   UNL A   1      43.755  35.666  32.376  1.00  0.00     0.010 A 
ATOM     87  C   UNL A   1      43.613  35.835  35.166  1.00  0.00     0.020 A 
ATOM     88  C   UNL A   1      44.188  36.826  33.023  1.00  0.00     0.020 A 
ATOM     89  C   UNL A   1      44.099  36.908  34.415  1.00  0.00     0.054 A 
BRANCH  89  90
ATOM     90  S   UNL A   1      44.657  38.401  35.280  1.00  0.00     0.124 S 
ATOM     91  O   UNL A   1      44.410  39.439  34.283  1.00  0.00    -0.237 OA
ATOM     92  O   UNL A   1      43.788  38.437  36.454  1.00  0.00    -0.237 OA
ATOM     93  O   UNL A   1      46.065  38.131  35.565  1.00  0.00    -0.744 OA
ENDBRANCH  89  90
ENDBRANCH  63  84
ENDBRANCH  37  38
ENDBRANCH  30  32
ENDBRANCH  29  30
ENDBRANCH  28  29
ENDBRANCH  27  28
ENDBRANCH   1  27
TORSDOF 20
ENDMDL
MODEL 2
REMARK VINA RESULT:     -10.6      3.365      8.820
REMARK SMILES CC1(C)[C@@H](C(=O)NCCc2ccc(S(N)(=O)=O)cc2)[C@@H]1C(=O)OCCOC(=O)c1ccc(-c2c3nc(c(-c4ccc(S(=O)(=O)[O-])cc4)c4ccc([nH]4)c(-c4ccc(S(=O)(=O)[O-])cc4)c4nc(c(-c5ccc(S(=O)(=O)[O-])cc5)c5ccc2[nH]5)C=C4)C=C3)cc1
REMARK SMILES IDX 23 1 21 2 22 3 20 4 1 5 2 6 3 7 4 8 5 9 6 10 7 11 8 13 9 14
REMARK SMILES IDX 10 15 11 16 19 17 12 18 18 19 13 20 14 21 16 22 17 23 15 24
REMARK SMILES IDX 24 27 25 28 26 29 27 30 28 31 29 32 30 33 88 34 31 35 87 36
REMARK SMILES IDX 32 37 33 38 34 39 81 40 35 41 86 42 80 43 82 44 36 45 85 46
REMARK SMILES IDX 79 47 78 48 37 50 67 51 48 52 66 53 49 54 52 55 65 56 83 57
REMARK SMILES IDX 50 58 51 59 64 61 84 62 53 63 38 64 39 65 47 66 40 67 46 68
REMARK SMILES IDX 41 69 42 70 43 71 44 72 45 73 68 74 69 75 77 76 70 77 76 78
REMARK SMILES IDX 71 79 72 80 73 81 74 82 75 83 54 84 55 85 63 86 56 87 62 88
REMARK SMILES IDX 57 89 58 90 59 91 60 92 61 93
REMARK H PARENT 7 12 15 25 15 26 82 49 52 60
REMARK Flexibility Score: inf
ROOT
ATOM      1  O   UNL A   1      36.612  23.071  24.091  1.00  0.00    -0.462 OA
ENDROOT
BRANCH   1   2
ATOM      2  C   UNL A   1      35.324  23.047  23.649  1.00  0.00     0.310 C 
ATOM      3  O   UNL A   1      34.951  23.322  22.524  1.00  0.00    -0.252 OA
BRANCH   2   4
ATOM      4  C   UNL A   1      34.415  22.461  24.658  1.00  0.00     0.118 C 
ATOM      5  C   UNL A   1      34.506  21.237  26.916  1.00  0.00     0.013 C 
ATOM      6  C   UNL A   1      34.780  21.209  25.426  1.00  0.00    -0.009 C 
ATOM      7  C   UNL A   1      36.020  20.430  25.070  1.00  0.00     0.013 C 
ATOM      8  C   UNL A   1      33.612  21.212  24.420  1.00  0.00     0.100 C 
BRANCH   8   9
ATOM      9  C   UNL A   1      32.249  21.009  24.973  1.00  0.00     0.224 C 
ATOM     10  O   UNL A   1      31.827  19.868  25.132  1.00  0.00    -0.275 OA
ATOM     11  N   UNL A   1      31.473  22.069  25.345  1.00  0.00    -0.355 N 
ATOM     12  H   UNL A   1      30.721  21.835  25.937  1.00  0.00     0.163 HD
BRANCH  11  13
ATOM     13  C   UNL A   1      31.561  23.486  25.020  1.00  0.00     0.120 C 
BRANCH  13  14
ATOM     14  C   UNL A   1      31.094  23.801  23.591  1.00  0.00     0.056 C 
BRANCH  14  15
ATOM     15  C   UNL A   1      30.695  25.241  23.337  1.00  0.00    -0.046 A 
ATOM     16  C   UNL A   1      31.456  26.036  22.463  1.00  0.00     0.005 A 
ATOM     17  C   UNL A   1      29.541  25.791  23.914  1.00  0.00     0.005 A 
ATOM     18  C   UNL A   1      31.079  27.351  22.184  1.00  0.00     0.022 A 
ATOM     19  C   UNL A   1      29.175  27.116  23.664  1.00  0.00     0.022 A 
ATOM     20  C   UNL A   1      29.944  27.887  22.795  1.00  0.00     0.082 A 
BRANCH  20  21
ATOM     21  S   UNL A   1      29.459  29.546  22.431  1.00  0.00     0.238 S 
ATOM     22  O   UNL A   1      28.272  29.509  21.606  1.00  0.00    -0.207 OA
ATOM     23  O   UNL A   1      29.546  30.351  23.627  1.00  0.00    -0.207 OA
BRANCH  21  24
ATOM     24  N   UNL A   1      30.701  30.086  21.440  1.00  0.00    -0.225 NA
ATOM     25  H   UNL A   1      31.031  30.994  21.773  1.00  0.00     0.137 HD
ATOM     26  H   UNL A   1      30.358  30.179  20.484  1.00  0.00     0.137 HD
ENDBRANCH  21  24
ENDBRANCH  20  21
ENDBRANCH  14  15
ENDBRANCH  13  14
ENDBRANCH  11  13
ENDBRANCH   8   9
ENDBRANCH   2   4
ENDBRANCH   1   2
BRANCH   1  27
ATOM     27  C   UNL A   1      36.832  23.872  25.267  1.00  0.00     0.274 C 
BRANCH  27  28
ATOM     28  C   UNL A   1      38.231  23.639  25.852  1.00  0.00     0.275 C 
BRANCH  28  29
ATOM     29  O   UNL A   1      38.561  24.580  26.894  1.00  0.00    -0.458 OA
BRANCH  29  30
ATOM     30  C   UNL A   1      39.761  25.195  26.758  1.00  0.00     0.338 C 
ATOM     31  O   UNL A   1      40.506  25.129  25.791  1.00  0.00    -0.246 OA
BRANCH  30  32
ATOM     32  C   UNL A   1      40.019  26.098  27.898  1.00  0.00     0.060 A 
ATOM     33  C   UNL A   1      39.193  25.986  29.019  1.00  0.00     0.016 A 
ATOM     34  C   UNL A   1      40.988  27.102  27.846  1.00  0.00     0.016 A 
ATOM     35  C   UNL A   1      39.312  26.870  30.081  1.00  0.00     0.010 A 
ATOM     36  C   UNL A   1      41.109  27.998  28.917  1.00  0.00     0.010 A 
ATOM     37  C   UNL A   1      40.260  27.894  30.033  1.00  0.00    -0.014 A 
BRANCH  37  38
ATOM     38  C   UNL A   1      40.285  28.879  31.139  1.00  0.00     0.031 A 
ATOM     39  C   UNL A   1      39.299  30.011  31.151  1.00  0.00     0.074 A 
ATOM     40  C   UNL A   1      41.129  28.698  32.172  1.00  0.00     0.049 A 
ATOM     41  N   UNL A   1      39.143  30.958  32.039  1.00  0.00    -0.248 NA
ATOM     42  C   UNL A   1      38.361  30.083  30.019  1.00  0.00     0.031 C 
ATOM     43  C   UNL A   1      42.084  27.595  32.300  1.00  0.00     0.029 A 
ATOM     44  N   UNL A   1      41.306  29.429  33.319  1.00  0.00    -0.354 N 
ATOM     45  C   UNL A   1      38.101  31.749  31.570  1.00  0.00     0.074 A 
ATOM     46  C   UNL A   1      37.674  31.181  30.308  1.00  0.00     0.031 C 
ATOM     47  C   UNL A   1      42.737  27.717  33.467  1.00  0.00     0.029 A 
ATOM     48  C   UNL A   1      42.279  28.926  34.147  1.00  0.00     0.049 A 
ATOM     49  H   UNL A   1      40.785  30.238  33.529  1.00  0.00     0.167 HD
ATOM     50  C   UNL A   1      37.549  32.845  32.140  1.00  0.00     0.031 A 
ATOM     51  C   UNL A   1      42.761  29.394  35.315  1.00  0.00     0.031 A 
ATOM     52  C   UNL A   1      37.980  33.407  33.393  1.00  0.00     0.049 A 
ATOM     53  C   UNL A   1      42.174  30.651  35.895  1.00  0.00     0.074 A 
ATOM     54  C   UNL A   1      37.488  34.520  34.052  1.00  0.00     0.029 A 
ATOM     55  N   UNL A   1      39.005  32.899  34.177  1.00  0.00    -0.354 N 
ATOM     56  N   UNL A   1      41.196  31.393  35.433  1.00  0.00    -0.248 NA
ATOM     57  C   UNL A   1      42.752  31.131  37.157  1.00  0.00     0.031 C 
ATOM     58  C   UNL A   1      38.248  34.713  35.212  1.00  0.00     0.029 A 
ATOM     59  C   UNL A   1      39.175  33.687  35.303  1.00  0.00     0.049 A 
ATOM     60  H   UNL A   1      39.534  32.096  33.965  1.00  0.00     0.167 HD
ATOM     61  C   UNL A   1      41.024  32.415  36.360  1.00  0.00     0.074 A 
ATOM     62  C   UNL A   1      41.992  32.187  37.416  1.00  0.00     0.031 C 
ATOM     63  C   UNL A   1      40.145  33.446  36.342  1.00  0.00     0.031 A 
BRANCH  50  64
ATOM     64  C   UNL A   1      36.445  33.537  31.386  1.00  0.00    -0.014 A 
ATOM     65  C   UNL A   1      36.580  33.863  30.025  1.00  0.00     0.010 A 
ATOM     66  C   UNL A   1      35.242  33.845  32.048  1.00  0.00     0.010 A 
ATOM     67  C   UNL A   1      35.547  34.518  29.349  1.00  0.00     0.020 A 
ATOM     68  C   UNL A   1      34.196  34.478  31.370  1.00  0.00     0.020 A 
ATOM     69  C   UNL A   1      34.363  34.827  30.029  1.00  0.00     0.054 A 
BRANCH  69  70
ATOM     70  S   UNL A   1      33.033  35.670  29.126  1.00  0.00     0.124 S 
ATOM     71  O   UNL A   1      32.182  36.139  30.217  1.00  0.00    -0.237 OA
ATOM     72  O   UNL A   1      33.750  36.712  28.397  1.00  0.00    -0.237 OA
ATOM     73  O   UNL A   1      32.456  34.616  28.295  1.00  0.00    -0.744 OA
ENDBRANCH  69  70
ENDBRANCH  50  64
BRANCH  51  74
ATOM     74  C   UNL A   1      43.873  28.680  35.997  1.00  0.00    -0.014 A 
ATOM     75  C   UNL A   1      43.614  27.615  36.878  1.00  0.00     0.010 A 
ATOM     76  C   UNL A   1      45.207  29.059  35.756  1.00  0.00     0.010 A 
ATOM     77  C   UNL A   1      44.668  26.954  37.518  1.00  0.00     0.020 A 
ATOM     78  C   UNL A   1      46.263  28.384  36.372  1.00  0.00     0.020 A 
ATOM     79  C   UNL A   1      45.986  27.343  37.259  1.00  0.00     0.054 A 
BRANCH  79  80
ATOM     80  S   UNL A   1      47.342  26.439  38.058  1.00  0.00     0.124 S 
ATOM     81  O   UNL A   1      47.189  26.835  39.454  1.00  0.00    -0.237 OA
ATOM     82  O   UNL A   1      47.017  25.048  37.755  1.00  0.00    -0.237 OA
ATOM     83  O   UNL A   1      48.535  26.952  37.388  1.00  0.00    -0.744 OA
ENDBRANCH  79  80
ENDBRANCH  51  74
BRANCH  63  84
ATOM     84  C   UNL A   1      40.162  34.388  37.517  1.00  0.00    -0.014 A 
ATOM     85  C   UNL A   1      40.943  35.557  37.504  1.00  0.00     0.010 A 
ATOM     86  C   UNL A   1      39.347  34.118  38.631  1.00  0.00     0.010 A 
ATOM     87  C   UNL A   1      40.935  36.422  38.602  1.00  0.00     0.020 A 
ATOM     88  C   UNL A   1      39.317  34.994  39.719  1.00  0.00     0.020 A 
ATOM     89  C   UNL A   1      40.124  36.134  39.703  1.00  0.00     0.054 A 
BRANCH  89  90
ATOM     90  S   UNL A   1      40.102  37.290  41.101  1.00  0.00     0.124 S 
ATOM     91  O   UNL A   1      41.460  37.163  41.620  1.00  0.00    -0.237 OA
ATOM     92  O   UNL A   1      39.790  38.565  40.460  1.00  0.00    -0.237 OA
ATOM     93  O   UNL A   1      39.050  36.764  41.969  1.00  0.00    -0.744 OA
ENDBRANCH  89  90
ENDBRANCH  63  84
ENDBRANCH  37  38
ENDBRANCH  30  32
ENDBRANCH  29  30
ENDBRANCH  28  29
ENDBRANCH  27  28
ENDBRANCH   1  27
TORSDOF 20
ENDMDL
MODEL 3
REMARK VINA RESULT:     -10.2      4.342      6.561
REMARK SMILES CC1(C)[C@@H](C(=O)NCCc2ccc(S(N)(=O)=O)cc2)[C@@H]1C(=O)OCCOC(=O)c1ccc(-c2c3nc(c(-c4ccc(S(=O)(=O)[O-])cc4)c4ccc([nH]4)c(-c4ccc(S(=O)(=O)[O-])cc4)c4nc(c(-c5ccc(S(=O)(=O)[O-])cc5)c5ccc2[nH]5)C=C4)C=C3)cc1
REMARK SMILES IDX 23 1 21 2 22 3 20 4 1 5 2 6 3 7 4 8 5 9 6 10 7 11 8 13 9 14
REMARK SMILES IDX 10 15 11 16 19 17 12 18 18 19 13 20 14 21 16 22 17 23 15 24
REMARK SMILES IDX 24 27 25 28 26 29 27 30 28 31 29 32 30 33 88 34 31 35 87 36
REMARK SMILES IDX 32 37 33 38 34 39 81 40 35 41 86 42 80 43 82 44 36 45 85 46
REMARK SMILES IDX 79 47 78 48 37 50 67 51 48 52 66 53 49 54 52 55 65 56 83 57
REMARK SMILES IDX 50 58 51 59 64 61 84 62 53 63 38 64 39 65 47 66 40 67 46 68
REMARK SMILES IDX 41 69 42 70 43 71 44 72 45 73 68 74 69 75 77 76 70 77 76 78
REMARK SMILES IDX 71 79 72 80 73 81 74 82 75 83 54 84 55 85 63 86 56 87 62 88
REMARK SMILES IDX 57 89 58 90 59 91 60 92 61 93
REMARK H PARENT 7 12 15 25 15 26 82 49 52 60
REMARK Flexibility Score: inf
ROOT
ATOM      1  O   UNL A   1      43.334  24.942  27.449  1.00  0.00    -0.462 OA
ENDROOT
BRANCH   1   2
ATOM      2  C   UNL A   1      44.062  23.792  27.396  1.00  0.00     0.310 C 
ATOM      3  O   UNL A   1      45.264  23.700  27.558  1.00  0.00    -0.252 OA
BRANCH   2   4
ATOM      4  C   UNL A   1      43.189  22.603  27.293  1.00  0.00     0.118 C 
ATOM      5  C   UNL A   1      42.911  20.481  25.869  1.00  0.00     0.013 C 
ATOM      6  C   UNL A   1      42.832  21.991  25.955  1.00  0.00    -0.009 C 
ATOM      7  C   UNL A   1      43.231  22.676  24.673  1.00  0.00     0.013 C 
ATOM      8  C   UNL A   1      41.758  22.665  26.832  1.00  0.00     0.100 C 
BRANCH   8   9
ATOM      9  C   UNL A   1      40.693  21.789  27.382  1.00  0.00     0.224 C 
ATOM     10  O   UNL A   1      40.958  21.024  28.304  1.00  0.00    -0.275 OA
ATOM     11  N   UNL A   1      39.414  21.850  26.907  1.00  0.00    -0.355 N 
ATOM     12  H   UNL A   1      38.740  21.444  27.500  1.00  0.00     0.163 HD
BRANCH  11  13
ATOM     13  C   UNL A   1      38.871  22.408  25.677  1.00  0.00     0.120 C 
BRANCH  13  14
ATOM     14  C   UNL A   1      37.793  23.472  25.928  1.00  0.00     0.056 C 
BRANCH  14  15
ATOM     15  C   UNL A   1      36.380  23.071  25.558  1.00  0.00    -0.046 A 
ATOM     16  C   UNL A   1      35.366  24.042  25.500  1.00  0.00     0.005 A 
ATOM     17  C   UNL A   1      36.063  21.748  25.213  1.00  0.00     0.005 A 
ATOM     18  C   UNL A   1      34.068  23.698  25.120  1.00  0.00     0.022 A 
ATOM     19  C   UNL A   1      34.759  21.390  24.863  1.00  0.00     0.022 A 
ATOM     20  C   UNL A   1      33.769  22.370  24.812  1.00  0.00     0.082 A 
BRANCH  20  21
ATOM     21  S   UNL A   1      32.130  21.936  24.317  1.00  0.00     0.238 S 
ATOM     22  O   UNL A   1      31.282  23.099  24.462  1.00  0.00    -0.207 OA
ATOM     23  O   UNL A   1      32.179  21.162  23.100  1.00  0.00    -0.207 OA
BRANCH  21  24
ATOM     24  N   UNL A   1      31.655  20.859  25.512  1.00  0.00    -0.225 NA
ATOM     25  H   UNL A   1      31.556  19.926  25.109  1.00  0.00     0.137 HD
ATOM     26  H   UNL A   1      30.761  21.156  25.903  1.00  0.00     0.137 HD
ENDBRANCH  21  24
ENDBRANCH  20  21
ENDBRANCH  14  15
ENDBRANCH  13  14
ENDBRANCH  11  13
ENDBRANCH   8   9
ENDBRANCH   2   4
ENDBRANCH   1   2
BRANCH   1  27
ATOM     27  C   UNL A   1      43.780  25.981  26.559  1.00  0.00     0.274 C 
BRANCH  27  28
ATOM     28  C   UNL A   1      42.798  26.185  25.397  1.00  0.00     0.275 C 
BRANCH  28  29
ATOM     29  O   UNL A   1      41.755  27.131  25.712  1.00  0.00    -0.458 OA
BRANCH  29  30
ATOM     30  C   UNL A   1      40.692  26.616  26.377  1.00  0.00     0.338 C 
ATOM     31  O   UNL A   1      40.058  25.617  26.071  1.00  0.00    -0.246 OA
BRANCH  30  32
ATOM     32  C   UNL A   1      40.459  27.348  27.638  1.00  0.00     0.060 A 
ATOM     33  C   UNL A   1      41.100  28.579  27.806  1.00  0.00     0.016 A 
ATOM     34  C   UNL A   1      39.706  26.808  28.683  1.00  0.00     0.016 A 
ATOM     35  C   UNL A   1      41.008  29.270  29.006  1.00  0.00     0.010 A 
ATOM     36  C   UNL A   1      39.615  27.503  29.896  1.00  0.00     0.010 A 
ATOM     37  C   UNL A   1      40.279  28.732  30.067  1.00  0.00    -0.014 A 
BRANCH  37  38
ATOM     38  C   UNL A   1      40.293  29.449  31.362  1.00  0.00     0.031 A 
ATOM     39  C   UNL A   1      41.421  29.223  32.327  1.00  0.00     0.074 A 
ATOM     40  C   UNL A   1      39.344  30.368  31.625  1.00  0.00     0.049 A 
ATOM     41  N   UNL A   1      41.627  29.772  33.497  1.00  0.00    -0.248 NA
ATOM     42  C   UNL A   1      42.456  28.259  31.921  1.00  0.00     0.031 C 
ATOM     43  C   UNL A   1      38.239  30.719  30.731  1.00  0.00     0.029 A 
ATOM     44  N   UNL A   1      39.170  31.185  32.712  1.00  0.00    -0.354 N 
ATOM     45  C   UNL A   1      42.806  29.211  33.974  1.00  0.00     0.074 A 
ATOM     46  C   UNL A   1      43.259  28.265  32.977  1.00  0.00     0.031 C 
ATOM     47  C   UNL A   1      37.508  31.691  31.302  1.00  0.00     0.029 A 
ATOM     48  C   UNL A   1      38.067  31.999  32.616  1.00  0.00     0.049 A 
ATOM     49  H   UNL A   1      39.776  31.189  33.487  1.00  0.00     0.167 HD
ATOM     50  C   UNL A   1      43.452  29.465  35.137  1.00  0.00     0.031 A 
ATOM     51  C   UNL A   1      37.554  32.882  33.494  1.00  0.00     0.031 A 
ATOM     52  C   UNL A   1      42.994  30.404  36.126  1.00  0.00     0.049 A 
ATOM     53  C   UNL A   1      38.255  33.098  34.807  1.00  0.00     0.074 A 
ATOM     54  C   UNL A   1      43.574  30.728  37.340  1.00  0.00     0.029 A 
ATOM     55  N   UNL A   1      41.843  31.171  36.017  1.00  0.00    -0.354 N 
ATOM     56  N   UNL A   1      39.363  32.552  35.249  1.00  0.00    -0.248 NA
ATOM     57  C   UNL A   1      37.640  34.052  35.738  1.00  0.00     0.031 C 
ATOM     58  C   UNL A   1      42.749  31.656  37.986  1.00  0.00     0.029 A 
ATOM     59  C   UNL A   1      41.685  31.952  37.149  1.00  0.00     0.049 A 
ATOM     60  H   UNL A   1      41.229  31.162  35.247  1.00  0.00     0.167 HD
ATOM     61  C   UNL A   1      39.591  33.115  36.499  1.00  0.00     0.074 A 
ATOM     62  C   UNL A   1      38.513  34.054  36.737  1.00  0.00     0.031 C 
ATOM     63  C   UNL A   1      40.603  32.880  37.370  1.00  0.00     0.031 A 
BRANCH  50  64
ATOM     64  C   UNL A   1      44.703  28.678  35.421  1.00  0.00    -0.014 A 
ATOM     65  C   UNL A   1      45.966  29.135  35.004  1.00  0.00     0.010 A 
ATOM     66  C   UNL A   1      44.614  27.471  36.139  1.00  0.00     0.010 A 
ATOM     67  C   UNL A   1      47.112  28.380  35.267  1.00  0.00     0.020 A 
ATOM     68  C   UNL A   1      45.761  26.726  36.426  1.00  0.00     0.020 A 
ATOM     69  C   UNL A   1      47.001  27.177  35.972  1.00  0.00     0.054 A 
BRANCH  69  70
ATOM     70  S   UNL A   1      48.506  26.220  36.308  1.00  0.00     0.124 S 
ATOM     71  O   UNL A   1      48.735  26.510  37.721  1.00  0.00    -0.237 OA
ATOM     72  O   UNL A   1      48.093  24.853  36.007  1.00  0.00    -0.237 OA
ATOM     73  O   UNL A   1      49.490  26.788  35.389  1.00  0.00    -0.744 OA
ENDBRANCH  69  70
ENDBRANCH  50  64
BRANCH  51  74
ATOM     74  C   UNL A   1      36.298  33.608  33.166  1.00  0.00    -0.014 A 
ATOM     75  C   UNL A   1      35.042  33.026  33.412  1.00  0.00     0.010 A 
ATOM     76  C   UNL A   1      36.356  34.901  32.613  1.00  0.00     0.010 A 
ATOM     77  C   UNL A   1      33.868  33.717  33.095  1.00  0.00     0.020 A 
ATOM     78  C   UNL A   1      35.186  35.605  32.320  1.00  0.00     0.020 A 
ATOM     79  C   UNL A   1      33.948  35.003  32.552  1.00  0.00     0.054 A 
BRANCH  79  80
ATOM     80  S   UNL A   1      32.413  35.904  32.195  1.00  0.00     0.124 S 
ATOM     81  O   UNL A   1      32.577  37.111  32.999  1.00  0.00    -0.237 OA
ATOM     82  O   UNL A   1      32.485  36.092  30.749  1.00  0.00    -0.237 OA
ATOM     83  O   UNL A   1      31.368  34.988  32.645  1.00  0.00    -0.744 OA
ENDBRANCH  79  80
ENDBRANCH  51  74
BRANCH  63  84
ATOM     84  C   UNL A   1      40.613  33.676  38.647  1.00  0.00    -0.014 A 
ATOM     85  C   UNL A   1      39.876  33.263  39.771  1.00  0.00     0.010 A 
ATOM     86  C   UNL A   1      41.409  34.832  38.735  1.00  0.00     0.010 A 
ATOM     87  C   UNL A   1      39.909  34.013  40.951  1.00  0.00     0.020 A 
ATOM     88  C   UNL A   1      41.464  35.570  39.921  1.00  0.00     0.020 A 
ATOM     89  C   UNL A   1      40.700  35.163  41.017  1.00  0.00     0.054 A 
BRANCH  89  90
ATOM     90  S   UNL A   1      40.755  36.100  42.568  1.00  0.00     0.124 S 
ATOM     91  O   UNL A   1      39.791  35.377  43.393  1.00  0.00    -0.237 OA
ATOM     92  O   UNL A   1      42.152  35.970  42.975  1.00  0.00    -0.237 OA
ATOM     93  O   UNL A   1      40.352  37.448  42.173  1.00  0.00    -0.744 OA
ENDBRANCH  89  90
ENDBRANCH  63  84
ENDBRANCH  37  38
ENDBRANCH  30  32
ENDBRANCH  29  30
ENDBRANCH  28  29
ENDBRANCH  27  28
ENDBRANCH   1  27
TORSDOF 20
ENDMDL
