MODEL 1
REMARK VINA RESULT:     -11.4      0.000      0.000
REMARK SMILES Cc1ccc(Cl)c(Nc2ccccc2C(=O)OCCOC(=O)c2ccc(-c3c4nc(c(-c5ccc(S(=O)(=O)[O-])cc5)c5ccc([nH]5)c(-c5ccc(S(=O)(=O)[O-])cc5)c5nc(c(-c6ccc(S(=O)(=O)[O-])cc6)c6ccc3[nH]6)C=C5)C=C4)cc2)c1Cl
REMARK SMILES IDX 19 1 18 2 17 3 15 4 16 5 14 6 9 7 10 8 11 9 13 10 12 11 8 12
REMARK SMILES IDX 7 14 1 15 2 16 3 17 83 18 4 19 84 20 5 21 6 22 20 23 21 24
REMARK SMILES IDX 22 25 23 26 24 27 82 28 25 29 81 30 26 31 27 32 28 33 75 34
REMARK SMILES IDX 29 35 80 36 74 37 76 38 30 39 79 40 73 41 72 42 31 44 61 45
REMARK SMILES IDX 42 46 60 47 43 48 46 49 59 50 77 51 44 52 45 53 58 55 78 56
REMARK SMILES IDX 47 57 32 58 33 59 41 60 34 61 40 62 35 63 36 64 37 65 38 66
REMARK SMILES IDX 39 67 62 68 63 69 71 70 64 71 70 72 65 73 66 74 67 75 68 76
REMARK SMILES IDX 69 77 48 78 49 79 57 80 50 81 56 82 51 83 52 84 53 85 54 86
REMARK SMILES IDX 55 87
REMARK H PARENT 8 13 76 43 46 54
REMARK Flexibility Score: inf
ROOT
ATOM      1  C   UNL A   1      39.326  22.319  26.479  1.00  0.00     0.275 C 
ENDROOT
BRANCH   1   2
ATOM      2  C   UNL A   1      38.270  21.758  25.535  1.00  0.00     0.275 C 
BRANCH   2   3
ATOM      3  O   UNL A   1      37.055  22.537  25.560  1.00  0.00    -0.458 OA
BRANCH   3   4
ATOM      4  C   UNL A   1      36.485  22.769  24.347  1.00  0.00     0.340 C 
ATOM      5  O   UNL A   1      37.004  23.349  23.409  1.00  0.00    -0.246 OA
BRANCH   4   6
ATOM      6  C   UNL A   1      35.128  22.178  24.272  1.00  0.00     0.083 A 
ATOM      7  C   UNL A   1      34.009  22.861  23.756  1.00  0.00     0.053 A 
ATOM      8  C   UNL A   1      32.771  22.187  23.767  1.00  0.00     0.027 A 
ATOM      9  C   UNL A   1      32.650  20.873  24.230  1.00  0.00     0.002 A 
ATOM     10  C   UNL A   1      35.001  20.845  24.706  1.00  0.00     0.018 A 
ATOM     11  C   UNL A   1      33.770  20.197  24.692  1.00  0.00     0.001 A 
BRANCH   7  12
ATOM     12  N   UNL A   1      34.034  24.121  23.120  1.00  0.00    -0.352 N 
ATOM     13  H   UNL A   1      34.758  24.229  22.461  1.00  0.00     0.167 HD
BRANCH  12  14
ATOM     14  C   UNL A   1      33.201  25.259  23.261  1.00  0.00     0.077 A 
ATOM     15  C   UNL A   1      31.450  27.368  25.961  1.00  0.00     0.046 C 
ATOM     16  C   UNL A   1      31.889  26.838  24.622  1.00  0.00    -0.030 A 
ATOM     17  C   UNL A   1      31.204  27.251  23.470  1.00  0.00     0.006 A 
ATOM     18  C   UNL A   1      32.918  25.879  24.501  1.00  0.00     0.069 A 
ATOM     19  C   UNL A   1      31.536  26.727  22.225  1.00  0.00     0.023 A 
ATOM     20  Cl  UNL A   1      33.911  25.547  25.895  1.00  0.00    -0.082 Cl
ATOM     21  C   UNL A   1      32.511  25.734  22.125  1.00  0.00     0.066 A 
ATOM     22  Cl  UNL A   1      32.821  25.067  20.555  1.00  0.00    -0.082 Cl
ENDBRANCH  12  14
ENDBRANCH   7  12
ENDBRANCH   4   6
ENDBRANCH   3   4
ENDBRANCH   2   3
ENDBRANCH   1   2
BRANCH   1  23
ATOM     23  O   UNL A   1      39.245  23.751  26.501  1.00  0.00    -0.458 OA
BRANCH  23  24
ATOM     24  C   UNL A   1      40.418  24.393  26.679  1.00  0.00     0.338 C 
ATOM     25  O   UNL A   1      41.508  24.103  26.209  1.00  0.00    -0.246 OA
BRANCH  24  26
ATOM     26  C   UNL A   1      40.205  25.571  27.529  1.00  0.00     0.060 A 
ATOM     27  C   UNL A   1      40.953  26.719  27.288  1.00  0.00     0.016 A 
ATOM     28  C   UNL A   1      39.383  25.491  28.648  1.00  0.00     0.016 A 
ATOM     29  C   UNL A   1      40.984  27.744  28.227  1.00  0.00     0.010 A 
ATOM     30  C   UNL A   1      39.321  26.575  29.529  1.00  0.00     0.010 A 
ATOM     31  C   UNL A   1      40.159  27.693  29.356  1.00  0.00    -0.014 A 
BRANCH  31  32
ATOM     32  C   UNL A   1      40.203  28.778  30.377  1.00  0.00     0.031 A 
ATOM     33  C   UNL A   1      41.233  28.734  31.478  1.00  0.00     0.074 A 
ATOM     34  C   UNL A   1      39.330  29.805  30.324  1.00  0.00     0.049 A 
ATOM     35  N   UNL A   1      41.309  29.453  32.567  1.00  0.00    -0.248 NA
ATOM     36  C   UNL A   1      42.306  27.734  31.345  1.00  0.00     0.031 C 
ATOM     37  C   UNL A   1      38.311  30.006  29.290  1.00  0.00     0.029 A 
ATOM     38  N   UNL A   1      39.159  30.879  31.163  1.00  0.00    -0.354 N 
ATOM     39  C   UNL A   1      42.385  28.941  33.287  1.00  0.00     0.074 A 
ATOM     40  C   UNL A   1      42.937  27.857  32.503  1.00  0.00     0.031 C 
ATOM     41  C   UNL A   1      37.653  31.148  29.533  1.00  0.00     0.029 A 
ATOM     42  C   UNL A   1      38.128  31.709  30.791  1.00  0.00     0.049 A 
ATOM     43  H   UNL A   1      39.723  31.039  31.955  1.00  0.00     0.167 HD
ATOM     44  C   UNL A   1      42.860  29.334  34.492  1.00  0.00     0.031 A 
ATOM     45  C   UNL A   1      37.583  32.773  31.412  1.00  0.00     0.031 A 
ATOM     46  C   UNL A   1      42.338  30.450  35.238  1.00  0.00     0.049 A 
ATOM     47  C   UNL A   1      38.121  33.189  32.751  1.00  0.00     0.074 A 
ATOM     48  C   UNL A   1      42.766  30.948  36.457  1.00  0.00     0.029 A 
ATOM     49  N   UNL A   1      41.285  31.253  34.825  1.00  0.00    -0.354 N 
ATOM     50  N   UNL A   1      39.102  32.659  33.442  1.00  0.00    -0.248 NA
ATOM     51  C   UNL A   1      37.469  34.334  33.400  1.00  0.00     0.031 C 
ATOM     52  C   UNL A   1      41.944  32.027  36.800  1.00  0.00     0.029 A 
ATOM     53  C   UNL A   1      41.038  32.233  35.773  1.00  0.00     0.049 A 
ATOM     54  H   UNL A   1      40.787  31.144  33.984  1.00  0.00     0.167 HD
ATOM     55  C   UNL A   1      39.187  33.407  34.610  1.00  0.00     0.074 A 
ATOM     56  C   UNL A   1      38.175  34.442  34.517  1.00  0.00     0.031 C 
ATOM     57  C   UNL A   1      40.020  33.247  35.667  1.00  0.00     0.031 A 
BRANCH  44  58
ATOM     58  C   UNL A   1      43.965  28.515  35.108  1.00  0.00    -0.014 A 
ATOM     59  C   UNL A   1      43.698  27.396  35.917  1.00  0.00     0.010 A 
ATOM     60  C   UNL A   1      45.304  28.864  34.846  1.00  0.00     0.010 A 
ATOM     61  C   UNL A   1      44.749  26.672  36.491  1.00  0.00     0.020 A 
ATOM     62  C   UNL A   1      46.357  28.126  35.394  1.00  0.00     0.020 A 
ATOM     63  C   UNL A   1      46.071  27.046  36.230  1.00  0.00     0.054 A 
BRANCH  63  64
ATOM     64  S   UNL A   1      47.418  26.085  36.978  1.00  0.00     0.124 S 
ATOM     65  O   UNL A   1      47.170  26.282  38.404  1.00  0.00    -0.237 OA
ATOM     66  O   UNL A   1      47.167  24.735  36.478  1.00  0.00    -0.237 OA
ATOM     67  O   UNL A   1      48.626  26.723  36.462  1.00  0.00    -0.744 OA
ENDBRANCH  63  64
ENDBRANCH  44  58
BRANCH  45  68
ATOM     68  C   UNL A   1      36.422  33.467  30.793  1.00  0.00    -0.014 A 
ATOM     69  C   UNL A   1      35.240  33.682  31.522  1.00  0.00     0.010 A 
ATOM     70  C   UNL A   1      36.518  33.968  29.480  1.00  0.00     0.010 A 
ATOM     71  C   UNL A   1      34.177  34.389  30.951  1.00  0.00     0.020 A 
ATOM     72  C   UNL A   1      35.470  34.701  28.918  1.00  0.00     0.020 A 
ATOM     73  C   UNL A   1      34.302  34.901  29.655  1.00  0.00     0.054 A 
BRANCH  73  74
ATOM     74  S   UNL A   1      32.948  35.895  28.966  1.00  0.00     0.124 S 
ATOM     75  O   UNL A   1      32.324  34.955  28.041  1.00  0.00    -0.237 OA
ATOM     76  O   UNL A   1      32.165  36.232  30.152  1.00  0.00    -0.237 OA
ATOM     77  O   UNL A   1      33.638  37.024  28.345  1.00  0.00    -0.744 OA
ENDBRANCH  73  74
ENDBRANCH  45  68
BRANCH  57  78
ATOM     78  C   UNL A   1      39.885  34.228  36.798  1.00  0.00    -0.014 A 
ATOM     79  C   UNL A   1      40.519  35.481  36.749  1.00  0.00     0.010 A 
ATOM     80  C   UNL A   1      39.080  33.904  37.904  1.00  0.00     0.010 A 
ATOM     81  C   UNL A   1      40.374  36.385  37.806  1.00  0.00     0.020 A 
ATOM     82  C   UNL A   1      38.915  34.814  38.952  1.00  0.00     0.020 A 
ATOM     83  C   UNL A   1      39.577  36.043  38.901  1.00  0.00     0.054 A 
BRANCH  83  84
ATOM     84  S   UNL A   1      39.375  37.245  40.246  1.00  0.00     0.124 S 
ATOM     85  O   UNL A   1      40.762  37.554  40.585  1.00  0.00    -0.237 OA
ATOM     86  O   UNL A   1      38.630  38.325  39.604  1.00  0.00    -0.237 OA
ATOM     87  O   UNL A   1      38.634  36.503  41.263  1.00  0.00    -0.744 OA
ENDBRANCH  83  84
ENDBRANCH  57  78
ENDBRANCH  31  32
ENDBRANCH  24  26
ENDBRANCH  23  24
ENDBRANCH   1  23
TORSDOF 16
ENDMDL
MODEL 2
REMARK VINA RESULT:     -11.2      1.423      1.876
REMARK SMILES Cc1ccc(Cl)c(Nc2ccccc2C(=O)OCCOC(=O)c2ccc(-c3c4nc(c(-c5ccc(S(=O)(=O)[O-])cc5)c5ccc([nH]5)c(-c5ccc(S(=O)(=O)[O-])cc5)c5nc(c(-c6ccc(S(=O)(=O)[O-])cc6)c6ccc3[nH]6)C=C5)C=C4)cc2)c1Cl
REMARK SMILES IDX 19 1 18 2 17 3 15 4 16 5 14 6 9 7 10 8 11 9 13 10 12 11 8 12
REMARK SMILES IDX 7 14 1 15 2 16 3 17 83 18 4 19 84 20 5 21 6 22 20 23 21 24
REMARK SMILES IDX 22 25 23 26 24 27 82 28 25 29 81 30 26 31 27 32 28 33 75 34
REMARK SMILES IDX 29 35 80 36 74 37 76 38 30 39 79 40 73 41 72 42 31 44 61 45
REMARK SMILES IDX 42 46 60 47 43 48 46 49 59 50 77 51 44 52 45 53 58 55 78 56
REMARK SMILES IDX 47 57 32 58 33 59 41 60 34 61 40 62 35 63 36 64 37 65 38 66
REMARK SMILES IDX 39 67 62 68 63 69 71 70 64 71 70 72 65 73 66 74 67 75 68 76
REMARK SMILES IDX 69 77 48 78 49 79 57 80 50 81 56 82 51 83 52 84 53 85 54 86
REMARK SMILES IDX 55 87
REMARK H PARENT 8 13 76 43 46 54
REMARK Flexibility Score: inf
ROOT
ATOM      1  C   UNL A   1      38.599  23.505  26.211  1.00  0.00     0.275 C 
ENDROOT
BRANCH   1   2
ATOM      2  C   UNL A   1      37.201  22.977  25.915  1.00  0.00     0.275 C 
BRANCH   2   3
ATOM      3  O   UNL A   1      37.180  22.129  24.747  1.00  0.00    -0.458 OA
BRANCH   3   4
ATOM      4  C   UNL A   1      36.363  22.541  23.741  1.00  0.00     0.340 C 
ATOM      5  O   UNL A   1      36.713  23.098  22.715  1.00  0.00    -0.246 OA
BRANCH   4   6
ATOM      6  C   UNL A   1      34.951  22.183  24.017  1.00  0.00     0.083 A 
ATOM      7  C   UNL A   1      33.863  23.024  23.717  1.00  0.00     0.053 A 
ATOM      8  C   UNL A   1      32.572  22.568  24.056  1.00  0.00     0.027 A 
ATOM      9  C   UNL A   1      32.362  21.311  24.632  1.00  0.00     0.002 A 
ATOM     10  C   UNL A   1      34.726  20.908  24.567  1.00  0.00     0.018 A 
ATOM     11  C   UNL A   1      33.440  20.475  24.879  1.00  0.00     0.001 A 
BRANCH   7  12
ATOM     12  N   UNL A   1      33.932  24.238  22.998  1.00  0.00    -0.352 N 
ATOM     13  H   UNL A   1      34.500  24.202  22.194  1.00  0.00     0.167 HD
BRANCH  12  14
ATOM     14  C   UNL A   1      33.330  25.500  23.230  1.00  0.00     0.077 A 
ATOM     15  C   UNL A   1      32.248  27.816  26.106  1.00  0.00     0.046 C 
ATOM     16  C   UNL A   1      32.455  27.250  24.726  1.00  0.00    -0.030 A 
ATOM     17  C   UNL A   1      31.745  27.804  23.651  1.00  0.00     0.006 A 
ATOM     18  C   UNL A   1      33.283  26.130  24.496  1.00  0.00     0.069 A 
ATOM     19  C   UNL A   1      31.858  27.261  22.375  1.00  0.00     0.023 A 
ATOM     20  Cl  UNL A   1      34.332  25.596  25.782  1.00  0.00    -0.082 Cl
ATOM     21  C   UNL A   1      32.628  26.116  22.172  1.00  0.00     0.066 A 
ATOM     22  Cl  UNL A   1      32.663  25.444  20.574  1.00  0.00    -0.082 Cl
ENDBRANCH  12  14
ENDBRANCH   7  12
ENDBRANCH   4   6
ENDBRANCH   3   4
ENDBRANCH   2   3
ENDBRANCH   1   2
BRANCH   1  23
ATOM     23  O   UNL A   1      38.509  24.700  26.998  1.00  0.00    -0.458 OA
BRANCH  23  24
ATOM     24  C   UNL A   1      39.592  25.504  26.953  1.00  0.00     0.338 C 
ATOM     25  O   UNL A   1      40.525  25.458  26.166  1.00  0.00    -0.246 OA
BRANCH  24  26
ATOM     26  C   UNL A   1      39.488  26.522  28.007  1.00  0.00     0.060 A 
ATOM     27  C   UNL A   1      40.090  27.760  27.809  1.00  0.00     0.016 A 
ATOM     28  C   UNL A   1      38.929  26.201  29.241  1.00  0.00     0.016 A 
ATOM     29  C   UNL A   1      40.252  28.637  28.875  1.00  0.00     0.010 A 
ATOM     30  C   UNL A   1      38.985  27.136  30.278  1.00  0.00     0.010 A 
ATOM     31  C   UNL A   1      39.692  28.344  30.124  1.00  0.00    -0.014 A 
BRANCH  31  32
ATOM     32  C   UNL A   1      39.881  29.270  31.276  1.00  0.00     0.031 A 
ATOM     33  C   UNL A   1      41.082  29.116  32.176  1.00  0.00     0.074 A 
ATOM     34  C   UNL A   1      38.987  30.249  31.522  1.00  0.00     0.049 A 
ATOM     35  N   UNL A   1      41.323  29.672  33.335  1.00  0.00    -0.248 NA
ATOM     36  C   UNL A   1      42.141  28.200  31.720  1.00  0.00     0.031 C 
ATOM     37  C   UNL A   1      37.804  30.548  30.710  1.00  0.00     0.029 A 
ATOM     38  N   UNL A   1      38.934  31.180  32.531  1.00  0.00    -0.354 N 
ATOM     39  C   UNL A   1      42.517  29.115  33.783  1.00  0.00     0.074 A 
ATOM     40  C   UNL A   1      42.955  28.184  32.766  1.00  0.00     0.031 C 
ATOM     41  C   UNL A   1      37.169  31.610  31.227  1.00  0.00     0.029 A 
ATOM     42  C   UNL A   1      37.836  32.004  32.461  1.00  0.00     0.049 A 
ATOM     43  H   UNL A   1      39.619  31.251  33.236  1.00  0.00     0.167 HD
ATOM     44  C   UNL A   1      43.178  29.351  34.941  1.00  0.00     0.031 A 
ATOM     45  C   UNL A   1      37.377  32.939  33.317  1.00  0.00     0.031 A 
ATOM     46  C   UNL A   1      42.762  30.320  35.922  1.00  0.00     0.049 A 
ATOM     47  C   UNL A   1      38.123  33.182  34.597  1.00  0.00     0.074 A 
ATOM     48  C   UNL A   1      43.376  30.655  37.116  1.00  0.00     0.029 A 
ATOM     49  N   UNL A   1      41.636  31.122  35.812  1.00  0.00    -0.354 N 
ATOM     50  N   UNL A   1      39.218  32.605  35.032  1.00  0.00    -0.248 NA
ATOM     51  C   UNL A   1      37.562  34.186  35.509  1.00  0.00     0.031 C 
ATOM     52  C   UNL A   1      42.598  31.631  37.748  1.00  0.00     0.029 A 
ATOM     53  C   UNL A   1      41.527  31.940  36.925  1.00  0.00     0.049 A 
ATOM     54  H   UNL A   1      41.006  31.111  35.056  1.00  0.00     0.167 HD
ATOM     55  C   UNL A   1      39.479  33.179  36.269  1.00  0.00     0.074 A 
ATOM     56  C   UNL A   1      38.442  34.166  36.501  1.00  0.00     0.031 C 
ATOM     57  C   UNL A   1      40.482  32.908  37.141  1.00  0.00     0.031 A 
BRANCH  44  58
ATOM     58  C   UNL A   1      44.389  28.505  35.238  1.00  0.00    -0.014 A 
ATOM     59  C   UNL A   1      45.686  28.908  34.872  1.00  0.00     0.010 A 
ATOM     60  C   UNL A   1      44.222  27.287  35.924  1.00  0.00     0.010 A 
ATOM     61  C   UNL A   1      46.785  28.086  35.145  1.00  0.00     0.020 A 
ATOM     62  C   UNL A   1      45.320  26.476  36.223  1.00  0.00     0.020 A 
ATOM     63  C   UNL A   1      46.593  26.872  35.812  1.00  0.00     0.054 A 
BRANCH  63  64
ATOM     64  S   UNL A   1      48.036  25.827  36.163  1.00  0.00     0.124 S 
ATOM     65  O   UNL A   1      47.579  24.520  35.695  1.00  0.00    -0.237 OA
ATOM     66  O   UNL A   1      49.087  26.448  35.360  1.00  0.00    -0.237 OA
ATOM     67  O   UNL A   1      48.207  25.947  37.608  1.00  0.00    -0.744 OA
ENDBRANCH  63  64
ENDBRANCH  44  58
BRANCH  45  68
ATOM     68  C   UNL A   1      36.112  33.658  33.007  1.00  0.00    -0.014 A 
ATOM     69  C   UNL A   1      34.866  33.085  33.310  1.00  0.00     0.010 A 
ATOM     70  C   UNL A   1      36.154  34.952  32.453  1.00  0.00     0.010 A 
ATOM     71  C   UNL A   1      33.685  33.795  33.071  1.00  0.00     0.020 A 
ATOM     72  C   UNL A   1      34.979  35.676  32.241  1.00  0.00     0.020 A 
ATOM     73  C   UNL A   1      33.749  35.089  32.545  1.00  0.00     0.054 A 
BRANCH  73  74
ATOM     74  S   UNL A   1      32.212  36.030  32.328  1.00  0.00     0.124 S 
ATOM     75  O   UNL A   1      32.396  37.131  33.266  1.00  0.00    -0.237 OA
ATOM     76  O   UNL A   1      32.256  36.388  30.912  1.00  0.00    -0.237 OA
ATOM     77  O   UNL A   1      31.172  35.067  32.685  1.00  0.00    -0.744 OA
ENDBRANCH  73  74
ENDBRANCH  45  68
BRANCH  57  78
ATOM     78  C   UNL A   1      40.516  33.706  38.414  1.00  0.00    -0.014 A 
ATOM     79  C   UNL A   1      41.231  34.913  38.493  1.00  0.00     0.010 A 
ATOM     80  C   UNL A   1      39.788  33.260  39.531  1.00  0.00     0.010 A 
ATOM     81  C   UNL A   1      41.243  35.647  39.683  1.00  0.00     0.020 A 
ATOM     82  C   UNL A   1      39.780  34.003  40.715  1.00  0.00     0.020 A 
ATOM     83  C   UNL A   1      40.521  35.185  40.786  1.00  0.00     0.054 A 
BRANCH  83  84
ATOM     84  S   UNL A   1      40.523  36.171  42.309  1.00  0.00     0.124 S 
ATOM     85  O   UNL A   1      41.271  37.357  41.901  1.00  0.00    -0.237 OA
ATOM     86  O   UNL A   1      39.099  36.383  42.558  1.00  0.00    -0.237 OA
ATOM     87  O   UNL A   1      41.197  35.310  43.278  1.00  0.00    -0.744 OA
ENDBRANCH  83  84
ENDBRANCH  57  78
ENDBRANCH  31  32
ENDBRANCH  24  26
ENDBRANCH  23  24
ENDBRANCH   1  23
TORSDOF 16
ENDMDL
MODEL 3
REMARK VINA RESULT:     -11.1      3.853      5.631
REMARK SMILES Cc1ccc(Cl)c(Nc2ccccc2C(=O)OCCOC(=O)c2ccc(-c3c4nc(c(-c5ccc(S(=O)(=O)[O-])cc5)c5ccc([nH]5)c(-c5ccc(S(=O)(=O)[O-])cc5)c5nc(c(-c6ccc(S(=O)(=O)[O-])cc6)c6ccc3[nH]6)C=C5)C=C4)cc2)c1Cl
REMARK SMILES IDX 19 1 18 2 17 3 15 4 16 5 14 6 9 7 10 8 11 9 13 10 12 11 8 12
REMARK SMILES IDX 7 14 1 15 2 16 3 17 83 18 4 19 84 20 5 21 6 22 20 23 21 24
REMARK SMILES IDX 22 25 23 26 24 27 82 28 25 29 81 30 26 31 27 32 28 33 75 34
REMARK SMILES IDX 29 35 80 36 74 37 76 38 30 39 79 40 73 41 72 42 31 44 61 45
REMARK SMILES IDX 42 46 60 47 43 48 46 49 59 50 77 51 44 52 45 53 58 55 78 56
REMARK SMILES IDX 47 57 32 58 33 59 41 60 34 61 40 62 35 63 36 64 37 65 38 66
REMARK SMILES IDX 39 67 62 68 63 69 71 70 64 71 70 72 65 73 66 74 67 75 68 76
REMARK SMILES IDX 69 77 48 78 49 79 57 80 50 81 56 82 51 83 52 84 53 85 54 86
REMARK SMILES IDX 55 87
REMARK H PARENT 8 13 76 43 46 54
REMARK Flexibility Score: inf
ROOT
ATOM      1  C   UNL A   1      40.344  22.100  26.483  1.00  0.00     0.275 C 
ENDROOT
BRANCH   1   2
ATOM      2  C   UNL A   1      40.640  20.975  27.467  1.00  0.00     0.275 C 
BRANCH   2   3
ATOM      3  O   UNL A   1      41.979  20.459  27.311  1.00  0.00    -0.458 OA
BRANCH   3   4
ATOM      4  C   UNL A   1      42.256  19.907  26.100  1.00  0.00     0.340 C 
ATOM      5  O   UNL A   1      41.493  19.239  25.424  1.00  0.00    -0.246 OA
BRANCH   4   6
ATOM      6  C   UNL A   1      43.624  20.259  25.651  1.00  0.00     0.083 A 
ATOM      7  C   UNL A   1      44.297  21.430  26.053  1.00  0.00     0.053 A 
ATOM      8  C   UNL A   1      45.587  21.652  25.529  1.00  0.00     0.027 A 
ATOM      9  C   UNL A   1      46.206  20.734  24.676  1.00  0.00     0.002 A 
ATOM     10  C   UNL A   1      44.268  19.327  24.817  1.00  0.00     0.018 A 
ATOM     11  C   UNL A   1      45.548  19.563  24.327  1.00  0.00     0.001 A 
BRANCH   7  12
ATOM     12  N   UNL A   1      43.845  22.348  27.025  1.00  0.00    -0.352 N 
ATOM     13  H   UNL A   1      43.182  21.980  27.654  1.00  0.00     0.167 HD
BRANCH  12  14
ATOM     14  C   UNL A   1      44.176  23.707  27.257  1.00  0.00     0.077 A 
ATOM     15  C   UNL A   1      45.064  26.935  25.360  1.00  0.00     0.046 C 
ATOM     16  C   UNL A   1      44.819  25.952  26.475  1.00  0.00    -0.030 A 
ATOM     17  C   UNL A   1      45.251  26.272  27.769  1.00  0.00     0.006 A 
ATOM     18  C   UNL A   1      44.239  24.687  26.238  1.00  0.00     0.069 A 
ATOM     19  C   UNL A   1      45.105  25.359  28.809  1.00  0.00     0.023 A 
ATOM     20  Cl  UNL A   1      43.501  24.389  24.687  1.00  0.00    -0.082 Cl
ATOM     21  C   UNL A   1      44.589  24.088  28.551  1.00  0.00     0.066 A 
ATOM     22  Cl  UNL A   1      44.507  22.971  29.874  1.00  0.00    -0.082 Cl
ENDBRANCH  12  14
ENDBRANCH   7  12
ENDBRANCH   4   6
ENDBRANCH   3   4
ENDBRANCH   2   3
ENDBRANCH   1   2
BRANCH   1  23
ATOM     23  O   UNL A   1      40.926  23.322  26.954  1.00  0.00    -0.458 OA
BRANCH  23  24
ATOM     24  C   UNL A   1      40.185  24.431  26.750  1.00  0.00     0.338 C 
ATOM     25  O   UNL A   1      39.453  24.677  25.803  1.00  0.00    -0.246 OA
BRANCH  24  26
ATOM     26  C   UNL A   1      40.352  25.345  27.887  1.00  0.00     0.060 A 
ATOM     27  C   UNL A   1      39.299  25.503  28.783  1.00  0.00     0.016 A 
ATOM     28  C   UNL A   1      41.481  26.152  27.981  1.00  0.00     0.016 A 
ATOM     29  C   UNL A   1      39.310  26.550  29.698  1.00  0.00     0.010 A 
ATOM     30  C   UNL A   1      41.543  27.125  28.983  1.00  0.00     0.010 A 
ATOM     31  C   UNL A   1      40.438  27.370  29.820  1.00  0.00    -0.014 A 
BRANCH  31  32
ATOM     32  C   UNL A   1      40.449  28.507  30.784  1.00  0.00     0.031 A 
ATOM     33  C   UNL A   1      41.451  28.528  31.911  1.00  0.00     0.074 A 
ATOM     34  C   UNL A   1      39.569  29.521  30.656  1.00  0.00     0.049 A 
ATOM     35  N   UNL A   1      41.494  29.303  32.963  1.00  0.00    -0.248 NA
ATOM     36  C   UNL A   1      42.535  27.533  31.856  1.00  0.00     0.031 C 
ATOM     37  C   UNL A   1      38.575  29.659  29.588  1.00  0.00     0.029 A 
ATOM     38  N   UNL A   1      39.370  30.635  31.434  1.00  0.00    -0.354 N 
ATOM     39  C   UNL A   1      42.556  28.839  33.734  1.00  0.00     0.074 A 
ATOM     40  C   UNL A   1      43.136  27.721  33.022  1.00  0.00     0.031 C 
ATOM     41  C   UNL A   1      37.903  30.806  29.755  1.00  0.00     0.029 A 
ATOM     42  C   UNL A   1      38.342  31.436  30.994  1.00  0.00     0.049 A 
ATOM     43  H   UNL A   1      39.912  30.841  32.231  1.00  0.00     0.167 HD
ATOM     44  C   UNL A   1      42.998  29.298  34.930  1.00  0.00     0.031 A 
ATOM     45  C   UNL A   1      37.773  32.526  31.546  1.00  0.00     0.031 A 
ATOM     46  C   UNL A   1      42.449  30.447  35.603  1.00  0.00     0.049 A 
ATOM     47  C   UNL A   1      38.275  33.015  32.873  1.00  0.00     0.074 A 
ATOM     48  C   UNL A   1      42.842  31.010  36.804  1.00  0.00     0.029 A 
ATOM     49  N   UNL A   1      41.400  31.217  35.123  1.00  0.00    -0.354 N 
ATOM     50  N   UNL A   1      39.242  32.530  33.615  1.00  0.00    -0.248 NA
ATOM     51  C   UNL A   1      37.598  34.186  33.446  1.00  0.00     0.031 C 
ATOM     52  C   UNL A   1      42.003  32.098  37.071  1.00  0.00     0.029 A 
ATOM     53  C   UNL A   1      41.122  32.242  36.012  1.00  0.00     0.049 A 
ATOM     54  H   UNL A   1      40.924  31.060  34.277  1.00  0.00     0.167 HD
ATOM     55  C   UNL A   1      39.291  33.338  34.744  1.00  0.00     0.074 A 
ATOM     56  C   UNL A   1      38.274  34.358  34.574  1.00  0.00     0.031 C 
ATOM     57  C   UNL A   1      40.099  33.241  35.829  1.00  0.00     0.031 A 
BRANCH  44  58
ATOM     58  C   UNL A   1      44.092  28.521  35.614  1.00  0.00    -0.014 A 
ATOM     59  C   UNL A   1      43.814  27.456  36.488  1.00  0.00     0.010 A 
ATOM     60  C   UNL A   1      45.435  28.855  35.352  1.00  0.00     0.010 A 
ATOM     61  C   UNL A   1      44.856  26.772  37.124  1.00  0.00     0.020 A 
ATOM     62  C   UNL A   1      46.480  28.156  35.963  1.00  0.00     0.020 A 
ATOM     63  C   UNL A   1      46.182  27.131  36.862  1.00  0.00     0.054 A 
BRANCH  63  64
ATOM     64  S   UNL A   1      47.517  26.222  37.691  1.00  0.00     0.124 S 
ATOM     65  O   UNL A   1      46.811  25.612  38.815  1.00  0.00    -0.237 OA
ATOM     66  O   UNL A   1      47.967  25.295  36.655  1.00  0.00    -0.237 OA
ATOM     67  O   UNL A   1      48.475  27.265  38.048  1.00  0.00    -0.744 OA
ENDBRANCH  63  64
ENDBRANCH  44  58
BRANCH  45  68
ATOM     68  C   UNL A   1      36.623  33.177  30.863  1.00  0.00    -0.014 A 
ATOM     69  C   UNL A   1      35.342  33.162  31.440  1.00  0.00     0.010 A 
ATOM     70  C   UNL A   1      36.820  33.866  29.650  1.00  0.00     0.010 A 
ATOM     71  C   UNL A   1      34.280  33.829  30.820  1.00  0.00     0.020 A 
ATOM     72  C   UNL A   1      35.769  34.558  29.044  1.00  0.00     0.020 A 
ATOM     73  C   UNL A   1      34.503  34.530  29.630  1.00  0.00     0.054 A 
BRANCH  73  74
ATOM     74  S   UNL A   1      33.135  35.465  28.889  1.00  0.00     0.124 S 
ATOM     75  O   UNL A   1      32.426  34.428  28.148  1.00  0.00    -0.237 OA
ATOM     76  O   UNL A   1      32.441  35.995  30.060  1.00  0.00    -0.237 OA
ATOM     77  O   UNL A   1      33.813  36.469  28.072  1.00  0.00    -0.744 OA
ENDBRANCH  73  74
ENDBRANCH  45  68
BRANCH  57  78
ATOM     78  C   UNL A   1      39.928  34.277  36.904  1.00  0.00    -0.014 A 
ATOM     79  C   UNL A   1      40.483  35.561  36.766  1.00  0.00     0.010 A 
ATOM     80  C   UNL A   1      39.167  33.973  38.046  1.00  0.00     0.010 A 
ATOM     81  C   UNL A   1      40.306  36.516  37.772  1.00  0.00     0.020 A 
ATOM     82  C   UNL A   1      38.969  34.933  39.043  1.00  0.00     0.020 A 
ATOM     83  C   UNL A   1      39.553  36.194  38.904  1.00  0.00     0.054 A 
BRANCH  83  84
ATOM     84  S   UNL A   1      39.307  37.459  40.181  1.00  0.00     0.124 S 
ATOM     85  O   UNL A   1      38.723  36.680  41.270  1.00  0.00    -0.237 OA
ATOM     86  O   UNL A   1      40.664  37.947  40.417  1.00  0.00    -0.237 OA
ATOM     87  O   UNL A   1      38.407  38.419  39.548  1.00  0.00    -0.744 OA
ENDBRANCH  83  84
ENDBRANCH  57  78
ENDBRANCH  31  32
ENDBRANCH  24  26
ENDBRANCH  23  24
ENDBRANCH   1  23
TORSDOF 16
ENDMDL
