MODEL 1
REMARK VINA RESULT:     -11.6      0.000      0.000
REMARK SMILES Cc1cc(C)n(C)c(=O)c1C(=O)[NH+]1CCC2(CC1)C[NH2+][C@@H](C(=O)OCCOC(=O)c1ccc(-c3c4nc(c(-c5ccc(S(=O)(=O)[O-])cc5)c5ccc([nH]5)c(-c5ccc(S(=O)(=O)[O-])cc5)c5nc(c(-c6ccc(S(=O)(=O)[O-])cc6)c6ccc3[nH]6)C=C5)C=C4)cc1)C2
REMARK SMILES IDX 26 1 25 2 24 3 22 4 23 5 21 6 13 7 14 8 18 9 15 11 17 12
REMARK SMILES IDX 16 13 19 14 90 15 20 16 11 19 12 20 10 21 1 22 2 23 3 24
REMARK SMILES IDX 4 25 8 26 5 27 6 28 9 29 7 30 27 31 28 32 29 33 30 34 31 35
REMARK SMILES IDX 89 36 32 37 88 38 33 39 34 40 35 41 82 42 36 43 87 44 81 45
REMARK SMILES IDX 83 46 37 47 86 48 80 49 79 50 38 52 68 53 49 54 67 55 50 56
REMARK SMILES IDX 53 57 66 58 84 59 51 60 52 61 65 63 85 64 54 65 39 66 40 67
REMARK SMILES IDX 48 68 41 69 47 70 42 71 43 72 44 73 45 74 46 75 69 76 70 77
REMARK SMILES IDX 78 78 71 79 77 80 72 81 73 82 74 83 75 84 76 85 55 86 56 87
REMARK SMILES IDX 64 88 57 89 63 90 58 91 59 92 60 93 61 94 62 95
REMARK H PARENT 13 10 20 17 20 18 83 51 53 62
REMARK Flexibility Score: inf
ROOT
ATOM      1  C   UNL A   1      42.625  23.415  25.888  1.00  0.00     0.275 C 
ENDROOT
BRANCH   1   2
ATOM      2  C   UNL A   1      42.280  21.925  25.878  1.00  0.00     0.274 C 
BRANCH   2   3
ATOM      3  O   UNL A   1      41.175  21.674  26.761  1.00  0.00    -0.458 OA
BRANCH   3   4
ATOM      4  C   UNL A   1      40.082  21.096  26.204  1.00  0.00     0.364 C 
ATOM      5  O   UNL A   1      39.915  19.885  26.080  1.00  0.00    -0.245 OA
BRANCH   4   6
ATOM      6  C   UNL A   1      39.045  22.107  25.731  1.00  0.00     0.294 C 
ATOM      7  N   UNL A   1      33.993  22.793  24.399  1.00  0.00    -0.267 N 
ATOM      8  C   UNL A   1      35.091  22.627  23.456  1.00  0.00     0.271 C 
ATOM      9  C   UNL A   1      34.170  22.052  25.637  1.00  0.00     0.271 C 
ATOM     10  H   UNL A   1      34.364  23.699  24.506  1.00  0.00     0.357 HD
ATOM     11  C   UNL A   1      36.302  23.336  24.042  1.00  0.00     0.075 C 
ATOM     12  C   UNL A   1      35.520  22.329  26.324  1.00  0.00     0.075 C 
ATOM     13  C   UNL A   1      36.719  22.762  25.418  1.00  0.00     0.036 C 
ATOM     14  C   UNL A   1      37.589  23.815  26.157  1.00  0.00     0.268 C 
ATOM     15  C   UNL A   1      37.705  21.580  25.222  1.00  0.00     0.090 C 
ATOM     16  N   UNL A   1      38.645  23.039  26.803  1.00  0.00    -0.334 N 
ATOM     17  H   UNL A   1      38.290  22.536  27.616  1.00  0.00     0.347 HD
ATOM     18  H   UNL A   1      39.413  23.608  27.158  1.00  0.00     0.347 HD
BRANCH   7  19
ATOM     19  C   UNL A   1      32.910  23.564  24.001  1.00  0.00     0.350 C 
ATOM     20  O   UNL A   1      31.931  23.042  23.460  1.00  0.00    -0.225 OA
BRANCH  19  21
ATOM     21  C   UNL A   1      32.931  25.066  24.061  1.00  0.00     0.147 A 
ATOM     22  C   UNL A   1      32.920  25.443  21.529  1.00  0.00     0.045 C 
ATOM     23  C   UNL A   1      32.860  25.857  22.967  1.00  0.00    -0.027 A 
ATOM     24  C   UNL A   1      32.521  27.263  23.096  1.00  0.00     0.026 A 
ATOM     25  C   UNL A   1      32.014  27.761  24.232  1.00  0.00     0.018 A 
ATOM     26  C   UNL A   1      32.624  25.703  25.398  1.00  0.00     0.267 A 
ATOM     27  C   UNL A   1      31.469  29.163  24.227  1.00  0.00     0.064 C 
ATOM     28  N   UNL A   1      32.011  26.970  25.375  1.00  0.00    -0.315 N 
ATOM     29  O   UNL A   1      32.903  25.125  26.449  1.00  0.00    -0.268 OA
ATOM     30  C   UNL A   1      31.417  27.453  26.614  1.00  0.00     0.153 C 
ENDBRANCH  19  21
ENDBRANCH   7  19
ENDBRANCH   4   6
ENDBRANCH   3   4
ENDBRANCH   2   3
ENDBRANCH   1   2
BRANCH   1  31
ATOM     31  O   UNL A   1      41.549  24.199  26.439  1.00  0.00    -0.458 OA
BRANCH  31  32
ATOM     32  C   UNL A   1      41.573  25.516  26.123  1.00  0.00     0.338 C 
ATOM     33  O   UNL A   1      41.528  26.010  25.011  1.00  0.00    -0.246 OA
BRANCH  32  34
ATOM     34  C   UNL A   1      41.541  26.320  27.353  1.00  0.00     0.060 A 
ATOM     35  C   UNL A   1      40.581  26.014  28.320  1.00  0.00     0.016 A 
ATOM     36  C   UNL A   1      42.375  27.426  27.512  1.00  0.00     0.016 A 
ATOM     37  C   UNL A   1      40.435  26.818  29.444  1.00  0.00     0.010 A 
ATOM     38  C   UNL A   1      42.241  28.226  28.653  1.00  0.00     0.010 A 
ATOM     39  C   UNL A   1      41.262  27.933  29.618  1.00  0.00    -0.014 A 
BRANCH  39  40
ATOM     40  C   UNL A   1      41.063  28.807  30.799  1.00  0.00     0.031 A 
ATOM     41  C   UNL A   1      39.971  29.837  30.798  1.00  0.00     0.074 A 
ATOM     42  C   UNL A   1      41.828  28.634  31.893  1.00  0.00     0.049 A 
ATOM     43  N   UNL A   1      39.660  30.709  31.721  1.00  0.00    -0.248 NA
ATOM     44  C   UNL A   1      39.111  29.884  29.606  1.00  0.00     0.031 C 
ATOM     45  C   UNL A   1      42.868  27.615  32.042  1.00  0.00     0.029 A 
ATOM     46  N   UNL A   1      41.834  29.296  33.094  1.00  0.00    -0.354 N 
ATOM     47  C   UNL A   1      38.575  31.418  31.221  1.00  0.00     0.074 A 
ATOM     48  C   UNL A   1      38.299  30.890  29.901  1.00  0.00     0.031 C 
ATOM     49  C   UNL A   1      43.387  27.697  33.277  1.00  0.00     0.029 A 
ATOM     50  C   UNL A   1      42.758  28.808  33.985  1.00  0.00     0.049 A 
ATOM     51  H   UNL A   1      41.233  30.049  33.297  1.00  0.00     0.167 HD
ATOM     52  C   UNL A   1      37.873  32.417  31.808  1.00  0.00     0.031 A 
ATOM     53  C   UNL A   1      43.075  29.219  35.230  1.00  0.00     0.031 A 
ATOM     54  C   UNL A   1      38.165  32.954  33.111  1.00  0.00     0.049 A 
ATOM     55  C   UNL A   1      42.356  30.399  35.818  1.00  0.00     0.074 A 
ATOM     56  C   UNL A   1      37.533  33.988  33.779  1.00  0.00     0.029 A 
ATOM     57  N   UNL A   1      39.176  32.498  33.944  1.00  0.00    -0.354 N 
ATOM     58  N   UNL A   1      41.366  31.094  35.311  1.00  0.00    -0.248 NA
ATOM     59  C   UNL A   1      42.804  30.858  37.139  1.00  0.00     0.031 C 
ATOM     60  C   UNL A   1      38.192  34.187  34.998  1.00  0.00     0.029 A 
ATOM     61  C   UNL A   1      39.202  33.242  35.111  1.00  0.00     0.049 A 
ATOM     62  H   UNL A   1      39.786  31.754  33.736  1.00  0.00     0.167 HD
ATOM     63  C   UNL A   1      41.066  32.069  36.254  1.00  0.00     0.074 A 
ATOM     64  C   UNL A   1      41.971  31.865  37.368  1.00  0.00     0.031 C 
ATOM     65  C   UNL A   1      40.123  33.042  36.202  1.00  0.00     0.031 A 
BRANCH  52  66
ATOM     66  C   UNL A   1      36.750  33.021  31.008  1.00  0.00    -0.014 A 
ATOM     67  C   UNL A   1      37.005  33.792  29.859  1.00  0.00     0.010 A 
ATOM     68  C   UNL A   1      35.419  32.828  31.421  1.00  0.00     0.010 A 
ATOM     69  C   UNL A   1      35.954  34.404  29.170  1.00  0.00     0.020 A 
ATOM     70  C   UNL A   1      34.363  33.418  30.721  1.00  0.00     0.020 A 
ATOM     71  C   UNL A   1      34.640  34.224  29.614  1.00  0.00     0.054 A 
BRANCH  71  72
ATOM     72  S   UNL A   1      33.294  35.050  28.721  1.00  0.00     0.124 S 
ATOM     73  O   UNL A   1      32.438  35.495  29.818  1.00  0.00    -0.237 OA
ATOM     74  O   UNL A   1      33.990  36.110  27.998  1.00  0.00    -0.237 OA
ATOM     75  O   UNL A   1      32.734  33.993  27.883  1.00  0.00    -0.744 OA
ENDBRANCH  71  72
ENDBRANCH  52  66
BRANCH  53  76
ATOM     76  C   UNL A   1      44.128  28.493  35.987  1.00  0.00    -0.014 A 
ATOM     77  C   UNL A   1      43.786  27.396  36.796  1.00  0.00     0.010 A 
ATOM     78  C   UNL A   1      45.483  28.843  35.841  1.00  0.00     0.010 A 
ATOM     79  C   UNL A   1      44.783  26.648  37.428  1.00  0.00     0.020 A 
ATOM     80  C   UNL A   1      46.484  28.085  36.455  1.00  0.00     0.020 A 
ATOM     81  C   UNL A   1      46.127  26.989  37.242  1.00  0.00     0.054 A 
BRANCH  81  82
ATOM     82  S   UNL A   1      47.405  25.932  37.979  1.00  0.00     0.124 S 
ATOM     83  O   UNL A   1      46.822  24.602  37.832  1.00  0.00    -0.237 OA
ATOM     84  O   UNL A   1      48.567  26.210  37.140  1.00  0.00    -0.237 OA
ATOM     85  O   UNL A   1      47.505  26.424  39.352  1.00  0.00    -0.744 OA
ENDBRANCH  81  82
ENDBRANCH  53  76
BRANCH  65  86
ATOM     86  C   UNL A   1      40.013  33.964  37.385  1.00  0.00    -0.014 A 
ATOM     87  C   UNL A   1      40.709  35.185  37.415  1.00  0.00     0.010 A 
ATOM     88  C   UNL A   1      39.146  33.641  38.444  1.00  0.00     0.010 A 
ATOM     89  C   UNL A   1      40.550  36.062  38.491  1.00  0.00     0.020 A 
ATOM     90  C   UNL A   1      38.968  34.524  39.512  1.00  0.00     0.020 A 
ATOM     91  C   UNL A   1      39.679  35.726  39.532  1.00  0.00     0.054 A 
BRANCH  91  92
ATOM     92  S   UNL A   1      39.442  36.910  40.886  1.00  0.00     0.124 S 
ATOM     93  O   UNL A   1      40.813  37.330  41.166  1.00  0.00    -0.237 OA
ATOM     94  O   UNL A   1      38.586  37.926  40.279  1.00  0.00    -0.237 OA
ATOM     95  O   UNL A   1      38.808  36.115  41.936  1.00  0.00    -0.744 OA
ENDBRANCH  91  92
ENDBRANCH  65  86
ENDBRANCH  39  40
ENDBRANCH  32  34
ENDBRANCH  31  32
ENDBRANCH   1  31
TORSDOF 16
ENDMDL
MODEL 2
REMARK VINA RESULT:     -11.5      5.951     11.752
REMARK SMILES Cc1cc(C)n(C)c(=O)c1C(=O)[NH+]1CCC2(CC1)C[NH2+][C@@H](C(=O)OCCOC(=O)c1ccc(-c3c4nc(c(-c5ccc(S(=O)(=O)[O-])cc5)c5ccc([nH]5)c(-c5ccc(S(=O)(=O)[O-])cc5)c5nc(c(-c6ccc(S(=O)(=O)[O-])cc6)c6ccc3[nH]6)C=C5)C=C4)cc1)C2
REMARK SMILES IDX 26 1 25 2 24 3 22 4 23 5 21 6 13 7 14 8 18 9 15 11 17 12
REMARK SMILES IDX 16 13 19 14 90 15 20 16 11 19 12 20 10 21 1 22 2 23 3 24
REMARK SMILES IDX 4 25 8 26 5 27 6 28 9 29 7 30 27 31 28 32 29 33 30 34 31 35
REMARK SMILES IDX 89 36 32 37 88 38 33 39 34 40 35 41 82 42 36 43 87 44 81 45
REMARK SMILES IDX 83 46 37 47 86 48 80 49 79 50 38 52 68 53 49 54 67 55 50 56
REMARK SMILES IDX 53 57 66 58 84 59 51 60 52 61 65 63 85 64 54 65 39 66 40 67
REMARK SMILES IDX 48 68 41 69 47 70 42 71 43 72 44 73 45 74 46 75 69 76 70 77
REMARK SMILES IDX 78 78 71 79 77 80 72 81 73 82 74 83 75 84 76 85 55 86 56 87
REMARK SMILES IDX 64 88 57 89 63 90 58 91 59 92 60 93 61 94 62 95
REMARK H PARENT 13 10 20 17 20 18 83 51 53 62
REMARK Flexibility Score: inf
ROOT
ATOM      1  C   UNL A   1      35.227  32.709  30.238  1.00  0.00     0.275 C 
ENDROOT
BRANCH   1   2
ATOM      2  C   UNL A   1      34.893  33.738  29.158  1.00  0.00     0.274 C 
BRANCH   2   3
ATOM      3  O   UNL A   1      34.693  33.076  27.898  1.00  0.00    -0.458 OA
BRANCH   3   4
ATOM      4  C   UNL A   1      33.441  32.616  27.655  1.00  0.00     0.364 C 
ATOM      5  O   UNL A   1      32.441  33.322  27.556  1.00  0.00    -0.245 OA
BRANCH   4   6
ATOM      6  C   UNL A   1      33.379  31.100  27.508  1.00  0.00     0.294 C 
ATOM      7  N   UNL A   1      31.767  27.134  24.437  1.00  0.00    -0.267 N 
ATOM      8  C   UNL A   1      31.063  27.616  25.617  1.00  0.00     0.271 C 
ATOM      9  C   UNL A   1      32.474  28.177  23.712  1.00  0.00     0.271 C 
ATOM     10  H   UNL A   1      32.374  26.727  25.098  1.00  0.00     0.357 HD
ATOM     11  C   UNL A   1      32.115  28.012  26.642  1.00  0.00     0.075 C 
ATOM     12  C   UNL A   1      33.418  29.005  24.604  1.00  0.00     0.075 C 
ATOM     13  C   UNL A   1      33.062  29.121  26.123  1.00  0.00     0.036 C 
ATOM     14  C   UNL A   1      34.362  29.109  26.974  1.00  0.00     0.268 C 
ATOM     15  C   UNL A   1      32.463  30.519  26.434  1.00  0.00     0.090 C 
ATOM     16  N   UNL A   1      34.692  30.518  27.171  1.00  0.00    -0.334 N 
ATOM     17  H   UNL A   1      35.071  30.932  26.318  1.00  0.00     0.347 HD
ATOM     18  H   UNL A   1      35.405  30.677  27.882  1.00  0.00     0.347 HD
BRANCH   7  19
ATOM     19  C   UNL A   1      31.640  25.790  24.113  1.00  0.00     0.350 C 
ATOM     20  O   UNL A   1      30.833  25.424  23.254  1.00  0.00    -0.225 OA
BRANCH  19  21
ATOM     21  C   UNL A   1      32.349  24.710  24.881  1.00  0.00     0.147 A 
ATOM     22  C   UNL A   1      30.333  24.009  26.294  1.00  0.00     0.045 C 
ATOM     23  C   UNL A   1      31.732  23.902  25.772  1.00  0.00    -0.027 A 
ATOM     24  C   UNL A   1      32.362  22.667  26.203  1.00  0.00     0.026 A 
ATOM     25  C   UNL A   1      33.418  22.154  25.557  1.00  0.00     0.018 A 
ATOM     26  C   UNL A   1      33.693  24.261  24.351  1.00  0.00     0.267 A 
ATOM     27  C   UNL A   1      33.876  20.765  25.907  1.00  0.00     0.064 C 
ATOM     28  N   UNL A   1      34.057  22.922  24.591  1.00  0.00    -0.315 N 
ATOM     29  O   UNL A   1      34.420  25.042  23.738  1.00  0.00    -0.268 OA
ATOM     30  C   UNL A   1      35.172  22.381  23.826  1.00  0.00     0.153 C 
ENDBRANCH  19  21
ENDBRANCH   7  19
ENDBRANCH   4   6
ENDBRANCH   3   4
ENDBRANCH   2   3
ENDBRANCH   1   2
BRANCH   1  31
ATOM     31  O   UNL A   1      35.945  31.586  29.689  1.00  0.00    -0.458 OA
BRANCH  31  32
ATOM     32  C   UNL A   1      36.519  30.766  30.601  1.00  0.00     0.338 C 
ATOM     33  O   UNL A   1      35.988  30.243  31.564  1.00  0.00    -0.246 OA
BRANCH  32  34
ATOM     34  C   UNL A   1      37.905  30.476  30.202  1.00  0.00     0.060 A 
ATOM     35  C   UNL A   1      38.210  30.454  28.840  1.00  0.00     0.016 A 
ATOM     36  C   UNL A   1      38.868  30.128  31.147  1.00  0.00     0.016 A 
ATOM     37  C   UNL A   1      39.475  30.069  28.411  1.00  0.00     0.010 A 
ATOM     38  C   UNL A   1      40.147  29.758  30.717  1.00  0.00     0.010 A 
ATOM     39  C   UNL A   1      40.453  29.715  29.345  1.00  0.00    -0.014 A 
BRANCH  39  40
ATOM     40  C   UNL A   1      41.783  29.263  28.870  1.00  0.00     0.031 A 
ATOM     41  C   UNL A   1      42.955  30.201  28.913  1.00  0.00     0.074 A 
ATOM     42  C   UNL A   1      41.947  27.994  28.455  1.00  0.00     0.049 A 
ATOM     43  N   UNL A   1      44.186  30.001  28.518  1.00  0.00    -0.248 NA
ATOM     44  C   UNL A   1      42.712  31.534  29.484  1.00  0.00     0.031 C 
ATOM     45  C   UNL A   1      40.903  26.969  28.442  1.00  0.00     0.029 A 
ATOM     46  N   UNL A   1      43.060  27.344  27.985  1.00  0.00    -0.354 N 
ATOM     47  C   UNL A   1      44.865  31.183  28.782  1.00  0.00     0.074 A 
ATOM     48  C   UNL A   1      43.901  32.105  29.348  1.00  0.00     0.031 C 
ATOM     49  C   UNL A   1      41.433  25.811  28.019  1.00  0.00     0.029 A 
ATOM     50  C   UNL A   1      42.837  26.024  27.679  1.00  0.00     0.049 A 
ATOM     51  H   UNL A   1      43.935  27.782  27.878  1.00  0.00     0.167 HD
ATOM     52  C   UNL A   1      46.171  31.475  28.572  1.00  0.00     0.031 A 
ATOM     53  C   UNL A   1      43.664  25.092  27.168  1.00  0.00     0.031 A 
ATOM     54  C   UNL A   1      47.120  30.563  27.990  1.00  0.00     0.049 A 
ATOM     55  C   UNL A   1      45.082  25.468  26.842  1.00  0.00     0.074 A 
ATOM     56  C   UNL A   1      48.457  30.775  27.706  1.00  0.00     0.029 A 
ATOM     57  N   UNL A   1      46.829  29.264  27.600  1.00  0.00    -0.354 N 
ATOM     58  N   UNL A   1      45.696  26.609  27.049  1.00  0.00    -0.248 NA
ATOM     59  C   UNL A   1      45.912  24.439  26.204  1.00  0.00     0.031 C 
ATOM     60  C   UNL A   1      48.964  29.618  27.103  1.00  0.00     0.029 A 
ATOM     61  C   UNL A   1      47.955  28.668  27.058  1.00  0.00     0.049 A 
ATOM     62  H   UNL A   1      45.951  28.829  27.695  1.00  0.00     0.167 HD
ATOM     63  C   UNL A   1      46.990  26.433  26.573  1.00  0.00     0.074 A 
ATOM     64  C   UNL A   1      47.072  25.072  26.081  1.00  0.00     0.031 C 
ATOM     65  C   UNL A   1      48.016  27.319  26.552  1.00  0.00     0.031 A 
BRANCH  52  66
ATOM     66  C   UNL A   1      46.626  32.862  28.937  1.00  0.00    -0.014 A 
ATOM     67  C   UNL A   1      47.130  33.151  30.219  1.00  0.00     0.010 A 
ATOM     68  C   UNL A   1      46.535  33.897  27.988  1.00  0.00     0.010 A 
ATOM     69  C   UNL A   1      47.481  34.460  30.562  1.00  0.00     0.020 A 
ATOM     70  C   UNL A   1      46.908  35.203  28.320  1.00  0.00     0.020 A 
ATOM     71  C   UNL A   1      47.355  35.480  29.614  1.00  0.00     0.054 A 
BRANCH  71  72
ATOM     72  S   UNL A   1      47.790  37.175  30.091  1.00  0.00     0.124 S 
ATOM     73  O   UNL A   1      46.635  37.564  30.896  1.00  0.00    -0.237 OA
ATOM     74  O   UNL A   1      49.038  36.995  30.826  1.00  0.00    -0.237 OA
ATOM     75  O   UNL A   1      47.919  37.871  28.813  1.00  0.00    -0.744 OA
ENDBRANCH  71  72
ENDBRANCH  52  66
BRANCH  53  76
ATOM     76  C   UNL A   1      43.155  23.714  26.939  1.00  0.00    -0.014 A 
ATOM     77  C   UNL A   1      42.890  23.268  25.633  1.00  0.00     0.010 A 
ATOM     78  C   UNL A   1      43.009  22.818  28.013  1.00  0.00     0.010 A 
ATOM     79  C   UNL A   1      42.509  21.943  25.403  1.00  0.00     0.020 A 
ATOM     80  C   UNL A   1      42.648  21.487  27.786  1.00  0.00     0.020 A 
ATOM     81  C   UNL A   1      42.405  21.057  26.481  1.00  0.00     0.054 A 
BRANCH  81  82
ATOM     82  S   UNL A   1      42.022  19.315  26.143  1.00  0.00     0.124 S 
ATOM     83  O   UNL A   1      42.850  19.043  24.972  1.00  0.00    -0.237 OA
ATOM     84  O   UNL A   1      42.436  18.656  27.379  1.00  0.00    -0.237 OA
ATOM     85  O   UNL A   1      40.580  19.322  25.902  1.00  0.00    -0.744 OA
ENDBRANCH  81  82
ENDBRANCH  53  76
BRANCH  65  86
ATOM     86  C   UNL A   1      49.325  26.848  25.979  1.00  0.00    -0.014 A 
ATOM     87  C   UNL A   1      49.659  27.104  24.638  1.00  0.00     0.010 A 
ATOM     88  C   UNL A   1      50.262  26.210  26.811  1.00  0.00     0.010 A 
ATOM     89  C   UNL A   1      50.904  26.717  24.135  1.00  0.00     0.020 A 
ATOM     90  C   UNL A   1      51.515  25.840  26.318  1.00  0.00     0.020 A 
ATOM     91  C   UNL A   1      51.825  26.089  24.980  1.00  0.00     0.054 A 
BRANCH  91  92
ATOM     92  S   UNL A   1      53.458  25.654  24.319  1.00  0.00     0.124 S 
ATOM     93  O   UNL A   1      53.303  25.960  22.899  1.00  0.00    -0.237 OA
ATOM     94  O   UNL A   1      54.352  26.541  25.059  1.00  0.00    -0.237 OA
ATOM     95  O   UNL A   1      53.594  24.234  24.638  1.00  0.00    -0.744 OA
ENDBRANCH  91  92
ENDBRANCH  65  86
ENDBRANCH  39  40
ENDBRANCH  32  34
ENDBRANCH  31  32
ENDBRANCH   1  31
TORSDOF 16
ENDMDL
MODEL 3
REMARK VINA RESULT:     -11.5      6.073     12.055
REMARK SMILES Cc1cc(C)n(C)c(=O)c1C(=O)[NH+]1CCC2(CC1)C[NH2+][C@@H](C(=O)OCCOC(=O)c1ccc(-c3c4nc(c(-c5ccc(S(=O)(=O)[O-])cc5)c5ccc([nH]5)c(-c5ccc(S(=O)(=O)[O-])cc5)c5nc(c(-c6ccc(S(=O)(=O)[O-])cc6)c6ccc3[nH]6)C=C5)C=C4)cc1)C2
REMARK SMILES IDX 26 1 25 2 24 3 22 4 23 5 21 6 13 7 14 8 18 9 15 11 17 12
REMARK SMILES IDX 16 13 19 14 90 15 20 16 11 19 12 20 10 21 1 22 2 23 3 24
REMARK SMILES IDX 4 25 8 26 5 27 6 28 9 29 7 30 27 31 28 32 29 33 30 34 31 35
REMARK SMILES IDX 89 36 32 37 88 38 33 39 34 40 35 41 82 42 36 43 87 44 81 45
REMARK SMILES IDX 83 46 37 47 86 48 80 49 79 50 38 52 68 53 49 54 67 55 50 56
REMARK SMILES IDX 53 57 66 58 84 59 51 60 52 61 65 63 85 64 54 65 39 66 40 67
REMARK SMILES IDX 48 68 41 69 47 70 42 71 43 72 44 73 45 74 46 75 69 76 70 77
REMARK SMILES IDX 78 78 71 79 77 80 72 81 73 82 74 83 75 84 76 85 55 86 56 87
REMARK SMILES IDX 64 88 57 89 63 90 58 91 59 92 60 93 61 94 62 95
REMARK H PARENT 13 10 20 17 20 18 83 51 53 62
REMARK Flexibility Score: inf
ROOT
ATOM      1  C   UNL A   1      35.918  32.440  31.400  1.00  0.00     0.275 C 
ENDROOT
BRANCH   1   2
ATOM      2  C   UNL A   1      35.107  33.330  30.456  1.00  0.00     0.274 C 
BRANCH   2   3
ATOM      3  O   UNL A   1      34.131  32.540  29.759  1.00  0.00    -0.458 OA
BRANCH   3   4
ATOM      4  C   UNL A   1      34.352  32.346  28.435  1.00  0.00     0.364 C 
ATOM      5  O   UNL A   1      34.651  33.230  27.636  1.00  0.00    -0.245 OA
BRANCH   4   6
ATOM      6  C   UNL A   1      34.196  30.891  28.010  1.00  0.00     0.294 C 
ATOM      7  N   UNL A   1      31.420  27.552  25.024  1.00  0.00    -0.267 N 
ATOM      8  C   UNL A   1      31.236  27.745  26.456  1.00  0.00     0.271 C 
ATOM      9  C   UNL A   1      31.826  28.758  24.321  1.00  0.00     0.271 C 
ATOM     10  H   UNL A   1      32.223  27.053  25.304  1.00  0.00     0.357 HD
ATOM     11  C   UNL A   1      32.610  27.980  27.063  1.00  0.00     0.075 C 
ATOM     12  C   UNL A   1      33.062  29.437  24.940  1.00  0.00     0.075 C 
ATOM     13  C   UNL A   1      33.318  29.222  26.467  1.00  0.00     0.036 C 
ATOM     14  C   UNL A   1      34.843  29.106  26.738  1.00  0.00     0.268 C 
ATOM     15  C   UNL A   1      32.923  30.491  27.268  1.00  0.00     0.090 C 
ATOM     16  N   UNL A   1      35.263  30.462  27.085  1.00  0.00    -0.334 N 
ATOM     17  H   UNL A   1      35.299  31.061  26.259  1.00  0.00     0.347 HD
ATOM     18  H   UNL A   1      36.198  30.511  27.488  1.00  0.00     0.347 HD
BRANCH   7  19
ATOM     19  C   UNL A   1      31.141  26.298  24.499  1.00  0.00     0.350 C 
ATOM     20  O   UNL A   1      29.975  25.946  24.297  1.00  0.00    -0.225 OA
BRANCH  19  21
ATOM     21  C   UNL A   1      32.208  25.258  24.297  1.00  0.00     0.147 A 
ATOM     22  C   UNL A   1      33.111  26.213  22.100  1.00  0.00     0.045 C 
ATOM     23  C   UNL A   1      33.098  25.291  23.280  1.00  0.00    -0.027 A 
ATOM     24  C   UNL A   1      34.308  24.490  23.335  1.00  0.00     0.026 A 
ATOM     25  C   UNL A   1      34.716  23.913  24.473  1.00  0.00     0.018 A 
ATOM     26  C   UNL A   1      32.540  24.377  25.481  1.00  0.00     0.267 A 
ATOM     27  C   UNL A   1      36.088  23.297  24.520  1.00  0.00     0.064 C 
ATOM     28  N   UNL A   1      33.861  23.899  25.569  1.00  0.00    -0.315 N 
ATOM     29  O   UNL A   1      31.682  24.103  26.321  1.00  0.00    -0.268 OA
ATOM     30  C   UNL A   1      34.289  23.334  26.841  1.00  0.00     0.153 C 
ENDBRANCH  19  21
ENDBRANCH   7  19
ENDBRANCH   4   6
ENDBRANCH   3   4
ENDBRANCH   2   3
ENDBRANCH   1   2
BRANCH   1  31
ATOM     31  O   UNL A   1      36.295  31.204  30.760  1.00  0.00    -0.458 OA
BRANCH  31  32
ATOM     32  C   UNL A   1      36.981  30.336  31.541  1.00  0.00     0.338 C 
ATOM     33  O   UNL A   1      36.557  29.699  32.488  1.00  0.00    -0.246 OA
BRANCH  32  34
ATOM     34  C   UNL A   1      38.339  30.158  31.007  1.00  0.00     0.060 A 
ATOM     35  C   UNL A   1      38.531  30.282  29.629  1.00  0.00     0.016 A 
ATOM     36  C   UNL A   1      39.393  29.772  31.834  1.00  0.00     0.016 A 
ATOM     37  C   UNL A   1      39.771  30.007  29.066  1.00  0.00     0.010 A 
ATOM     38  C   UNL A   1      40.647  29.512  31.269  1.00  0.00     0.010 A 
ATOM     39  C   UNL A   1      40.839  29.616  29.880  1.00  0.00    -0.014 A 
BRANCH  39  40
ATOM     40  C   UNL A   1      42.143  29.282  29.259  1.00  0.00     0.031 A 
ATOM     41  C   UNL A   1      42.388  27.902  28.720  1.00  0.00     0.074 A 
ATOM     42  C   UNL A   1      43.083  30.235  29.128  1.00  0.00     0.049 A 
ATOM     43  N   UNL A   1      43.467  27.412  28.169  1.00  0.00    -0.248 NA
ATOM     44  C   UNL A   1      41.267  26.953  28.804  1.00  0.00     0.031 C 
ATOM     45  C   UNL A   1      42.932  31.631  29.541  1.00  0.00     0.029 A 
ATOM     46  N   UNL A   1      44.343  30.180  28.590  1.00  0.00    -0.354 N 
ATOM     47  C   UNL A   1      43.164  26.095  27.848  1.00  0.00     0.074 A 
ATOM     48  C   UNL A   1      41.806  25.856  28.291  1.00  0.00     0.031 C 
ATOM     49  C   UNL A   1      44.043  32.308  29.211  1.00  0.00     0.029 A 
ATOM     50  C   UNL A   1      45.004  31.384  28.615  1.00  0.00     0.049 A 
ATOM     51  H   UNL A   1      44.737  29.356  28.222  1.00  0.00     0.167 HD
ATOM     52  C   UNL A   1      43.945  25.170  27.240  1.00  0.00     0.031 A 
ATOM     53  C   UNL A   1      46.250  31.707  28.216  1.00  0.00     0.031 A 
ATOM     54  C   UNL A   1      45.301  25.406  26.821  1.00  0.00     0.049 A 
ATOM     55  C   UNL A   1      47.137  30.638  27.644  1.00  0.00     0.074 A 
ATOM     56  C   UNL A   1      46.186  24.524  26.226  1.00  0.00     0.029 A 
ATOM     57  N   UNL A   1      45.970  26.614  26.955  1.00  0.00    -0.354 N 
ATOM     58  N   UNL A   1      46.854  29.382  27.395  1.00  0.00    -0.248 NA
ATOM     59  C   UNL A   1      48.514  31.026  27.311  1.00  0.00     0.031 C 
ATOM     60  C   UNL A   1      47.405  25.187  26.042  1.00  0.00     0.029 A 
ATOM     61  C   UNL A   1      47.264  26.497  26.475  1.00  0.00     0.049 A 
ATOM     62  H   UNL A   1      45.582  27.434  27.335  1.00  0.00     0.167 HD
ATOM     63  C   UNL A   1      48.014  28.830  26.867  1.00  0.00     0.074 A 
ATOM     64  C   UNL A   1      48.999  29.892  26.822  1.00  0.00     0.031 C 
ATOM     65  C   UNL A   1      48.240  27.557  26.456  1.00  0.00     0.031 A 
BRANCH  52  66
ATOM     66  C   UNL A   1      43.351  23.801  27.042  1.00  0.00    -0.014 A 
ATOM     67  C   UNL A   1      43.215  22.903  28.117  1.00  0.00     0.010 A 
ATOM     68  C   UNL A   1      42.936  23.401  25.759  1.00  0.00     0.010 A 
ATOM     69  C   UNL A   1      42.728  21.611  27.901  1.00  0.00     0.020 A 
ATOM     70  C   UNL A   1      42.426  22.118  25.543  1.00  0.00     0.020 A 
ATOM     71  C   UNL A   1      42.348  21.222  26.613  1.00  0.00     0.054 A 
BRANCH  71  72
ATOM     72  S   UNL A   1      41.745  19.532  26.351  1.00  0.00     0.124 S 
ATOM     73  O   UNL A   1      42.179  18.866  27.576  1.00  0.00    -0.237 OA
ATOM     74  O   UNL A   1      40.304  19.720  26.214  1.00  0.00    -0.237 OA
ATOM     75  O   UNL A   1      42.432  19.104  25.134  1.00  0.00    -0.744 OA
ENDBRANCH  71  72
ENDBRANCH  52  66
BRANCH  53  76
ATOM     76  C   UNL A   1      46.716  33.112  28.353  1.00  0.00    -0.014 A 
ATOM     77  C   UNL A   1      46.511  34.028  27.308  1.00  0.00     0.010 A 
ATOM     78  C   UNL A   1      47.291  33.560  29.556  1.00  0.00     0.010 A 
ATOM     79  C   UNL A   1      46.854  35.374  27.472  1.00  0.00     0.020 A 
ATOM     80  C   UNL A   1      47.616  34.908  29.732  1.00  0.00     0.020 A 
ATOM     81  C   UNL A   1      47.391  35.808  28.689  1.00  0.00     0.054 A 
BRANCH  81  82
ATOM     82  S   UNL A   1      47.718  37.578  28.915  1.00  0.00     0.124 S 
ATOM     83  O   UNL A   1      47.601  37.728  30.361  1.00  0.00    -0.237 OA
ATOM     84  O   UNL A   1      49.066  37.721  28.371  1.00  0.00    -0.237 OA
ATOM     85  O   UNL A   1      46.667  38.223  28.131  1.00  0.00    -0.744 OA
ENDBRANCH  81  82
ENDBRANCH  53  76
BRANCH  65  86
ATOM     86  C   UNL A   1      49.606  27.237  25.913  1.00  0.00    -0.014 A 
ATOM     87  C   UNL A   1      50.609  26.714  26.747  1.00  0.00     0.010 A 
ATOM     88  C   UNL A   1      49.864  27.391  24.539  1.00  0.00     0.010 A 
ATOM     89  C   UNL A   1      51.854  26.362  26.218  1.00  0.00     0.020 A 
ATOM     90  C   UNL A   1      51.100  27.021  24.003  1.00  0.00     0.020 A 
ATOM     91  C   UNL A   1      52.090  26.516  24.848  1.00  0.00     0.054 A 
BRANCH  91  92
ATOM     92  S   UNL A   1      53.692  25.992  24.177  1.00  0.00     0.124 S 
ATOM     93  O   UNL A   1      53.459  26.070  22.737  1.00  0.00    -0.237 OA
ATOM     94  O   UNL A   1      54.610  26.992  24.718  1.00  0.00    -0.237 OA
ATOM     95  O   UNL A   1      53.867  24.643  24.708  1.00  0.00    -0.744 OA
ENDBRANCH  91  92
ENDBRANCH  65  86
ENDBRANCH  39  40
ENDBRANCH  32  34
ENDBRANCH  31  32
ENDBRANCH   1  31
TORSDOF 16
ENDMDL
