MODEL 1
REMARK VINA RESULT:     -12.0      0.000      0.000
REMARK SMILES CN1C(=O)C[C@@H](C(=O)OCCOC(=O)c2ccc(-c3c4nc(c(-c5ccc(S(=O)(=O)[O-])cc5)c5ccc([nH]5)c(-c5ccc(S(=O)(=O)[O-])cc5)c5nc(c(-c6ccc(S(=O)(=O)[O-])cc6)c6ccc3[nH]6)C=C5)C=C4)cc2)C12CCN(c1ccc(Cl)cn1)CC2
REMARK SMILES IDX 11 1 10 2 9 3 7 4 8 5 6 6 1 7 2 8 3 9 75 10 4 11 5 12 76 13
REMARK SMILES IDX 87 14 77 15 86 16 78 17 79 18 80 19 85 20 81 21 84 22 82 23
REMARK SMILES IDX 83 24 12 25 13 26 14 27 15 28 16 29 74 30 17 31 73 32 18 33
REMARK SMILES IDX 19 34 20 35 67 36 21 37 72 38 66 39 68 40 22 41 71 42 65 43
REMARK SMILES IDX 64 44 23 46 53 47 34 48 52 49 35 50 38 51 51 52 69 53 36 54
REMARK SMILES IDX 37 55 50 57 70 58 39 59 24 60 25 61 33 62 26 63 32 64 27 65
REMARK SMILES IDX 28 66 29 67 30 68 31 69 54 70 55 71 63 72 56 73 62 74 57 75
REMARK SMILES IDX 58 76 59 77 60 78 61 79 40 80 41 81 49 82 42 83 48 84 43 85
REMARK SMILES IDX 44 86 45 87 46 88 47 89
REMARK H PARENT 68 45 38 56
REMARK Flexibility Score: inf
ROOT
ATOM      1  C   UNL A   1      38.396  22.784  26.027  1.00  0.00     0.275 C 
ENDROOT
BRANCH   1   2
ATOM      2  C   UNL A   1      37.028  22.638  25.358  1.00  0.00     0.274 C 
BRANCH   2   3
ATOM      3  O   UNL A   1      36.089  21.927  26.193  1.00  0.00    -0.462 OA
BRANCH   3   4
ATOM      4  C   UNL A   1      35.281  21.071  25.532  1.00  0.00     0.311 C 
ATOM      5  O   UNL A   1      35.694  20.123  24.866  1.00  0.00    -0.252 OA
BRANCH   4   6
ATOM      6  C   UNL A   1      33.792  21.359  25.599  1.00  0.00     0.134 C 
ATOM      7  C   UNL A   1      32.026  21.441  22.298  1.00  0.00     0.147 C 
ATOM      8  N   UNL A   1      32.577  21.157  23.609  1.00  0.00    -0.339 N 
ATOM      9  C   UNL A   1      32.625  19.879  24.133  1.00  0.00     0.223 C 
ATOM     10  C   UNL A   1      32.996  22.202  24.564  1.00  0.00     0.060 C 
ATOM     11  O   UNL A   1      32.291  18.846  23.575  1.00  0.00    -0.275 OA
ATOM     12  C   UNL A   1      33.121  19.971  25.547  1.00  0.00     0.118 C 
ATOM     13  C   UNL A   1      33.734  23.355  23.848  1.00  0.00     0.051 C 
ATOM     14  C   UNL A   1      31.706  22.766  25.272  1.00  0.00     0.051 C 
ATOM     15  C   UNL A   1      33.900  24.597  24.706  1.00  0.00     0.120 C 
ATOM     16  C   UNL A   1      31.915  24.084  26.036  1.00  0.00     0.120 C 
ATOM     17  N   UNL A   1      32.573  25.014  25.135  1.00  0.00    -0.356 N 
BRANCH  17  18
ATOM     18  C   UNL A   1      32.426  26.377  25.359  1.00  0.00     0.128 A 
ATOM     19  C   UNL A   1      33.335  27.020  26.208  1.00  0.00     0.048 A 
ATOM     20  N   UNL A   1      31.418  27.055  24.775  1.00  0.00    -0.238 NA
ATOM     21  C   UNL A   1      33.185  28.371  26.511  1.00  0.00     0.026 A 
ATOM     22  C   UNL A   1      31.288  28.375  25.085  1.00  0.00     0.134 A 
ATOM     23  C   UNL A   1      32.124  29.061  25.950  1.00  0.00     0.059 A 
ATOM     24  Cl  UNL A   1      31.858  30.707  26.335  1.00  0.00    -0.083 Cl
ENDBRANCH  17  18
ENDBRANCH   4   6
ENDBRANCH   3   4
ENDBRANCH   2   3
ENDBRANCH   1   2
BRANCH   1  25
ATOM     25  O   UNL A   1      38.727  24.170  26.241  1.00  0.00    -0.458 OA
BRANCH  25  26
ATOM     26  C   UNL A   1      39.987  24.396  26.674  1.00  0.00     0.338 C 
ATOM     27  O   UNL A   1      40.975  23.726  26.419  1.00  0.00    -0.246 OA
BRANCH  26  28
ATOM     28  C   UNL A   1      40.057  25.605  27.516  1.00  0.00     0.060 A 
ATOM     29  C   UNL A   1      40.983  26.621  27.263  1.00  0.00     0.016 A 
ATOM     30  C   UNL A   1      39.277  25.643  28.671  1.00  0.00     0.016 A 
ATOM     31  C   UNL A   1      41.168  27.648  28.192  1.00  0.00     0.010 A 
ATOM     32  C   UNL A   1      39.410  26.711  29.559  1.00  0.00     0.010 A 
ATOM     33  C   UNL A   1      40.368  27.714  29.342  1.00  0.00    -0.014 A 
BRANCH  33  34
ATOM     34  C   UNL A   1      40.482  28.828  30.322  1.00  0.00     0.031 A 
ATOM     35  C   UNL A   1      41.440  28.723  31.478  1.00  0.00     0.074 A 
ATOM     36  C   UNL A   1      39.654  29.888  30.233  1.00  0.00     0.049 A 
ATOM     37  N   UNL A   1      41.485  29.428  32.580  1.00  0.00    -0.248 NA
ATOM     38  C   UNL A   1      42.472  27.677  31.390  1.00  0.00     0.031 C 
ATOM     39  C   UNL A   1      38.705  30.137  29.147  1.00  0.00     0.029 A 
ATOM     40  N   UNL A   1      39.451  30.935  31.098  1.00  0.00    -0.354 N 
ATOM     41  C   UNL A   1      42.527  28.894  33.331  1.00  0.00     0.074 A 
ATOM     42  C   UNL A   1      43.077  27.796  32.565  1.00  0.00     0.031 C 
ATOM     43  C   UNL A   1      38.007  31.250  29.419  1.00  0.00     0.029 A 
ATOM     44  C   UNL A   1      38.404  31.749  30.732  1.00  0.00     0.049 A 
ATOM     45  H   UNL A   1      40.000  31.089  31.901  1.00  0.00     0.167 HD
ATOM     46  C   UNL A   1      42.982  29.284  34.546  1.00  0.00     0.031 A 
ATOM     47  C   UNL A   1      37.785  32.742  31.398  1.00  0.00     0.031 A 
ATOM     48  C   UNL A   1      42.428  30.375  35.305  1.00  0.00     0.049 A 
ATOM     49  C   UNL A   1      38.251  33.106  32.780  1.00  0.00     0.074 A 
ATOM     50  C   UNL A   1      42.810  30.837  36.552  1.00  0.00     0.029 A 
ATOM     51  N   UNL A   1      41.379  31.178  34.884  1.00  0.00    -0.354 N 
ATOM     52  N   UNL A   1      39.217  32.574  33.489  1.00  0.00    -0.248 NA
ATOM     53  C   UNL A   1      37.542  34.204  33.452  1.00  0.00     0.031 C 
ATOM     54  C   UNL A   1      41.966  31.896  36.904  1.00  0.00     0.029 A 
ATOM     55  C   UNL A   1      41.095  32.127  35.851  1.00  0.00     0.049 A 
ATOM     56  H   UNL A   1      40.907  31.087  34.026  1.00  0.00     0.167 HD
ATOM     57  C   UNL A   1      39.253  33.295  34.677  1.00  0.00     0.074 A 
ATOM     58  C   UNL A   1      38.216  34.302  34.590  1.00  0.00     0.031 C 
ATOM     59  C   UNL A   1      40.076  33.139  35.742  1.00  0.00     0.031 A 
BRANCH  46  60
ATOM     60  C   UNL A   1      44.125  28.511  35.153  1.00  0.00    -0.014 A 
ATOM     61  C   UNL A   1      45.454  28.940  34.997  1.00  0.00     0.010 A 
ATOM     62  C   UNL A   1      43.858  27.387  35.955  1.00  0.00     0.010 A 
ATOM     63  C   UNL A   1      46.499  28.245  35.615  1.00  0.00     0.020 A 
ATOM     64  C   UNL A   1      44.897  26.702  36.594  1.00  0.00     0.020 A 
ATOM     65  C   UNL A   1      46.213  27.130  36.411  1.00  0.00     0.054 A 
BRANCH  65  66
ATOM     66  S   UNL A   1      47.582  26.280  37.245  1.00  0.00     0.124 S 
ATOM     67  O   UNL A   1      47.810  27.139  38.405  1.00  0.00    -0.237 OA
ATOM     68  O   UNL A   1      47.015  24.968  37.538  1.00  0.00    -0.237 OA
ATOM     69  O   UNL A   1      48.652  26.284  36.249  1.00  0.00    -0.744 OA
ENDBRANCH  65  66
ENDBRANCH  46  60
BRANCH  47  70
ATOM     70  C   UNL A   1      36.613  33.424  30.785  1.00  0.00    -0.014 A 
ATOM     71  C   UNL A   1      35.381  33.476  31.458  1.00  0.00     0.010 A 
ATOM     72  C   UNL A   1      36.731  34.031  29.519  1.00  0.00     0.010 A 
ATOM     73  C   UNL A   1      34.281  34.104  30.868  1.00  0.00     0.020 A 
ATOM     74  C   UNL A   1      35.641  34.685  28.941  1.00  0.00     0.020 A 
ATOM     75  C   UNL A   1      34.417  34.703  29.612  1.00  0.00     0.054 A 
BRANCH  75  76
ATOM     76  S   UNL A   1      32.987  35.544  28.879  1.00  0.00     0.124 S 
ATOM     77  O   UNL A   1      33.625  36.614  28.118  1.00  0.00    -0.237 OA
ATOM     78  O   UNL A   1      32.367  34.485  28.086  1.00  0.00    -0.237 OA
ATOM     79  O   UNL A   1      32.212  35.975  30.041  1.00  0.00    -0.744 OA
ENDBRANCH  75  76
ENDBRANCH  47  70
BRANCH  59  80
ATOM     80  C   UNL A   1      39.943  34.117  36.876  1.00  0.00    -0.014 A 
ATOM     81  C   UNL A   1      40.509  35.401  36.805  1.00  0.00     0.010 A 
ATOM     82  C   UNL A   1      39.173  33.765  37.999  1.00  0.00     0.010 A 
ATOM     83  C   UNL A   1      40.319  36.312  37.848  1.00  0.00     0.020 A 
ATOM     84  C   UNL A   1      38.962  34.680  39.033  1.00  0.00     0.020 A 
ATOM     85  C   UNL A   1      39.545  35.946  38.955  1.00  0.00     0.054 A 
BRANCH  85  86
ATOM     86  S   UNL A   1      39.255  37.168  40.264  1.00  0.00     0.124 S 
ATOM     87  O   UNL A   1      38.449  36.410  41.216  1.00  0.00    -0.237 OA
ATOM     88  O   UNL A   1      40.609  37.494  40.706  1.00  0.00    -0.237 OA
ATOM     89  O   UNL A   1      38.554  38.251  39.578  1.00  0.00    -0.744 OA
ENDBRANCH  85  86
ENDBRANCH  59  80
ENDBRANCH  33  34
ENDBRANCH  26  28
ENDBRANCH  25  26
ENDBRANCH   1  25
TORSDOF 15
ENDMDL
MODEL 2
REMARK VINA RESULT:     -11.9      5.199     10.700
REMARK SMILES CN1C(=O)C[C@@H](C(=O)OCCOC(=O)c2ccc(-c3c4nc(c(-c5ccc(S(=O)(=O)[O-])cc5)c5ccc([nH]5)c(-c5ccc(S(=O)(=O)[O-])cc5)c5nc(c(-c6ccc(S(=O)(=O)[O-])cc6)c6ccc3[nH]6)C=C5)C=C4)cc2)C12CCN(c1ccc(Cl)cn1)CC2
REMARK SMILES IDX 11 1 10 2 9 3 7 4 8 5 6 6 1 7 2 8 3 9 75 10 4 11 5 12 76 13
REMARK SMILES IDX 87 14 77 15 86 16 78 17 79 18 80 19 85 20 81 21 84 22 82 23
REMARK SMILES IDX 83 24 12 25 13 26 14 27 15 28 16 29 74 30 17 31 73 32 18 33
REMARK SMILES IDX 19 34 20 35 67 36 21 37 72 38 66 39 68 40 22 41 71 42 65 43
REMARK SMILES IDX 64 44 23 46 53 47 34 48 52 49 35 50 38 51 51 52 69 53 36 54
REMARK SMILES IDX 37 55 50 57 70 58 39 59 24 60 25 61 33 62 26 63 32 64 27 65
REMARK SMILES IDX 28 66 29 67 30 68 31 69 54 70 55 71 63 72 56 73 62 74 57 75
REMARK SMILES IDX 58 76 59 77 60 78 61 79 40 80 41 81 49 82 42 83 48 84 43 85
REMARK SMILES IDX 44 86 45 87 46 88 47 89
REMARK H PARENT 68 45 38 56
REMARK Flexibility Score: inf
ROOT
ATOM      1  C   UNL A   1      32.391  29.762  27.242  1.00  0.00     0.275 C 
ENDROOT
BRANCH   1   2
ATOM      2  C   UNL A   1      31.654  28.431  27.394  1.00  0.00     0.274 C 
BRANCH   2   3
ATOM      3  O   UNL A   1      31.437  27.783  26.121  1.00  0.00    -0.462 OA
BRANCH   3   4
ATOM      4  C   UNL A   1      31.759  26.472  26.093  1.00  0.00     0.311 C 
ATOM      5  O   UNL A   1      31.204  25.622  26.787  1.00  0.00    -0.252 OA
BRANCH   4   6
ATOM      6  C   UNL A   1      32.904  26.076  25.178  1.00  0.00     0.134 C 
ATOM      7  C   UNL A   1      32.129  26.156  21.515  1.00  0.00     0.147 C 
ATOM      8  N   UNL A   1      32.578  26.363  22.879  1.00  0.00    -0.339 N 
ATOM      9  C   UNL A   1      33.016  27.592  23.337  1.00  0.00     0.223 C 
ATOM     10  C   UNL A   1      32.756  25.272  23.857  1.00  0.00     0.060 C 
ATOM     11  O   UNL A   1      33.026  28.644  22.716  1.00  0.00    -0.275 OA
ATOM     12  C   UNL A   1      33.532  27.413  24.735  1.00  0.00     0.118 C 
ATOM     13  C   UNL A   1      31.611  24.239  23.761  1.00  0.00     0.051 C 
ATOM     14  C   UNL A   1      34.130  24.561  23.554  1.00  0.00     0.051 C 
ATOM     15  C   UNL A   1      31.899  22.942  24.498  1.00  0.00     0.120 C 
ATOM     16  C   UNL A   1      34.316  23.200  24.245  1.00  0.00     0.120 C 
ATOM     17  N   UNL A   1      33.138  22.399  23.962  1.00  0.00    -0.356 N 
BRANCH  17  18
ATOM     18  C   UNL A   1      33.245  21.014  24.010  1.00  0.00     0.128 A 
ATOM     19  C   UNL A   1      32.271  20.244  23.363  1.00  0.00     0.048 A 
ATOM     20  N   UNL A   1      34.263  20.435  24.677  1.00  0.00    -0.238 NA
ATOM     21  C   UNL A   1      32.305  18.853  23.441  1.00  0.00     0.026 A 
ATOM     22  C   UNL A   1      34.276  19.075  24.742  1.00  0.00     0.134 A 
ATOM     23  C   UNL A   1      33.322  18.256  24.164  1.00  0.00     0.059 A 
ATOM     24  Cl  UNL A   1      33.376  16.554  24.343  1.00  0.00    -0.083 Cl
ENDBRANCH  17  18
ENDBRANCH   4   6
ENDBRANCH   3   4
ENDBRANCH   2   3
ENDBRANCH   1   2
BRANCH   1  25
ATOM     25  O   UNL A   1      33.819  29.571  27.259  1.00  0.00    -0.458 OA
BRANCH  25  26
ATOM     26  C   UNL A   1      34.506  30.464  28.008  1.00  0.00     0.338 C 
ATOM     27  O   UNL A   1      34.103  31.547  28.401  1.00  0.00    -0.246 OA
BRANCH  26  28
ATOM     28  C   UNL A   1      35.856  29.967  28.332  1.00  0.00     0.060 A 
ATOM     29  C   UNL A   1      36.206  29.592  29.632  1.00  0.00     0.016 A 
ATOM     30  C   UNL A   1      36.830  30.023  27.336  1.00  0.00     0.016 A 
ATOM     31  C   UNL A   1      37.541  29.327  29.950  1.00  0.00     0.010 A 
ATOM     32  C   UNL A   1      38.149  29.682  27.639  1.00  0.00     0.010 A 
ATOM     33  C   UNL A   1      38.525  29.350  28.951  1.00  0.00    -0.014 A 
BRANCH  33  34
ATOM     34  C   UNL A   1      39.944  29.005  29.231  1.00  0.00     0.031 A 
ATOM     35  C   UNL A   1      40.912  30.074  29.659  1.00  0.00     0.074 A 
ATOM     36  C   UNL A   1      40.388  27.753  29.001  1.00  0.00     0.049 A 
ATOM     37  N   UNL A   1      42.221  30.048  29.670  1.00  0.00    -0.248 NA
ATOM     38  C   UNL A   1      40.332  31.345  30.123  1.00  0.00     0.031 C 
ATOM     39  C   UNL A   1      39.556  26.611  28.620  1.00  0.00     0.029 A 
ATOM     40  N   UNL A   1      41.664  27.243  29.016  1.00  0.00    -0.354 N 
ATOM     41  C   UNL A   1      42.623  31.305  30.109  1.00  0.00     0.074 A 
ATOM     42  C   UNL A   1      41.419  32.075  30.339  1.00  0.00     0.031 C 
ATOM     43  C   UNL A   1      40.341  25.542  28.416  1.00  0.00     0.029 A 
ATOM     44  C   UNL A   1      41.735  25.942  28.577  1.00  0.00     0.049 A 
ATOM     45  H   UNL A   1      42.450  27.758  29.311  1.00  0.00     0.167 HD
ATOM     46  C   UNL A   1      43.879  31.773  30.301  1.00  0.00     0.031 A 
ATOM     47  C   UNL A   1      42.797  25.171  28.272  1.00  0.00     0.031 A 
ATOM     48  C   UNL A   1      45.074  31.004  30.066  1.00  0.00     0.049 A 
ATOM     49  C   UNL A   1      44.183  25.735  28.413  1.00  0.00     0.074 A 
ATOM     50  C   UNL A   1      46.393  31.394  30.218  1.00  0.00     0.029 A 
ATOM     51  N   UNL A   1      45.093  29.685  29.638  1.00  0.00    -0.354 N 
ATOM     52  N   UNL A   1      44.547  26.934  28.801  1.00  0.00    -0.248 NA
ATOM     53  C   UNL A   1      45.301  24.843  28.074  1.00  0.00     0.031 C 
ATOM     54  C   UNL A   1      47.212  30.324  29.843  1.00  0.00     0.029 A 
ATOM     55  C   UNL A   1      46.401  29.250  29.511  1.00  0.00     0.049 A 
ATOM     56  H   UNL A   1      44.296  29.140  29.451  1.00  0.00     0.167 HD
ATOM     57  C   UNL A   1      45.938  26.927  28.784  1.00  0.00     0.074 A 
ATOM     58  C   UNL A   1      46.348  25.608  28.353  1.00  0.00     0.031 C 
ATOM     59  C   UNL A   1      46.796  27.926  29.103  1.00  0.00     0.031 A 
BRANCH  46  60
ATOM     60  C   UNL A   1      44.039  33.198  30.767  1.00  0.00    -0.014 A 
ATOM     61  C   UNL A   1      44.337  34.229  29.860  1.00  0.00     0.010 A 
ATOM     62  C   UNL A   1      43.809  33.519  32.117  1.00  0.00     0.010 A 
ATOM     63  C   UNL A   1      44.424  35.554  30.299  1.00  0.00     0.020 A 
ATOM     64  C   UNL A   1      43.872  34.845  32.557  1.00  0.00     0.020 A 
ATOM     65  C   UNL A   1      44.190  35.854  31.645  1.00  0.00     0.054 A 
BRANCH  65  66
ATOM     66  S   UNL A   1      44.256  37.588  32.176  1.00  0.00     0.124 S 
ATOM     67  O   UNL A   1      43.298  37.603  33.279  1.00  0.00    -0.237 OA
ATOM     68  O   UNL A   1      45.655  37.754  32.558  1.00  0.00    -0.237 OA
ATOM     69  O   UNL A   1      43.847  38.331  30.986  1.00  0.00    -0.744 OA
ENDBRANCH  65  66
ENDBRANCH  46  60
BRANCH  47  70
ATOM     70  C   UNL A   1      42.584  23.796  27.744  1.00  0.00    -0.014 A 
ATOM     71  C   UNL A   1      42.649  22.683  28.599  1.00  0.00     0.010 A 
ATOM     72  C   UNL A   1      42.306  23.598  26.378  1.00  0.00     0.010 A 
ATOM     73  C   UNL A   1      42.465  21.393  28.093  1.00  0.00     0.020 A 
ATOM     74  C   UNL A   1      42.091  22.312  25.876  1.00  0.00     0.020 A 
ATOM     75  C   UNL A   1      42.188  21.216  26.734  1.00  0.00     0.054 A 
BRANCH  75  76
ATOM     76  S   UNL A   1      41.914  19.538  26.104  1.00  0.00     0.124 S 
ATOM     77  O   UNL A   1      42.855  19.477  24.990  1.00  0.00    -0.237 OA
ATOM     78  O   UNL A   1      42.246  18.706  27.259  1.00  0.00    -0.237 OA
ATOM     79  O   UNL A   1      40.501  19.538  25.734  1.00  0.00    -0.744 OA
ENDBRANCH  75  76
ENDBRANCH  47  70
BRANCH  59  80
ATOM     80  C   UNL A   1      48.267  27.619  29.069  1.00  0.00    -0.014 A 
ATOM     81  C   UNL A   1      49.038  27.852  27.918  1.00  0.00     0.010 A 
ATOM     82  C   UNL A   1      48.899  27.160  30.239  1.00  0.00     0.010 A 
ATOM     83  C   UNL A   1      50.415  27.615  27.933  1.00  0.00     0.020 A 
ATOM     84  C   UNL A   1      50.279  26.942  30.265  1.00  0.00     0.020 A 
ATOM     85  C   UNL A   1      51.027  27.164  29.108  1.00  0.00     0.054 A 
BRANCH  85  86
ATOM     86  S   UNL A   1      52.826  26.929  29.124  1.00  0.00     0.124 S 
ATOM     87  O   UNL A   1      53.050  26.210  27.873  1.00  0.00    -0.237 OA
ATOM     88  O   UNL A   1      53.330  28.300  29.159  1.00  0.00    -0.237 OA
ATOM     89  O   UNL A   1      53.064  26.154  30.340  1.00  0.00    -0.744 OA
ENDBRANCH  85  86
ENDBRANCH  59  80
ENDBRANCH  33  34
ENDBRANCH  26  28
ENDBRANCH  25  26
ENDBRANCH   1  25
TORSDOF 15
ENDMDL
MODEL 3
REMARK VINA RESULT:     -11.9      2.098      2.937
REMARK SMILES CN1C(=O)C[C@@H](C(=O)OCCOC(=O)c2ccc(-c3c4nc(c(-c5ccc(S(=O)(=O)[O-])cc5)c5ccc([nH]5)c(-c5ccc(S(=O)(=O)[O-])cc5)c5nc(c(-c6ccc(S(=O)(=O)[O-])cc6)c6ccc3[nH]6)C=C5)C=C4)cc2)C12CCN(c1ccc(Cl)cn1)CC2
REMARK SMILES IDX 11 1 10 2 9 3 7 4 8 5 6 6 1 7 2 8 3 9 75 10 4 11 5 12 76 13
REMARK SMILES IDX 87 14 77 15 86 16 78 17 79 18 80 19 85 20 81 21 84 22 82 23
REMARK SMILES IDX 83 24 12 25 13 26 14 27 15 28 16 29 74 30 17 31 73 32 18 33
REMARK SMILES IDX 19 34 20 35 67 36 21 37 72 38 66 39 68 40 22 41 71 42 65 43
REMARK SMILES IDX 64 44 23 46 53 47 34 48 52 49 35 50 38 51 51 52 69 53 36 54
REMARK SMILES IDX 37 55 50 57 70 58 39 59 24 60 25 61 33 62 26 63 32 64 27 65
REMARK SMILES IDX 28 66 29 67 30 68 31 69 54 70 55 71 63 72 56 73 62 74 57 75
REMARK SMILES IDX 58 76 59 77 60 78 61 79 40 80 41 81 49 82 42 83 48 84 43 85
REMARK SMILES IDX 44 86 45 87 46 88 47 89
REMARK H PARENT 68 45 38 56
REMARK Flexibility Score: inf
ROOT
ATOM      1  C   UNL A   1      37.323  22.196  25.068  1.00  0.00     0.275 C 
ENDROOT
BRANCH   1   2
ATOM      2  C   UNL A   1      36.373  22.354  23.879  1.00  0.00     0.274 C 
BRANCH   2   3
ATOM      3  O   UNL A   1      34.999  22.501  24.299  1.00  0.00    -0.462 OA
BRANCH   3   4
ATOM      4  C   UNL A   1      34.407  23.648  23.905  1.00  0.00     0.311 C 
ATOM      5  O   UNL A   1      34.475  24.089  22.759  1.00  0.00    -0.252 OA
BRANCH   4   6
ATOM      6  C   UNL A   1      33.671  24.432  24.977  1.00  0.00     0.134 C 
ATOM      7  C   UNL A   1      30.601  22.781  26.345  1.00  0.00     0.147 C 
ATOM      8  N   UNL A   1      31.907  23.348  26.066  1.00  0.00    -0.339 N 
ATOM      9  C   UNL A   1      33.045  22.963  26.751  1.00  0.00     0.223 C 
ATOM     10  C   UNL A   1      32.128  24.482  25.148  1.00  0.00     0.060 C 
ATOM     11  O   UNL A   1      33.127  22.089  27.600  1.00  0.00    -0.275 OA
ATOM     12  C   UNL A   1      34.177  23.843  26.310  1.00  0.00     0.118 C 
ATOM     13  C   UNL A   1      31.254  24.357  23.880  1.00  0.00     0.051 C 
ATOM     14  C   UNL A   1      31.757  25.811  25.910  1.00  0.00     0.051 C 
ATOM     15  C   UNL A   1      31.187  25.633  23.058  1.00  0.00     0.120 C 
ATOM     16  C   UNL A   1      31.598  27.047  25.009  1.00  0.00     0.120 C 
ATOM     17  N   UNL A   1      30.695  26.690  23.929  1.00  0.00    -0.356 N 
BRANCH  17  18
ATOM     18  C   UNL A   1      29.987  27.700  23.290  1.00  0.00     0.128 A 
ATOM     19  C   UNL A   1      30.700  28.672  22.578  1.00  0.00     0.048 A 
ATOM     20  N   UNL A   1      28.642  27.740  23.369  1.00  0.00    -0.238 NA
ATOM     21  C   UNL A   1      30.034  29.738  21.977  1.00  0.00     0.026 A 
ATOM     22  C   UNL A   1      28.010  28.791  22.776  1.00  0.00     0.134 A 
ATOM     23  C   UNL A   1      28.657  29.808  22.095  1.00  0.00     0.059 A 
ATOM     24  Cl  UNL A   1      27.794  31.128  21.428  1.00  0.00    -0.083 Cl
ENDBRANCH  17  18
ENDBRANCH   4   6
ENDBRANCH   3   4
ENDBRANCH   2   3
ENDBRANCH   1   2
BRANCH   1  25
ATOM     25  O   UNL A   1      37.934  23.453  25.417  1.00  0.00    -0.458 OA
BRANCH  25  26
ATOM     26  C   UNL A   1      39.107  23.353  26.083  1.00  0.00     0.338 C 
ATOM     27  O   UNL A   1      39.852  22.386  26.103  1.00  0.00    -0.246 OA
BRANCH  26  28
ATOM     28  C   UNL A   1      39.420  24.598  26.808  1.00  0.00     0.060 A 
ATOM     29  C   UNL A   1      40.307  25.545  26.289  1.00  0.00     0.016 A 
ATOM     30  C   UNL A   1      38.927  24.741  28.105  1.00  0.00     0.016 A 
ATOM     31  C   UNL A   1      40.744  26.607  27.085  1.00  0.00     0.010 A 
ATOM     32  C   UNL A   1      39.306  25.845  28.871  1.00  0.00     0.010 A 
ATOM     33  C   UNL A   1      40.233  26.779  28.379  1.00  0.00    -0.014 A 
BRANCH  33  34
ATOM     34  C   UNL A   1      40.616  27.934  29.235  1.00  0.00     0.031 A 
ATOM     35  C   UNL A   1      41.811  27.837  30.145  1.00  0.00     0.074 A 
ATOM     36  C   UNL A   1      39.834  29.032  29.271  1.00  0.00     0.049 A 
ATOM     37  N   UNL A   1      42.139  28.595  31.161  1.00  0.00    -0.248 NA
ATOM     38  C   UNL A   1      42.750  26.733  29.889  1.00  0.00     0.031 C 
ATOM     39  C   UNL A   1      38.671  29.276  28.417  1.00  0.00     0.029 A 
ATOM     40  N   UNL A   1      39.881  30.132  30.092  1.00  0.00    -0.354 N 
ATOM     41  C   UNL A   1      43.303  28.044  31.685  1.00  0.00     0.074 A 
ATOM     42  C   UNL A   1      43.615  26.879  30.885  1.00  0.00     0.031 C 
ATOM     43  C   UNL A   1      38.101  30.438  28.772  1.00  0.00     0.029 A 
ATOM     44  C   UNL A   1      38.812  30.981  29.925  1.00  0.00     0.049 A 
ATOM     45  H   UNL A   1      40.607  30.297  30.737  1.00  0.00     0.167 HD
ATOM     46  C   UNL A   1      44.043  28.470  32.737  1.00  0.00     0.031 A 
ATOM     47  C   UNL A   1      38.405  32.040  30.651  1.00  0.00     0.031 A 
ATOM     48  C   UNL A   1      43.725  29.628  33.532  1.00  0.00     0.049 A 
ATOM     49  C   UNL A   1      39.193  32.449  31.864  1.00  0.00     0.074 A 
ATOM     50  C   UNL A   1      44.405  30.133  34.627  1.00  0.00     0.029 A 
ATOM     51  N   UNL A   1      42.642  30.465  33.313  1.00  0.00    -0.354 N 
ATOM     52  N   UNL A   1      40.275  31.902  32.365  1.00  0.00    -0.248 NA
ATOM     53  C   UNL A   1      38.705  33.618  32.610  1.00  0.00     0.031 C 
ATOM     54  C   UNL A   1      43.710  31.253  35.096  1.00  0.00     0.029 A 
ATOM     55  C   UNL A   1      42.629  31.476  34.258  1.00  0.00     0.049 A 
ATOM     56  H   UNL A   1      41.980  30.355  32.594  1.00  0.00     0.167 HD
ATOM     57  C   UNL A   1      40.614  32.682  33.465  1.00  0.00     0.074 A 
ATOM     58  C   UNL A   1      39.629  33.737  33.555  1.00  0.00     0.031 C 
ATOM     59  C   UNL A   1      41.654  32.535  34.321  1.00  0.00     0.031 A 
BRANCH  46  60
ATOM     60  C   UNL A   1      45.263  27.669  33.114  1.00  0.00    -0.014 A 
ATOM     61  C   UNL A   1      45.181  26.618  34.043  1.00  0.00     0.010 A 
ATOM     62  C   UNL A   1      46.488  27.920  32.471  1.00  0.00     0.010 A 
ATOM     63  C   UNL A   1      46.309  25.845  34.339  1.00  0.00     0.020 A 
ATOM     64  C   UNL A   1      47.613  27.136  32.746  1.00  0.00     0.020 A 
ATOM     65  C   UNL A   1      47.519  26.109  33.687  1.00  0.00     0.054 A 
BRANCH  65  66
ATOM     66  S   UNL A   1      48.952  25.057  34.050  1.00  0.00     0.124 S 
ATOM     67  O   UNL A   1      48.336  23.737  34.166  1.00  0.00    -0.237 OA
ATOM     68  O   UNL A   1      49.799  25.253  32.878  1.00  0.00    -0.237 OA
ATOM     69  O   UNL A   1      49.481  25.609  35.296  1.00  0.00    -0.744 OA
ENDBRANCH  65  66
ENDBRANCH  46  60
BRANCH  47  70
ATOM     70  C   UNL A   1      37.153  32.752  30.280  1.00  0.00    -0.014 A 
ATOM     71  C   UNL A   1      37.138  33.669  29.215  1.00  0.00     0.010 A 
ATOM     72  C   UNL A   1      35.962  32.508  30.992  1.00  0.00     0.010 A 
ATOM     73  C   UNL A   1      35.962  34.347  28.884  1.00  0.00     0.020 A 
ATOM     74  C   UNL A   1      34.778  33.161  30.643  1.00  0.00     0.020 A 
ATOM     75  C   UNL A   1      34.790  34.089  29.600  1.00  0.00     0.054 A 
BRANCH  75  76
ATOM     76  S   UNL A   1      33.264  34.951  29.130  1.00  0.00     0.124 S 
ATOM     77  O   UNL A   1      32.527  34.967  30.390  1.00  0.00    -0.237 OA
ATOM     78  O   UNL A   1      33.760  36.247  28.670  1.00  0.00    -0.237 OA
ATOM     79  O   UNL A   1      32.701  34.102  28.083  1.00  0.00    -0.744 OA
ENDBRANCH  75  76
ENDBRANCH  47  70
BRANCH  59  80
ATOM     80  C   UNL A   1      41.829  33.577  35.391  1.00  0.00    -0.014 A 
ATOM     81  C   UNL A   1      42.446  34.810  35.121  1.00  0.00     0.010 A 
ATOM     82  C   UNL A   1      41.295  33.341  36.672  1.00  0.00     0.010 A 
ATOM     83  C   UNL A   1      42.540  35.784  36.119  1.00  0.00     0.020 A 
ATOM     84  C   UNL A   1      41.368  34.320  37.665  1.00  0.00     0.020 A 
ATOM     85  C   UNL A   1      41.999  35.533  37.384  1.00  0.00     0.054 A 
BRANCH  85  86
ATOM     86  S   UNL A   1      42.072  36.838  38.642  1.00  0.00     0.124 S 
ATOM     87  O   UNL A   1      40.703  37.344  38.637  1.00  0.00    -0.237 OA
ATOM     88  O   UNL A   1      42.467  36.106  39.843  1.00  0.00    -0.237 OA
ATOM     89  O   UNL A   1      43.080  37.762  38.125  1.00  0.00    -0.744 OA
ENDBRANCH  85  86
ENDBRANCH  59  80
ENDBRANCH  33  34
ENDBRANCH  26  28
ENDBRANCH  25  26
ENDBRANCH   1  25
TORSDOF 15
ENDMDL
