MODEL 1
REMARK VINA RESULT:     -10.0      0.000      0.000
REMARK SMILES C[NH2+][C@]1(C(=O)OCCOC(=O)c2ccc(-c3c4nc(c(-c5ccc(S(=O)(=O)[O-])cc5)c5ccc([nH]5)c(-c5ccc(S(=O)(=O)[O-])cc5)c5nc(c(-c6ccc(S(=O)(=O)[O-])cc6)c6ccc3[nH]6)C=C5)C=C4)cc2)CCC[C@@H]1CC[N@H+]1CCC[C@H]([NH+](C)C)C1
REMARK SMILES IDX 7 1 6 2 4 3 5 4 3 5 72 6 75 7 73 8 74 9 2 10 1 11 76 14
REMARK SMILES IDX 77 15 78 16 79 17 86 18 80 20 82 21 81 22 83 23 84 24 85 25
REMARK SMILES IDX 8 27 9 28 10 29 11 30 12 31 13 32 71 33 14 34 70 35 15 36
REMARK SMILES IDX 16 37 17 38 64 39 18 40 69 41 63 42 65 43 19 44 68 45 62 46
REMARK SMILES IDX 61 47 20 49 50 50 31 51 49 52 32 53 35 54 48 55 66 56 33 57
REMARK SMILES IDX 34 58 47 60 67 61 36 62 21 63 22 64 30 65 23 66 29 67 24 68
REMARK SMILES IDX 25 69 26 70 27 71 28 72 51 73 52 74 60 75 53 76 59 77 54 78
REMARK SMILES IDX 55 79 56 80 57 81 58 82 37 83 38 84 46 85 39 86 45 87 40 88
REMARK SMILES IDX 41 89 42 90 43 91 44 92
REMARK H PARENT 2 12 2 13 78 19 83 26 65 48 35 59
REMARK Flexibility Score: inf
ROOT
ATOM      1  C   UNL A   1      31.892  28.792  27.311  1.00  0.00     0.274 C 
ENDROOT
BRANCH   1   2
ATOM      2  O   UNL A   1      32.587  27.821  26.500  1.00  0.00    -0.457 OA
BRANCH   2   3
ATOM      3  C   UNL A   1      31.792  27.099  25.669  1.00  0.00     0.368 C 
ATOM      4  O   UNL A   1      30.935  26.313  26.067  1.00  0.00    -0.245 OA
BRANCH   3   5
ATOM      5  C   UNL A   1      32.118  27.258  24.169  1.00  0.00     0.197 C 
ATOM      6  C   UNL A   1      33.202  28.292  23.832  1.00  0.00     0.081 C 
ATOM      7  C   UNL A   1      32.841  25.950  23.711  1.00  0.00     0.068 C 
ATOM      8  C   UNL A   1      33.703  27.874  22.453  1.00  0.00     0.008 C 
ATOM      9  C   UNL A   1      33.539  26.351  22.398  1.00  0.00     0.011 C 
BRANCH   5  10
ATOM     10  N   UNL A   1      30.867  27.436  23.377  1.00  0.00    -0.334 N 
ATOM     11  C   UNL A   1      30.241  28.744  23.510  1.00  0.00     0.331 C 
ATOM     12  H   UNL A   1      31.092  27.291  22.392  1.00  0.00     0.347 HD
ATOM     13  H   UNL A   1      30.198  26.759  23.740  1.00  0.00     0.347 HD
ENDBRANCH   5  10
BRANCH   7  14
ATOM     14  C   UNL A   1      31.935  24.707  23.574  1.00  0.00     0.072 C 
BRANCH  14  15
ATOM     15  C   UNL A   1      32.649  23.348  23.698  1.00  0.00     0.262 C 
BRANCH  15  16
ATOM     16  N   UNL A   1      33.305  23.044  24.984  1.00  0.00    -0.330 N 
ATOM     17  C   UNL A   1      32.383  22.894  26.114  1.00  0.00     0.262 C 
ATOM     18  C   UNL A   1      34.093  21.802  24.861  1.00  0.00     0.327 C 
ATOM     19  H   UNL A   1      33.894  23.852  25.187  1.00  0.00     0.348 HD
ATOM     20  C   UNL A   1      33.148  22.752  27.429  1.00  0.00     0.068 C 
ATOM     21  C   UNL A   1      34.980  21.506  26.106  1.00  0.00     0.239 C 
ATOM     22  C   UNL A   1      34.144  21.599  27.402  1.00  0.00     0.077 C 
BRANCH  21  23
ATOM     23  N   UNL A   1      36.283  22.221  26.191  1.00  0.00    -0.333 N 
ATOM     24  C   UNL A   1      37.293  21.590  25.338  1.00  0.00     0.332 C 
ATOM     25  C   UNL A   1      36.218  23.649  25.892  1.00  0.00     0.332 C 
ATOM     26  H   UNL A   1      36.549  22.143  27.172  1.00  0.00     0.348 HD
ENDBRANCH  21  23
ENDBRANCH  15  16
ENDBRANCH  14  15
ENDBRANCH   7  14
ENDBRANCH   3   5
ENDBRANCH   2   3
ENDBRANCH   1   2
BRANCH   1  27
ATOM     27  C   UNL A   1      32.320  30.223  26.987  1.00  0.00     0.275 C 
BRANCH  27  28
ATOM     28  O   UNL A   1      33.756  30.312  26.937  1.00  0.00    -0.458 OA
BRANCH  28  29
ATOM     29  C   UNL A   1      34.318  31.287  27.689  1.00  0.00     0.338 C 
ATOM     30  O   UNL A   1      33.819  32.364  27.968  1.00  0.00    -0.246 OA
BRANCH  29  31
ATOM     31  C   UNL A   1      35.657  30.873  28.174  1.00  0.00     0.060 A 
ATOM     32  C   UNL A   1      35.881  29.597  28.689  1.00  0.00     0.016 A 
ATOM     33  C   UNL A   1      36.678  31.821  28.244  1.00  0.00     0.016 A 
ATOM     34  C   UNL A   1      37.057  29.298  29.370  1.00  0.00     0.010 A 
ATOM     35  C   UNL A   1      37.905  31.484  28.831  1.00  0.00     0.010 A 
ATOM     36  C   UNL A   1      38.095  30.231  29.441  1.00  0.00    -0.014 A 
BRANCH  36  37
ATOM     37  C   UNL A   1      39.339  29.928  30.201  1.00  0.00     0.031 A 
ATOM     38  C   UNL A   1      40.299  28.889  29.678  1.00  0.00     0.074 A 
ATOM     39  C   UNL A   1      39.639  30.582  31.342  1.00  0.00     0.049 A 
ATOM     40  N   UNL A   1      41.282  28.288  30.296  1.00  0.00    -0.248 NA
ATOM     41  C   UNL A   1      40.115  28.456  28.283  1.00  0.00     0.031 C 
ATOM     42  C   UNL A   1      38.856  31.668  31.938  1.00  0.00     0.029 A 
ATOM     43  N   UNL A   1      40.702  30.438  32.200  1.00  0.00    -0.354 N 
ATOM     44  C   UNL A   1      41.771  27.343  29.401  1.00  0.00     0.074 A 
ATOM     45  C   UNL A   1      40.994  27.468  28.186  1.00  0.00     0.031 C 
ATOM     46  C   UNL A   1      39.493  32.127  33.026  1.00  0.00     0.029 A 
ATOM     47  C   UNL A   1      40.665  31.297  33.273  1.00  0.00     0.049 A 
ATOM     48  H   UNL A   1      41.422  29.780  32.061  1.00  0.00     0.167 HD
ATOM     49  C   UNL A   1      42.763  26.441  29.585  1.00  0.00     0.031 A 
ATOM     50  C   UNL A   1      41.449  31.378  34.366  1.00  0.00     0.031 A 
ATOM     51  C   UNL A   1      43.576  26.370  30.771  1.00  0.00     0.049 A 
ATOM     52  C   UNL A   1      42.546  30.372  34.554  1.00  0.00     0.074 A 
ATOM     53  C   UNL A   1      44.597  25.482  31.067  1.00  0.00     0.029 A 
ATOM     54  N   UNL A   1      43.484  27.243  31.844  1.00  0.00    -0.354 N 
ATOM     55  N   UNL A   1      42.908  29.394  33.759  1.00  0.00    -0.248 NA
ATOM     56  C   UNL A   1      43.316  30.457  35.802  1.00  0.00     0.031 C 
ATOM     57  C   UNL A   1      45.106  25.807  32.330  1.00  0.00     0.029 A 
ATOM     58  C   UNL A   1      44.428  26.919  32.801  1.00  0.00     0.049 A 
ATOM     59  H   UNL A   1      42.840  27.985  31.913  1.00  0.00     0.167 HD
ATOM     60  C   UNL A   1      43.940  28.737  34.417  1.00  0.00     0.074 A 
ATOM     61  C   UNL A   1      44.167  29.449  35.658  1.00  0.00     0.031 C 
ATOM     62  C   UNL A   1      44.628  27.633  34.035  1.00  0.00     0.031 A 
BRANCH  49  63
ATOM     63  C   UNL A   1      42.983  25.416  28.506  1.00  0.00    -0.014 A 
ATOM     64  C   UNL A   1      43.929  25.605  27.484  1.00  0.00     0.010 A 
ATOM     65  C   UNL A   1      42.237  24.222  28.538  1.00  0.00     0.010 A 
ATOM     66  C   UNL A   1      44.101  24.632  26.494  1.00  0.00     0.020 A 
ATOM     67  C   UNL A   1      42.423  23.238  27.564  1.00  0.00     0.020 A 
ATOM     68  C   UNL A   1      43.342  23.457  26.536  1.00  0.00     0.054 A 
BRANCH  68  69
ATOM     69  S   UNL A   1      43.596  22.199  25.254  1.00  0.00     0.124 S 
ATOM     70  O   UNL A   1      44.967  21.772  25.520  1.00  0.00    -0.237 OA
ATOM     71  O   UNL A   1      42.562  21.213  25.556  1.00  0.00    -0.237 OA
ATOM     72  O   UNL A   1      43.404  22.936  24.006  1.00  0.00    -0.744 OA
ENDBRANCH  68  69
ENDBRANCH  49  63
BRANCH  50  73
ATOM     73  C   UNL A   1      41.164  32.410  35.400  1.00  0.00    -0.014 A 
ATOM     74  C   UNL A   1      41.690  33.707  35.278  1.00  0.00     0.010 A 
ATOM     75  C   UNL A   1      40.322  32.110  36.486  1.00  0.00     0.010 A 
ATOM     76  C   UNL A   1      41.368  34.691  36.220  1.00  0.00     0.020 A 
ATOM     77  C   UNL A   1      39.977  33.097  37.412  1.00  0.00     0.020 A 
ATOM     78  C   UNL A   1      40.507  34.381  37.277  1.00  0.00     0.054 A 
BRANCH  78  79
ATOM     79  S   UNL A   1      40.013  35.691  38.431  1.00  0.00     0.124 S 
ATOM     80  O   UNL A   1      41.188  35.800  39.287  1.00  0.00    -0.237 OA
ATOM     81  O   UNL A   1      39.766  36.826  37.545  1.00  0.00    -0.237 OA
ATOM     82  O   UNL A   1      38.818  35.143  39.070  1.00  0.00    -0.744 OA
ENDBRANCH  78  79
ENDBRANCH  50  73
BRANCH  62  83
ATOM     83  C   UNL A   1      45.695  27.140  34.969  1.00  0.00    -0.014 A 
ATOM     84  C   UNL A   1      47.008  27.637  34.886  1.00  0.00     0.010 A 
ATOM     85  C   UNL A   1      45.374  26.195  35.958  1.00  0.00     0.010 A 
ATOM     86  C   UNL A   1      47.992  27.171  35.761  1.00  0.00     0.020 A 
ATOM     87  C   UNL A   1      46.352  25.741  36.846  1.00  0.00     0.020 A 
ATOM     88  C   UNL A   1      47.659  26.221  36.731  1.00  0.00     0.054 A 
BRANCH  88  89
ATOM     89  S   UNL A   1      48.944  25.648  37.875  1.00  0.00     0.124 S 
ATOM     90  O   UNL A   1      48.213  25.567  39.137  1.00  0.00    -0.237 OA
ATOM     91  O   UNL A   1      49.344  24.367  37.298  1.00  0.00    -0.237 OA
ATOM     92  O   UNL A   1      49.958  26.697  37.808  1.00  0.00    -0.744 OA
ENDBRANCH  88  89
ENDBRANCH  62  83
ENDBRANCH  36  37
ENDBRANCH  29  31
ENDBRANCH  28  29
ENDBRANCH  27  28
ENDBRANCH   1  27
TORSDOF 19
ENDMDL
MODEL 2
REMARK VINA RESULT:      -9.9      4.540      9.041
REMARK SMILES C[NH2+][C@]1(C(=O)OCCOC(=O)c2ccc(-c3c4nc(c(-c5ccc(S(=O)(=O)[O-])cc5)c5ccc([nH]5)c(-c5ccc(S(=O)(=O)[O-])cc5)c5nc(c(-c6ccc(S(=O)(=O)[O-])cc6)c6ccc3[nH]6)C=C5)C=C4)cc2)CCC[C@@H]1CC[N@H+]1CCC[C@H]([NH+](C)C)C1
REMARK SMILES IDX 7 1 6 2 4 3 5 4 3 5 72 6 75 7 73 8 74 9 2 10 1 11 76 14
REMARK SMILES IDX 77 15 78 16 79 17 86 18 80 20 82 21 81 22 83 23 84 24 85 25
REMARK SMILES IDX 8 27 9 28 10 29 11 30 12 31 13 32 71 33 14 34 70 35 15 36
REMARK SMILES IDX 16 37 17 38 64 39 18 40 69 41 63 42 65 43 19 44 68 45 62 46
REMARK SMILES IDX 61 47 20 49 50 50 31 51 49 52 32 53 35 54 48 55 66 56 33 57
REMARK SMILES IDX 34 58 47 60 67 61 36 62 21 63 22 64 30 65 23 66 29 67 24 68
REMARK SMILES IDX 25 69 26 70 27 71 28 72 51 73 52 74 60 75 53 76 59 77 54 78
REMARK SMILES IDX 55 79 56 80 57 81 58 82 37 83 38 84 46 85 39 86 45 87 40 88
REMARK SMILES IDX 41 89 42 90 43 91 44 92
REMARK H PARENT 2 12 2 13 78 19 83 26 65 48 35 59
REMARK Flexibility Score: inf
ROOT
ATOM      1  C   UNL A   1      32.070  29.736  26.818  1.00  0.00     0.274 C 
ENDROOT
BRANCH   1   2
ATOM      2  O   UNL A   1      31.835  29.671  25.396  1.00  0.00    -0.457 OA
BRANCH   2   3
ATOM      3  C   UNL A   1      31.413  28.462  24.943  1.00  0.00     0.368 C 
ATOM      4  O   UNL A   1      30.692  27.710  25.593  1.00  0.00    -0.245 OA
BRANCH   3   5
ATOM      5  C   UNL A   1      32.001  28.049  23.577  1.00  0.00     0.197 C 
ATOM      6  C   UNL A   1      33.097  28.970  23.020  1.00  0.00     0.081 C 
ATOM      7  C   UNL A   1      32.834  26.747  23.807  1.00  0.00     0.068 C 
ATOM      8  C   UNL A   1      33.852  28.094  22.025  1.00  0.00     0.008 C 
ATOM      9  C   UNL A   1      33.746  26.664  22.568  1.00  0.00     0.011 C 
BRANCH   5  10
ATOM     10  N   UNL A   1      30.910  27.773  22.599  1.00  0.00    -0.334 N 
ATOM     11  C   UNL A   1      30.016  28.895  22.348  1.00  0.00     0.331 C 
ATOM     12  H   UNL A   1      31.339  27.505  21.713  1.00  0.00     0.347 HD
ATOM     13  H   UNL A   1      30.337  27.036  23.007  1.00  0.00     0.347 HD
ENDBRANCH   5  10
BRANCH   7  14
ATOM     14  C   UNL A   1      32.006  25.465  24.049  1.00  0.00     0.072 C 
BRANCH  14  15
ATOM     15  C   UNL A   1      32.257  24.756  25.393  1.00  0.00     0.262 C 
BRANCH  15  16
ATOM     16  N   UNL A   1      32.766  23.372  25.342  1.00  0.00    -0.330 N 
ATOM     17  C   UNL A   1      31.745  22.362  25.048  1.00  0.00     0.262 C 
ATOM     18  C   UNL A   1      33.828  23.268  24.322  1.00  0.00     0.327 C 
ATOM     19  H   UNL A   1      33.116  23.176  26.280  1.00  0.00     0.348 HD
ATOM     20  C   UNL A   1      32.317  20.951  25.182  1.00  0.00     0.068 C 
ATOM     21  C   UNL A   1      34.563  21.896  24.332  1.00  0.00     0.239 C 
ATOM     22  C   UNL A   1      33.545  20.735  24.305  1.00  0.00     0.077 C 
BRANCH  21  23
ATOM     23  N   UNL A   1      35.639  21.716  25.345  1.00  0.00    -0.333 N 
ATOM     24  C   UNL A   1      36.393  20.483  25.107  1.00  0.00     0.332 C 
ATOM     25  C   UNL A   1      36.566  22.838  25.459  1.00  0.00     0.332 C 
ATOM     26  H   UNL A   1      35.141  21.661  26.233  1.00  0.00     0.348 HD
ENDBRANCH  21  23
ENDBRANCH  15  16
ENDBRANCH  14  15
ENDBRANCH   7  14
ENDBRANCH   3   5
ENDBRANCH   2   3
ENDBRANCH   1   2
BRANCH   1  27
ATOM     27  C   UNL A   1      33.205  30.698  27.170  1.00  0.00     0.275 C 
BRANCH  27  28
ATOM     28  O   UNL A   1      33.938  30.205  28.306  1.00  0.00    -0.458 OA
BRANCH  28  29
ATOM     29  C   UNL A   1      34.908  31.017  28.786  1.00  0.00     0.338 C 
ATOM     30  O   UNL A   1      34.762  32.159  29.188  1.00  0.00    -0.246 OA
BRANCH  29  31
ATOM     31  C   UNL A   1      36.221  30.327  28.790  1.00  0.00     0.060 A 
ATOM     32  C   UNL A   1      36.790  29.854  29.971  1.00  0.00     0.016 A 
ATOM     33  C   UNL A   1      36.964  30.273  27.610  1.00  0.00     0.016 A 
ATOM     34  C   UNL A   1      38.118  29.441  30.009  1.00  0.00     0.010 A 
ATOM     35  C   UNL A   1      38.264  29.752  27.627  1.00  0.00     0.010 A 
ATOM     36  C   UNL A   1      38.874  29.369  28.835  1.00  0.00    -0.014 A 
BRANCH  36  37
ATOM     37  C   UNL A   1      40.307  28.964  28.877  1.00  0.00     0.031 A 
ATOM     38  C   UNL A   1      41.351  29.957  29.320  1.00  0.00     0.074 A 
ATOM     39  C   UNL A   1      40.690  27.714  28.547  1.00  0.00     0.049 A 
ATOM     40  N   UNL A   1      42.650  29.908  29.180  1.00  0.00    -0.248 NA
ATOM     41  C   UNL A   1      40.868  31.176  29.990  1.00  0.00     0.031 C 
ATOM     42  C   UNL A   1      39.796  26.614  28.174  1.00  0.00     0.029 A 
ATOM     43  N   UNL A   1      41.941  27.150  28.488  1.00  0.00    -0.354 N 
ATOM     44  C   UNL A   1      43.129  31.123  29.656  1.00  0.00     0.074 A 
ATOM     45  C   UNL A   1      41.985  31.879  30.115  1.00  0.00     0.031 C 
ATOM     46  C   UNL A   1      40.520  25.500  27.983  1.00  0.00     0.029 A 
ATOM     47  C   UNL A   1      41.935  25.829  28.106  1.00  0.00     0.049 A 
ATOM     48  H   UNL A   1      42.766  27.646  28.699  1.00  0.00     0.167 HD
ATOM     49  C   UNL A   1      44.407  31.571  29.687  1.00  0.00     0.031 A 
ATOM     50  C   UNL A   1      42.948  24.986  27.827  1.00  0.00     0.031 A 
ATOM     51  C   UNL A   1      45.546  30.785  29.294  1.00  0.00     0.049 A 
ATOM     52  C   UNL A   1      44.357  25.499  27.870  1.00  0.00     0.074 A 
ATOM     53  C   UNL A   1      46.881  31.151  29.270  1.00  0.00     0.029 A 
ATOM     54  N   UNL A   1      45.487  29.461  28.886  1.00  0.00    -0.354 N 
ATOM     55  N   UNL A   1      44.786  26.696  28.190  1.00  0.00    -0.248 NA
ATOM     56  C   UNL A   1      45.415  24.559  27.477  1.00  0.00     0.031 C 
ATOM     57  C   UNL A   1      47.627  30.052  28.827  1.00  0.00     0.029 A 
ATOM     58  C   UNL A   1      46.759  28.994  28.611  1.00  0.00     0.049 A 
ATOM     59  H   UNL A   1      44.660  28.933  28.804  1.00  0.00     0.167 HD
ATOM     60  C   UNL A   1      46.165  26.658  28.024  1.00  0.00     0.074 A 
ATOM     61  C   UNL A   1      46.501  25.311  27.609  1.00  0.00     0.031 C 
ATOM     62  C   UNL A   1      47.070  27.654  28.187  1.00  0.00     0.031 A 
BRANCH  49  63
ATOM     63  C   UNL A   1      44.633  32.999  30.104  1.00  0.00    -0.014 A 
ATOM     64  C   UNL A   1      44.978  33.342  31.422  1.00  0.00     0.010 A 
ATOM     65  C   UNL A   1      44.522  34.017  29.137  1.00  0.00     0.010 A 
ATOM     66  C   UNL A   1      45.176  34.682  31.773  1.00  0.00     0.020 A 
ATOM     67  C   UNL A   1      44.741  35.353  29.479  1.00  0.00     0.020 A 
ATOM     68  C   UNL A   1      45.049  35.680  30.801  1.00  0.00     0.054 A 
BRANCH  68  69
ATOM     69  S   UNL A   1      45.330  37.409  31.274  1.00  0.00     0.124 S 
ATOM     70  O   UNL A   1      46.665  37.346  31.862  1.00  0.00    -0.237 OA
ATOM     71  O   UNL A   1      45.239  38.114  29.997  1.00  0.00    -0.237 OA
ATOM     72  O   UNL A   1      44.247  37.689  32.214  1.00  0.00    -0.744 OA
ENDBRANCH  68  69
ENDBRANCH  49  63
BRANCH  50  73
ATOM     73  C   UNL A   1      42.648  23.589  27.409  1.00  0.00    -0.014 A 
ATOM     74  C   UNL A   1      42.439  23.278  26.055  1.00  0.00     0.010 A 
ATOM     75  C   UNL A   1      42.620  22.555  28.362  1.00  0.00     0.010 A 
ATOM     76  C   UNL A   1      42.220  21.954  25.660  1.00  0.00     0.020 A 
ATOM     77  C   UNL A   1      42.429  21.229  27.969  1.00  0.00     0.020 A 
ATOM     78  C   UNL A   1      42.224  20.936  26.620  1.00  0.00     0.054 A 
BRANCH  78  79
ATOM     79  S   UNL A   1      42.044  19.212  26.084  1.00  0.00     0.124 S 
ATOM     80  O   UNL A   1      42.435  18.480  27.284  1.00  0.00    -0.237 OA
ATOM     81  O   UNL A   1      40.631  19.131  25.724  1.00  0.00    -0.237 OA
ATOM     82  O   UNL A   1      42.969  19.112  24.957  1.00  0.00    -0.744 OA
ENDBRANCH  78  79
ENDBRANCH  50  73
BRANCH  62  83
ATOM     83  C   UNL A   1      48.509  27.314  27.924  1.00  0.00    -0.014 A 
ATOM     84  C   UNL A   1      49.337  26.845  28.958  1.00  0.00     0.010 A 
ATOM     85  C   UNL A   1      49.027  27.435  26.623  1.00  0.00     0.010 A 
ATOM     86  C   UNL A   1      50.674  26.532  28.700  1.00  0.00     0.020 A 
ATOM     87  C   UNL A   1      50.358  27.105  26.358  1.00  0.00     0.020 A 
ATOM     88  C   UNL A   1      51.177  26.669  27.403  1.00  0.00     0.054 A 
BRANCH  88  89
ATOM     89  S   UNL A   1      52.908  26.233  27.083  1.00  0.00     0.124 S 
ATOM     90  O   UNL A   1      53.338  27.321  26.209  1.00  0.00    -0.237 OA
ATOM     91  O   UNL A   1      53.495  26.232  28.421  1.00  0.00    -0.237 OA
ATOM     92  O   UNL A   1      52.820  24.920  26.449  1.00  0.00    -0.744 OA
ENDBRANCH  88  89
ENDBRANCH  62  83
ENDBRANCH  36  37
ENDBRANCH  29  31
ENDBRANCH  28  29
ENDBRANCH  27  28
ENDBRANCH   1  27
TORSDOF 19
ENDMDL
MODEL 3
REMARK VINA RESULT:      -9.8      4.837      7.525
REMARK SMILES C[NH2+][C@]1(C(=O)OCCOC(=O)c2ccc(-c3c4nc(c(-c5ccc(S(=O)(=O)[O-])cc5)c5ccc([nH]5)c(-c5ccc(S(=O)(=O)[O-])cc5)c5nc(c(-c6ccc(S(=O)(=O)[O-])cc6)c6ccc3[nH]6)C=C5)C=C4)cc2)CCC[C@@H]1CC[N@H+]1CCC[C@H]([NH+](C)C)C1
REMARK SMILES IDX 7 1 6 2 4 3 5 4 3 5 72 6 75 7 73 8 74 9 2 10 1 11 76 14
REMARK SMILES IDX 77 15 78 16 79 17 86 18 80 20 82 21 81 22 83 23 84 24 85 25
REMARK SMILES IDX 8 27 9 28 10 29 11 30 12 31 13 32 71 33 14 34 70 35 15 36
REMARK SMILES IDX 16 37 17 38 64 39 18 40 69 41 63 42 65 43 19 44 68 45 62 46
REMARK SMILES IDX 61 47 20 49 50 50 31 51 49 52 32 53 35 54 48 55 66 56 33 57
REMARK SMILES IDX 34 58 47 60 67 61 36 62 21 63 22 64 30 65 23 66 29 67 24 68
REMARK SMILES IDX 25 69 26 70 27 71 28 72 51 73 52 74 60 75 53 76 59 77 54 78
REMARK SMILES IDX 55 79 56 80 57 81 58 82 37 83 38 84 46 85 39 86 45 87 40 88
REMARK SMILES IDX 41 89 42 90 43 91 44 92
REMARK H PARENT 2 12 2 13 78 19 83 26 65 48 35 59
REMARK Flexibility Score: inf
ROOT
ATOM      1  C   UNL A   1      36.220  22.063  25.656  1.00  0.00     0.274 C 
ENDROOT
BRANCH   1   2
ATOM      2  O   UNL A   1      35.066  21.486  25.011  1.00  0.00    -0.457 OA
BRANCH   2   3
ATOM      3  C   UNL A   1      34.460  22.291  24.101  1.00  0.00     0.368 C 
ATOM      4  O   UNL A   1      35.066  22.874  23.205  1.00  0.00    -0.245 OA
BRANCH   3   5
ATOM      5  C   UNL A   1      32.952  22.511  24.342  1.00  0.00     0.197 C 
ATOM      6  C   UNL A   1      32.254  21.443  25.199  1.00  0.00     0.081 C 
ATOM      7  C   UNL A   1      32.808  23.749  25.284  1.00  0.00     0.068 C 
ATOM      8  C   UNL A   1      31.004  22.143  25.723  1.00  0.00     0.008 C 
ATOM      9  C   UNL A   1      31.381  23.624  25.849  1.00  0.00     0.011 C 
BRANCH   5  10
ATOM     10  N   UNL A   1      32.250  22.782  23.054  1.00  0.00    -0.334 N 
ATOM     11  C   UNL A   1      31.968  21.602  22.250  1.00  0.00     0.331 C 
ATOM     12  H   UNL A   1      31.363  23.240  23.266  1.00  0.00     0.347 HD
ATOM     13  H   UNL A   1      32.879  23.363  22.501  1.00  0.00     0.347 HD
ENDBRANCH   5  10
BRANCH   7  14
ATOM     14  C   UNL A   1      33.092  25.118  24.625  1.00  0.00     0.072 C 
BRANCH  14  15
ATOM     15  C   UNL A   1      34.049  26.041  25.401  1.00  0.00     0.262 C 
BRANCH  15  16
ATOM     16  N   UNL A   1      33.640  27.449  25.570  1.00  0.00    -0.330 N 
ATOM     17  C   UNL A   1      32.784  27.964  24.498  1.00  0.00     0.262 C 
ATOM     18  C   UNL A   1      32.926  27.610  26.852  1.00  0.00     0.327 C 
ATOM     19  H   UNL A   1      34.506  27.989  25.545  1.00  0.00     0.348 HD
ATOM     20  C   UNL A   1      32.548  29.466  24.660  1.00  0.00     0.068 C 
ATOM     21  C   UNL A   1      32.629  29.095  27.212  1.00  0.00     0.239 C 
ATOM     22  C   UNL A   1      31.963  29.820  26.021  1.00  0.00     0.077 C 
BRANCH  21  23
ATOM     23  N   UNL A   1      33.736  29.872  27.833  1.00  0.00    -0.333 N 
ATOM     24  C   UNL A   1      35.044  29.347  27.436  1.00  0.00     0.332 C 
ATOM     25  C   UNL A   1      33.693  31.310  27.578  1.00  0.00     0.332 C 
ATOM     26  H   UNL A   1      33.596  29.753  28.836  1.00  0.00     0.348 HD
ENDBRANCH  21  23
ENDBRANCH  15  16
ENDBRANCH  14  15
ENDBRANCH   7  14
ENDBRANCH   3   5
ENDBRANCH   2   3
ENDBRANCH   1   2
BRANCH   1  27
ATOM     27  C   UNL A   1      37.431  21.130  25.611  1.00  0.00     0.275 C 
BRANCH  27  28
ATOM     28  O   UNL A   1      38.638  21.893  25.440  1.00  0.00    -0.458 OA
BRANCH  28  29
ATOM     29  C   UNL A   1      39.531  21.830  26.457  1.00  0.00     0.338 C 
ATOM     30  O   UNL A   1      40.040  20.820  26.910  1.00  0.00    -0.246 OA
BRANCH  29  31
ATOM     31  C   UNL A   1      39.849  23.187  26.964  1.00  0.00     0.060 A 
ATOM     32  C   UNL A   1      39.381  24.332  26.319  1.00  0.00     0.016 A 
ATOM     33  C   UNL A   1      40.746  23.324  28.023  1.00  0.00     0.016 A 
ATOM     34  C   UNL A   1      39.885  25.588  26.641  1.00  0.00     0.010 A 
ATOM     35  C   UNL A   1      41.168  24.599  28.421  1.00  0.00     0.010 A 
ATOM     36  C   UNL A   1      40.776  25.746  27.707  1.00  0.00    -0.014 A 
BRANCH  36  37
ATOM     37  C   UNL A   1      41.345  27.084  28.030  1.00  0.00     0.031 A 
ATOM     38  C   UNL A   1      42.808  27.352  27.781  1.00  0.00     0.074 A 
ATOM     39  C   UNL A   1      40.572  28.073  28.523  1.00  0.00     0.049 A 
ATOM     40  N   UNL A   1      43.556  28.329  28.226  1.00  0.00    -0.248 NA
ATOM     41  C   UNL A   1      43.528  26.384  26.937  1.00  0.00     0.031 C 
ATOM     42  C   UNL A   1      39.126  27.999  28.746  1.00  0.00     0.029 A 
ATOM     43  N   UNL A   1      40.896  29.350  28.912  1.00  0.00    -0.354 N 
ATOM     44  C   UNL A   1      44.847  28.042  27.798  1.00  0.00     0.074 A 
ATOM     45  C   UNL A   1      44.778  26.816  27.033  1.00  0.00     0.031 C 
ATOM     46  C   UNL A   1      38.682  29.191  29.175  1.00  0.00     0.029 A 
ATOM     47  C   UNL A   1      39.822  30.078  29.367  1.00  0.00     0.049 A 
ATOM     48  H   UNL A   1      41.812  29.710  28.868  1.00  0.00     0.167 HD
ATOM     49  C   UNL A   1      45.987  28.732  28.038  1.00  0.00     0.031 A 
ATOM     50  C   UNL A   1      39.760  31.300  29.931  1.00  0.00     0.031 A 
ATOM     51  C   UNL A   1      46.036  29.987  28.740  1.00  0.00     0.049 A 
ATOM     52  C   UNL A   1      41.033  32.051  30.188  1.00  0.00     0.074 A 
ATOM     53  C   UNL A   1      47.142  30.759  29.053  1.00  0.00     0.029 A 
ATOM     54  N   UNL A   1      44.925  30.672  29.208  1.00  0.00    -0.354 N 
ATOM     55  N   UNL A   1      42.264  31.703  29.900  1.00  0.00    -0.248 NA
ATOM     56  C   UNL A   1      40.912  33.341  30.880  1.00  0.00     0.031 C 
ATOM     57  C   UNL A   1      46.700  31.902  29.731  1.00  0.00     0.029 A 
ATOM     58  C   UNL A   1      45.317  31.857  29.805  1.00  0.00     0.049 A 
ATOM     59  H   UNL A   1      43.995  30.360  29.128  1.00  0.00     0.167 HD
ATOM     60  C   UNL A   1      43.068  32.726  30.387  1.00  0.00     0.074 A 
ATOM     61  C   UNL A   1      42.181  33.721  30.958  1.00  0.00     0.031 C 
ATOM     62  C   UNL A   1      44.420  32.826  30.377  1.00  0.00     0.031 A 
BRANCH  49  63
ATOM     63  C   UNL A   1      47.283  28.110  27.594  1.00  0.00    -0.014 A 
ATOM     64  C   UNL A   1      47.870  28.421  26.355  1.00  0.00     0.010 A 
ATOM     65  C   UNL A   1      47.940  27.213  28.457  1.00  0.00     0.010 A 
ATOM     66  C   UNL A   1      49.073  27.819  25.974  1.00  0.00     0.020 A 
ATOM     67  C   UNL A   1      49.154  26.627  28.090  1.00  0.00     0.020 A 
ATOM     68  C   UNL A   1      49.704  26.920  26.841  1.00  0.00     0.054 A 
BRANCH  68  69
ATOM     69  S   UNL A   1      51.276  26.166  26.335  1.00  0.00     0.124 S 
ATOM     70  O   UNL A   1      51.182  24.841  26.941  1.00  0.00    -0.237 OA
ATOM     71  O   UNL A   1      51.196  26.197  24.877  1.00  0.00    -0.237 OA
ATOM     72  O   UNL A   1      52.284  27.049  26.918  1.00  0.00    -0.744 OA
ENDBRANCH  68  69
ENDBRANCH  49  63
BRANCH  50  73
ATOM     73  C   UNL A   1      38.443  31.846  30.358  1.00  0.00    -0.014 A 
ATOM     74  C   UNL A   1      38.006  31.703  31.686  1.00  0.00     0.010 A 
ATOM     75  C   UNL A   1      37.642  32.557  29.445  1.00  0.00     0.010 A 
ATOM     76  C   UNL A   1      36.797  32.273  32.096  1.00  0.00     0.020 A 
ATOM     77  C   UNL A   1      36.448  33.151  29.858  1.00  0.00     0.020 A 
ATOM     78  C   UNL A   1      36.028  33.001  31.181  1.00  0.00     0.054 A 
BRANCH  78  79
ATOM     79  S   UNL A   1      34.515  33.824  31.751  1.00  0.00     0.124 S 
ATOM     80  O   UNL A   1      33.893  32.785  32.563  1.00  0.00    -0.237 OA
ATOM     81  O   UNL A   1      35.031  34.977  32.483  1.00  0.00    -0.237 OA
ATOM     82  O   UNL A   1      33.821  34.150  30.507  1.00  0.00    -0.744 OA
ENDBRANCH  78  79
ENDBRANCH  50  73
BRANCH  62  83
ATOM     83  C   UNL A   1      45.015  34.059  30.994  1.00  0.00    -0.014 A 
ATOM     84  C   UNL A   1      45.377  34.080  32.352  1.00  0.00     0.010 A 
ATOM     85  C   UNL A   1      45.243  35.196  30.199  1.00  0.00     0.010 A 
ATOM     86  C   UNL A   1      45.930  35.233  32.914  1.00  0.00     0.020 A 
ATOM     87  C   UNL A   1      45.814  36.343  30.754  1.00  0.00     0.020 A 
ATOM     88  C   UNL A   1      46.140  36.359  32.113  1.00  0.00     0.054 A 
BRANCH  88  89
ATOM     89  S   UNL A   1      46.884  37.838  32.854  1.00  0.00     0.124 S 
ATOM     90  O   UNL A   1      48.309  37.527  32.784  1.00  0.00    -0.237 OA
ATOM     91  O   UNL A   1      46.430  38.908  31.968  1.00  0.00    -0.237 OA
ATOM     92  O   UNL A   1      46.317  37.871  34.200  1.00  0.00    -0.744 OA
ENDBRANCH  88  89
ENDBRANCH  62  83
ENDBRANCH  36  37
ENDBRANCH  29  31
ENDBRANCH  28  29
ENDBRANCH  27  28
ENDBRANCH   1  27
TORSDOF 19
ENDMDL
