MODEL 1
REMARK VINA RESULT:      -9.9      0.000      0.000
REMARK SMILES O=C(Nc1ccccc1C(=O)OCCOC(=O)c1ccc(-c2c3nc(c(-c4ccc(S(=O)(=O)[O-])cc4)c4ccc([nH]4)c(-c4ccc(S(=O)(=O)[O-])cc4)c4nc(c(-c5ccc(S(=O)(=O)[O-])cc5)c5ccc2[nH]5)C=C4)C=C3)cc1)c1ccc(N2C(=O)[C@H]3CC=CC[C@H]3C2=O)cc1
REMARK SMILES IDX 13 1 12 2 10 3 11 4 9 5 4 6 5 7 6 8 8 9 7 10 3 11 1 12 2 13
REMARK SMILES IDX 78 15 79 16 94 17 80 18 93 19 81 20 82 21 83 22 91 23 84 24
REMARK SMILES IDX 85 25 90 26 92 27 86 28 89 29 87 30 88 31 14 32 15 33 16 34
REMARK SMILES IDX 17 35 18 36 19 37 77 38 20 39 76 40 21 41 22 42 23 43 70 44
REMARK SMILES IDX 24 45 75 46 69 47 71 48 25 49 74 50 68 51 67 52 26 54 56 55
REMARK SMILES IDX 37 56 55 57 38 58 41 59 54 60 72 61 39 62 40 63 53 65 73 66
REMARK SMILES IDX 42 67 27 68 28 69 36 70 29 71 35 72 30 73 31 74 32 75 33 76
REMARK SMILES IDX 34 77 57 78 58 79 66 80 59 81 65 82 60 83 61 84 62 85 63 86
REMARK SMILES IDX 64 87 43 88 44 89 52 90 45 91 51 92 46 93 47 94 48 95 49 96
REMARK SMILES IDX 50 97
REMARK H PARENT 3 14 71 53 41 64
REMARK Flexibility Score: inf
ROOT
ATOM      1  C   UNL A   1      33.607  33.169  28.014  1.00  0.00     0.275 C 
ENDROOT
BRANCH   1   2
ATOM      2  O   UNL A   1      34.176  34.034  29.025  1.00  0.00    -0.458 OA
BRANCH   2   3
ATOM      3  C   UNL A   1      34.846  33.395  30.017  1.00  0.00     0.340 C 
ATOM      4  O   UNL A   1      34.369  32.584  30.788  1.00  0.00    -0.246 OA
BRANCH   3   5
ATOM      5  C   UNL A   1      36.269  33.787  30.106  1.00  0.00     0.083 A 
ATOM      6  C   UNL A   1      36.919  34.135  31.299  1.00  0.00     0.056 A 
ATOM      7  C   UNL A   1      38.260  34.556  31.234  1.00  0.00     0.027 A 
ATOM      8  C   UNL A   1      38.983  34.506  30.037  1.00  0.00     0.002 A 
ATOM      9  C   UNL A   1      37.008  33.755  28.907  1.00  0.00     0.018 A 
ATOM     10  C   UNL A   1      38.360  34.086  28.873  1.00  0.00     0.001 A 
BRANCH   6  11
ATOM     11  N   UNL A   1      36.370  34.081  32.597  1.00  0.00    -0.321 N 
ATOM     12  O   UNL A   1      35.686  33.150  34.537  1.00  0.00    -0.269 OA
ATOM     13  C   UNL A   1      36.475  33.133  33.593  1.00  0.00     0.255 C 
ATOM     14  H   UNL A   1      35.814  34.858  32.835  1.00  0.00     0.170 HD
BRANCH  13  15
ATOM     15  C   UNL A   1      37.574  32.136  33.597  1.00  0.00     0.040 A 
ATOM     16  C   UNL A   1      37.362  30.780  33.314  1.00  0.00     0.016 A 
ATOM     17  C   UNL A   1      38.850  32.579  33.951  1.00  0.00     0.016 A 
ATOM     18  C   UNL A   1      38.399  29.857  33.500  1.00  0.00     0.027 A 
ATOM     19  C   UNL A   1      39.860  31.648  34.202  1.00  0.00     0.027 A 
ATOM     20  C   UNL A   1      39.634  30.279  34.007  1.00  0.00     0.052 A 
BRANCH  20  21
ATOM     21  N   UNL A   1      40.657  29.359  34.318  1.00  0.00    -0.250 N 
ATOM     22  C   UNL A   1      41.158  28.446  33.428  1.00  0.00     0.238 C 
ATOM     23  C   UNL A   1      41.298  29.326  35.531  1.00  0.00     0.238 C 
ATOM     24  O   UNL A   1      40.751  28.195  32.300  1.00  0.00    -0.274 OA
ATOM     25  C   UNL A   1      42.424  27.852  34.007  1.00  0.00     0.096 C 
ATOM     26  C   UNL A   1      42.447  28.351  35.458  1.00  0.00     0.096 C 
ATOM     27  O   UNL A   1      41.019  29.949  36.548  1.00  0.00    -0.274 OA
ATOM     28  C   UNL A   1      43.621  28.297  33.152  1.00  0.00     0.041 C 
ATOM     29  C   UNL A   1      43.719  29.092  35.884  1.00  0.00     0.041 C 
ATOM     30  C   UNL A   1      44.130  29.662  33.526  1.00  0.00    -0.030 C 
ATOM     31  C   UNL A   1      44.187  30.032  34.812  1.00  0.00    -0.030 C 
ENDBRANCH  20  21
ENDBRANCH  13  15
ENDBRANCH   6  11
ENDBRANCH   3   5
ENDBRANCH   2   3
ENDBRANCH   1   2
BRANCH   1  32
ATOM     32  C   UNL A   1      33.698  31.678  28.340  1.00  0.00     0.275 C 
BRANCH  32  33
ATOM     33  O   UNL A   1      34.113  30.910  27.197  1.00  0.00    -0.458 OA
BRANCH  33  34
ATOM     34  C   UNL A   1      34.627  29.705  27.512  1.00  0.00     0.338 C 
ATOM     35  O   UNL A   1      34.122  28.610  27.316  1.00  0.00    -0.246 OA
BRANCH  34  36
ATOM     36  C   UNL A   1      35.975  29.834  28.072  1.00  0.00     0.060 A 
ATOM     37  C   UNL A   1      37.000  30.170  27.196  1.00  0.00     0.016 A 
ATOM     38  C   UNL A   1      36.269  29.358  29.343  1.00  0.00     0.016 A 
ATOM     39  C   UNL A   1      38.312  29.863  27.493  1.00  0.00     0.010 A 
ATOM     40  C   UNL A   1      37.607  29.180  29.702  1.00  0.00     0.010 A 
ATOM     41  C   UNL A   1      38.633  29.375  28.757  1.00  0.00    -0.014 A 
BRANCH  41  42
ATOM     42  C   UNL A   1      40.038  29.016  29.055  1.00  0.00     0.031 A 
ATOM     43  C   UNL A   1      40.938  30.038  29.689  1.00  0.00     0.074 A 
ATOM     44  C   UNL A   1      40.485  27.774  28.784  1.00  0.00     0.049 A 
ATOM     45  N   UNL A   1      42.236  30.016  29.830  1.00  0.00    -0.248 NA
ATOM     46  C   UNL A   1      40.298  31.258  30.214  1.00  0.00     0.031 C 
ATOM     47  C   UNL A   1      39.673  26.668  28.260  1.00  0.00     0.029 A 
ATOM     48  N   UNL A   1      41.734  27.226  28.916  1.00  0.00    -0.354 N 
ATOM     49  C   UNL A   1      42.575  31.245  30.384  1.00  0.00     0.074 A 
ATOM     50  C   UNL A   1      41.348  31.989  30.560  1.00  0.00     0.031 C 
ATOM     51  C   UNL A   1      40.437  25.572  28.148  1.00  0.00     0.029 A 
ATOM     52  C   UNL A   1      41.810  25.926  28.475  1.00  0.00     0.049 A 
ATOM     53  H   UNL A   1      42.502  27.716  29.290  1.00  0.00     0.167 HD
ATOM     54  C   UNL A   1      43.808  31.708  30.697  1.00  0.00     0.031 A 
ATOM     55  C   UNL A   1      42.877  25.129  28.288  1.00  0.00     0.031 A 
ATOM     56  C   UNL A   1      45.006  30.925  30.544  1.00  0.00     0.049 A 
ATOM     57  C   UNL A   1      44.238  25.689  28.581  1.00  0.00     0.074 A 
ATOM     58  C   UNL A   1      46.309  31.277  30.844  1.00  0.00     0.029 A 
ATOM     59  N   UNL A   1      45.043  29.626  30.054  1.00  0.00    -0.354 N 
ATOM     60  N   UNL A   1      44.556  26.871  29.053  1.00  0.00    -0.248 NA
ATOM     61  C   UNL A   1      45.383  24.815  28.303  1.00  0.00     0.031 C 
ATOM     62  C   UNL A   1      47.141  30.214  30.477  1.00  0.00     0.029 A 
ATOM     63  C   UNL A   1      46.350  29.172  30.018  1.00  0.00     0.049 A 
ATOM     64  H   UNL A   1      44.257  29.105  29.773  1.00  0.00     0.167 HD
ATOM     65  C   UNL A   1      45.941  26.874  29.156  1.00  0.00     0.074 A 
ATOM     66  C   UNL A   1      46.394  25.570  28.712  1.00  0.00     0.031 C 
ATOM     67  C   UNL A   1      46.766  27.865  29.577  1.00  0.00     0.031 A 
BRANCH  54  68
ATOM     68  C   UNL A   1      43.932  33.133  31.170  1.00  0.00    -0.014 A 
ATOM     69  C   UNL A   1      44.252  34.185  30.294  1.00  0.00     0.010 A 
ATOM     70  C   UNL A   1      43.679  33.426  32.524  1.00  0.00     0.010 A 
ATOM     71  C   UNL A   1      44.346  35.497  30.770  1.00  0.00     0.020 A 
ATOM     72  C   UNL A   1      43.742  34.740  32.996  1.00  0.00     0.020 A 
ATOM     73  C   UNL A   1      44.088  35.766  32.118  1.00  0.00     0.054 A 
BRANCH  73  74
ATOM     74  S   UNL A   1      44.177  37.483  32.697  1.00  0.00     0.124 S 
ATOM     75  O   UNL A   1      43.859  38.229  31.481  1.00  0.00    -0.237 OA
ATOM     76  O   UNL A   1      43.158  37.521  33.741  1.00  0.00    -0.237 OA
ATOM     77  O   UNL A   1      45.553  37.621  33.167  1.00  0.00    -0.744 OA
ENDBRANCH  73  74
ENDBRANCH  54  68
BRANCH  55  78
ATOM     78  C   UNL A   1      42.699  23.755  27.743  1.00  0.00    -0.014 A 
ATOM     79  C   UNL A   1      42.530  22.662  28.608  1.00  0.00     0.010 A 
ATOM     80  C   UNL A   1      42.683  23.534  26.352  1.00  0.00     0.010 A 
ATOM     81  C   UNL A   1      42.366  21.372  28.096  1.00  0.00     0.020 A 
ATOM     82  C   UNL A   1      42.483  22.253  25.835  1.00  0.00     0.020 A 
ATOM     83  C   UNL A   1      42.340  21.176  26.711  1.00  0.00     0.054 A 
BRANCH  83  84
ATOM     84  S   UNL A   1      42.083  19.500  26.069  1.00  0.00     0.124 S 
ATOM     85  O   UNL A   1      42.517  18.675  27.191  1.00  0.00    -0.237 OA
ATOM     86  O   UNL A   1      40.649  19.488  25.789  1.00  0.00    -0.237 OA
ATOM     87  O   UNL A   1      42.941  19.453  24.886  1.00  0.00    -0.744 OA
ENDBRANCH  83  84
ENDBRANCH  55  78
BRANCH  67  88
ATOM     88  C   UNL A   1      48.236  27.549  29.629  1.00  0.00    -0.014 A 
ATOM     89  C   UNL A   1      49.046  27.639  28.485  1.00  0.00     0.010 A 
ATOM     90  C   UNL A   1      48.818  27.201  30.861  1.00  0.00     0.010 A 
ATOM     91  C   UNL A   1      50.409  27.352  28.565  1.00  0.00     0.020 A 
ATOM     92  C   UNL A   1      50.187  26.947  30.953  1.00  0.00     0.020 A 
ATOM     93  C   UNL A   1      50.971  27.010  29.800  1.00  0.00     0.054 A 
BRANCH  93  94
ATOM     94  S   UNL A   1      52.752  26.684  29.886  1.00  0.00     0.124 S 
ATOM     95  O   UNL A   1      52.812  25.569  30.826  1.00  0.00    -0.237 OA
ATOM     96  O   UNL A   1      53.083  26.358  28.500  1.00  0.00    -0.237 OA
ATOM     97  O   UNL A   1      53.311  27.943  30.375  1.00  0.00    -0.744 OA
ENDBRANCH  93  94
ENDBRANCH  67  88
ENDBRANCH  41  42
ENDBRANCH  34  36
ENDBRANCH  33  34
ENDBRANCH  32  33
ENDBRANCH   1  32
TORSDOF 17
ENDMDL
MODEL 2
REMARK VINA RESULT:      -9.9      4.765     10.739
REMARK SMILES O=C(Nc1ccccc1C(=O)OCCOC(=O)c1ccc(-c2c3nc(c(-c4ccc(S(=O)(=O)[O-])cc4)c4ccc([nH]4)c(-c4ccc(S(=O)(=O)[O-])cc4)c4nc(c(-c5ccc(S(=O)(=O)[O-])cc5)c5ccc2[nH]5)C=C4)C=C3)cc1)c1ccc(N2C(=O)[C@H]3CC=CC[C@H]3C2=O)cc1
REMARK SMILES IDX 13 1 12 2 10 3 11 4 9 5 4 6 5 7 6 8 8 9 7 10 3 11 1 12 2 13
REMARK SMILES IDX 78 15 79 16 94 17 80 18 93 19 81 20 82 21 83 22 91 23 84 24
REMARK SMILES IDX 85 25 90 26 92 27 86 28 89 29 87 30 88 31 14 32 15 33 16 34
REMARK SMILES IDX 17 35 18 36 19 37 77 38 20 39 76 40 21 41 22 42 23 43 70 44
REMARK SMILES IDX 24 45 75 46 69 47 71 48 25 49 74 50 68 51 67 52 26 54 56 55
REMARK SMILES IDX 37 56 55 57 38 58 41 59 54 60 72 61 39 62 40 63 53 65 73 66
REMARK SMILES IDX 42 67 27 68 28 69 36 70 29 71 35 72 30 73 31 74 32 75 33 76
REMARK SMILES IDX 34 77 57 78 58 79 66 80 59 81 65 82 60 83 61 84 62 85 63 86
REMARK SMILES IDX 64 87 43 88 44 89 52 90 45 91 51 92 46 93 47 94 48 95 49 96
REMARK SMILES IDX 50 97
REMARK H PARENT 3 14 71 53 41 64
REMARK Flexibility Score: inf
ROOT
ATOM      1  C   UNL A   1      37.693  22.218  25.784  1.00  0.00     0.275 C 
ENDROOT
BRANCH   1   2
ATOM      2  O   UNL A   1      36.363  21.782  25.412  1.00  0.00    -0.458 OA
BRANCH   2   3
ATOM      3  C   UNL A   1      35.376  22.680  25.658  1.00  0.00     0.340 C 
ATOM      4  O   UNL A   1      35.221  23.301  26.692  1.00  0.00    -0.246 OA
BRANCH   3   5
ATOM      5  C   UNL A   1      34.444  22.847  24.521  1.00  0.00     0.083 A 
ATOM      6  C   UNL A   1      33.047  22.818  24.636  1.00  0.00     0.056 A 
ATOM      7  C   UNL A   1      32.276  22.921  23.463  1.00  0.00     0.027 A 
ATOM      8  C   UNL A   1      32.867  23.180  22.222  1.00  0.00     0.002 A 
ATOM      9  C   UNL A   1      35.023  23.095  23.262  1.00  0.00     0.018 A 
ATOM     10  C   UNL A   1      34.244  23.286  22.124  1.00  0.00     0.001 A 
BRANCH   6  11
ATOM     11  N   UNL A   1      32.306  22.724  25.832  1.00  0.00    -0.321 N 
ATOM     12  O   UNL A   1      31.337  23.426  27.748  1.00  0.00    -0.269 OA
ATOM     13  C   UNL A   1      31.679  23.687  26.595  1.00  0.00     0.255 C 
ATOM     14  H   UNL A   1      32.222  21.809  26.187  1.00  0.00     0.170 HD
BRANCH  13  15
ATOM     15  C   UNL A   1      31.330  25.014  26.028  1.00  0.00     0.040 A 
ATOM     16  C   UNL A   1      30.027  25.346  25.637  1.00  0.00     0.016 A 
ATOM     17  C   UNL A   1      32.366  25.930  25.837  1.00  0.00     0.016 A 
ATOM     18  C   UNL A   1      29.787  26.544  24.950  1.00  0.00     0.027 A 
ATOM     19  C   UNL A   1      32.136  27.089  25.093  1.00  0.00     0.027 A 
ATOM     20  C   UNL A   1      30.852  27.390  24.619  1.00  0.00     0.052 A 
BRANCH  20  21
ATOM     21  N   UNL A   1      30.660  28.541  23.826  1.00  0.00    -0.250 N 
ATOM     22  C   UNL A   1      30.412  28.507  22.480  1.00  0.00     0.238 C 
ATOM     23  C   UNL A   1      30.644  29.814  24.338  1.00  0.00     0.238 C 
ATOM     24  O   UNL A   1      30.429  27.532  21.738  1.00  0.00    -0.274 OA
ATOM     25  C   UNL A   1      29.967  29.884  22.036  1.00  0.00     0.096 C 
ATOM     26  C   UNL A   1      30.239  30.780  23.252  1.00  0.00     0.096 C 
ATOM     27  O   UNL A   1      30.920  30.173  25.477  1.00  0.00    -0.274 OA
ATOM     28  C   UNL A   1      28.495  29.817  21.601  1.00  0.00     0.041 C 
ATOM     29  C   UNL A   1      29.041  31.586  23.764  1.00  0.00     0.041 C 
ATOM     30  C   UNL A   1      27.539  29.917  22.758  1.00  0.00    -0.030 C 
ATOM     31  C   UNL A   1      27.790  30.757  23.770  1.00  0.00    -0.030 C 
ENDBRANCH  20  21
ENDBRANCH  13  15
ENDBRANCH   6  11
ENDBRANCH   3   5
ENDBRANCH   2   3
ENDBRANCH   1   2
BRANCH   1  32
ATOM     32  C   UNL A   1      38.775  21.154  25.601  1.00  0.00     0.275 C 
BRANCH  32  33
ATOM     33  O   UNL A   1      39.637  21.072  26.750  1.00  0.00    -0.458 OA
BRANCH  33  34
ATOM     34  C   UNL A   1      40.843  20.533  26.484  1.00  0.00     0.338 C 
ATOM     35  O   UNL A   1      41.078  19.394  26.109  1.00  0.00    -0.246 OA
BRANCH  34  36
ATOM     36  C   UNL A   1      41.909  21.529  26.613  1.00  0.00     0.060 A 
ATOM     37  C   UNL A   1      42.420  21.757  27.886  1.00  0.00     0.016 A 
ATOM     38  C   UNL A   1      42.191  22.412  25.578  1.00  0.00     0.016 A 
ATOM     39  C   UNL A   1      43.049  22.946  28.192  1.00  0.00     0.010 A 
ATOM     40  C   UNL A   1      42.952  23.550  25.854  1.00  0.00     0.010 A 
ATOM     41  C   UNL A   1      43.334  23.853  27.175  1.00  0.00    -0.014 A 
BRANCH  41  42
ATOM     42  C   UNL A   1      43.978  25.141  27.518  1.00  0.00     0.031 A 
ATOM     43  C   UNL A   1      43.148  26.241  28.116  1.00  0.00     0.074 A 
ATOM     44  C   UNL A   1      45.301  25.303  27.319  1.00  0.00     0.049 A 
ATOM     45  N   UNL A   1      43.449  27.500  28.283  1.00  0.00    -0.248 NA
ATOM     46  C   UNL A   1      41.791  25.883  28.567  1.00  0.00     0.031 C 
ATOM     47  C   UNL A   1      46.227  24.270  26.836  1.00  0.00     0.029 A 
ATOM     48  N   UNL A   1      46.104  26.399  27.503  1.00  0.00    -0.354 N 
ATOM     49  C   UNL A   1      42.297  28.100  28.781  1.00  0.00     0.074 A 
ATOM     50  C   UNL A   1      41.292  27.066  28.895  1.00  0.00     0.031 C 
ATOM     51  C   UNL A   1      47.469  24.773  26.794  1.00  0.00     0.029 A 
ATOM     52  C   UNL A   1      47.410  26.188  27.129  1.00  0.00     0.049 A 
ATOM     53  H   UNL A   1      45.776  27.254  27.867  1.00  0.00     0.167 HD
ATOM     54  C   UNL A   1      42.103  29.401  29.093  1.00  0.00     0.031 A 
ATOM     55  C   UNL A   1      48.432  27.053  27.004  1.00  0.00     0.031 A 
ATOM     56  C   UNL A   1      43.138  30.397  29.003  1.00  0.00     0.049 A 
ATOM     57  C   UNL A   1      48.172  28.502  27.294  1.00  0.00     0.074 A 
ATOM     58  C   UNL A   1      43.067  31.744  29.311  1.00  0.00     0.029 A 
ATOM     59  N   UNL A   1      44.437  30.149  28.581  1.00  0.00    -0.354 N 
ATOM     60  N   UNL A   1      47.066  29.071  27.712  1.00  0.00    -0.248 NA
ATOM     61  C   UNL A   1      49.291  29.427  27.084  1.00  0.00     0.031 C 
ATOM     62  C   UNL A   1      44.306  32.322  29.015  1.00  0.00     0.029 A 
ATOM     63  C   UNL A   1      45.170  31.323  28.593  1.00  0.00     0.049 A 
ATOM     64  H   UNL A   1      44.786  29.269  28.312  1.00  0.00     0.167 HD
ATOM     65  C   UNL A   1      47.364  30.421  27.841  1.00  0.00     0.074 A 
ATOM     66  C   UNL A   1      48.758  30.577  27.474  1.00  0.00     0.031 C 
ATOM     67  C   UNL A   1      46.559  31.442  28.227  1.00  0.00     0.031 A 
BRANCH  54  68
ATOM     68  C   UNL A   1      40.717  29.835  29.496  1.00  0.00    -0.014 A 
ATOM     69  C   UNL A   1      39.683  29.995  28.557  1.00  0.00     0.010 A 
ATOM     70  C   UNL A   1      40.437  30.047  30.860  1.00  0.00     0.010 A 
ATOM     71  C   UNL A   1      38.406  30.387  28.972  1.00  0.00     0.020 A 
ATOM     72  C   UNL A   1      39.155  30.409  31.282  1.00  0.00     0.020 A 
ATOM     73  C   UNL A   1      38.150  30.590  30.332  1.00  0.00     0.054 A 
BRANCH  73  74
ATOM     74  S   UNL A   1      36.474  31.058  30.844  1.00  0.00     0.124 S 
ATOM     75  O   UNL A   1      36.180  30.058  31.868  1.00  0.00    -0.237 OA
ATOM     76  O   UNL A   1      36.658  32.421  31.332  1.00  0.00    -0.237 OA
ATOM     77  O   UNL A   1      35.689  30.939  29.618  1.00  0.00    -0.744 OA
ENDBRANCH  73  74
ENDBRANCH  54  68
BRANCH  55  78
ATOM     78  C   UNL A   1      49.760  26.578  26.526  1.00  0.00    -0.014 A 
ATOM     79  C   UNL A   1      50.117  26.704  25.173  1.00  0.00     0.010 A 
ATOM     80  C   UNL A   1      50.682  26.010  27.426  1.00  0.00     0.010 A 
ATOM     81  C   UNL A   1      51.363  26.256  24.725  1.00  0.00     0.020 A 
ATOM     82  C   UNL A   1      51.942  25.594  26.990  1.00  0.00     0.020 A 
ATOM     83  C   UNL A   1      52.269  25.706  25.637  1.00  0.00     0.054 A 
BRANCH  83  84
ATOM     84  S   UNL A   1      53.896  25.171  25.041  1.00  0.00     0.124 S 
ATOM     85  O   UNL A   1      53.697  23.736  24.865  1.00  0.00    -0.237 OA
ATOM     86  O   UNL A   1      54.049  25.946  23.812  1.00  0.00    -0.237 OA
ATOM     87  O   UNL A   1      54.798  25.552  26.124  1.00  0.00    -0.744 OA
ENDBRANCH  83  84
ENDBRANCH  55  78
BRANCH  67  88
ATOM     88  C   UNL A   1      47.188  32.805  28.324  1.00  0.00    -0.014 A 
ATOM     89  C   UNL A   1      47.825  33.237  29.499  1.00  0.00     0.010 A 
ATOM     90  C   UNL A   1      47.177  33.645  27.195  1.00  0.00     0.010 A 
ATOM     91  C   UNL A   1      48.411  34.502  29.555  1.00  0.00     0.020 A 
ATOM     92  C   UNL A   1      47.793  34.897  27.236  1.00  0.00     0.020 A 
ATOM     93  C   UNL A   1      48.392  35.323  28.422  1.00  0.00     0.054 A 
BRANCH  93  94
ATOM     94  S   UNL A   1      49.199  36.944  28.509  1.00  0.00     0.124 S 
ATOM     95  O   UNL A   1      48.093  37.850  28.215  1.00  0.00    -0.237 OA
ATOM     96  O   UNL A   1      49.694  36.980  29.883  1.00  0.00    -0.237 OA
ATOM     97  O   UNL A   1      50.234  36.871  27.481  1.00  0.00    -0.744 OA
ENDBRANCH  93  94
ENDBRANCH  67  88
ENDBRANCH  41  42
ENDBRANCH  34  36
ENDBRANCH  33  34
ENDBRANCH  32  33
ENDBRANCH   1  32
TORSDOF 17
ENDMDL
MODEL 3
REMARK VINA RESULT:      -9.7      5.087     12.337
REMARK SMILES O=C(Nc1ccccc1C(=O)OCCOC(=O)c1ccc(-c2c3nc(c(-c4ccc(S(=O)(=O)[O-])cc4)c4ccc([nH]4)c(-c4ccc(S(=O)(=O)[O-])cc4)c4nc(c(-c5ccc(S(=O)(=O)[O-])cc5)c5ccc2[nH]5)C=C4)C=C3)cc1)c1ccc(N2C(=O)[C@H]3CC=CC[C@H]3C2=O)cc1
REMARK SMILES IDX 13 1 12 2 10 3 11 4 9 5 4 6 5 7 6 8 8 9 7 10 3 11 1 12 2 13
REMARK SMILES IDX 78 15 79 16 94 17 80 18 93 19 81 20 82 21 83 22 91 23 84 24
REMARK SMILES IDX 85 25 90 26 92 27 86 28 89 29 87 30 88 31 14 32 15 33 16 34
REMARK SMILES IDX 17 35 18 36 19 37 77 38 20 39 76 40 21 41 22 42 23 43 70 44
REMARK SMILES IDX 24 45 75 46 69 47 71 48 25 49 74 50 68 51 67 52 26 54 56 55
REMARK SMILES IDX 37 56 55 57 38 58 41 59 54 60 72 61 39 62 40 63 53 65 73 66
REMARK SMILES IDX 42 67 27 68 28 69 36 70 29 71 35 72 30 73 31 74 32 75 33 76
REMARK SMILES IDX 34 77 57 78 58 79 66 80 59 81 65 82 60 83 61 84 62 85 63 86
REMARK SMILES IDX 64 87 43 88 44 89 52 90 45 91 51 92 46 93 47 94 48 95 49 96
REMARK SMILES IDX 50 97
REMARK H PARENT 3 14 71 53 41 64
REMARK Flexibility Score: inf
ROOT
ATOM      1  C   UNL A   1      36.265  23.618  25.747  1.00  0.00     0.275 C 
ENDROOT
BRANCH   1   2
ATOM      2  O   UNL A   1      35.568  24.186  24.613  1.00  0.00    -0.458 OA
BRANCH   2   3
ATOM      3  C   UNL A   1      35.502  23.385  23.520  1.00  0.00     0.340 C 
ATOM      4  O   UNL A   1      36.337  23.319  22.637  1.00  0.00    -0.246 OA
BRANCH   3   5
ATOM      5  C   UNL A   1      34.273  22.565  23.469  1.00  0.00     0.083 A 
ATOM      6  C   UNL A   1      33.334  22.612  22.429  1.00  0.00     0.056 A 
ATOM      7  C   UNL A   1      32.171  21.829  22.539  1.00  0.00     0.027 A 
ATOM      8  C   UNL A   1      32.000  20.919  23.588  1.00  0.00     0.002 A 
ATOM      9  C   UNL A   1      34.079  21.654  24.526  1.00  0.00     0.018 A 
ATOM     10  C   UNL A   1      32.967  20.818  24.575  1.00  0.00     0.001 A 
BRANCH   6  11
ATOM     11  N   UNL A   1      33.444  23.357  21.236  1.00  0.00    -0.321 N 
ATOM     12  O   UNL A   1      32.972  24.977  19.736  1.00  0.00    -0.269 OA
ATOM     13  C   UNL A   1      33.031  24.633  20.916  1.00  0.00     0.255 C 
ATOM     14  H   UNL A   1      33.895  22.881  20.501  1.00  0.00     0.170 HD
BRANCH  13  15
ATOM     15  C   UNL A   1      32.734  25.635  21.970  1.00  0.00     0.040 A 
ATOM     16  C   UNL A   1      33.638  26.644  22.325  1.00  0.00     0.016 A 
ATOM     17  C   UNL A   1      31.525  25.514  22.657  1.00  0.00     0.016 A 
ATOM     18  C   UNL A   1      33.380  27.453  23.440  1.00  0.00     0.027 A 
ATOM     19  C   UNL A   1      31.304  26.274  23.807  1.00  0.00     0.027 A 
ATOM     20  C   UNL A   1      32.242  27.227  24.224  1.00  0.00     0.052 A 
BRANCH  20  21
ATOM     21  N   UNL A   1      32.016  27.943  25.419  1.00  0.00    -0.250 N 
ATOM     22  C   UNL A   1      32.316  27.461  26.665  1.00  0.00     0.238 C 
ATOM     23  C   UNL A   1      31.525  29.224  25.448  1.00  0.00     0.238 C 
ATOM     24  O   UNL A   1      32.703  26.337  26.962  1.00  0.00    -0.274 OA
ATOM     25  C   UNL A   1      32.223  28.599  27.658  1.00  0.00     0.096 C 
ATOM     26  C   UNL A   1      31.579  29.743  26.863  1.00  0.00     0.096 C 
ATOM     27  O   UNL A   1      31.085  29.885  24.514  1.00  0.00    -0.274 OA
ATOM     28  C   UNL A   1      33.628  28.903  28.202  1.00  0.00     0.041 C 
ATOM     29  C   UNL A   1      32.358  31.062  26.850  1.00  0.00     0.041 C 
ATOM     30  C   UNL A   1      34.423  29.802  27.297  1.00  0.00    -0.030 C 
ATOM     31  C   UNL A   1      33.829  30.825  26.669  1.00  0.00    -0.030 C 
ENDBRANCH  20  21
ENDBRANCH  13  15
ENDBRANCH   6  11
ENDBRANCH   3   5
ENDBRANCH   2   3
ENDBRANCH   1   2
BRANCH   1  32
ATOM     32  C   UNL A   1      37.784  23.776  25.692  1.00  0.00     0.275 C 
BRANCH  32  33
ATOM     33  O   UNL A   1      38.281  24.517  26.820  1.00  0.00    -0.458 OA
BRANCH  33  34
ATOM     34  C   UNL A   1      39.538  24.975  26.656  1.00  0.00     0.338 C 
ATOM     35  O   UNL A   1      40.242  24.865  25.664  1.00  0.00    -0.246 OA
BRANCH  34  36
ATOM     36  C   UNL A   1      39.979  25.741  27.824  1.00  0.00     0.060 A 
ATOM     37  C   UNL A   1      39.174  25.701  28.956  1.00  0.00     0.016 A 
ATOM     38  C   UNL A   1      40.986  26.692  27.715  1.00  0.00     0.016 A 
ATOM     39  C   UNL A   1      39.228  26.708  29.897  1.00  0.00     0.010 A 
ATOM     40  C   UNL A   1      41.138  27.631  28.738  1.00  0.00     0.010 A 
ATOM     41  C   UNL A   1      40.221  27.681  29.806  1.00  0.00    -0.014 A 
BRANCH  41  42
ATOM     42  C   UNL A   1      40.250  28.776  30.801  1.00  0.00     0.031 A 
ATOM     43  C   UNL A   1      41.255  28.729  31.916  1.00  0.00     0.074 A 
ATOM     44  C   UNL A   1      39.399  29.814  30.680  1.00  0.00     0.049 A 
ATOM     45  N   UNL A   1      41.312  29.451  33.003  1.00  0.00    -0.248 NA
ATOM     46  C   UNL A   1      42.327  27.723  31.806  1.00  0.00     0.031 C 
ATOM     47  C   UNL A   1      38.445  30.015  29.581  1.00  0.00     0.029 A 
ATOM     48  N   UNL A   1      39.198  30.903  31.488  1.00  0.00    -0.354 N 
ATOM     49  C   UNL A   1      42.371  28.936  33.742  1.00  0.00     0.074 A 
ATOM     50  C   UNL A   1      42.935  27.844  32.978  1.00  0.00     0.031 C 
ATOM     51  C   UNL A   1      37.790  31.169  29.769  1.00  0.00     0.029 A 
ATOM     52  C   UNL A   1      38.186  31.726  31.054  1.00  0.00     0.049 A 
ATOM     53  H   UNL A   1      39.727  31.078  32.300  1.00  0.00     0.167 HD
ATOM     54  C   UNL A   1      42.813  29.335  34.956  1.00  0.00     0.031 A 
ATOM     55  C   UNL A   1      37.595  32.773  31.656  1.00  0.00     0.031 A 
ATOM     56  C   UNL A   1      42.252  30.451  35.672  1.00  0.00     0.049 A 
ATOM     57  C   UNL A   1      38.060  33.154  33.031  1.00  0.00     0.074 A 
ATOM     58  C   UNL A   1      42.628  30.963  36.901  1.00  0.00     0.029 A 
ATOM     59  N   UNL A   1      41.200  31.233  35.215  1.00  0.00    -0.354 N 
ATOM     60  N   UNL A   1      39.026  32.628  33.747  1.00  0.00    -0.248 NA
ATOM     61  C   UNL A   1      37.349  34.258  33.684  1.00  0.00     0.031 C 
ATOM     62  C   UNL A   1      41.761  32.015  37.214  1.00  0.00     0.029 A 
ATOM     63  C   UNL A   1      40.894  32.207  36.149  1.00  0.00     0.049 A 
ATOM     64  H   UNL A   1      40.739  31.113  34.353  1.00  0.00     0.167 HD
ATOM     65  C   UNL A   1      39.057  33.357  34.928  1.00  0.00     0.074 A 
ATOM     66  C   UNL A   1      38.025  34.370  34.820  1.00  0.00     0.031 C 
ATOM     67  C   UNL A   1      39.864  33.204  36.008  1.00  0.00     0.031 A 
BRANCH  54  68
ATOM     68  C   UNL A   1      43.904  28.530  35.614  1.00  0.00    -0.014 A 
ATOM     69  C   UNL A   1      45.265  28.839  35.445  1.00  0.00     0.010 A 
ATOM     70  C   UNL A   1      43.548  27.460  36.458  1.00  0.00     0.010 A 
ATOM     71  C   UNL A   1      46.248  28.075  36.083  1.00  0.00     0.020 A 
ATOM     72  C   UNL A   1      44.526  26.714  37.121  1.00  0.00     0.020 A 
ATOM     73  C   UNL A   1      45.872  27.018  36.918  1.00  0.00     0.054 A 
BRANCH  73  74
ATOM     74  S   UNL A   1      47.167  26.071  37.764  1.00  0.00     0.124 S 
ATOM     75  O   UNL A   1      46.428  24.902  38.236  1.00  0.00    -0.237 OA
ATOM     76  O   UNL A   1      48.127  25.818  36.694  1.00  0.00    -0.237 OA
ATOM     77  O   UNL A   1      47.632  26.976  38.813  1.00  0.00    -0.744 OA
ENDBRANCH  73  74
ENDBRANCH  54  68
BRANCH  55  78
ATOM     78  C   UNL A   1      36.467  33.481  30.989  1.00  0.00    -0.014 A 
ATOM     79  C   UNL A   1      35.216  33.581  31.620  1.00  0.00     0.010 A 
ATOM     80  C   UNL A   1      36.643  34.073  29.724  1.00  0.00     0.010 A 
ATOM     81  C   UNL A   1      34.157  34.243  30.992  1.00  0.00     0.020 A 
ATOM     82  C   UNL A   1      35.599  34.767  29.108  1.00  0.00     0.020 A 
ATOM     83  C   UNL A   1      34.357  34.835  29.741  1.00  0.00     0.054 A 
BRANCH  83  84
ATOM     84  S   UNL A   1      32.981  35.726  28.964  1.00  0.00     0.124 S 
ATOM     85  O   UNL A   1      32.202  36.150  30.123  1.00  0.00    -0.237 OA
ATOM     86  O   UNL A   1      33.669  36.790  28.237  1.00  0.00    -0.237 OA
ATOM     87  O   UNL A   1      32.352  34.712  28.121  1.00  0.00    -0.744 OA
ENDBRANCH  83  84
ENDBRANCH  55  78
BRANCH  67  88
ATOM     88  C   UNL A   1      39.695  34.193  37.128  1.00  0.00    -0.014 A 
ATOM     89  C   UNL A   1      38.950  33.879  38.277  1.00  0.00     0.010 A 
ATOM     90  C   UNL A   1      40.337  35.442  37.042  1.00  0.00     0.010 A 
ATOM     91  C   UNL A   1      38.819  34.812  39.306  1.00  0.00     0.020 A 
ATOM     92  C   UNL A   1      40.238  36.364  38.084  1.00  0.00     0.020 A 
ATOM     93  C   UNL A   1      39.467  36.047  39.204  1.00  0.00     0.054 A 
BRANCH  93  94
ATOM     94  S   UNL A   1      39.318  37.224  40.575  1.00  0.00     0.124 S 
ATOM     95  O   UNL A   1      38.847  36.369  41.660  1.00  0.00    -0.237 OA
ATOM     96  O   UNL A   1      40.684  37.724  40.715  1.00  0.00    -0.237 OA
ATOM     97  O   UNL A   1      38.349  38.203  40.087  1.00  0.00    -0.744 OA
ENDBRANCH  93  94
ENDBRANCH  67  88
ENDBRANCH  41  42
ENDBRANCH  34  36
ENDBRANCH  33  34
ENDBRANCH  32  33
ENDBRANCH   1  32
TORSDOF 17
ENDMDL
