MODEL 1
REMARK VINA RESULT:      -9.8      0.000      0.000
REMARK SMILES CC(C)(C)N(CC(=O)OCCOC(=O)c1ccc(-c2c3nc(c(-c4ccc(S(=O)(=O)[O-])cc4)c4ccc([nH]4)c(-c4ccc(S(=O)(=O)[O-])cc4)c4nc(c(-c5ccc(S(=O)(=O)[O-])cc5)c5ccc2[nH]5)C=C4)C=C3)cc1)C(=O)C1C[NH2+]C1
REMARK SMILES IDX 10 1 9 2 7 3 8 4 6 5 5 6 2 7 1 8 3 9 4 10 75 11 76 12 77 13
REMARK SMILES IDX 78 14 80 15 79 16 11 19 12 20 13 21 14 22 15 23 16 24 74 25
REMARK SMILES IDX 17 26 73 27 18 28 19 29 20 30 67 31 21 32 72 33 66 34 68 35
REMARK SMILES IDX 22 36 71 37 65 38 64 39 23 41 53 42 34 43 52 44 35 45 38 46
REMARK SMILES IDX 51 47 69 48 36 49 37 50 50 52 70 53 39 54 24 55 25 56 33 57
REMARK SMILES IDX 26 58 32 59 27 60 28 61 29 62 30 63 31 64 54 65 55 66 63 67
REMARK SMILES IDX 56 68 62 69 57 70 58 71 59 72 60 73 61 74 40 75 41 76 49 77
REMARK SMILES IDX 42 78 48 79 43 80 44 81 45 82 46 83 47 84
REMARK H PARENT 79 17 79 18 68 40 38 51
REMARK Flexibility Score: inf
ROOT
ATOM      1  C   UNL A   1      33.975  28.993  27.387  1.00  0.00     0.274 C 
ENDROOT
BRANCH   1   2
ATOM      2  O   UNL A   1      32.905  28.756  26.450  1.00  0.00    -0.461 OA
BRANCH   2   3
ATOM      3  C   UNL A   1      31.905  27.959  26.917  1.00  0.00     0.325 C 
ATOM      4  O   UNL A   1      31.513  27.944  28.081  1.00  0.00    -0.250 OA
BRANCH   3   5
ATOM      5  C   UNL A   1      31.171  27.204  25.814  1.00  0.00     0.242 C 
BRANCH   5   6
ATOM      6  N   UNL A   1      31.289  27.690  24.431  1.00  0.00    -0.326 N 
BRANCH   6   7
ATOM      7  C   UNL A   1      32.202  26.957  23.483  1.00  0.00     0.035 C 
ATOM      8  C   UNL A   1      33.387  26.243  24.187  1.00  0.00     0.034 C 
ATOM      9  C   UNL A   1      32.844  27.916  22.458  1.00  0.00     0.034 C 
ATOM     10  C   UNL A   1      31.404  25.853  22.755  1.00  0.00     0.034 C 
ENDBRANCH   6   7
BRANCH   6  11
ATOM     11  C   UNL A   1      30.493  28.760  23.953  1.00  0.00     0.238 C 
ATOM     12  O   UNL A   1      30.751  29.930  24.266  1.00  0.00    -0.274 OA
BRANCH  11  13
ATOM     13  C   UNL A   1      29.298  28.452  23.028  1.00  0.00     0.188 C 
ATOM     14  C   UNL A   1      28.147  27.593  23.623  1.00  0.00     0.280 C 
ATOM     15  C   UNL A   1      28.172  29.507  22.879  1.00  0.00     0.280 C 
ATOM     16  N   UNL A   1      27.193  28.398  22.821  1.00  0.00    -0.345 N 
ATOM     17  H   UNL A   1      26.305  28.591  23.285  1.00  0.00     0.346 HD
ATOM     18  H   UNL A   1      26.820  28.060  21.935  1.00  0.00     0.346 HD
ENDBRANCH  11  13
ENDBRANCH   6  11
ENDBRANCH   5   6
ENDBRANCH   3   5
ENDBRANCH   2   3
ENDBRANCH   1   2
BRANCH   1  19
ATOM     19  C   UNL A   1      34.114  30.486  27.692  1.00  0.00     0.275 C 
BRANCH  19  20
ATOM     20  O   UNL A   1      35.502  30.869  27.712  1.00  0.00    -0.458 OA
BRANCH  20  21
ATOM     21  C   UNL A   1      36.113  30.777  28.915  1.00  0.00     0.338 C 
ATOM     22  O   UNL A   1      35.668  31.165  29.986  1.00  0.00    -0.246 OA
BRANCH  21  23
ATOM     23  C   UNL A   1      37.423  30.100  28.811  1.00  0.00     0.060 A 
ATOM     24  C   UNL A   1      38.205  29.823  29.936  1.00  0.00     0.016 A 
ATOM     25  C   UNL A   1      37.937  29.853  27.534  1.00  0.00     0.016 A 
ATOM     26  C   UNL A   1      39.530  29.402  29.777  1.00  0.00     0.010 A 
ATOM     27  C   UNL A   1      39.232  29.352  27.383  1.00  0.00     0.010 A 
ATOM     28  C   UNL A   1      40.062  29.164  28.498  1.00  0.00    -0.014 A 
BRANCH  28  29
ATOM     29  C   UNL A   1      41.475  28.732  28.313  1.00  0.00     0.031 A 
ATOM     30  C   UNL A   1      42.607  29.729  28.403  1.00  0.00     0.074 A 
ATOM     31  C   UNL A   1      41.757  27.443  28.034  1.00  0.00     0.049 A 
ATOM     32  N   UNL A   1      43.876  29.569  28.125  1.00  0.00    -0.248 NA
ATOM     33  C   UNL A   1      42.262  31.087  28.855  1.00  0.00     0.031 C 
ATOM     34  C   UNL A   1      40.775  26.363  27.926  1.00  0.00     0.029 A 
ATOM     35  N   UNL A   1      42.959  26.826  27.784  1.00  0.00    -0.354 N 
ATOM     36  C   UNL A   1      44.472  30.811  28.326  1.00  0.00     0.074 A 
ATOM     37  C   UNL A   1      43.425  31.716  28.746  1.00  0.00     0.031 C 
ATOM     38  C   UNL A   1      41.415  25.213  27.662  1.00  0.00     0.029 A 
ATOM     39  C   UNL A   1      42.841  25.484  27.513  1.00  0.00     0.049 A 
ATOM     40  H   UNL A   1      43.821  27.301  27.799  1.00  0.00     0.167 HD
ATOM     41  C   UNL A   1      45.770  31.168  28.172  1.00  0.00     0.031 A 
ATOM     42  C   UNL A   1      43.764  24.574  27.150  1.00  0.00     0.031 A 
ATOM     43  C   UNL A   1      46.824  30.267  27.785  1.00  0.00     0.049 A 
ATOM     44  C   UNL A   1      45.194  24.992  26.977  1.00  0.00     0.074 A 
ATOM     45  C   UNL A   1      48.172  30.538  27.622  1.00  0.00     0.029 A 
ATOM     46  N   UNL A   1      46.653  28.920  27.510  1.00  0.00    -0.354 N 
ATOM     47  N   UNL A   1      45.726  26.179  27.132  1.00  0.00    -0.248 NA
ATOM     48  C   UNL A   1      46.143  23.948  26.567  1.00  0.00     0.031 C 
ATOM     49  C   UNL A   1      48.813  29.360  27.219  1.00  0.00     0.029 A 
ATOM     50  C   UNL A   1      47.868  28.348  27.168  1.00  0.00     0.049 A 
ATOM     51  H   UNL A   1      45.795  28.440  27.552  1.00  0.00     0.167 HD
ATOM     52  C   UNL A   1      47.076  26.026  26.840  1.00  0.00     0.074 A 
ATOM     53  C   UNL A   1      47.281  24.627  26.519  1.00  0.00     0.031 C 
ATOM     54  C   UNL A   1      48.056  26.961  26.834  1.00  0.00     0.031 A 
BRANCH  41  55
ATOM     55  C   UNL A   1      46.127  32.614  28.394  1.00  0.00    -0.014 A 
ATOM     56  C   UNL A   1      46.462  33.097  29.671  1.00  0.00     0.010 A 
ATOM     57  C   UNL A   1      46.185  33.489  27.294  1.00  0.00     0.010 A 
ATOM     58  C   UNL A   1      46.825  34.435  29.848  1.00  0.00     0.020 A 
ATOM     59  C   UNL A   1      46.565  34.823  27.463  1.00  0.00     0.020 A 
ATOM     60  C   UNL A   1      46.871  35.292  28.742  1.00  0.00     0.054 A 
BRANCH  60  61
ATOM     61  S   UNL A   1      47.384  37.016  28.985  1.00  0.00     0.124 S 
ATOM     62  O   UNL A   1      47.868  36.995  30.363  1.00  0.00    -0.237 OA
ATOM     63  O   UNL A   1      48.410  37.197  27.961  1.00  0.00    -0.237 OA
ATOM     64  O   UNL A   1      46.154  37.775  28.768  1.00  0.00    -0.744 OA
ENDBRANCH  60  61
ENDBRANCH  41  55
BRANCH  42  65
ATOM     65  C   UNL A   1      43.339  23.173  26.900  1.00  0.00    -0.014 A 
ATOM     66  C   UNL A   1      43.328  22.657  25.594  1.00  0.00     0.010 A 
ATOM     67  C   UNL A   1      43.009  22.331  27.977  1.00  0.00     0.010 A 
ATOM     68  C   UNL A   1      43.005  21.316  25.368  1.00  0.00     0.020 A 
ATOM     69  C   UNL A   1      42.709  20.985  27.758  1.00  0.00     0.020 A 
ATOM     70  C   UNL A   1      42.706  20.487  26.453  1.00  0.00     0.054 A 
BRANCH  70  71
ATOM     71  S   UNL A   1      42.400  18.721  26.162  1.00  0.00     0.124 S 
ATOM     72  O   UNL A   1      41.016  18.725  25.702  1.00  0.00    -0.237 OA
ATOM     73  O   UNL A   1      43.402  18.382  25.154  1.00  0.00    -0.237 OA
ATOM     74  O   UNL A   1      42.625  18.121  27.475  1.00  0.00    -0.744 OA
ENDBRANCH  70  71
ENDBRANCH  42  65
BRANCH  54  75
ATOM     75  C   UNL A   1      49.440  26.496  26.478  1.00  0.00    -0.014 A 
ATOM     76  C   UNL A   1      50.265  25.888  27.440  1.00  0.00     0.010 A 
ATOM     77  C   UNL A   1      49.916  26.661  25.166  1.00  0.00     0.010 A 
ATOM     78  C   UNL A   1      51.561  25.489  27.105  1.00  0.00     0.020 A 
ATOM     79  C   UNL A   1      51.205  26.248  24.823  1.00  0.00     0.020 A 
ATOM     80  C   UNL A   1      52.027  25.682  25.801  1.00  0.00     0.054 A 
BRANCH  80  81
ATOM     81  S   UNL A   1      53.711  25.153  25.380  1.00  0.00     0.124 S 
ATOM     82  O   UNL A   1      54.501  25.811  26.416  1.00  0.00    -0.237 OA
ATOM     83  O   UNL A   1      53.631  23.697  25.481  1.00  0.00    -0.237 OA
ATOM     84  O   UNL A   1      53.903  25.668  24.025  1.00  0.00    -0.744 OA
ENDBRANCH  80  81
ENDBRANCH  54  75
ENDBRANCH  28  29
ENDBRANCH  21  23
ENDBRANCH  20  21
ENDBRANCH  19  20
ENDBRANCH   1  19
TORSDOF 18
ENDMDL
MODEL 2
REMARK VINA RESULT:      -9.4      6.916     12.308
REMARK SMILES CC(C)(C)N(CC(=O)OCCOC(=O)c1ccc(-c2c3nc(c(-c4ccc(S(=O)(=O)[O-])cc4)c4ccc([nH]4)c(-c4ccc(S(=O)(=O)[O-])cc4)c4nc(c(-c5ccc(S(=O)(=O)[O-])cc5)c5ccc2[nH]5)C=C4)C=C3)cc1)C(=O)C1C[NH2+]C1
REMARK SMILES IDX 10 1 9 2 7 3 8 4 6 5 5 6 2 7 1 8 3 9 4 10 75 11 76 12 77 13
REMARK SMILES IDX 78 14 80 15 79 16 11 19 12 20 13 21 14 22 15 23 16 24 74 25
REMARK SMILES IDX 17 26 73 27 18 28 19 29 20 30 67 31 21 32 72 33 66 34 68 35
REMARK SMILES IDX 22 36 71 37 65 38 64 39 23 41 53 42 34 43 52 44 35 45 38 46
REMARK SMILES IDX 51 47 69 48 36 49 37 50 50 52 70 53 39 54 24 55 25 56 33 57
REMARK SMILES IDX 26 58 32 59 27 60 28 61 29 62 30 63 31 64 54 65 55 66 63 67
REMARK SMILES IDX 56 68 62 69 57 70 58 71 59 72 60 73 61 74 40 75 41 76 49 77
REMARK SMILES IDX 42 78 48 79 43 80 44 81 45 82 46 83 47 84
REMARK H PARENT 79 17 79 18 68 40 38 51
REMARK Flexibility Score: inf
ROOT
ATOM      1  C   UNL A   1      37.003  23.436  25.964  1.00  0.00     0.274 C 
ENDROOT
BRANCH   1   2
ATOM      2  O   UNL A   1      36.523  22.492  24.985  1.00  0.00    -0.461 OA
BRANCH   2   3
ATOM      3  C   UNL A   1      36.099  23.049  23.818  1.00  0.00     0.325 C 
ATOM      4  O   UNL A   1      36.583  22.811  22.716  1.00  0.00    -0.250 OA
BRANCH   3   5
ATOM      5  C   UNL A   1      34.824  23.873  23.973  1.00  0.00     0.242 C 
BRANCH   5   6
ATOM      6  N   UNL A   1      33.557  23.168  24.220  1.00  0.00    -0.326 N 
BRANCH   6   7
ATOM      7  C   UNL A   1      32.678  22.830  23.044  1.00  0.00     0.035 C 
ATOM      8  C   UNL A   1      32.532  21.306  22.794  1.00  0.00     0.034 C 
ATOM      9  C   UNL A   1      33.239  23.416  21.731  1.00  0.00     0.034 C 
ATOM     10  C   UNL A   1      31.252  23.365  23.302  1.00  0.00     0.034 C 
ENDBRANCH   6   7
BRANCH   6  11
ATOM     11  C   UNL A   1      33.202  22.717  25.515  1.00  0.00     0.238 C 
ATOM     12  O   UNL A   1      33.355  21.530  25.836  1.00  0.00    -0.274 OA
BRANCH  11  13
ATOM     13  C   UNL A   1      32.626  23.724  26.531  1.00  0.00     0.188 C 
ATOM     14  C   UNL A   1      32.349  25.165  26.017  1.00  0.00     0.280 C 
ATOM     15  C   UNL A   1      31.099  23.734  26.794  1.00  0.00     0.280 C 
ATOM     16  N   UNL A   1      31.167  25.208  26.912  1.00  0.00    -0.345 N 
ATOM     17  H   UNL A   1      30.361  25.702  26.528  1.00  0.00     0.346 HD
ATOM     18  H   UNL A   1      31.198  25.671  27.820  1.00  0.00     0.346 HD
ENDBRANCH  11  13
ENDBRANCH   6  11
ENDBRANCH   5   6
ENDBRANCH   3   5
ENDBRANCH   2   3
ENDBRANCH   1   2
BRANCH   1  19
ATOM     19  C   UNL A   1      38.472  23.785  25.714  1.00  0.00     0.275 C 
BRANCH  19  20
ATOM     20  O   UNL A   1      39.274  23.441  26.859  1.00  0.00    -0.458 OA
BRANCH  20  21
ATOM     21  C   UNL A   1      40.465  24.075  26.946  1.00  0.00     0.338 C 
ATOM     22  O   UNL A   1      41.513  23.726  26.421  1.00  0.00    -0.246 OA
BRANCH  21  23
ATOM     23  C   UNL A   1      40.367  25.312  27.752  1.00  0.00     0.060 A 
ATOM     24  C   UNL A   1      41.332  26.320  27.680  1.00  0.00     0.016 A 
ATOM     25  C   UNL A   1      39.344  25.399  28.700  1.00  0.00     0.016 A 
ATOM     26  C   UNL A   1      41.330  27.354  28.623  1.00  0.00     0.010 A 
ATOM     27  C   UNL A   1      39.298  26.479  29.586  1.00  0.00     0.010 A 
ATOM     28  C   UNL A   1      40.315  27.445  29.590  1.00  0.00    -0.014 A 
BRANCH  28  29
ATOM     29  C   UNL A   1      40.309  28.531  30.610  1.00  0.00     0.031 A 
ATOM     30  C   UNL A   1      41.276  28.505  31.771  1.00  0.00     0.074 A 
ATOM     31  C   UNL A   1      39.417  29.538  30.521  1.00  0.00     0.049 A 
ATOM     32  N   UNL A   1      41.320  29.276  32.829  1.00  0.00    -0.248 NA
ATOM     33  C   UNL A   1      42.323  27.471  31.743  1.00  0.00     0.031 C 
ATOM     34  C   UNL A   1      38.430  29.706  29.453  1.00  0.00     0.029 A 
ATOM     35  N   UNL A   1      39.196  30.610  31.350  1.00  0.00    -0.354 N 
ATOM     36  C   UNL A   1      42.367  28.795  33.610  1.00  0.00     0.074 A 
ATOM     37  C   UNL A   1      42.930  27.663  32.906  1.00  0.00     0.031 C 
ATOM     38  C   UNL A   1      37.730  30.829  29.676  1.00  0.00     0.029 A 
ATOM     39  C   UNL A   1      38.168  31.422  30.934  1.00  0.00     0.049 A 
ATOM     40  H   UNL A   1      39.723  30.780  32.164  1.00  0.00     0.167 HD
ATOM     41  C   UNL A   1      42.817  29.248  34.804  1.00  0.00     0.031 A 
ATOM     42  C   UNL A   1      37.611  32.504  31.511  1.00  0.00     0.031 A 
ATOM     43  C   UNL A   1      42.284  30.392  35.497  1.00  0.00     0.049 A 
ATOM     44  C   UNL A   1      38.119  32.984  32.838  1.00  0.00     0.074 A 
ATOM     45  C   UNL A   1      42.690  30.935  36.705  1.00  0.00     0.029 A 
ATOM     46  N   UNL A   1      41.235  31.176  35.042  1.00  0.00    -0.354 N 
ATOM     47  N   UNL A   1      39.082  32.490  33.576  1.00  0.00    -0.248 NA
ATOM     48  C   UNL A   1      37.455  34.163  33.413  1.00  0.00     0.031 C 
ATOM     49  C   UNL A   1      41.867  32.030  36.994  1.00  0.00     0.029 A 
ATOM     50  C   UNL A   1      40.974  32.190  35.948  1.00  0.00     0.049 A 
ATOM     51  H   UNL A   1      40.749  31.032  34.198  1.00  0.00     0.167 HD
ATOM     52  C   UNL A   1      39.142  33.298  34.706  1.00  0.00     0.074 A 
ATOM     53  C   UNL A   1      38.131  34.325  34.542  1.00  0.00     0.031 C 
ATOM     54  C   UNL A   1      39.956  33.194  35.783  1.00  0.00     0.031 A 
BRANCH  41  55
ATOM     55  C   UNL A   1      43.934  28.485  35.465  1.00  0.00    -0.014 A 
ATOM     56  C   UNL A   1      45.281  28.823  35.246  1.00  0.00     0.010 A 
ATOM     57  C   UNL A   1      43.626  27.449  36.367  1.00  0.00     0.010 A 
ATOM     58  C   UNL A   1      46.301  28.123  35.897  1.00  0.00     0.020 A 
ATOM     59  C   UNL A   1      44.642  26.759  37.034  1.00  0.00     0.020 A 
ATOM     60  C   UNL A   1      45.975  27.092  36.786  1.00  0.00     0.054 A 
BRANCH  60  61
ATOM     61  S   UNL A   1      47.310  26.222  37.653  1.00  0.00     0.124 S 
ATOM     62  O   UNL A   1      48.163  25.796  36.546  1.00  0.00    -0.237 OA
ATOM     63  O   UNL A   1      47.871  27.262  38.513  1.00  0.00    -0.237 OA
ATOM     64  O   UNL A   1      46.619  25.145  38.358  1.00  0.00    -0.744 OA
ENDBRANCH  60  61
ENDBRANCH  41  55
BRANCH  42  65
ATOM     65  C   UNL A   1      36.480  33.185  30.831  1.00  0.00    -0.014 A 
ATOM     66  C   UNL A   1      35.194  33.163  31.395  1.00  0.00     0.010 A 
ATOM     67  C   UNL A   1      36.702  33.916  29.649  1.00  0.00     0.010 A 
ATOM     68  C   UNL A   1      34.149  33.871  30.796  1.00  0.00     0.020 A 
ATOM     69  C   UNL A   1      35.665  34.643  29.060  1.00  0.00     0.020 A 
ATOM     70  C   UNL A   1      34.394  34.613  29.637  1.00  0.00     0.054 A 
BRANCH  70  71
ATOM     71  S   UNL A   1      33.059  35.620  28.931  1.00  0.00     0.124 S 
ATOM     72  O   UNL A   1      33.802  36.689  28.271  1.00  0.00    -0.237 OA
ATOM     73  O   UNL A   1      32.379  34.680  28.044  1.00  0.00    -0.237 OA
ATOM     74  O   UNL A   1      32.287  36.023  30.105  1.00  0.00    -0.744 OA
ENDBRANCH  70  71
ENDBRANCH  42  65
BRANCH  54  75
ATOM     75  C   UNL A   1      39.793  34.227  36.862  1.00  0.00    -0.014 A 
ATOM     76  C   UNL A   1      40.311  35.523  36.703  1.00  0.00     0.010 A 
ATOM     77  C   UNL A   1      39.107  33.899  38.044  1.00  0.00     0.010 A 
ATOM     78  C   UNL A   1      40.181  36.465  37.726  1.00  0.00     0.020 A 
ATOM     79  C   UNL A   1      38.960  34.843  39.063  1.00  0.00     0.020 A 
ATOM     80  C   UNL A   1      39.516  36.115  38.905  1.00  0.00     0.054 A 
BRANCH  80  81
ATOM     81  S   UNL A   1      39.351  37.350  40.224  1.00  0.00     0.124 S 
ATOM     82  O   UNL A   1      40.745  37.675  40.509  1.00  0.00    -0.237 OA
ATOM     83  O   UNL A   1      38.577  38.411  39.582  1.00  0.00    -0.237 OA
ATOM     84  O   UNL A   1      38.648  36.629  41.283  1.00  0.00    -0.744 OA
ENDBRANCH  80  81
ENDBRANCH  54  75
ENDBRANCH  28  29
ENDBRANCH  21  23
ENDBRANCH  20  21
ENDBRANCH  19  20
ENDBRANCH   1  19
TORSDOF 18
ENDMDL
MODEL 3
REMARK VINA RESULT:      -9.3      4.258     10.251
REMARK SMILES CC(C)(C)N(CC(=O)OCCOC(=O)c1ccc(-c2c3nc(c(-c4ccc(S(=O)(=O)[O-])cc4)c4ccc([nH]4)c(-c4ccc(S(=O)(=O)[O-])cc4)c4nc(c(-c5ccc(S(=O)(=O)[O-])cc5)c5ccc2[nH]5)C=C4)C=C3)cc1)C(=O)C1C[NH2+]C1
REMARK SMILES IDX 10 1 9 2 7 3 8 4 6 5 5 6 2 7 1 8 3 9 4 10 75 11 76 12 77 13
REMARK SMILES IDX 78 14 80 15 79 16 11 19 12 20 13 21 14 22 15 23 16 24 74 25
REMARK SMILES IDX 17 26 73 27 18 28 19 29 20 30 67 31 21 32 72 33 66 34 68 35
REMARK SMILES IDX 22 36 71 37 65 38 64 39 23 41 53 42 34 43 52 44 35 45 38 46
REMARK SMILES IDX 51 47 69 48 36 49 37 50 50 52 70 53 39 54 24 55 25 56 33 57
REMARK SMILES IDX 26 58 32 59 27 60 28 61 29 62 30 63 31 64 54 65 55 66 63 67
REMARK SMILES IDX 56 68 62 69 57 70 58 71 59 72 60 73 61 74 40 75 41 76 49 77
REMARK SMILES IDX 42 78 48 79 43 80 44 81 45 82 46 83 47 84
REMARK H PARENT 79 17 79 18 68 40 38 51
REMARK Flexibility Score: inf
ROOT
ATOM      1  C   UNL A   1      36.352  23.596  24.443  1.00  0.00     0.274 C 
ENDROOT
BRANCH   1   2
ATOM      2  O   UNL A   1      35.833  24.234  25.627  1.00  0.00    -0.461 OA
BRANCH   2   3
ATOM      3  C   UNL A   1      34.484  24.421  25.629  1.00  0.00     0.325 C 
ATOM      4  O   UNL A   1      33.657  23.519  25.724  1.00  0.00    -0.250 OA
BRANCH   3   5
ATOM      5  C   UNL A   1      34.080  25.890  25.690  1.00  0.00     0.242 C 
BRANCH   5   6
ATOM      6  N   UNL A   1      32.967  26.349  24.845  1.00  0.00    -0.326 N 
BRANCH   6   7
ATOM      7  C   UNL A   1      31.677  26.755  25.509  1.00  0.00     0.035 C 
ATOM      8  C   UNL A   1      30.696  25.574  25.738  1.00  0.00     0.034 C 
ATOM      9  C   UNL A   1      30.901  27.782  24.657  1.00  0.00     0.034 C 
ATOM     10  C   UNL A   1      31.983  27.340  26.905  1.00  0.00     0.034 C 
ENDBRANCH   6   7
BRANCH   6  11
ATOM     11  C   UNL A   1      33.119  26.510  23.446  1.00  0.00     0.238 C 
ATOM     12  O   UNL A   1      33.738  27.478  22.984  1.00  0.00    -0.274 OA
BRANCH  11  13
ATOM     13  C   UNL A   1      32.505  25.461  22.497  1.00  0.00     0.188 C 
ATOM     14  C   UNL A   1      32.737  25.663  20.974  1.00  0.00     0.280 C 
ATOM     15  C   UNL A   1      33.274  24.139  22.242  1.00  0.00     0.280 C 
ATOM     16  N   UNL A   1      32.813  24.188  20.836  1.00  0.00    -0.345 N 
ATOM     17  H   UNL A   1      33.497  23.859  20.154  1.00  0.00     0.346 HD
ATOM     18  H   UNL A   1      32.016  23.639  20.515  1.00  0.00     0.346 HD
ENDBRANCH  11  13
ENDBRANCH   6  11
ENDBRANCH   5   6
ENDBRANCH   3   5
ENDBRANCH   2   3
ENDBRANCH   1   2
BRANCH   1  19
ATOM     19  C   UNL A   1      37.254  22.415  24.808  1.00  0.00     0.275 C 
BRANCH  19  20
ATOM     20  O   UNL A   1      37.726  22.543  26.163  1.00  0.00    -0.458 OA
BRANCH  20  21
ATOM     21  C   UNL A   1      39.052  22.771  26.296  1.00  0.00     0.338 C 
ATOM     22  O   UNL A   1      39.954  21.989  26.030  1.00  0.00    -0.246 OA
BRANCH  21  23
ATOM     23  C   UNL A   1      39.323  24.138  26.792  1.00  0.00     0.060 A 
ATOM     24  C   UNL A   1      40.005  25.083  26.021  1.00  0.00     0.016 A 
ATOM     25  C   UNL A   1      38.993  24.434  28.118  1.00  0.00     0.016 A 
ATOM     26  C   UNL A   1      40.447  26.273  26.610  1.00  0.00     0.010 A 
ATOM     27  C   UNL A   1      39.362  25.661  28.676  1.00  0.00     0.010 A 
ATOM     28  C   UNL A   1      40.134  26.576  27.945  1.00  0.00    -0.014 A 
BRANCH  28  29
ATOM     29  C   UNL A   1      40.611  27.832  28.590  1.00  0.00     0.031 A 
ATOM     30  C   UNL A   1      42.034  27.954  29.085  1.00  0.00     0.074 A 
ATOM     31  C   UNL A   1      39.765  28.867  28.762  1.00  0.00     0.049 A 
ATOM     32  N   UNL A   1      42.583  28.904  29.798  1.00  0.00    -0.248 NA
ATOM     33  C   UNL A   1      42.954  26.859  28.741  1.00  0.00     0.031 C 
ATOM     34  C   UNL A   1      38.368  28.904  28.327  1.00  0.00     0.029 A 
ATOM     35  N   UNL A   1      39.960  30.090  29.357  1.00  0.00    -0.354 N 
ATOM     36  C   UNL A   1      43.896  28.503  30.025  1.00  0.00     0.074 A 
ATOM     37  C   UNL A   1      44.061  27.221  29.376  1.00  0.00     0.031 C 
ATOM     38  C   UNL A   1      37.842  30.098  28.643  1.00  0.00     0.029 A 
ATOM     39  C   UNL A   1      38.838  30.883  29.362  1.00  0.00     0.049 A 
ATOM     40  H   UNL A   1      40.822  30.371  29.742  1.00  0.00     0.167 HD
ATOM     41  C   UNL A   1      44.876  29.138  30.712  1.00  0.00     0.031 A 
ATOM     42  C   UNL A   1      38.616  32.092  29.911  1.00  0.00     0.031 A 
ATOM     43  C   UNL A   1      44.730  30.429  31.335  1.00  0.00     0.049 A 
ATOM     44  C   UNL A   1      39.711  32.775  30.676  1.00  0.00     0.074 A 
ATOM     45  C   UNL A   1      45.675  31.158  32.038  1.00  0.00     0.029 A 
ATOM     46  N   UNL A   1      43.571  31.188  31.323  1.00  0.00    -0.354 N 
ATOM     47  N   UNL A   1      40.930  32.359  30.911  1.00  0.00    -0.248 NA
ATOM     48  C   UNL A   1      39.392  34.086  31.257  1.00  0.00     0.031 C 
ATOM     49  C   UNL A   1      45.078  32.346  32.476  1.00  0.00     0.029 A 
ATOM     50  C   UNL A   1      43.773  32.372  32.014  1.00  0.00     0.049 A 
ATOM     51  H   UNL A   1      42.729  30.925  30.886  1.00  0.00     0.167 HD
ATOM     52  C   UNL A   1      41.528  33.358  31.669  1.00  0.00     0.074 A 
ATOM     53  C   UNL A   1      40.542  34.407  31.835  1.00  0.00     0.031 C 
ATOM     54  C   UNL A   1      42.780  33.399  32.186  1.00  0.00     0.031 A 
BRANCH  41  55
ATOM     55  C   UNL A   1      46.197  28.433  30.859  1.00  0.00    -0.014 A 
ATOM     56  C   UNL A   1      47.249  28.655  29.953  1.00  0.00     0.010 A 
ATOM     57  C   UNL A   1      46.407  27.578  31.957  1.00  0.00     0.010 A 
ATOM     58  C   UNL A   1      48.480  28.015  30.129  1.00  0.00     0.020 A 
ATOM     59  C   UNL A   1      47.642  26.951  32.146  1.00  0.00     0.020 A 
ATOM     60  C   UNL A   1      48.668  27.164  31.223  1.00  0.00     0.054 A 
BRANCH  60  61
ATOM     61  S   UNL A   1      50.286  26.375  31.457  1.00  0.00     0.124 S 
ATOM     62  O   UNL A   1      51.162  27.246  30.678  1.00  0.00    -0.237 OA
ATOM     63  O   UNL A   1      50.469  26.432  32.905  1.00  0.00    -0.237 OA
ATOM     64  O   UNL A   1      50.097  25.033  30.911  1.00  0.00    -0.744 OA
ENDBRANCH  60  61
ENDBRANCH  41  55
BRANCH  42  65
ATOM     65  C   UNL A   1      37.275  32.715  29.771  1.00  0.00    -0.014 A 
ATOM     66  C   UNL A   1      36.331  32.607  30.806  1.00  0.00     0.010 A 
ATOM     67  C   UNL A   1      36.963  33.475  28.629  1.00  0.00     0.010 A 
ATOM     68  C   UNL A   1      35.100  33.261  30.707  1.00  0.00     0.020 A 
ATOM     69  C   UNL A   1      35.743  34.148  28.537  1.00  0.00     0.020 A 
ATOM     70  C   UNL A   1      34.817  34.033  29.576  1.00  0.00     0.054 A 
BRANCH  70  71
ATOM     71  S   UNL A   1      33.263  34.970  29.509  1.00  0.00     0.124 S 
ATOM     72  O   UNL A   1      32.453  34.149  28.615  1.00  0.00    -0.237 OA
ATOM     73  O   UNL A   1      32.839  34.993  30.906  1.00  0.00    -0.237 OA
ATOM     74  O   UNL A   1      33.676  36.265  28.972  1.00  0.00    -0.744 OA
ENDBRANCH  70  71
ENDBRANCH  42  65
BRANCH  54  75
ATOM     75  C   UNL A   1      43.153  34.625  32.970  1.00  0.00    -0.014 A 
ATOM     76  C   UNL A   1      43.743  35.732  32.337  1.00  0.00     0.010 A 
ATOM     77  C   UNL A   1      42.903  34.673  34.352  1.00  0.00     0.010 A 
ATOM     78  C   UNL A   1      44.116  36.855  33.081  1.00  0.00     0.020 A 
ATOM     79  C   UNL A   1      43.259  35.800  35.097  1.00  0.00     0.020 A 
ATOM     80  C   UNL A   1      43.881  36.876  34.459  1.00  0.00     0.054 A 
BRANCH  80  81
ATOM     81  S   UNL A   1      44.365  38.343  35.413  1.00  0.00     0.124 S 
ATOM     82  O   UNL A   1      43.806  38.045  36.728  1.00  0.00    -0.237 OA
ATOM     83  O   UNL A   1      45.824  38.318  35.330  1.00  0.00    -0.237 OA
ATOM     84  O   UNL A   1      43.726  39.444  34.696  1.00  0.00    -0.744 OA
ENDBRANCH  80  81
ENDBRANCH  54  75
ENDBRANCH  28  29
ENDBRANCH  21  23
ENDBRANCH  20  21
ENDBRANCH  19  20
ENDBRANCH   1  19
TORSDOF 18
ENDMDL
