MODEL 1
REMARK VINA RESULT:     -12.7      0.000      0.000
REMARK SMILES CN1C(=O)/C(=C(\SC2=[NH+][C@@H]3N=c4ccccc4=C3N=N2)C(=O)OCCOC(=O)c2ccc(-c3c4nc(c(-c5ccc(S(=O)(=O)[O-])cc5)c5ccc([nH]5)c(-c5ccc(S(=O)(=O)[O-])cc5)c5nc(c(-c6ccc(S(=O)(=O)[O-])cc6)c6ccc3[nH]6)C=C5)C=C4)cc2)c2ccccc21
REMARK SMILES IDX 25 1 24 2 23 3 21 4 22 5 6 6 1 7 2 8 3 9 94 10 4 11 5 12
REMARK SMILES IDX 89 13 93 14 90 15 92 16 91 17 7 18 8 19 9 20 20 21 10 22
REMARK SMILES IDX 19 24 11 25 18 26 12 27 17 28 13 29 16 30 14 31 15 32 26 33
REMARK SMILES IDX 27 34 28 35 29 36 30 37 88 38 31 39 87 40 32 41 33 42 34 43
REMARK SMILES IDX 81 44 35 45 86 46 80 47 82 48 36 49 85 50 79 51 78 52 37 54
REMARK SMILES IDX 67 55 48 56 66 57 49 58 52 59 65 60 83 61 50 62 51 63 64 65
REMARK SMILES IDX 84 66 53 67 38 68 39 69 47 70 40 71 46 72 41 73 42 74 43 75
REMARK SMILES IDX 44 76 45 77 68 78 69 79 77 80 70 81 76 82 71 83 72 84 73 85
REMARK SMILES IDX 74 86 75 87 54 88 55 89 63 90 56 91 62 92 57 93 58 94 59 95
REMARK SMILES IDX 60 96 61 97
REMARK H PARENT 9 23 82 53 52 64
REMARK Flexibility Score: inf
ROOT
ATOM      1  C   UNL A   1      36.414  23.793  25.730  1.00  0.00     0.275 C 
ENDROOT
BRANCH   1   2
ATOM      2  C   UNL A   1      35.207  23.235  24.977  1.00  0.00     0.275 C 
BRANCH   2   3
ATOM      3  O   UNL A   1      34.294  24.288  24.597  1.00  0.00    -0.458 OA
BRANCH   3   4
ATOM      4  C   UNL A   1      33.190  24.406  25.384  1.00  0.00     0.346 C 
ATOM      5  O   UNL A   1      33.071  23.923  26.503  1.00  0.00    -0.246 OA
BRANCH   4   6
ATOM      6  C   UNL A   1      32.062  25.093  24.685  1.00  0.00     0.118 C 
ATOM      7  C   UNL A   1      30.311  29.489  23.744  1.00  0.00     0.153 C 
ATOM      8  N   UNL A   1      31.035  28.456  24.437  1.00  0.00    -0.311 N 
ATOM      9  C   UNL A   1      30.585  27.151  24.620  1.00  0.00     0.260 C 
ATOM     10  C   UNL A   1      32.251  28.634  25.107  1.00  0.00     0.052 A 
ATOM     11  O   UNL A   1      29.456  26.708  24.529  1.00  0.00    -0.269 OA
ATOM     12  C   UNL A   1      31.803  26.375  25.027  1.00  0.00     0.071 C 
ATOM     13  C   UNL A   1      32.698  27.396  25.612  1.00  0.00     0.012 A 
ATOM     14  C   UNL A   1      32.868  29.835  25.407  1.00  0.00     0.027 A 
ATOM     15  C   UNL A   1      33.718  27.370  26.538  1.00  0.00     0.011 A 
ATOM     16  C   UNL A   1      33.875  29.807  26.363  1.00  0.00     0.002 A 
ATOM     17  C   UNL A   1      34.266  28.589  26.942  1.00  0.00     0.001 A 
BRANCH   6  18
ATOM     18  S   UNL A   1      31.177  23.973  23.666  1.00  0.00     0.013 SA
BRANCH  18  19
ATOM     19  C   UNL A   1      31.933  22.381  23.709  1.00  0.00     0.386 C 
ATOM     20  N   UNL A   1      32.050  21.853  24.884  1.00  0.00    -0.235 N 
ATOM     21  N   UNL A   1      32.344  21.804  22.526  1.00  0.00     0.088 NA
ATOM     22  C   UNL A   1      32.154  20.408  24.880  1.00  0.00     0.348 C 
ATOM     23  H   UNL A   1      32.066  22.387  25.711  1.00  0.00     0.308 HD
ATOM     24  N   UNL A   1      32.281  20.557  22.410  1.00  0.00    -0.033 NA
ATOM     25  N   UNL A   1      33.317  19.814  25.576  1.00  0.00    -0.232 NA
ATOM     26  C   UNL A   1      32.190  19.799  23.532  1.00  0.00     0.165 C 
ATOM     27  C   UNL A   1      33.522  18.761  24.826  1.00  0.00     0.072 A 
ATOM     28  C   UNL A   1      32.690  18.574  23.615  1.00  0.00     0.032 A 
ATOM     29  C   UNL A   1      34.632  17.785  24.972  1.00  0.00     0.029 A 
ATOM     30  C   UNL A   1      32.927  17.540  22.661  1.00  0.00     0.012 A 
ATOM     31  C   UNL A   1      34.793  16.823  24.043  1.00  0.00     0.002 A 
ATOM     32  C   UNL A   1      33.911  16.663  22.899  1.00  0.00     0.001 A 
ENDBRANCH  18  19
ENDBRANCH   6  18
ENDBRANCH   4   6
ENDBRANCH   3   4
ENDBRANCH   2   3
ENDBRANCH   1   2
BRANCH   1  33
ATOM     33  O   UNL A   1      37.628  23.285  25.150  1.00  0.00    -0.458 OA
BRANCH  33  34
ATOM     34  C   UNL A   1      38.586  22.945  26.049  1.00  0.00     0.338 C 
ATOM     35  O   UNL A   1      39.090  21.845  26.195  1.00  0.00    -0.246 OA
BRANCH  34  36
ATOM     36  C   UNL A   1      39.064  24.163  26.738  1.00  0.00     0.060 A 
ATOM     37  C   UNL A   1      38.833  24.403  28.098  1.00  0.00     0.016 A 
ATOM     38  C   UNL A   1      39.759  25.097  25.969  1.00  0.00     0.016 A 
ATOM     39  C   UNL A   1      39.283  25.595  28.684  1.00  0.00     0.010 A 
ATOM     40  C   UNL A   1      40.178  26.292  26.551  1.00  0.00     0.010 A 
ATOM     41  C   UNL A   1      39.933  26.565  27.909  1.00  0.00    -0.014 A 
BRANCH  41  42
ATOM     42  C   UNL A   1      40.417  27.850  28.480  1.00  0.00     0.031 A 
ATOM     43  C   UNL A   1      41.840  28.033  28.933  1.00  0.00     0.074 A 
ATOM     44  C   UNL A   1      39.520  28.826  28.712  1.00  0.00     0.049 A 
ATOM     45  N   UNL A   1      42.344  28.945  29.725  1.00  0.00    -0.248 NA
ATOM     46  C   UNL A   1      42.812  27.023  28.502  1.00  0.00     0.031 C 
ATOM     47  C   UNL A   1      38.115  28.787  28.307  1.00  0.00     0.029 A 
ATOM     48  N   UNL A   1      39.657  30.033  29.348  1.00  0.00    -0.354 N 
ATOM     49  C   UNL A   1      43.654  28.550  29.986  1.00  0.00     0.074 A 
ATOM     50  C   UNL A   1      43.866  27.324  29.252  1.00  0.00     0.031 C 
ATOM     51  C   UNL A   1      37.520  29.924  28.696  1.00  0.00     0.029 A 
ATOM     52  C   UNL A   1      38.498  30.766  29.383  1.00  0.00     0.049 A 
ATOM     53  H   UNL A   1      40.505  30.344  29.741  1.00  0.00     0.167 HD
ATOM     54  C   UNL A   1      44.578  29.157  30.771  1.00  0.00     0.031 A 
ATOM     55  C   UNL A   1      38.252  31.993  29.882  1.00  0.00     0.031 A 
ATOM     56  C   UNL A   1      44.401  30.479  31.326  1.00  0.00     0.049 A 
ATOM     57  C   UNL A   1      39.370  32.773  30.506  1.00  0.00     0.074 A 
ATOM     58  C   UNL A   1      45.330  31.259  31.995  1.00  0.00     0.029 A 
ATOM     59  N   UNL A   1      43.251  31.246  31.212  1.00  0.00    -0.354 N 
ATOM     60  N   UNL A   1      40.588  32.375  30.781  1.00  0.00    -0.248 NA
ATOM     61  C   UNL A   1      39.098  34.174  30.852  1.00  0.00     0.031 C 
ATOM     62  C   UNL A   1      44.739  32.487  32.299  1.00  0.00     0.029 A 
ATOM     63  C   UNL A   1      43.460  32.496  31.769  1.00  0.00     0.049 A 
ATOM     64  H   UNL A   1      42.409  30.945  30.798  1.00  0.00     0.167 HD
ATOM     65  C   UNL A   1      41.238  33.485  31.306  1.00  0.00     0.074 A 
ATOM     66  C   UNL A   1      40.283  34.572  31.301  1.00  0.00     0.031 C 
ATOM     67  C   UNL A   1      42.515  33.584  31.749  1.00  0.00     0.031 A 
BRANCH  54  68
ATOM     68  C   UNL A   1      45.888  28.458  31.069  1.00  0.00    -0.014 A 
ATOM     69  C   UNL A   1      46.974  28.635  30.183  1.00  0.00     0.010 A 
ATOM     70  C   UNL A   1      46.019  27.524  32.109  1.00  0.00     0.010 A 
ATOM     71  C   UNL A   1      48.138  27.869  30.306  1.00  0.00     0.020 A 
ATOM     72  C   UNL A   1      47.199  26.788  32.265  1.00  0.00     0.020 A 
ATOM     73  C   UNL A   1      48.238  26.941  31.343  1.00  0.00     0.054 A 
BRANCH  73  74
ATOM     74  S   UNL A   1      49.737  25.927  31.488  1.00  0.00     0.124 S 
ATOM     75  O   UNL A   1      49.410  25.056  32.612  1.00  0.00    -0.237 OA
ATOM     76  O   UNL A   1      49.816  25.273  30.183  1.00  0.00    -0.237 OA
ATOM     77  O   UNL A   1      50.785  26.914  31.742  1.00  0.00    -0.744 OA
ENDBRANCH  73  74
ENDBRANCH  54  68
BRANCH  55  78
ATOM     78  C   UNL A   1      36.915  32.587  29.632  1.00  0.00    -0.014 A 
ATOM     79  C   UNL A   1      36.601  33.179  28.397  1.00  0.00     0.010 A 
ATOM     80  C   UNL A   1      36.020  32.714  30.709  1.00  0.00     0.010 A 
ATOM     81  C   UNL A   1      35.439  33.942  28.262  1.00  0.00     0.020 A 
ATOM     82  C   UNL A   1      34.849  33.458  30.572  1.00  0.00     0.020 A 
ATOM     83  C   UNL A   1      34.584  34.097  29.359  1.00  0.00     0.054 A 
BRANCH  83  84
ATOM     84  S   UNL A   1      33.143  35.185  29.200  1.00  0.00     0.124 S 
ATOM     85  O   UNL A   1      33.765  36.447  28.806  1.00  0.00    -0.237 OA
ATOM     86  O   UNL A   1      32.354  34.522  28.165  1.00  0.00    -0.237 OA
ATOM     87  O   UNL A   1      32.553  35.169  30.536  1.00  0.00    -0.744 OA
ENDBRANCH  83  84
ENDBRANCH  55  78
BRANCH  67  88
ATOM     88  C   UNL A   1      42.996  34.917  32.258  1.00  0.00    -0.014 A 
ATOM     89  C   UNL A   1      42.715  35.295  33.584  1.00  0.00     0.010 A 
ATOM     90  C   UNL A   1      43.596  35.847  31.392  1.00  0.00     0.010 A 
ATOM     91  C   UNL A   1      42.998  36.589  34.029  1.00  0.00     0.020 A 
ATOM     92  C   UNL A   1      43.902  37.136  31.840  1.00  0.00     0.020 A 
ATOM     93  C   UNL A   1      43.579  37.505  33.149  1.00  0.00     0.054 A 
BRANCH  93  94
ATOM     94  S   UNL A   1      43.903  39.193  33.731  1.00  0.00     0.124 S 
ATOM     95  O   UNL A   1      42.707  39.904  33.291  1.00  0.00    -0.237 OA
ATOM     96  O   UNL A   1      44.034  39.015  35.175  1.00  0.00    -0.237 OA
ATOM     97  O   UNL A   1      45.138  39.561  33.043  1.00  0.00    -0.744 OA
ENDBRANCH  93  94
ENDBRANCH  67  88
ENDBRANCH  41  42
ENDBRANCH  34  36
ENDBRANCH  33  34
ENDBRANCH   1  33
TORSDOF 16
ENDMDL
MODEL 2
REMARK VINA RESULT:     -12.1      0.590      7.814
REMARK SMILES CN1C(=O)/C(=C(\SC2=[NH+][C@@H]3N=c4ccccc4=C3N=N2)C(=O)OCCOC(=O)c2ccc(-c3c4nc(c(-c5ccc(S(=O)(=O)[O-])cc5)c5ccc([nH]5)c(-c5ccc(S(=O)(=O)[O-])cc5)c5nc(c(-c6ccc(S(=O)(=O)[O-])cc6)c6ccc3[nH]6)C=C5)C=C4)cc2)c2ccccc21
REMARK SMILES IDX 25 1 24 2 23 3 21 4 22 5 6 6 1 7 2 8 3 9 94 10 4 11 5 12
REMARK SMILES IDX 89 13 93 14 90 15 92 16 91 17 7 18 8 19 9 20 20 21 10 22
REMARK SMILES IDX 19 24 11 25 18 26 12 27 17 28 13 29 16 30 14 31 15 32 26 33
REMARK SMILES IDX 27 34 28 35 29 36 30 37 88 38 31 39 87 40 32 41 33 42 34 43
REMARK SMILES IDX 81 44 35 45 86 46 80 47 82 48 36 49 85 50 79 51 78 52 37 54
REMARK SMILES IDX 67 55 48 56 66 57 49 58 52 59 65 60 83 61 50 62 51 63 64 65
REMARK SMILES IDX 84 66 53 67 38 68 39 69 47 70 40 71 46 72 41 73 42 74 43 75
REMARK SMILES IDX 44 76 45 77 68 78 69 79 77 80 70 81 76 82 71 83 72 84 73 85
REMARK SMILES IDX 74 86 75 87 54 88 55 89 63 90 56 91 62 92 57 93 58 94 59 95
REMARK SMILES IDX 60 96 61 97
REMARK H PARENT 9 23 82 53 52 64
REMARK Flexibility Score: inf
ROOT
ATOM      1  C   UNL A   1      36.328  23.659  25.789  1.00  0.00     0.275 C 
ENDROOT
BRANCH   1   2
ATOM      2  C   UNL A   1      35.186  23.247  24.861  1.00  0.00     0.275 C 
BRANCH   2   3
ATOM      3  O   UNL A   1      34.320  24.364  24.569  1.00  0.00    -0.458 OA
BRANCH   3   4
ATOM      4  C   UNL A   1      33.216  24.461  25.358  1.00  0.00     0.346 C 
ATOM      5  O   UNL A   1      33.103  23.962  26.471  1.00  0.00    -0.246 OA
BRANCH   4   6
ATOM      6  C   UNL A   1      32.080  25.148  24.670  1.00  0.00     0.118 C 
ATOM      7  C   UNL A   1      30.290  29.540  23.789  1.00  0.00     0.153 C 
ATOM      8  N   UNL A   1      31.024  28.505  24.468  1.00  0.00    -0.311 N 
ATOM      9  C   UNL A   1      30.586  27.194  24.635  1.00  0.00     0.260 C 
ATOM     10  C   UNL A   1      32.240  28.684  25.137  1.00  0.00     0.052 A 
ATOM     11  O   UNL A   1      29.461  26.743  24.541  1.00  0.00    -0.269 OA
ATOM     12  C   UNL A   1      31.811  26.423  25.029  1.00  0.00     0.071 C 
ATOM     13  C   UNL A   1      32.699  27.444  25.626  1.00  0.00     0.012 A 
ATOM     14  C   UNL A   1      32.848  29.887  25.451  1.00  0.00     0.027 A 
ATOM     15  C   UNL A   1      33.721  27.415  26.549  1.00  0.00     0.011 A 
ATOM     16  C   UNL A   1      33.858  29.855  26.404  1.00  0.00     0.002 A 
ATOM     17  C   UNL A   1      34.260  28.633  26.967  1.00  0.00     0.001 A 
BRANCH   6  18
ATOM     18  S   UNL A   1      31.202  24.033  23.640  1.00  0.00     0.013 SA
BRANCH  18  19
ATOM     19  C   UNL A   1      31.953  22.439  23.686  1.00  0.00     0.386 C 
ATOM     20  N   UNL A   1      32.061  21.910  24.862  1.00  0.00    -0.235 N 
ATOM     21  N   UNL A   1      32.369  21.861  22.505  1.00  0.00     0.088 NA
ATOM     22  C   UNL A   1      32.160  20.465  24.858  1.00  0.00     0.348 C 
ATOM     23  H   UNL A   1      32.074  22.443  25.689  1.00  0.00     0.308 HD
ATOM     24  N   UNL A   1      32.303  20.614  22.388  1.00  0.00    -0.033 NA
ATOM     25  N   UNL A   1      33.317  19.866  25.560  1.00  0.00    -0.232 NA
ATOM     26  C   UNL A   1      32.202  19.856  23.510  1.00  0.00     0.165 C 
ATOM     27  C   UNL A   1      33.523  18.813  24.812  1.00  0.00     0.072 A 
ATOM     28  C   UNL A   1      32.698  18.629  23.595  1.00  0.00     0.032 A 
ATOM     29  C   UNL A   1      34.628  17.833  24.963  1.00  0.00     0.029 A 
ATOM     30  C   UNL A   1      32.937  17.595  22.642  1.00  0.00     0.012 A 
ATOM     31  C   UNL A   1      34.792  16.871  24.035  1.00  0.00     0.002 A 
ATOM     32  C   UNL A   1      33.916  16.715  22.886  1.00  0.00     0.001 A 
ENDBRANCH  18  19
ENDBRANCH   6  18
ENDBRANCH   4   6
ENDBRANCH   3   4
ENDBRANCH   2   3
ENDBRANCH   1   2
BRANCH   1  33
ATOM     33  O   UNL A   1      37.590  23.296  25.202  1.00  0.00    -0.458 OA
BRANCH  33  34
ATOM     34  C   UNL A   1      38.565  22.995  26.095  1.00  0.00     0.338 C 
ATOM     35  O   UNL A   1      39.070  21.902  26.282  1.00  0.00    -0.246 OA
BRANCH  34  36
ATOM     36  C   UNL A   1      39.059  24.243  26.717  1.00  0.00     0.060 A 
ATOM     37  C   UNL A   1      39.814  25.191  26.015  1.00  0.00     0.016 A 
ATOM     38  C   UNL A   1      38.756  24.447  28.063  1.00  0.00     0.016 A 
ATOM     39  C   UNL A   1      40.282  26.338  26.672  1.00  0.00     0.010 A 
ATOM     40  C   UNL A   1      39.249  25.574  28.718  1.00  0.00     0.010 A 
ATOM     41  C   UNL A   1      40.030  26.526  28.037  1.00  0.00    -0.014 A 
BRANCH  41  42
ATOM     42  C   UNL A   1      40.517  27.717  28.782  1.00  0.00     0.031 A 
ATOM     43  C   UNL A   1      39.595  28.842  29.172  1.00  0.00     0.074 A 
ATOM     44  C   UNL A   1      41.839  27.844  28.996  1.00  0.00     0.049 A 
ATOM     45  N   UNL A   1      39.892  30.066  29.528  1.00  0.00    -0.248 NA
ATOM     46  C   UNL A   1      38.155  28.585  29.083  1.00  0.00     0.031 C 
ATOM     47  C   UNL A   1      42.840  26.823  28.686  1.00  0.00     0.029 A 
ATOM     48  N   UNL A   1      42.565  28.883  29.517  1.00  0.00    -0.354 N 
ATOM     49  C   UNL A   1      38.683  30.756  29.584  1.00  0.00     0.074 A 
ATOM     50  C   UNL A   1      37.652  29.804  29.239  1.00  0.00     0.031 C 
ATOM     51  C   UNL A   1      44.051  27.283  29.032  1.00  0.00     0.029 A 
ATOM     52  C   UNL A   1      43.912  28.631  29.579  1.00  0.00     0.049 A 
ATOM     53  H   UNL A   1      42.159  29.729  29.817  1.00  0.00     0.167 HD
ATOM     54  C   UNL A   1      38.469  32.060  29.886  1.00  0.00     0.031 A 
ATOM     55  C   UNL A   1      44.923  29.385  30.053  1.00  0.00     0.031 A 
ATOM     56  C   UNL A   1      39.493  32.928  30.419  1.00  0.00     0.049 A 
ATOM     57  C   UNL A   1      44.626  30.728  30.647  1.00  0.00     0.074 A 
ATOM     58  C   UNL A   1      39.353  34.214  30.916  1.00  0.00     0.029 A 
ATOM     59  N   UNL A   1      40.823  32.579  30.598  1.00  0.00    -0.354 N 
ATOM     60  N   UNL A   1      43.490  31.383  30.657  1.00  0.00    -0.248 NA
ATOM     61  C   UNL A   1      45.729  31.420  31.326  1.00  0.00     0.031 C 
ATOM     62  C   UNL A   1      40.597  34.647  31.378  1.00  0.00     0.029 A 
ATOM     63  C   UNL A   1      41.502  33.611  31.224  1.00  0.00     0.049 A 
ATOM     64  H   UNL A   1      41.225  31.724  30.319  1.00  0.00     0.167 HD
ATOM     65  C   UNL A   1      43.734  32.552  31.368  1.00  0.00     0.074 A 
ATOM     66  C   UNL A   1      45.122  32.510  31.781  1.00  0.00     0.031 C 
ATOM     67  C   UNL A   1      42.878  33.563  31.650  1.00  0.00     0.031 A 
BRANCH  54  68
ATOM     68  C   UNL A   1      37.089  32.658  29.704  1.00  0.00    -0.014 A 
ATOM     69  C   UNL A   1      36.694  33.087  28.418  1.00  0.00     0.010 A 
ATOM     70  C   UNL A   1      36.245  32.938  30.791  1.00  0.00     0.010 A 
ATOM     71  C   UNL A   1      35.514  33.814  28.230  1.00  0.00     0.020 A 
ATOM     72  C   UNL A   1      35.040  33.624  30.603  1.00  0.00     0.020 A 
ATOM     73  C   UNL A   1      34.698  34.087  29.329  1.00  0.00     0.054 A 
BRANCH  73  74
ATOM     74  S   UNL A   1      33.180  35.053  29.092  1.00  0.00     0.124 S 
ATOM     75  O   UNL A   1      33.704  36.345  28.662  1.00  0.00    -0.237 OA
ATOM     76  O   UNL A   1      32.463  34.291  28.071  1.00  0.00    -0.237 OA
ATOM     77  O   UNL A   1      32.562  35.036  30.416  1.00  0.00    -0.744 OA
ENDBRANCH  73  74
ENDBRANCH  54  68
BRANCH  55  78
ATOM     78  C   UNL A   1      46.273  28.770  30.122  1.00  0.00    -0.014 A 
ATOM     79  C   UNL A   1      47.166  28.853  29.040  1.00  0.00     0.010 A 
ATOM     80  C   UNL A   1      46.585  27.945  31.217  1.00  0.00     0.010 A 
ATOM     81  C   UNL A   1      48.322  28.070  29.026  1.00  0.00     0.020 A 
ATOM     82  C   UNL A   1      47.749  27.177  31.215  1.00  0.00     0.020 A 
ATOM     83  C   UNL A   1      48.592  27.218  30.103  1.00  0.00     0.054 A 
BRANCH  83  84
ATOM     84  S   UNL A   1      50.035  26.124  30.015  1.00  0.00     0.124 S 
ATOM     85  O   UNL A   1      49.749  25.167  31.081  1.00  0.00    -0.237 OA
ATOM     86  O   UNL A   1      49.954  25.596  28.656  1.00  0.00    -0.237 OA
ATOM     87  O   UNL A   1      51.160  27.022  30.266  1.00  0.00    -0.744 OA
ENDBRANCH  83  84
ENDBRANCH  55  78
BRANCH  67  88
ATOM     88  C   UNL A   1      43.382  34.724  32.465  1.00  0.00    -0.014 A 
ATOM     89  C   UNL A   1      43.167  34.737  33.857  1.00  0.00     0.010 A 
ATOM     90  C   UNL A   1      43.936  35.856  31.846  1.00  0.00     0.010 A 
ATOM     91  C   UNL A   1      43.470  35.874  34.611  1.00  0.00     0.020 A 
ATOM     92  C   UNL A   1      44.263  36.988  32.601  1.00  0.00     0.020 A 
ATOM     93  C   UNL A   1      44.005  36.997  33.974  1.00  0.00     0.054 A 
BRANCH  93  94
ATOM     94  S   UNL A   1      44.354  38.478  34.962  1.00  0.00     0.124 S 
ATOM     95  O   UNL A   1      45.800  38.613  34.814  1.00  0.00    -0.237 OA
ATOM     96  O   UNL A   1      43.554  39.504  34.297  1.00  0.00    -0.237 OA
ATOM     97  O   UNL A   1      43.895  38.113  36.300  1.00  0.00    -0.744 OA
ENDBRANCH  93  94
ENDBRANCH  67  88
ENDBRANCH  41  42
ENDBRANCH  34  36
ENDBRANCH  33  34
ENDBRANCH   1  33
TORSDOF 16
ENDMDL
MODEL 3
REMARK VINA RESULT:     -11.7      1.566      2.004
REMARK SMILES CN1C(=O)/C(=C(\SC2=[NH+][C@@H]3N=c4ccccc4=C3N=N2)C(=O)OCCOC(=O)c2ccc(-c3c4nc(c(-c5ccc(S(=O)(=O)[O-])cc5)c5ccc([nH]5)c(-c5ccc(S(=O)(=O)[O-])cc5)c5nc(c(-c6ccc(S(=O)(=O)[O-])cc6)c6ccc3[nH]6)C=C5)C=C4)cc2)c2ccccc21
REMARK SMILES IDX 25 1 24 2 23 3 21 4 22 5 6 6 1 7 2 8 3 9 94 10 4 11 5 12
REMARK SMILES IDX 89 13 93 14 90 15 92 16 91 17 7 18 8 19 9 20 20 21 10 22
REMARK SMILES IDX 19 24 11 25 18 26 12 27 17 28 13 29 16 30 14 31 15 32 26 33
REMARK SMILES IDX 27 34 28 35 29 36 30 37 88 38 31 39 87 40 32 41 33 42 34 43
REMARK SMILES IDX 81 44 35 45 86 46 80 47 82 48 36 49 85 50 79 51 78 52 37 54
REMARK SMILES IDX 67 55 48 56 66 57 49 58 52 59 65 60 83 61 50 62 51 63 64 65
REMARK SMILES IDX 84 66 53 67 38 68 39 69 47 70 40 71 46 72 41 73 42 74 43 75
REMARK SMILES IDX 44 76 45 77 68 78 69 79 77 80 70 81 76 82 71 83 72 84 73 85
REMARK SMILES IDX 74 86 75 87 54 88 55 89 63 90 56 91 62 92 57 93 58 94 59 95
REMARK SMILES IDX 60 96 61 97
REMARK H PARENT 9 23 82 53 52 64
REMARK Flexibility Score: inf
ROOT
ATOM      1  C   UNL A   1      36.208  23.770  25.804  1.00  0.00     0.275 C 
ENDROOT
BRANCH   1   2
ATOM      2  C   UNL A   1      35.011  23.230  25.022  1.00  0.00     0.275 C 
BRANCH   2   3
ATOM      3  O   UNL A   1      34.131  24.296  24.609  1.00  0.00    -0.458 OA
BRANCH   3   4
ATOM      4  C   UNL A   1      33.013  24.448  25.369  1.00  0.00     0.346 C 
ATOM      5  O   UNL A   1      32.868  24.004  26.502  1.00  0.00    -0.246 OA
BRANCH   4   6
ATOM      6  C   UNL A   1      31.903  25.120  24.626  1.00  0.00     0.118 C 
ATOM      7  C   UNL A   1      30.117  29.489  23.630  1.00  0.00     0.153 C 
ATOM      8  N   UNL A   1      30.829  28.466  24.350  1.00  0.00    -0.311 N 
ATOM      9  C   UNL A   1      30.395  27.152  24.507  1.00  0.00     0.260 C 
ATOM     10  C   UNL A   1      32.011  28.661  25.072  1.00  0.00     0.052 A 
ATOM     11  O   UNL A   1      29.279  26.690  24.365  1.00  0.00    -0.269 OA
ATOM     12  C   UNL A   1      31.607  26.395  24.962  1.00  0.00     0.071 C 
ATOM     13  C   UNL A   1      32.458  27.428  25.590  1.00  0.00     0.012 A 
ATOM     14  C   UNL A   1      32.594  29.871  25.403  1.00  0.00     0.027 A 
ATOM     15  C   UNL A   1      33.438  27.415  26.559  1.00  0.00     0.011 A 
ATOM     16  C   UNL A   1      33.560  29.855  26.401  1.00  0.00     0.002 A 
ATOM     17  C   UNL A   1      33.947  28.641  26.991  1.00  0.00     0.001 A 
BRANCH   6  18
ATOM     18  S   UNL A   1      31.082  23.990  23.565  1.00  0.00     0.013 SA
BRANCH  18  19
ATOM     19  C   UNL A   1      31.859  22.408  23.639  1.00  0.00     0.386 C 
ATOM     20  N   UNL A   1      31.971  21.900  24.823  1.00  0.00    -0.235 N 
ATOM     21  N   UNL A   1      32.289  21.820  22.469  1.00  0.00     0.088 NA
ATOM     22  C   UNL A   1      32.095  20.457  24.842  1.00  0.00     0.348 C 
ATOM     23  H   UNL A   1      31.972  22.446  25.642  1.00  0.00     0.308 HD
ATOM     24  N   UNL A   1      32.244  20.571  22.371  1.00  0.00    -0.033 NA
ATOM     25  N   UNL A   1      33.258  19.889  25.558  1.00  0.00    -0.232 NA
ATOM     26  C   UNL A   1      32.152  19.828  23.504  1.00  0.00     0.165 C 
ATOM     27  C   UNL A   1      33.485  18.827  24.826  1.00  0.00     0.072 A 
ATOM     28  C   UNL A   1      32.668  18.611  23.610  1.00  0.00     0.032 A 
ATOM     29  C   UNL A   1      34.606  17.868  24.998  1.00  0.00     0.029 A 
ATOM     30  C   UNL A   1      32.927  17.566  22.674  1.00  0.00     0.012 A 
ATOM     31  C   UNL A   1      34.789  16.895  24.085  1.00  0.00     0.002 A 
ATOM     32  C   UNL A   1      33.920  16.706  22.935  1.00  0.00     0.001 A 
ENDBRANCH  18  19
ENDBRANCH   6  18
ENDBRANCH   4   6
ENDBRANCH   3   4
ENDBRANCH   2   3
ENDBRANCH   1   2
BRANCH   1  33
ATOM     33  O   UNL A   1      37.432  23.348  25.178  1.00  0.00    -0.458 OA
BRANCH  33  34
ATOM     34  C   UNL A   1      38.394  22.929  26.038  1.00  0.00     0.338 C 
ATOM     35  O   UNL A   1      38.763  21.782  26.216  1.00  0.00    -0.246 OA
BRANCH  34  36
ATOM     36  C   UNL A   1      39.064  24.107  26.632  1.00  0.00     0.060 A 
ATOM     37  C   UNL A   1      38.971  24.424  27.992  1.00  0.00     0.016 A 
ATOM     38  C   UNL A   1      39.798  24.922  25.771  1.00  0.00     0.016 A 
ATOM     39  C   UNL A   1      39.602  25.575  28.487  1.00  0.00     0.010 A 
ATOM     40  C   UNL A   1      40.399  26.080  26.262  1.00  0.00     0.010 A 
ATOM     41  C   UNL A   1      40.296  26.430  27.621  1.00  0.00    -0.014 A 
BRANCH  41  42
ATOM     42  C   UNL A   1      40.970  27.669  28.094  1.00  0.00     0.031 A 
ATOM     43  C   UNL A   1      42.465  27.833  28.034  1.00  0.00     0.074 A 
ATOM     44  C   UNL A   1      40.227  28.609  28.706  1.00  0.00     0.049 A 
ATOM     45  N   UNL A   1      43.228  28.682  28.674  1.00  0.00    -0.248 NA
ATOM     46  C   UNL A   1      43.208  26.878  27.206  1.00  0.00     0.031 C 
ATOM     47  C   UNL A   1      38.768  28.584  28.817  1.00  0.00     0.029 A 
ATOM     48  N   UNL A   1      40.598  29.759  29.353  1.00  0.00    -0.354 N 
ATOM     49  C   UNL A   1      44.540  28.285  28.425  1.00  0.00     0.074 A 
ATOM     50  C   UNL A   1      44.463  27.129  27.562  1.00  0.00     0.031 C 
ATOM     51  C   UNL A   1      38.366  29.676  29.484  1.00  0.00     0.029 A 
ATOM     52  C   UNL A   1      39.536  30.469  29.854  1.00  0.00     0.049 A 
ATOM     53  H   UNL A   1      41.534  30.048  29.450  1.00  0.00     0.167 HD
ATOM     54  C   UNL A   1      45.690  28.837  28.886  1.00  0.00     0.031 A 
ATOM     55  C   UNL A   1      39.500  31.646  30.509  1.00  0.00     0.031 A 
ATOM     56  C   UNL A   1      45.740  30.104  29.578  1.00  0.00     0.049 A 
ATOM     57  C   UNL A   1      40.778  32.386  30.766  1.00  0.00     0.074 A 
ATOM     58  C   UNL A   1      46.857  30.838  29.943  1.00  0.00     0.029 A 
ATOM     59  N   UNL A   1      44.635  30.861  29.939  1.00  0.00    -0.354 N 
ATOM     60  N   UNL A   1      42.009  31.984  30.563  1.00  0.00    -0.248 NA
ATOM     61  C   UNL A   1      40.667  33.749  31.303  1.00  0.00     0.031 C 
ATOM     62  C   UNL A   1      46.429  32.027  30.537  1.00  0.00     0.029 A 
ATOM     63  C   UNL A   1      45.046  32.062  30.491  1.00  0.00     0.049 A 
ATOM     64  H   UNL A   1      43.697  30.584  29.821  1.00  0.00     0.167 HD
ATOM     65  C   UNL A   1      42.819  33.055  30.920  1.00  0.00     0.074 A 
ATOM     66  C   UNL A   1      41.940  34.125  31.341  1.00  0.00     0.031 C 
ATOM     67  C   UNL A   1      44.172  33.134  30.896  1.00  0.00     0.031 A 
BRANCH  54  68
ATOM     68  C   UNL A   1      47.010  28.134  28.647  1.00  0.00    -0.014 A 
ATOM     69  C   UNL A   1      47.704  28.375  27.441  1.00  0.00     0.010 A 
ATOM     70  C   UNL A   1      47.497  27.139  29.511  1.00  0.00     0.010 A 
ATOM     71  C   UNL A   1      48.824  27.614  27.087  1.00  0.00     0.020 A 
ATOM     72  C   UNL A   1      48.644  26.407  29.185  1.00  0.00     0.020 A 
ATOM     73  C   UNL A   1      49.281  26.626  27.960  1.00  0.00     0.054 A 
BRANCH  73  74
ATOM     74  S   UNL A   1      50.717  25.620  27.491  1.00  0.00     0.124 S 
ATOM     75  O   UNL A   1      50.252  24.268  27.782  1.00  0.00    -0.237 OA
ATOM     76  O   UNL A   1      50.889  25.938  26.074  1.00  0.00    -0.237 OA
ATOM     77  O   UNL A   1      51.776  26.122  28.364  1.00  0.00    -0.744 OA
ENDBRANCH  73  74
ENDBRANCH  54  68
BRANCH  55  78
ATOM     78  C   UNL A   1      38.170  32.240  30.794  1.00  0.00    -0.014 A 
ATOM     79  C   UNL A   1      37.541  33.093  29.871  1.00  0.00     0.010 A 
ATOM     80  C   UNL A   1      37.621  32.085  32.079  1.00  0.00     0.010 A 
ATOM     81  C   UNL A   1      36.418  33.831  30.252  1.00  0.00     0.020 A 
ATOM     82  C   UNL A   1      36.487  32.804  32.456  1.00  0.00     0.020 A 
ATOM     83  C   UNL A   1      35.914  33.699  31.552  1.00  0.00     0.054 A 
BRANCH  83  84
ATOM     84  S   UNL A   1      34.528  34.749  32.065  1.00  0.00     0.124 S 
ATOM     85  O   UNL A   1      33.674  33.792  32.764  1.00  0.00    -0.237 OA
ATOM     86  O   UNL A   1      35.179  35.748  32.909  1.00  0.00    -0.237 OA
ATOM     87  O   UNL A   1      33.997  35.255  30.802  1.00  0.00    -0.744 OA
ENDBRANCH  83  84
ENDBRANCH  55  78
BRANCH  67  88
ATOM     88  C   UNL A   1      44.822  34.426  31.314  1.00  0.00    -0.014 A 
ATOM     89  C   UNL A   1      45.086  34.658  32.677  1.00  0.00     0.010 A 
ATOM     90  C   UNL A   1      45.040  35.459  30.388  1.00  0.00     0.010 A 
ATOM     91  C   UNL A   1      45.529  35.910  33.112  1.00  0.00     0.020 A 
ATOM     92  C   UNL A   1      45.505  36.707  30.815  1.00  0.00     0.020 A 
ATOM     93  C   UNL A   1      45.724  36.931  32.177  1.00  0.00     0.054 A 
BRANCH  93  94
ATOM     94  S   UNL A   1      46.260  38.562  32.763  1.00  0.00     0.124 S 
ATOM     95  O   UNL A   1      47.572  38.697  32.139  1.00  0.00    -0.237 OA
ATOM     96  O   UNL A   1      45.221  39.448  32.244  1.00  0.00    -0.237 OA
ATOM     97  O   UNL A   1      46.272  38.416  34.217  1.00  0.00    -0.744 OA
ENDBRANCH  93  94
ENDBRANCH  67  88
ENDBRANCH  41  42
ENDBRANCH  34  36
ENDBRANCH  33  34
ENDBRANCH   1  33
TORSDOF 16
ENDMDL
