MODEL 1
REMARK VINA RESULT:     -11.1      0.000      0.000
REMARK SMILES C[N@H+]1CCO[C@H](c2noc(-c3ccccc3C(=O)OCCOC(=O)c3ccc(-c4c5nc(c(-c6ccc(S(=O)(=O)[O-])cc6)c6ccc([nH]6)c(-c6ccc(S(=O)(=O)[O-])cc6)c6nc(c(-c7ccc(S(=O)(=O)[O-])cc7)c7ccc4[nH]7)C=C6)C=C5)cc3)n2)C1
REMARK SMILES IDX 21 1 20 2 19 3 17 4 18 5 16 6 11 7 12 8 13 9 15 10 14 11
REMARK SMILES IDX 10 12 7 13 8 14 85 15 9 16 6 17 1 18 2 19 3 20 86 21 4 23
REMARK SMILES IDX 5 24 22 25 23 26 24 27 25 28 26 29 84 30 27 31 83 32 28 33
REMARK SMILES IDX 29 34 30 35 77 36 31 37 82 38 76 39 78 40 32 41 81 42 75 43
REMARK SMILES IDX 74 44 33 46 63 47 44 48 62 49 45 50 48 51 61 52 79 53 46 54
REMARK SMILES IDX 47 55 60 57 80 58 49 59 34 60 35 61 43 62 36 63 42 64 37 65
REMARK SMILES IDX 38 66 39 67 40 68 41 69 64 70 65 71 73 72 66 73 72 74 67 75
REMARK SMILES IDX 68 76 69 77 70 78 71 79 50 80 51 81 59 82 52 83 58 84 53 85
REMARK SMILES IDX 54 86 55 87 56 88 57 89
REMARK H PARENT 2 22 78 45 48 56
REMARK Flexibility Score: inf
ROOT
ATOM      1  C   UNL A   1      32.259  30.169  26.918  1.00  0.00     0.275 C 
ENDROOT
BRANCH   1   2
ATOM      2  C   UNL A   1      31.805  29.288  25.759  1.00  0.00     0.275 C 
BRANCH   2   3
ATOM      3  O   UNL A   1      32.677  28.150  25.604  1.00  0.00    -0.458 OA
BRANCH   3   4
ATOM      4  C   UNL A   1      32.112  26.922  25.739  1.00  0.00     0.339 C 
ATOM      5  O   UNL A   1      31.314  26.579  26.587  1.00  0.00    -0.246 OA
BRANCH   4   6
ATOM      6  C   UNL A   1      32.520  26.037  24.611  1.00  0.00     0.072 A 
ATOM      7  C   UNL A   1      31.762  25.909  23.435  1.00  0.00     0.054 A 
ATOM      8  C   UNL A   1      32.217  25.046  22.423  1.00  0.00     0.015 A 
ATOM      9  C   UNL A   1      33.407  24.330  22.578  1.00  0.00     0.001 A 
ATOM     10  C   UNL A   1      33.734  25.343  24.740  1.00  0.00     0.016 A 
ATOM     11  C   UNL A   1      34.166  24.479  23.735  1.00  0.00     0.001 A 
BRANCH   7  12
ATOM     12  C   UNL A   1      30.581  26.721  23.230  1.00  0.00     0.258 A 
ATOM     13  C   UNL A   1      29.204  28.269  22.967  1.00  0.00     0.206 A 
ATOM     14  N   UNL A   1      28.477  27.315  23.572  1.00  0.00    -0.059 NA
ATOM     15  N   UNL A   1      30.490  27.905  22.671  1.00  0.00    -0.189 NA
ATOM     16  O   UNL A   1      29.407  26.282  23.767  1.00  0.00    -0.334 OA
BRANCH  13  17
ATOM     17  C   UNL A   1      28.658  29.619  22.613  1.00  0.00     0.245 C 
ATOM     18  C   UNL A   1      27.903  31.579  20.258  1.00  0.00     0.332 C 
ATOM     19  N   UNL A   1      29.058  31.676  21.144  1.00  0.00    -0.333 N 
ATOM     20  C   UNL A   1      28.780  32.467  22.357  1.00  0.00     0.290 C 
ATOM     21  C   UNL A   1      29.540  30.331  21.546  1.00  0.00     0.303 C 
ATOM     22  H   UNL A   1      29.780  32.157  20.608  1.00  0.00     0.348 HD
ATOM     23  C   UNL A   1      27.955  31.729  23.424  1.00  0.00     0.222 C 
ATOM     24  O   UNL A   1      28.548  30.475  23.776  1.00  0.00    -0.358 OA
ENDBRANCH  13  17
ENDBRANCH   7  12
ENDBRANCH   4   6
ENDBRANCH   3   4
ENDBRANCH   2   3
ENDBRANCH   1   2
BRANCH   1  25
ATOM     25  O   UNL A   1      33.690  30.285  26.899  1.00  0.00    -0.458 OA
BRANCH  25  26
ATOM     26  C   UNL A   1      34.181  31.327  27.606  1.00  0.00     0.338 C 
ATOM     27  O   UNL A   1      33.624  32.374  27.888  1.00  0.00    -0.246 OA
BRANCH  26  28
ATOM     28  C   UNL A   1      35.505  30.966  28.116  1.00  0.00     0.060 A 
ATOM     29  C   UNL A   1      35.642  29.739  28.758  1.00  0.00     0.016 A 
ATOM     30  C   UNL A   1      36.559  31.873  28.088  1.00  0.00     0.016 A 
ATOM     31  C   UNL A   1      36.803  29.442  29.458  1.00  0.00     0.010 A 
ATOM     32  C   UNL A   1      37.762  31.534  28.714  1.00  0.00     0.010 A 
ATOM     33  C   UNL A   1      37.886  30.330  29.437  1.00  0.00    -0.014 A 
BRANCH  33  34
ATOM     34  C   UNL A   1      39.128  30.019  30.196  1.00  0.00     0.031 A 
ATOM     35  C   UNL A   1      40.056  28.937  29.709  1.00  0.00     0.074 A 
ATOM     36  C   UNL A   1      39.431  30.707  31.315  1.00  0.00     0.049 A 
ATOM     37  N   UNL A   1      41.080  28.391  30.315  1.00  0.00    -0.248 NA
ATOM     38  C   UNL A   1      39.792  28.384  28.369  1.00  0.00     0.031 C 
ATOM     39  C   UNL A   1      38.649  31.815  31.872  1.00  0.00     0.029 A 
ATOM     40  N   UNL A   1      40.483  30.579  32.189  1.00  0.00    -0.354 N 
ATOM     41  C   UNL A   1      41.540  27.393  29.463  1.00  0.00     0.074 A 
ATOM     42  C   UNL A   1      40.686  27.407  28.296  1.00  0.00     0.031 C 
ATOM     43  C   UNL A   1      39.266  32.288  32.965  1.00  0.00     0.029 A 
ATOM     44  C   UNL A   1      40.430  31.456  33.247  1.00  0.00     0.049 A 
ATOM     45  H   UNL A   1      41.207  29.922  32.068  1.00  0.00     0.167 HD
ATOM     46  C   UNL A   1      42.576  26.539  29.643  1.00  0.00     0.031 A 
ATOM     47  C   UNL A   1      41.196  31.554  34.351  1.00  0.00     0.031 A 
ATOM     48  C   UNL A   1      43.446  26.560  30.791  1.00  0.00     0.049 A 
ATOM     49  C   UNL A   1      42.316  30.572  34.546  1.00  0.00     0.074 A 
ATOM     50  C   UNL A   1      44.534  25.749  31.063  1.00  0.00     0.029 A 
ATOM     51  N   UNL A   1      43.335  27.447  31.852  1.00  0.00    -0.354 N 
ATOM     52  N   UNL A   1      42.705  29.600  33.755  1.00  0.00    -0.248 NA
ATOM     53  C   UNL A   1      43.087  30.686  35.790  1.00  0.00     0.031 C 
ATOM     54  C   UNL A   1      45.052  26.114  32.309  1.00  0.00     0.029 A 
ATOM     55  C   UNL A   1      44.323  27.191  32.788  1.00  0.00     0.049 A 
ATOM     56  H   UNL A   1      42.654  28.154  31.929  1.00  0.00     0.167 HD
ATOM     57  C   UNL A   1      43.775  28.994  34.402  1.00  0.00     0.074 A 
ATOM     58  C   UNL A   1      43.986  29.723  35.636  1.00  0.00     0.031 C 
ATOM     59  C   UNL A   1      44.514  27.926  34.012  1.00  0.00     0.031 A 
BRANCH  46  60
ATOM     60  C   UNL A   1      42.803  25.476  28.598  1.00  0.00    -0.014 A 
ATOM     61  C   UNL A   1      42.204  24.208  28.690  1.00  0.00     0.010 A 
ATOM     62  C   UNL A   1      43.598  25.776  27.475  1.00  0.00     0.010 A 
ATOM     63  C   UNL A   1      42.422  23.249  27.695  1.00  0.00     0.020 A 
ATOM     64  C   UNL A   1      43.797  24.829  26.466  1.00  0.00     0.020 A 
ATOM     65  C   UNL A   1      43.219  23.565  26.590  1.00  0.00     0.054 A 
BRANCH  65  66
ATOM     66  S   UNL A   1      43.462  22.312  25.300  1.00  0.00     0.124 S 
ATOM     67  O   UNL A   1      44.767  21.760  25.658  1.00  0.00    -0.237 OA
ATOM     68  O   UNL A   1      42.325  21.417  25.505  1.00  0.00    -0.237 OA
ATOM     69  O   UNL A   1      43.431  23.081  24.059  1.00  0.00    -0.744 OA
ENDBRANCH  65  66
ENDBRANCH  46  60
BRANCH  47  70
ATOM     70  C   UNL A   1      40.885  32.583  35.381  1.00  0.00    -0.014 A 
ATOM     71  C   UNL A   1      39.987  32.308  36.425  1.00  0.00     0.010 A 
ATOM     72  C   UNL A   1      41.510  33.845  35.333  1.00  0.00     0.010 A 
ATOM     73  C   UNL A   1      39.711  33.277  37.396  1.00  0.00     0.020 A 
ATOM     74  C   UNL A   1      41.263  34.802  36.318  1.00  0.00     0.020 A 
ATOM     75  C   UNL A   1      40.355  34.517  37.338  1.00  0.00     0.054 A 
BRANCH  75  76
ATOM     76  S   UNL A   1      40.031  35.736  38.641  1.00  0.00     0.124 S 
ATOM     77  O   UNL A   1      41.317  35.796  39.329  1.00  0.00    -0.237 OA
ATOM     78  O   UNL A   1      39.666  36.928  37.877  1.00  0.00    -0.237 OA
ATOM     79  O   UNL A   1      38.939  35.138  39.404  1.00  0.00    -0.744 OA
ENDBRANCH  75  76
ENDBRANCH  47  70
BRANCH  59  80
ATOM     80  C   UNL A   1      45.639  27.505  34.917  1.00  0.00    -0.014 A 
ATOM     81  C   UNL A   1      46.917  28.081  34.806  1.00  0.00     0.010 A 
ATOM     82  C   UNL A   1      45.400  26.547  35.919  1.00  0.00     0.010 A 
ATOM     83  C   UNL A   1      47.947  27.680  35.660  1.00  0.00     0.020 A 
ATOM     84  C   UNL A   1      46.420  26.164  36.792  1.00  0.00     0.020 A 
ATOM     85  C   UNL A   1      47.692  26.722  36.647  1.00  0.00     0.054 A 
BRANCH  85  86
ATOM     86  S   UNL A   1      49.035  26.244  37.768  1.00  0.00     0.124 S 
ATOM     87  O   UNL A   1      49.187  24.822  37.470  1.00  0.00    -0.237 OA
ATOM     88  O   UNL A   1      50.136  27.099  37.334  1.00  0.00    -0.237 OA
ATOM     89  O   UNL A   1      48.503  26.548  39.095  1.00  0.00    -0.744 OA
ENDBRANCH  85  86
ENDBRANCH  59  80
ENDBRANCH  33  34
ENDBRANCH  26  28
ENDBRANCH  25  26
ENDBRANCH   1  25
TORSDOF 16
ENDMDL
MODEL 2
REMARK VINA RESULT:     -11.0      5.599      8.423
REMARK SMILES C[N@H+]1CCO[C@H](c2noc(-c3ccccc3C(=O)OCCOC(=O)c3ccc(-c4c5nc(c(-c6ccc(S(=O)(=O)[O-])cc6)c6ccc([nH]6)c(-c6ccc(S(=O)(=O)[O-])cc6)c6nc(c(-c7ccc(S(=O)(=O)[O-])cc7)c7ccc4[nH]7)C=C6)C=C5)cc3)n2)C1
REMARK SMILES IDX 21 1 20 2 19 3 17 4 18 5 16 6 11 7 12 8 13 9 15 10 14 11
REMARK SMILES IDX 10 12 7 13 8 14 85 15 9 16 6 17 1 18 2 19 3 20 86 21 4 23
REMARK SMILES IDX 5 24 22 25 23 26 24 27 25 28 26 29 84 30 27 31 83 32 28 33
REMARK SMILES IDX 29 34 30 35 77 36 31 37 82 38 76 39 78 40 32 41 81 42 75 43
REMARK SMILES IDX 74 44 33 46 63 47 44 48 62 49 45 50 48 51 61 52 79 53 46 54
REMARK SMILES IDX 47 55 60 57 80 58 49 59 34 60 35 61 43 62 36 63 42 64 37 65
REMARK SMILES IDX 38 66 39 67 40 68 41 69 64 70 65 71 73 72 66 73 72 74 67 75
REMARK SMILES IDX 68 76 69 77 70 78 71 79 50 80 51 81 59 82 52 83 58 84 53 85
REMARK SMILES IDX 54 86 55 87 56 88 57 89
REMARK H PARENT 2 22 78 45 48 56
REMARK Flexibility Score: inf
ROOT
ATOM      1  C   UNL A   1      37.740  21.029  25.096  1.00  0.00     0.275 C 
ENDROOT
BRANCH   1   2
ATOM      2  C   UNL A   1      36.316  21.300  24.622  1.00  0.00     0.275 C 
BRANCH   2   3
ATOM      3  O   UNL A   1      35.915  22.648  24.940  1.00  0.00    -0.458 OA
BRANCH   3   4
ATOM      4  C   UNL A   1      35.083  23.264  24.059  1.00  0.00     0.339 C 
ATOM      5  O   UNL A   1      35.170  23.252  22.849  1.00  0.00    -0.246 OA
BRANCH   4   6
ATOM      6  C   UNL A   1      33.941  23.895  24.780  1.00  0.00     0.072 A 
ATOM      7  C   UNL A   1      32.695  23.262  24.927  1.00  0.00     0.054 A 
ATOM      8  C   UNL A   1      31.668  23.930  25.615  1.00  0.00     0.015 A 
ATOM      9  C   UNL A   1      31.882  25.204  26.152  1.00  0.00     0.001 A 
ATOM     10  C   UNL A   1      34.157  25.156  25.357  1.00  0.00     0.016 A 
ATOM     11  C   UNL A   1      33.125  25.816  26.024  1.00  0.00     0.001 A 
BRANCH   7  12
ATOM     12  C   UNL A   1      32.499  21.905  24.457  1.00  0.00     0.258 A 
ATOM     13  C   UNL A   1      32.607  19.855  24.078  1.00  0.00     0.206 A 
ATOM     14  N   UNL A   1      32.131  20.352  22.925  1.00  0.00    -0.059 NA
ATOM     15  N   UNL A   1      32.772  20.780  25.074  1.00  0.00    -0.189 NA
ATOM     16  O   UNL A   1      32.077  21.733  23.172  1.00  0.00    -0.334 OA
BRANCH  13  17
ATOM     17  C   UNL A   1      32.911  18.402  24.284  1.00  0.00     0.245 C 
ATOM     18  C   UNL A   1      32.024  15.743  25.733  1.00  0.00     0.332 C 
ATOM     19  N   UNL A   1      33.163  16.589  26.073  1.00  0.00    -0.333 N 
ATOM     20  C   UNL A   1      34.394  16.202  25.359  1.00  0.00     0.290 C 
ATOM     21  C   UNL A   1      32.873  18.017  25.792  1.00  0.00     0.303 C 
ATOM     22  H   UNL A   1      33.319  16.456  27.072  1.00  0.00     0.348 HD
ATOM     23  C   UNL A   1      34.439  16.638  23.885  1.00  0.00     0.222 C 
ATOM     24  O   UNL A   1      34.205  18.043  23.743  1.00  0.00    -0.358 OA
ENDBRANCH  13  17
ENDBRANCH   7  12
ENDBRANCH   4   6
ENDBRANCH   3   4
ENDBRANCH   2   3
ENDBRANCH   1   2
BRANCH   1  25
ATOM     25  O   UNL A   1      38.284  22.222  25.681  1.00  0.00    -0.458 OA
BRANCH  25  26
ATOM     26  C   UNL A   1      39.416  22.034  26.395  1.00  0.00     0.338 C 
ATOM     27  O   UNL A   1      40.067  21.010  26.518  1.00  0.00    -0.246 OA
BRANCH  26  28
ATOM     28  C   UNL A   1      39.847  23.322  26.942  1.00  0.00     0.060 A 
ATOM     29  C   UNL A   1      39.411  24.477  26.300  1.00  0.00     0.016 A 
ATOM     30  C   UNL A   1      40.771  23.391  27.978  1.00  0.00     0.016 A 
ATOM     31  C   UNL A   1      39.965  25.708  26.627  1.00  0.00     0.010 A 
ATOM     32  C   UNL A   1      41.258  24.642  28.370  1.00  0.00     0.010 A 
ATOM     33  C   UNL A   1      40.888  25.811  27.675  1.00  0.00    -0.014 A 
BRANCH  33  34
ATOM     34  C   UNL A   1      41.490  27.128  28.019  1.00  0.00     0.031 A 
ATOM     35  C   UNL A   1      42.971  27.346  27.851  1.00  0.00     0.074 A 
ATOM     36  C   UNL A   1      40.713  28.132  28.475  1.00  0.00     0.049 A 
ATOM     37  N   UNL A   1      43.711  28.344  28.263  1.00  0.00    -0.248 NA
ATOM     38  C   UNL A   1      43.723  26.299  27.139  1.00  0.00     0.031 C 
ATOM     39  C   UNL A   1      39.257  28.076  28.636  1.00  0.00     0.029 A 
ATOM     40  N   UNL A   1      41.038  29.402  28.884  1.00  0.00    -0.354 N 
ATOM     41  C   UNL A   1      45.018  28.017  27.918  1.00  0.00     0.074 A 
ATOM     42  C   UNL A   1      44.972  26.727  27.263  1.00  0.00     0.031 C 
ATOM     43  C   UNL A   1      38.813  29.264  29.071  1.00  0.00     0.029 A 
ATOM     44  C   UNL A   1      39.957  30.135  29.316  1.00  0.00     0.049 A 
ATOM     45  H   UNL A   1      41.957  29.755  28.868  1.00  0.00     0.167 HD
ATOM     46  C   UNL A   1      46.153  28.724  28.137  1.00  0.00     0.031 A 
ATOM     47  C   UNL A   1      39.889  31.349  29.895  1.00  0.00     0.031 A 
ATOM     48  C   UNL A   1      46.183  30.024  28.753  1.00  0.00     0.049 A 
ATOM     49  C   UNL A   1      41.164  32.098  30.161  1.00  0.00     0.074 A 
ATOM     50  C   UNL A   1      47.278  30.833  29.006  1.00  0.00     0.029 A 
ATOM     51  N   UNL A   1      45.067  30.714  29.203  1.00  0.00    -0.354 N 
ATOM     52  N   UNL A   1      42.397  31.751  29.876  1.00  0.00    -0.248 NA
ATOM     53  C   UNL A   1      41.041  33.393  30.842  1.00  0.00     0.031 C 
ATOM     54  C   UNL A   1      46.829  31.990  29.650  1.00  0.00     0.029 A 
ATOM     55  C   UNL A   1      45.448  31.929  29.747  1.00  0.00     0.049 A 
ATOM     56  H   UNL A   1      44.139  30.388  29.144  1.00  0.00     0.167 HD
ATOM     57  C   UNL A   1      43.196  32.791  30.333  1.00  0.00     0.074 A 
ATOM     58  C   UNL A   1      42.306  33.789  30.892  1.00  0.00     0.031 C 
ATOM     59  C   UNL A   1      44.547  32.907  30.300  1.00  0.00     0.031 A 
BRANCH  46  60
ATOM     60  C   UNL A   1      47.464  28.090  27.748  1.00  0.00    -0.014 A 
ATOM     61  C   UNL A   1      48.037  28.293  26.480  1.00  0.00     0.010 A 
ATOM     62  C   UNL A   1      48.160  27.313  28.694  1.00  0.00     0.010 A 
ATOM     63  C   UNL A   1      49.263  27.703  26.155  1.00  0.00     0.020 A 
ATOM     64  C   UNL A   1      49.398  26.745  28.382  1.00  0.00     0.020 A 
ATOM     65  C   UNL A   1      49.935  26.931  27.108  1.00  0.00     0.054 A 
BRANCH  65  66
ATOM     66  S   UNL A   1      51.538  26.202  26.670  1.00  0.00     0.124 S 
ATOM     67  O   UNL A   1      52.423  26.799  27.667  1.00  0.00    -0.237 OA
ATOM     68  O   UNL A   1      51.292  24.770  26.826  1.00  0.00    -0.237 OA
ATOM     69  O   UNL A   1      51.758  26.646  25.296  1.00  0.00    -0.744 OA
ENDBRANCH  65  66
ENDBRANCH  46  60
BRANCH  47  70
ATOM     70  C   UNL A   1      38.571  31.898  30.317  1.00  0.00    -0.014 A 
ATOM     71  C   UNL A   1      38.044  31.610  31.586  1.00  0.00     0.010 A 
ATOM     72  C   UNL A   1      37.843  32.736  29.450  1.00  0.00     0.010 A 
ATOM     73  C   UNL A   1      36.811  32.141  31.979  1.00  0.00     0.020 A 
ATOM     74  C   UNL A   1      36.628  33.295  29.849  1.00  0.00     0.020 A 
ATOM     75  C   UNL A   1      36.113  32.985  31.109  1.00  0.00     0.054 A 
BRANCH  75  76
ATOM     76  S   UNL A   1      34.545  33.712  31.660  1.00  0.00     0.124 S 
ATOM     77  O   UNL A   1      35.000  34.868  32.427  1.00  0.00    -0.237 OA
ATOM     78  O   UNL A   1      33.874  34.014  30.398  1.00  0.00    -0.237 OA
ATOM     79  O   UNL A   1      33.930  32.643  32.442  1.00  0.00    -0.744 OA
ENDBRANCH  75  76
ENDBRANCH  47  70
BRANCH  59  80
ATOM     80  C   UNL A   1      45.139  34.174  30.856  1.00  0.00    -0.014 A 
ATOM     81  C   UNL A   1      45.310  35.311  30.048  1.00  0.00     0.010 A 
ATOM     82  C   UNL A   1      45.490  34.236  32.217  1.00  0.00     0.010 A 
ATOM     83  C   UNL A   1      45.857  36.480  30.585  1.00  0.00     0.020 A 
ATOM     84  C   UNL A   1      46.010  35.410  32.762  1.00  0.00     0.020 A 
ATOM     85  C   UNL A   1      46.205  36.521  31.939  1.00  0.00     0.054 A 
BRANCH  85  86
ATOM     86  S   UNL A   1      46.878  38.061  32.621  1.00  0.00     0.124 S 
ATOM     87  O   UNL A   1      45.750  38.977  32.471  1.00  0.00    -0.237 OA
ATOM     88  O   UNL A   1      47.205  37.688  33.995  1.00  0.00    -0.237 OA
ATOM     89  O   UNL A   1      48.029  38.345  31.767  1.00  0.00    -0.744 OA
ENDBRANCH  85  86
ENDBRANCH  59  80
ENDBRANCH  33  34
ENDBRANCH  26  28
ENDBRANCH  25  26
ENDBRANCH   1  25
TORSDOF 16
ENDMDL
MODEL 3
REMARK VINA RESULT:     -11.0      3.080      8.171
REMARK SMILES C[N@H+]1CCO[C@H](c2noc(-c3ccccc3C(=O)OCCOC(=O)c3ccc(-c4c5nc(c(-c6ccc(S(=O)(=O)[O-])cc6)c6ccc([nH]6)c(-c6ccc(S(=O)(=O)[O-])cc6)c6nc(c(-c7ccc(S(=O)(=O)[O-])cc7)c7ccc4[nH]7)C=C6)C=C5)cc3)n2)C1
REMARK SMILES IDX 21 1 20 2 19 3 17 4 18 5 16 6 11 7 12 8 13 9 15 10 14 11
REMARK SMILES IDX 10 12 7 13 8 14 85 15 9 16 6 17 1 18 2 19 3 20 86 21 4 23
REMARK SMILES IDX 5 24 22 25 23 26 24 27 25 28 26 29 84 30 27 31 83 32 28 33
REMARK SMILES IDX 29 34 30 35 77 36 31 37 82 38 76 39 78 40 32 41 81 42 75 43
REMARK SMILES IDX 74 44 33 46 63 47 44 48 62 49 45 50 48 51 61 52 79 53 46 54
REMARK SMILES IDX 47 55 60 57 80 58 49 59 34 60 35 61 43 62 36 63 42 64 37 65
REMARK SMILES IDX 38 66 39 67 40 68 41 69 64 70 65 71 73 72 66 73 72 74 67 75
REMARK SMILES IDX 68 76 69 77 70 78 71 79 50 80 51 81 59 82 52 83 58 84 53 85
REMARK SMILES IDX 54 86 55 87 56 88 57 89
REMARK H PARENT 2 22 78 45 48 56
REMARK Flexibility Score: inf
ROOT
ATOM      1  C   UNL A   1      38.191  23.132  26.024  1.00  0.00     0.275 C 
ENDROOT
BRANCH   1   2
ATOM      2  C   UNL A   1      36.939  23.250  25.160  1.00  0.00     0.275 C 
BRANCH   2   3
ATOM      3  O   UNL A   1      36.328  21.959  24.962  1.00  0.00    -0.458 OA
BRANCH   3   4
ATOM      4  C   UNL A   1      35.185  21.709  25.654  1.00  0.00     0.339 C 
ATOM      5  O   UNL A   1      34.892  22.138  26.751  1.00  0.00    -0.246 OA
BRANCH   4   6
ATOM      6  C   UNL A   1      34.246  20.899  24.827  1.00  0.00     0.072 A 
ATOM      7  C   UNL A   1      33.386  21.472  23.875  1.00  0.00     0.054 A 
ATOM      8  C   UNL A   1      32.526  20.635  23.143  1.00  0.00     0.015 A 
ATOM      9  C   UNL A   1      32.528  19.253  23.352  1.00  0.00     0.001 A 
ATOM     10  C   UNL A   1      34.268  19.506  25.001  1.00  0.00     0.016 A 
ATOM     11  C   UNL A   1      33.399  18.688  24.280  1.00  0.00     0.001 A 
BRANCH   7  12
ATOM     12  C   UNL A   1      33.449  22.890  23.587  1.00  0.00     0.258 A 
ATOM     13  C   UNL A   1      33.056  24.920  23.295  1.00  0.00     0.206 A 
ATOM     14  N   UNL A   1      34.028  24.667  22.403  1.00  0.00    -0.059 NA
ATOM     15  N   UNL A   1      32.729  23.861  24.098  1.00  0.00    -0.189 NA
ATOM     16  O   UNL A   1      34.279  23.299  22.585  1.00  0.00    -0.334 OA
BRANCH  13  17
ATOM     17  C   UNL A   1      32.393  26.257  23.433  1.00  0.00     0.245 C 
ATOM     18  C   UNL A   1      29.763  27.918  22.904  1.00  0.00     0.332 C 
ATOM     19  N   UNL A   1      31.020  28.010  22.171  1.00  0.00    -0.333 N 
ATOM     20  C   UNL A   1      31.947  29.001  22.751  1.00  0.00     0.290 C 
ATOM     21  C   UNL A   1      31.702  26.693  22.108  1.00  0.00     0.303 C 
ATOM     22  H   UNL A   1      30.772  28.318  21.231  1.00  0.00     0.348 HD
ATOM     23  C   UNL A   1      32.662  28.532  24.028  1.00  0.00     0.222 C 
ATOM     24  O   UNL A   1      33.334  27.284  23.831  1.00  0.00    -0.358 OA
ENDBRANCH  13  17
ENDBRANCH   7  12
ENDBRANCH   4   6
ENDBRANCH   3   4
ENDBRANCH   2   3
ENDBRANCH   1   2
BRANCH   1  25
ATOM     25  O   UNL A   1      38.977  24.326  25.892  1.00  0.00    -0.458 OA
BRANCH  25  26
ATOM     26  C   UNL A   1      40.052  24.386  26.708  1.00  0.00     0.338 C 
ATOM     27  O   UNL A   1      41.063  23.706  26.674  1.00  0.00    -0.246 OA
BRANCH  26  28
ATOM     28  C   UNL A   1      39.885  25.518  27.623  1.00  0.00     0.060 A 
ATOM     29  C   UNL A   1      40.667  26.648  27.406  1.00  0.00     0.016 A 
ATOM     30  C   UNL A   1      39.078  25.419  28.751  1.00  0.00     0.016 A 
ATOM     31  C   UNL A   1      40.722  27.654  28.362  1.00  0.00     0.010 A 
ATOM     32  C   UNL A   1      39.062  26.475  29.667  1.00  0.00     0.010 A 
ATOM     33  C   UNL A   1      39.911  27.588  29.502  1.00  0.00    -0.014 A 
BRANCH  33  34
ATOM     34  C   UNL A   1      39.975  28.660  30.533  1.00  0.00     0.031 A 
ATOM     35  C   UNL A   1      40.987  28.574  31.645  1.00  0.00     0.074 A 
ATOM     36  C   UNL A   1      39.136  29.714  30.470  1.00  0.00     0.049 A 
ATOM     37  N   UNL A   1      41.084  29.298  32.732  1.00  0.00    -0.248 NA
ATOM     38  C   UNL A   1      42.019  27.529  31.530  1.00  0.00     0.031 C 
ATOM     39  C   UNL A   1      38.142  29.950  29.419  1.00  0.00     0.029 A 
ATOM     40  N   UNL A   1      38.985  30.790  31.310  1.00  0.00    -0.354 N 
ATOM     41  C   UNL A   1      42.141  28.758  33.457  1.00  0.00     0.074 A 
ATOM     42  C   UNL A   1      42.656  27.646  32.687  1.00  0.00     0.031 C 
ATOM     43  C   UNL A   1      37.515  31.111  29.655  1.00  0.00     0.029 A 
ATOM     44  C   UNL A   1      37.986  31.653  30.924  1.00  0.00     0.049 A 
ATOM     45  H   UNL A   1      39.539  30.930  32.112  1.00  0.00     0.167 HD
ATOM     46  C   UNL A   1      42.630  29.150  34.657  1.00  0.00     0.031 A 
ATOM     47  C   UNL A   1      37.466  32.732  31.541  1.00  0.00     0.031 A 
ATOM     48  C   UNL A   1      42.137  30.283  35.395  1.00  0.00     0.049 A 
ATOM     49  C   UNL A   1      38.000  33.125  32.889  1.00  0.00     0.074 A 
ATOM     50  C   UNL A   1      42.574  30.775  36.614  1.00  0.00     0.029 A 
ATOM     51  N   UNL A   1      41.104  31.111  34.979  1.00  0.00    -0.354 N 
ATOM     52  N   UNL A   1      38.965  32.572  33.584  1.00  0.00    -0.248 NA
ATOM     53  C   UNL A   1      37.364  34.276  33.543  1.00  0.00     0.031 C 
ATOM     54  C   UNL A   1      41.776  31.871  36.955  1.00  0.00     0.029 A 
ATOM     55  C   UNL A   1      40.878  32.098  35.924  1.00  0.00     0.049 A 
ATOM     56  H   UNL A   1      40.605  31.011  34.136  1.00  0.00     0.167 HD
ATOM     57  C   UNL A   1      39.059  33.315  34.754  1.00  0.00     0.074 A 
ATOM     58  C   UNL A   1      38.070  34.370  34.662  1.00  0.00     0.031 C 
ATOM     59  C   UNL A   1      39.886  33.137  35.814  1.00  0.00     0.031 A 
BRANCH  46  60
ATOM     60  C   UNL A   1      43.729  28.323  35.275  1.00  0.00    -0.014 A 
ATOM     61  C   UNL A   1      43.450  27.217  36.097  1.00  0.00     0.010 A 
ATOM     62  C   UNL A   1      45.071  28.635  34.982  1.00  0.00     0.010 A 
ATOM     63  C   UNL A   1      44.493  26.460  36.642  1.00  0.00     0.020 A 
ATOM     64  C   UNL A   1      46.114  27.865  35.503  1.00  0.00     0.020 A 
ATOM     65  C   UNL A   1      45.819  26.790  36.344  1.00  0.00     0.054 A 
BRANCH  65  66
ATOM     66  S   UNL A   1      47.151  25.774  37.040  1.00  0.00     0.124 S 
ATOM     67  O   UNL A   1      48.107  25.732  35.936  1.00  0.00    -0.237 OA
ATOM     68  O   UNL A   1      47.571  26.550  38.204  1.00  0.00    -0.237 OA
ATOM     69  O   UNL A   1      46.496  24.504  37.346  1.00  0.00    -0.744 OA
ENDBRANCH  65  66
ENDBRANCH  46  60
BRANCH  47  70
ATOM     70  C   UNL A   1      36.338  33.474  30.913  1.00  0.00    -0.014 A 
ATOM     71  C   UNL A   1      35.184  33.786  31.650  1.00  0.00     0.010 A 
ATOM     72  C   UNL A   1      36.425  33.893  29.571  1.00  0.00     0.010 A 
ATOM     73  C   UNL A   1      34.134  34.495  31.055  1.00  0.00     0.020 A 
ATOM     74  C   UNL A   1      35.394  34.628  28.984  1.00  0.00     0.020 A 
ATOM     75  C   UNL A   1      34.248  34.916  29.727  1.00  0.00     0.054 A 
BRANCH  75  76
ATOM     76  S   UNL A   1      32.903  35.886  28.993  1.00  0.00     0.124 S 
ATOM     77  O   UNL A   1      32.311  34.929  28.063  1.00  0.00    -0.237 OA
ATOM     78  O   UNL A   1      32.086  36.227  30.156  1.00  0.00    -0.237 OA
ATOM     79  O   UNL A   1      33.594  37.015  28.376  1.00  0.00    -0.744 OA
ENDBRANCH  75  76
ENDBRANCH  47  70
BRANCH  59  80
ATOM     80  C   UNL A   1      39.776  34.125  36.943  1.00  0.00    -0.014 A 
ATOM     81  C   UNL A   1      40.407  35.379  36.875  1.00  0.00     0.010 A 
ATOM     82  C   UNL A   1      38.995  33.807  38.068  1.00  0.00     0.010 A 
ATOM     83  C   UNL A   1      40.288  36.286  37.932  1.00  0.00     0.020 A 
ATOM     84  C   UNL A   1      38.850  34.721  39.113  1.00  0.00     0.020 A 
ATOM     85  C   UNL A   1      39.511  35.950  39.045  1.00  0.00     0.054 A 
BRANCH  85  86
ATOM     86  S   UNL A   1      39.340  37.157  40.388  1.00  0.00     0.124 S 
ATOM     87  O   UNL A   1      40.732  37.395  40.760  1.00  0.00    -0.237 OA
ATOM     88  O   UNL A   1      38.665  38.274  39.732  1.00  0.00    -0.237 OA
ATOM     89  O   UNL A   1      38.540  36.453  41.387  1.00  0.00    -0.744 OA
ENDBRANCH  85  86
ENDBRANCH  59  80
ENDBRANCH  33  34
ENDBRANCH  26  28
ENDBRANCH  25  26
ENDBRANCH   1  25
TORSDOF 16
ENDMDL
