MODEL 1
REMARK VINA RESULT:      -9.0      0.000      0.000
REMARK SMILES C=CCN(CC(=O)OCCOC(=O)c1ccc(-c2c3nc(c(-c4ccc(S(=O)(=O)[O-])cc4)c4ccc([nH]4)c(-c4ccc(S(=O)(=O)[O-])cc4)c4nc(c(-c5ccc(S(=O)(=O)[O-])cc5)c5ccc2[nH]5)C=C4)C=C3)cc1)C(=O)NCC(C)C
REMARK SMILES IDX 9 1 8 2 6 3 7 4 5 5 4 6 3 7 2 8 1 9 74 10 75 11 76 12 77 14
REMARK SMILES IDX 78 15 79 16 80 17 10 18 11 19 12 20 13 21 14 22 15 23 73 24
REMARK SMILES IDX 16 25 72 26 17 27 18 28 19 29 66 30 20 31 71 32 65 33 67 34
REMARK SMILES IDX 21 35 70 36 64 37 63 38 22 40 52 41 33 42 51 43 34 44 37 45
REMARK SMILES IDX 50 46 68 47 35 48 36 49 49 51 69 52 38 53 23 54 24 55 32 56
REMARK SMILES IDX 25 57 31 58 26 59 27 60 28 61 29 62 30 63 53 64 54 65 62 66
REMARK SMILES IDX 55 67 61 68 56 69 57 70 58 71 59 72 60 73 39 74 40 75 48 76
REMARK SMILES IDX 41 77 47 78 42 79 43 80 44 81 45 82 46 83
REMARK H PARENT 76 13 67 39 37 50
REMARK Flexibility Score: inf
ROOT
ATOM      1  C   UNL A   1      32.880  28.535  25.286  1.00  0.00     0.274 C 
ENDROOT
BRANCH   1   2
ATOM      2  O   UNL A   1      31.576  28.335  25.895  1.00  0.00    -0.461 OA
BRANCH   2   3
ATOM      3  C   UNL A   1      31.190  27.037  26.047  1.00  0.00     0.325 C 
ATOM      4  O   UNL A   1      31.414  26.383  27.065  1.00  0.00    -0.250 OA
BRANCH   3   5
ATOM      5  C   UNL A   1      30.252  26.502  24.943  1.00  0.00     0.244 C 
BRANCH   5   6
ATOM      6  N   UNL A   1      30.730  26.410  23.568  1.00  0.00    -0.310 N 
BRANCH   6   7
ATOM      7  C   UNL A   1      31.265  25.089  23.226  1.00  0.00     0.149 C 
BRANCH   7   8
ATOM      8  C   UNL A   1      32.590  24.898  23.922  1.00  0.00    -0.013 C 
ATOM      9  C   UNL A   1      33.785  25.009  23.325  1.00  0.00     0.006 C 
ENDBRANCH   7   8
ENDBRANCH   6   7
BRANCH   6  10
ATOM     10  C   UNL A   1      30.664  27.312  22.551  1.00  0.00     0.318 C 
ATOM     11  O   UNL A   1      31.093  27.018  21.423  1.00  0.00    -0.249 OA
ATOM     12  N   UNL A   1      30.143  28.542  22.583  1.00  0.00    -0.338 N 
ATOM     13  H   UNL A   1      30.182  28.908  21.670  1.00  0.00     0.165 HD
BRANCH  12  14
ATOM     14  C   UNL A   1      29.535  29.563  23.449  1.00  0.00     0.120 C 
BRANCH  14  15
ATOM     15  C   UNL A   1      28.162  30.005  22.849  1.00  0.00     0.002 C 
ATOM     16  C   UNL A   1      27.652  31.247  23.587  1.00  0.00     0.009 C 
ATOM     17  C   UNL A   1      28.112  30.344  21.357  1.00  0.00     0.009 C 
ENDBRANCH  14  15
ENDBRANCH  12  14
ENDBRANCH   6  10
ENDBRANCH   5   6
ENDBRANCH   3   5
ENDBRANCH   2   3
ENDBRANCH   1   2
BRANCH   1  18
ATOM     18  C   UNL A   1      34.071  28.541  26.281  1.00  0.00     0.275 C 
BRANCH  18  19
ATOM     19  O   UNL A   1      33.768  29.070  27.600  1.00  0.00    -0.458 OA
BRANCH  19  20
ATOM     20  C   UNL A   1      34.450  30.212  27.812  1.00  0.00     0.338 C 
ATOM     21  O   UNL A   1      33.960  31.313  27.644  1.00  0.00    -0.246 OA
BRANCH  20  22
ATOM     22  C   UNL A   1      35.849  30.171  28.249  1.00  0.00     0.060 A 
ATOM     23  C   UNL A   1      36.851  30.186  27.269  1.00  0.00     0.016 A 
ATOM     24  C   UNL A   1      36.113  29.627  29.509  1.00  0.00     0.016 A 
ATOM     25  C   UNL A   1      38.111  29.642  27.544  1.00  0.00     0.010 A 
ATOM     26  C   UNL A   1      37.374  29.089  29.786  1.00  0.00     0.010 A 
ATOM     27  C   UNL A   1      38.386  29.097  28.809  1.00  0.00    -0.014 A 
BRANCH  27  28
ATOM     28  C   UNL A   1      39.789  28.873  29.236  1.00  0.00     0.031 A 
ATOM     29  C   UNL A   1      40.686  29.933  29.808  1.00  0.00     0.074 A 
ATOM     30  C   UNL A   1      40.267  27.644  28.966  1.00  0.00     0.049 A 
ATOM     31  N   UNL A   1      41.951  29.833  30.137  1.00  0.00    -0.248 NA
ATOM     32  C   UNL A   1      40.112  31.265  30.043  1.00  0.00     0.031 C 
ATOM     33  C   UNL A   1      39.478  26.555  28.377  1.00  0.00     0.029 A 
ATOM     34  N   UNL A   1      41.519  27.112  29.104  1.00  0.00    -0.354 N 
ATOM     35  C   UNL A   1      42.333  31.082  30.616  1.00  0.00     0.074 A 
ATOM     36  C   UNL A   1      41.159  31.931  30.523  1.00  0.00     0.031 C 
ATOM     37  C   UNL A   1      40.273  25.503  28.162  1.00  0.00     0.029 A 
ATOM     38  C   UNL A   1      41.623  25.846  28.584  1.00  0.00     0.049 A 
ATOM     39  H   UNL A   1      42.267  27.587  29.532  1.00  0.00     0.167 HD
ATOM     40  C   UNL A   1      43.547  31.469  31.085  1.00  0.00     0.031 A 
ATOM     41  C   UNL A   1      42.689  25.043  28.436  1.00  0.00     0.031 A 
ATOM     42  C   UNL A   1      44.705  30.604  31.153  1.00  0.00     0.049 A 
ATOM     43  C   UNL A   1      44.010  25.495  28.959  1.00  0.00     0.074 A 
ATOM     44  C   UNL A   1      45.954  30.875  31.690  1.00  0.00     0.029 A 
ATOM     45  N   UNL A   1      44.766  29.311  30.652  1.00  0.00    -0.354 N 
ATOM     46  N   UNL A   1      44.325  26.649  29.491  1.00  0.00    -0.248 NA
ATOM     47  C   UNL A   1      45.108  24.526  28.895  1.00  0.00     0.031 C 
ATOM     48  C   UNL A   1      46.782  29.769  31.469  1.00  0.00     0.029 A 
ATOM     49  C   UNL A   1      46.037  28.785  30.840  1.00  0.00     0.049 A 
ATOM     50  H   UNL A   1      44.017  28.835  30.226  1.00  0.00     0.167 HD
ATOM     51  C   UNL A   1      45.660  26.541  29.850  1.00  0.00     0.074 A 
ATOM     52  C   UNL A   1      46.085  25.204  29.482  1.00  0.00     0.031 C 
ATOM     53  C   UNL A   1      46.455  27.464  30.443  1.00  0.00     0.031 A 
BRANCH  40  54
ATOM     54  C   UNL A   1      43.721  32.892  31.565  1.00  0.00    -0.014 A 
ATOM     55  C   UNL A   1      43.530  33.234  32.916  1.00  0.00     0.010 A 
ATOM     56  C   UNL A   1      44.218  33.873  30.683  1.00  0.00     0.010 A 
ATOM     57  C   UNL A   1      43.813  34.529  33.370  1.00  0.00     0.020 A 
ATOM     58  C   UNL A   1      44.520  35.162  31.137  1.00  0.00     0.020 A 
ATOM     59  C   UNL A   1      44.306  35.486  32.477  1.00  0.00     0.054 A 
BRANCH  59  60
ATOM     60  S   UNL A   1      44.719  37.140  33.104  1.00  0.00     0.124 S 
ATOM     61  O   UNL A   1      45.608  36.827  34.219  1.00  0.00    -0.237 OA
ATOM     62  O   UNL A   1      45.358  37.772  31.951  1.00  0.00    -0.237 OA
ATOM     63  O   UNL A   1      43.423  37.703  33.478  1.00  0.00    -0.744 OA
ENDBRANCH  59  60
ENDBRANCH  40  54
BRANCH  41  64
ATOM     64  C   UNL A   1      42.494  23.724  27.789  1.00  0.00    -0.014 A 
ATOM     65  C   UNL A   1      42.681  23.583  26.406  1.00  0.00     0.010 A 
ATOM     66  C   UNL A   1      42.258  22.583  28.579  1.00  0.00     0.010 A 
ATOM     67  C   UNL A   1      42.637  22.318  25.819  1.00  0.00     0.020 A 
ATOM     68  C   UNL A   1      42.236  21.315  27.997  1.00  0.00     0.020 A 
ATOM     69  C   UNL A   1      42.422  21.191  26.619  1.00  0.00     0.054 A 
BRANCH  69  70
ATOM     70  S   UNL A   1      42.474  19.550  25.850  1.00  0.00     0.124 S 
ATOM     71  O   UNL A   1      41.114  19.415  25.336  1.00  0.00    -0.237 OA
ATOM     72  O   UNL A   1      43.521  19.703  24.841  1.00  0.00    -0.237 OA
ATOM     73  O   UNL A   1      42.817  18.665  26.960  1.00  0.00    -0.744 OA
ENDBRANCH  69  70
ENDBRANCH  41  64
BRANCH  53  74
ATOM     74  C   UNL A   1      47.867  27.039  30.734  1.00  0.00    -0.014 A 
ATOM     75  C   UNL A   1      48.173  26.290  31.884  1.00  0.00     0.010 A 
ATOM     76  C   UNL A   1      48.901  27.408  29.855  1.00  0.00     0.010 A 
ATOM     77  C   UNL A   1      49.498  25.955  32.174  1.00  0.00     0.020 A 
ATOM     78  C   UNL A   1      50.223  27.055  30.131  1.00  0.00     0.020 A 
ATOM     79  C   UNL A   1      50.515  26.349  31.299  1.00  0.00     0.054 A 
BRANCH  79  80
ATOM     80  S   UNL A   1      52.228  25.900  31.692  1.00  0.00     0.124 S 
ATOM     81  O   UNL A   1      52.606  26.949  32.635  1.00  0.00    -0.237 OA
ATOM     82  O   UNL A   1      52.090  24.562  32.262  1.00  0.00    -0.237 OA
ATOM     83  O   UNL A   1      52.904  25.953  30.397  1.00  0.00    -0.744 OA
ENDBRANCH  79  80
ENDBRANCH  53  74
ENDBRANCH  27  28
ENDBRANCH  20  22
ENDBRANCH  19  20
ENDBRANCH  18  19
ENDBRANCH   1  18
TORSDOF 20
ENDMDL
MODEL 2
REMARK VINA RESULT:      -8.9      1.114      8.562
REMARK SMILES C=CCN(CC(=O)OCCOC(=O)c1ccc(-c2c3nc(c(-c4ccc(S(=O)(=O)[O-])cc4)c4ccc([nH]4)c(-c4ccc(S(=O)(=O)[O-])cc4)c4nc(c(-c5ccc(S(=O)(=O)[O-])cc5)c5ccc2[nH]5)C=C4)C=C3)cc1)C(=O)NCC(C)C
REMARK SMILES IDX 9 1 8 2 6 3 7 4 5 5 4 6 3 7 2 8 1 9 74 10 75 11 76 12 77 14
REMARK SMILES IDX 78 15 79 16 80 17 10 18 11 19 12 20 13 21 14 22 15 23 73 24
REMARK SMILES IDX 16 25 72 26 17 27 18 28 19 29 66 30 20 31 71 32 65 33 67 34
REMARK SMILES IDX 21 35 70 36 64 37 63 38 22 40 52 41 33 42 51 43 34 44 37 45
REMARK SMILES IDX 50 46 68 47 35 48 36 49 49 51 69 52 38 53 23 54 24 55 32 56
REMARK SMILES IDX 25 57 31 58 26 59 27 60 28 61 29 62 30 63 53 64 54 65 62 66
REMARK SMILES IDX 55 67 61 68 56 69 57 70 58 71 59 72 60 73 39 74 40 75 48 76
REMARK SMILES IDX 41 77 47 78 42 79 43 80 44 81 45 82 46 83
REMARK H PARENT 76 13 67 39 37 50
REMARK Flexibility Score: inf
ROOT
ATOM      1  C   UNL A   1      33.280  27.518  26.850  1.00  0.00     0.274 C 
ENDROOT
BRANCH   1   2
ATOM      2  O   UNL A   1      32.737  26.831  25.691  1.00  0.00    -0.461 OA
BRANCH   2   3
ATOM      3  C   UNL A   1      31.432  26.449  25.792  1.00  0.00     0.325 C 
ATOM      4  O   UNL A   1      30.938  26.011  26.830  1.00  0.00    -0.250 OA
BRANCH   3   5
ATOM      5  C   UNL A   1      30.551  26.810  24.576  1.00  0.00     0.244 C 
BRANCH   5   6
ATOM      6  N   UNL A   1      31.095  27.642  23.508  1.00  0.00    -0.310 N 
BRANCH   6   7
ATOM      7  C   UNL A   1      31.117  26.974  22.204  1.00  0.00     0.149 C 
BRANCH   7   8
ATOM      8  C   UNL A   1      32.131  25.858  22.238  1.00  0.00    -0.013 C 
ATOM      9  C   UNL A   1      33.459  26.037  22.249  1.00  0.00     0.006 C 
ENDBRANCH   7   8
ENDBRANCH   6   7
BRANCH   6  10
ATOM     10  C   UNL A   1      31.483  28.946  23.521  1.00  0.00     0.318 C 
ATOM     11  O   UNL A   1      32.689  29.242  23.575  1.00  0.00    -0.249 OA
ATOM     12  N   UNL A   1      30.705  30.031  23.451  1.00  0.00    -0.338 N 
ATOM     13  H   UNL A   1      31.293  30.819  23.408  1.00  0.00     0.165 HD
BRANCH  12  14
ATOM     14  C   UNL A   1      29.315  30.507  23.415  1.00  0.00     0.120 C 
BRANCH  14  15
ATOM     15  C   UNL A   1      28.532  29.745  22.298  1.00  0.00     0.002 C 
ATOM     16  C   UNL A   1      27.383  28.949  22.925  1.00  0.00     0.009 C 
ATOM     17  C   UNL A   1      27.912  30.574  21.170  1.00  0.00     0.009 C 
ENDBRANCH  14  15
ENDBRANCH  12  14
ENDBRANCH   6  10
ENDBRANCH   5   6
ENDBRANCH   3   5
ENDBRANCH   2   3
ENDBRANCH   1   2
BRANCH   1  18
ATOM     18  C   UNL A   1      32.735  28.954  27.071  1.00  0.00     0.275 C 
BRANCH  18  19
ATOM     19  O   UNL A   1      33.623  30.023  26.645  1.00  0.00    -0.458 OA
BRANCH  19  20
ATOM     20  C   UNL A   1      34.379  30.441  27.678  1.00  0.00     0.338 C 
ATOM     21  O   UNL A   1      34.035  31.338  28.425  1.00  0.00    -0.246 OA
BRANCH  20  22
ATOM     22  C   UNL A   1      35.684  29.827  27.940  1.00  0.00     0.060 A 
ATOM     23  C   UNL A   1      36.000  29.476  29.260  1.00  0.00     0.016 A 
ATOM     24  C   UNL A   1      36.707  30.074  27.021  1.00  0.00     0.016 A 
ATOM     25  C   UNL A   1      37.337  29.389  29.664  1.00  0.00     0.010 A 
ATOM     26  C   UNL A   1      38.043  29.981  27.423  1.00  0.00     0.010 A 
ATOM     27  C   UNL A   1      38.371  29.632  28.745  1.00  0.00    -0.014 A 
BRANCH  27  28
ATOM     28  C   UNL A   1      39.753  29.180  29.041  1.00  0.00     0.031 A 
ATOM     29  C   UNL A   1      40.296  27.820  28.708  1.00  0.00     0.074 A 
ATOM     30  C   UNL A   1      40.488  30.055  29.753  1.00  0.00     0.049 A 
ATOM     31  N   UNL A   1      41.473  27.324  29.001  1.00  0.00    -0.248 NA
ATOM     32  C   UNL A   1      39.429  26.899  27.961  1.00  0.00     0.031 C 
ATOM     33  C   UNL A   1      40.031  31.392  30.155  1.00  0.00     0.029 A 
ATOM     34  N   UNL A   1      41.736  29.951  30.301  1.00  0.00    -0.354 N 
ATOM     35  C   UNL A   1      41.496  26.034  28.481  1.00  0.00     0.074 A 
ATOM     36  C   UNL A   1      40.202  25.820  27.861  1.00  0.00     0.031 C 
ATOM     37  C   UNL A   1      40.965  31.963  30.921  1.00  0.00     0.029 A 
ATOM     38  C   UNL A   1      42.074  31.033  31.074  1.00  0.00     0.049 A 
ATOM     39  H   UNL A   1      42.330  29.179  30.155  1.00  0.00     0.167 HD
ATOM     40  C   UNL A   1      42.505  25.126  28.525  1.00  0.00     0.031 A 
ATOM     41  C   UNL A   1      43.148  31.258  31.848  1.00  0.00     0.031 A 
ATOM     42  C   UNL A   1      43.782  25.361  29.164  1.00  0.00     0.049 A 
ATOM     43  C   UNL A   1      44.240  30.243  31.877  1.00  0.00     0.074 A 
ATOM     44  C   UNL A   1      44.898  24.540  29.189  1.00  0.00     0.029 A 
ATOM     45  N   UNL A   1      44.107  26.488  29.908  1.00  0.00    -0.354 N 
ATOM     46  N   UNL A   1      44.276  29.067  31.302  1.00  0.00    -0.248 NA
ATOM     47  C   UNL A   1      45.448  30.599  32.628  1.00  0.00     0.031 C 
ATOM     48  C   UNL A   1      45.877  25.144  29.987  1.00  0.00     0.029 A 
ATOM     49  C   UNL A   1      45.393  26.367  30.419  1.00  0.00     0.049 A 
ATOM     50  H   UNL A   1      43.513  27.259  30.052  1.00  0.00     0.167 HD
ATOM     51  C   UNL A   1      45.525  28.545  31.601  1.00  0.00     0.074 A 
ATOM     52  C   UNL A   1      46.214  29.541  32.400  1.00  0.00     0.031 C 
ATOM     53  C   UNL A   1      46.056  27.352  31.236  1.00  0.00     0.031 A 
BRANCH  40  54
ATOM     54  C   UNL A   1      42.299  23.777  27.874  1.00  0.00    -0.014 A 
ATOM     55  C   UNL A   1      42.679  23.545  26.541  1.00  0.00     0.010 A 
ATOM     56  C   UNL A   1      41.848  22.688  28.649  1.00  0.00     0.010 A 
ATOM     57  C   UNL A   1      42.595  22.259  25.989  1.00  0.00     0.020 A 
ATOM     58  C   UNL A   1      41.780  21.399  28.107  1.00  0.00     0.020 A 
ATOM     59  C   UNL A   1      42.146  21.194  26.776  1.00  0.00     0.054 A 
BRANCH  59  60
ATOM     60  S   UNL A   1      42.101  19.528  26.054  1.00  0.00     0.124 S 
ATOM     61  O   UNL A   1      42.996  19.671  24.909  1.00  0.00    -0.237 OA
ATOM     62  O   UNL A   1      42.603  18.691  27.141  1.00  0.00    -0.237 OA
ATOM     63  O   UNL A   1      40.691  19.331  25.722  1.00  0.00    -0.744 OA
ENDBRANCH  59  60
ENDBRANCH  40  54
BRANCH  41  64
ATOM     64  C   UNL A   1      43.215  32.526  32.611  1.00  0.00    -0.014 A 
ATOM     65  C   UNL A   1      43.731  33.684  32.010  1.00  0.00     0.010 A 
ATOM     66  C   UNL A   1      42.635  32.605  33.892  1.00  0.00     0.010 A 
ATOM     67  C   UNL A   1      43.665  34.908  32.677  1.00  0.00     0.020 A 
ATOM     68  C   UNL A   1      42.549  33.833  34.551  1.00  0.00     0.020 A 
ATOM     69  C   UNL A   1      43.068  34.976  33.940  1.00  0.00     0.054 A 
BRANCH  69  70
ATOM     70  S   UNL A   1      42.899  36.594  34.742  1.00  0.00     0.124 S 
ATOM     71  O   UNL A   1      44.043  36.600  35.649  1.00  0.00    -0.237 OA
ATOM     72  O   UNL A   1      42.981  37.519  33.613  1.00  0.00    -0.237 OA
ATOM     73  O   UNL A   1      41.589  36.521  35.382  1.00  0.00    -0.744 OA
ENDBRANCH  69  70
ENDBRANCH  41  64
BRANCH  53  74
ATOM     74  C   UNL A   1      47.459  27.078  31.697  1.00  0.00    -0.014 A 
ATOM     75  C   UNL A   1      47.703  26.426  32.920  1.00  0.00     0.010 A 
ATOM     76  C   UNL A   1      48.546  27.491  30.907  1.00  0.00     0.010 A 
ATOM     77  C   UNL A   1      49.012  26.233  33.366  1.00  0.00     0.020 A 
ATOM     78  C   UNL A   1      49.856  27.278  31.339  1.00  0.00     0.020 A 
ATOM     79  C   UNL A   1      50.080  26.670  32.576  1.00  0.00     0.054 A 
BRANCH  79  80
ATOM     80  S   UNL A   1      51.773  26.405  33.171  1.00  0.00     0.124 S 
ATOM     81  O   UNL A   1      52.089  25.095  32.609  1.00  0.00    -0.237 OA
ATOM     82  O   UNL A   1      52.501  27.531  32.590  1.00  0.00    -0.237 OA
ATOM     83  O   UNL A   1      51.637  26.443  34.626  1.00  0.00    -0.744 OA
ENDBRANCH  79  80
ENDBRANCH  53  74
ENDBRANCH  27  28
ENDBRANCH  20  22
ENDBRANCH  19  20
ENDBRANCH  18  19
ENDBRANCH   1  18
TORSDOF 20
ENDMDL
MODEL 3
REMARK VINA RESULT:      -8.6      2.960      8.658
REMARK SMILES C=CCN(CC(=O)OCCOC(=O)c1ccc(-c2c3nc(c(-c4ccc(S(=O)(=O)[O-])cc4)c4ccc([nH]4)c(-c4ccc(S(=O)(=O)[O-])cc4)c4nc(c(-c5ccc(S(=O)(=O)[O-])cc5)c5ccc2[nH]5)C=C4)C=C3)cc1)C(=O)NCC(C)C
REMARK SMILES IDX 9 1 8 2 6 3 7 4 5 5 4 6 3 7 2 8 1 9 74 10 75 11 76 12 77 14
REMARK SMILES IDX 78 15 79 16 80 17 10 18 11 19 12 20 13 21 14 22 15 23 73 24
REMARK SMILES IDX 16 25 72 26 17 27 18 28 19 29 66 30 20 31 71 32 65 33 67 34
REMARK SMILES IDX 21 35 70 36 64 37 63 38 22 40 52 41 33 42 51 43 34 44 37 45
REMARK SMILES IDX 50 46 68 47 35 48 36 49 49 51 69 52 38 53 23 54 24 55 32 56
REMARK SMILES IDX 25 57 31 58 26 59 27 60 28 61 29 62 30 63 53 64 54 65 62 66
REMARK SMILES IDX 55 67 61 68 56 69 57 70 58 71 59 72 60 73 39 74 40 75 48 76
REMARK SMILES IDX 41 77 47 78 42 79 43 80 44 81 45 82 46 83
REMARK H PARENT 76 13 67 39 37 50
REMARK Flexibility Score: inf
ROOT
ATOM      1  C   UNL A   1      33.261  27.938  26.635  1.00  0.00     0.274 C 
ENDROOT
BRANCH   1   2
ATOM      2  O   UNL A   1      32.655  27.183  25.552  1.00  0.00    -0.461 OA
BRANCH   2   3
ATOM      3  C   UNL A   1      31.338  26.875  25.714  1.00  0.00     0.325 C 
ATOM      4  O   UNL A   1      30.828  26.661  26.813  1.00  0.00    -0.250 OA
BRANCH   3   5
ATOM      5  C   UNL A   1      30.470  27.029  24.446  1.00  0.00     0.244 C 
BRANCH   5   6
ATOM      6  N   UNL A   1      31.059  27.575  23.227  1.00  0.00    -0.310 N 
BRANCH   6   7
ATOM      7  C   UNL A   1      31.145  26.600  22.137  1.00  0.00     0.149 C 
BRANCH   7   8
ATOM      8  C   UNL A   1      32.252  25.620  22.437  1.00  0.00    -0.013 C 
ATOM      9  C   UNL A   1      33.556  25.930  22.465  1.00  0.00     0.006 C 
ENDBRANCH   7   8
ENDBRANCH   6   7
BRANCH   6  10
ATOM     10  C   UNL A   1      31.437  28.847  22.927  1.00  0.00     0.318 C 
ATOM     11  O   UNL A   1      32.599  29.225  23.153  1.00  0.00    -0.249 OA
ATOM     12  N   UNL A   1      30.700  29.806  22.360  1.00  0.00    -0.338 N 
ATOM     13  H   UNL A   1      31.285  30.584  22.209  1.00  0.00     0.165 HD
BRANCH  12  14
ATOM     14  C   UNL A   1      29.358  30.155  21.873  1.00  0.00     0.120 C 
BRANCH  14  15
ATOM     15  C   UNL A   1      28.854  31.438  22.609  1.00  0.00     0.002 C 
ATOM     16  C   UNL A   1      28.353  32.459  21.582  1.00  0.00     0.009 C 
ATOM     17  C   UNL A   1      27.729  31.277  23.635  1.00  0.00     0.009 C 
ENDBRANCH  14  15
ENDBRANCH  12  14
ENDBRANCH   6  10
ENDBRANCH   5   6
ENDBRANCH   3   5
ENDBRANCH   2   3
ENDBRANCH   1   2
BRANCH   1  18
ATOM     18  C   UNL A   1      32.679  29.361  26.844  1.00  0.00     0.275 C 
BRANCH  18  19
ATOM     19  O   UNL A   1      33.579  30.450  26.501  1.00  0.00    -0.458 OA
BRANCH  19  20
ATOM     20  C   UNL A   1      34.176  30.928  27.610  1.00  0.00     0.338 C 
ATOM     21  O   UNL A   1      33.687  31.805  28.296  1.00  0.00    -0.246 OA
BRANCH  20  22
ATOM     22  C   UNL A   1      35.478  30.405  28.035  1.00  0.00     0.060 A 
ATOM     23  C   UNL A   1      35.523  29.570  29.161  1.00  0.00     0.016 A 
ATOM     24  C   UNL A   1      36.615  31.122  27.653  1.00  0.00     0.016 A 
ATOM     25  C   UNL A   1      36.699  29.467  29.912  1.00  0.00     0.010 A 
ATOM     26  C   UNL A   1      37.792  31.014  28.401  1.00  0.00     0.010 A 
ATOM     27  C   UNL A   1      37.847  30.181  29.533  1.00  0.00    -0.014 A 
BRANCH  27  28
ATOM     28  C   UNL A   1      39.176  29.799  30.071  1.00  0.00     0.031 A 
ATOM     29  C   UNL A   1      40.016  28.670  29.548  1.00  0.00     0.074 A 
ATOM     30  C   UNL A   1      39.550  30.478  31.173  1.00  0.00     0.049 A 
ATOM     31  N   UNL A   1      41.158  28.226  30.014  1.00  0.00    -0.248 NA
ATOM     32  C   UNL A   1      39.532  27.946  28.365  1.00  0.00     0.031 C 
ATOM     33  C   UNL A   1      38.779  31.571  31.778  1.00  0.00     0.029 A 
ATOM     34  N   UNL A   1      40.628  30.332  32.000  1.00  0.00    -0.354 N 
ATOM     35  C   UNL A   1      41.535  27.170  29.191  1.00  0.00     0.074 A 
ATOM     36  C   UNL A   1      40.486  27.033  28.196  1.00  0.00     0.031 C 
ATOM     37  C   UNL A   1      39.385  31.965  32.902  1.00  0.00     0.029 A 
ATOM     38  C   UNL A   1      40.572  31.148  33.102  1.00  0.00     0.049 A 
ATOM     39  H   UNL A   1      41.368  29.707  31.823  1.00  0.00     0.167 HD
ATOM     40  C   UNL A   1      42.649  26.399  29.268  1.00  0.00     0.031 A 
ATOM     41  C   UNL A   1      41.372  31.227  34.177  1.00  0.00     0.031 A 
ATOM     42  C   UNL A   1      43.673  26.548  30.280  1.00  0.00     0.049 A 
ATOM     43  C   UNL A   1      42.588  30.366  34.236  1.00  0.00     0.074 A 
ATOM     44  C   UNL A   1      44.879  25.874  30.393  1.00  0.00     0.029 A 
ATOM     45  N   UNL A   1      43.604  27.414  31.363  1.00  0.00    -0.354 N 
ATOM     46  N   UNL A   1      42.970  29.436  33.397  1.00  0.00    -0.248 NA
ATOM     47  C   UNL A   1      43.497  30.589  35.364  1.00  0.00     0.031 C 
ATOM     48  C   UNL A   1      45.513  26.295  31.568  1.00  0.00     0.029 A 
ATOM     49  C   UNL A   1      44.729  27.269  32.163  1.00  0.00     0.049 A 
ATOM     50  H   UNL A   1      42.865  28.040  31.538  1.00  0.00     0.167 HD
ATOM     51  C   UNL A   1      44.184  28.973  33.882  1.00  0.00     0.074 A 
ATOM     52  C   UNL A   1      44.472  29.735  35.082  1.00  0.00     0.031 C 
ATOM     53  C   UNL A   1      44.990  28.012  33.370  1.00  0.00     0.031 A 
BRANCH  40  54
ATOM     54  C   UNL A   1      42.849  25.305  28.243  1.00  0.00    -0.014 A 
ATOM     55  C   UNL A   1      43.501  25.558  27.024  1.00  0.00     0.010 A 
ATOM     56  C   UNL A   1      42.505  23.975  28.563  1.00  0.00     0.010 A 
ATOM     57  C   UNL A   1      43.787  24.511  26.137  1.00  0.00     0.020 A 
ATOM     58  C   UNL A   1      42.807  22.924  27.689  1.00  0.00     0.020 A 
ATOM     59  C   UNL A   1      43.438  23.200  26.475  1.00  0.00     0.054 A 
BRANCH  59  60
ATOM     60  S   UNL A   1      43.872  21.854  25.335  1.00  0.00     0.124 S 
ATOM     61  O   UNL A   1      42.831  20.871  25.620  1.00  0.00    -0.237 OA
ATOM     62  O   UNL A   1      43.783  22.499  24.026  1.00  0.00    -0.237 OA
ATOM     63  O   UNL A   1      45.221  21.472  25.745  1.00  0.00    -0.744 OA
ENDBRANCH  59  60
ENDBRANCH  40  54
BRANCH  41  64
ATOM     64  C   UNL A   1      41.027  32.195  35.245  1.00  0.00    -0.014 A 
ATOM     65  C   UNL A   1      40.204  31.804  36.312  1.00  0.00     0.010 A 
ATOM     66  C   UNL A   1      41.634  33.465  35.263  1.00  0.00     0.010 A 
ATOM     67  C   UNL A   1      39.994  32.668  37.387  1.00  0.00     0.020 A 
ATOM     68  C   UNL A   1      41.442  34.322  36.348  1.00  0.00     0.020 A 
ATOM     69  C   UNL A   1      40.620  33.918  37.402  1.00  0.00     0.054 A 
BRANCH  69  70
ATOM     70  S   UNL A   1      40.417  34.981  38.857  1.00  0.00     0.124 S 
ATOM     71  O   UNL A   1      40.989  36.241  38.392  1.00  0.00    -0.237 OA
ATOM     72  O   UNL A   1      38.968  34.979  39.054  1.00  0.00    -0.237 OA
ATOM     73  O   UNL A   1      41.178  34.289  39.893  1.00  0.00    -0.744 OA
ENDBRANCH  69  70
ENDBRANCH  41  64
BRANCH  53  74
ATOM     74  C   UNL A   1      46.268  27.747  34.115  1.00  0.00    -0.014 A 
ATOM     75  C   UNL A   1      47.443  28.456  33.808  1.00  0.00     0.010 A 
ATOM     76  C   UNL A   1      46.297  26.767  35.122  1.00  0.00     0.010 A 
ATOM     77  C   UNL A   1      48.638  28.156  34.466  1.00  0.00     0.020 A 
ATOM     78  C   UNL A   1      47.485  26.481  35.798  1.00  0.00     0.020 A 
ATOM     79  C   UNL A   1      48.652  27.163  35.450  1.00  0.00     0.054 A 
BRANCH  79  80
ATOM     80  S   UNL A   1      50.213  26.792  36.296  1.00  0.00     0.124 S 
ATOM     81  O   UNL A   1      50.282  27.863  37.286  1.00  0.00    -0.237 OA
ATOM     82  O   UNL A   1      49.981  25.453  36.833  1.00  0.00    -0.237 OA
ATOM     83  O   UNL A   1      51.209  26.864  35.229  1.00  0.00    -0.744 OA
ENDBRANCH  79  80
ENDBRANCH  53  74
ENDBRANCH  27  28
ENDBRANCH  20  22
ENDBRANCH  19  20
ENDBRANCH  18  19
ENDBRANCH   1  18
TORSDOF 20
ENDMDL
