MODEL 1
REMARK VINA RESULT:      -9.8      0.000      0.000
REMARK SMILES C/C=C/C[C@@H](C(=O)OCCOC(=O)c1ccc(-c2c3nc(c(-c4ccc(S(=O)(=O)[O-])cc4)c4ccc([nH]4)c(-c4ccc(S(=O)(=O)[O-])cc4)c4nc(c(-c5ccc(S(=O)(=O)[O-])cc5)c5ccc2[nH]5)C=C4)C=C3)cc1)c1cccc(Cl)c1
REMARK SMILES IDX 10 1 9 2 8 3 6 4 7 5 5 6 4 7 3 8 1 9 2 10 74 11 75 12 80 13
REMARK SMILES IDX 76 14 78 15 77 16 79 17 11 18 12 19 13 20 14 21 15 22 73 23
REMARK SMILES IDX 16 24 72 25 17 26 18 27 19 28 66 29 20 30 71 31 65 32 67 33
REMARK SMILES IDX 21 34 70 35 64 36 63 37 22 39 52 40 33 41 51 42 34 43 37 44
REMARK SMILES IDX 50 45 68 46 35 47 36 48 49 50 69 51 38 52 23 53 24 54 32 55
REMARK SMILES IDX 25 56 31 57 26 58 27 59 28 60 29 61 30 62 53 63 54 64 62 65
REMARK SMILES IDX 55 66 61 67 56 68 57 69 58 70 59 71 60 72 39 73 40 74 48 75
REMARK SMILES IDX 41 76 47 77 42 78 43 79 44 80 45 81 46 82
REMARK H PARENT 67 38 37 49
REMARK Flexibility Score: inf
ROOT
ATOM      1  C   UNL A   1      32.311  28.685  26.838  1.00  0.00     0.275 C 
ENDROOT
BRANCH   1   2
ATOM      2  C   UNL A   1      31.757  27.256  26.771  1.00  0.00     0.274 C 
BRANCH   2   3
ATOM      3  O   UNL A   1      32.726  26.301  26.289  1.00  0.00    -0.462 OA
BRANCH   3   4
ATOM      4  C   UNL A   1      32.410  24.986  26.451  1.00  0.00     0.313 C 
ATOM      5  O   UNL A   1      31.338  24.647  26.939  1.00  0.00    -0.252 OA
BRANCH   4   6
ATOM      6  C   UNL A   1      33.570  24.024  26.049  1.00  0.00     0.133 C 
BRANCH   6   7
ATOM      7  C   UNL A   1      34.747  24.800  25.372  1.00  0.00     0.047 C 
BRANCH   7   8
ATOM      8  C   UNL A   1      36.053  24.076  25.153  1.00  0.00    -0.030 C 
ATOM      9  C   UNL A   1      38.119  22.890  25.904  1.00  0.00     0.035 C 
ATOM     10  C   UNL A   1      36.868  23.672  26.139  1.00  0.00    -0.035 C 
ENDBRANCH   7   8
ENDBRANCH   6   7
BRANCH   6  11
ATOM     11  C   UNL A   1      33.082  22.810  25.192  1.00  0.00    -0.032 A 
ATOM     12  C   UNL A   1      32.584  22.987  23.884  1.00  0.00     0.005 A 
ATOM     13  C   UNL A   1      33.077  21.484  25.674  1.00  0.00     0.025 A 
ATOM     14  C   UNL A   1      32.241  21.905  23.062  1.00  0.00     0.002 A 
ATOM     15  C   UNL A   1      32.702  20.405  24.862  1.00  0.00     0.041 A 
ATOM     16  C   UNL A   1      32.312  20.606  23.546  1.00  0.00     0.020 A 
ATOM     17  Cl  UNL A   1      32.745  18.807  25.502  1.00  0.00    -0.084 Cl
ENDBRANCH   6  11
ENDBRANCH   4   6
ENDBRANCH   3   4
ENDBRANCH   2   3
ENDBRANCH   1   2
BRANCH   1  18
ATOM     18  O   UNL A   1      33.738  28.709  27.038  1.00  0.00    -0.458 OA
BRANCH  18  19
ATOM     19  C   UNL A   1      34.214  29.861  27.568  1.00  0.00     0.338 C 
ATOM     20  O   UNL A   1      33.563  30.877  27.782  1.00  0.00    -0.246 OA
BRANCH  19  21
ATOM     21  C   UNL A   1      35.608  29.701  28.033  1.00  0.00     0.060 A 
ATOM     22  C   UNL A   1      36.613  29.826  27.069  1.00  0.00     0.016 A 
ATOM     23  C   UNL A   1      35.944  29.386  29.352  1.00  0.00     0.016 A 
ATOM     24  C   UNL A   1      37.950  29.653  27.411  1.00  0.00     0.010 A 
ATOM     25  C   UNL A   1      37.290  29.176  29.691  1.00  0.00     0.010 A 
ATOM     26  C   UNL A   1      38.296  29.298  28.717  1.00  0.00    -0.014 A 
BRANCH  26  27
ATOM     27  C   UNL A   1      39.703  28.912  28.973  1.00  0.00     0.031 A 
ATOM     28  C   UNL A   1      40.590  29.877  29.710  1.00  0.00     0.074 A 
ATOM     29  C   UNL A   1      40.149  27.680  28.669  1.00  0.00     0.049 A 
ATOM     30  N   UNL A   1      41.814  29.714  30.141  1.00  0.00    -0.248 NA
ATOM     31  C   UNL A   1      40.011  31.196  30.016  1.00  0.00     0.031 C 
ATOM     32  C   UNL A   1      39.362  26.629  28.026  1.00  0.00     0.029 A 
ATOM     33  N   UNL A   1      41.374  27.098  28.884  1.00  0.00    -0.354 N 
ATOM     34  C   UNL A   1      42.147  30.902  30.782  1.00  0.00     0.074 A 
ATOM     35  C   UNL A   1      41.007  31.784  30.662  1.00  0.00     0.031 C 
ATOM     36  C   UNL A   1      40.124  25.528  27.902  1.00  0.00     0.029 A 
ATOM     37  C   UNL A   1      41.458  25.802  28.435  1.00  0.00     0.049 A 
ATOM     38  H   UNL A   1      42.122  27.567  29.321  1.00  0.00     0.167 HD
ATOM     39  C   UNL A   1      43.300  31.230  31.412  1.00  0.00     0.031 A 
ATOM     40  C   UNL A   1      42.496  24.941  28.447  1.00  0.00     0.031 A 
ATOM     41  C   UNL A   1      44.453  30.373  31.488  1.00  0.00     0.049 A 
ATOM     42  C   UNL A   1      43.804  25.369  29.069  1.00  0.00     0.074 A 
ATOM     43  C   UNL A   1      45.683  30.633  32.066  1.00  0.00     0.029 A 
ATOM     44  N   UNL A   1      44.522  29.093  30.959  1.00  0.00    -0.354 N 
ATOM     45  N   UNL A   1      44.104  26.496  29.671  1.00  0.00    -0.248 NA
ATOM     46  C   UNL A   1      44.907  24.399  29.022  1.00  0.00     0.031 C 
ATOM     47  C   UNL A   1      46.516  29.533  31.837  1.00  0.00     0.029 A 
ATOM     48  C   UNL A   1      45.781  28.559  31.178  1.00  0.00     0.049 A 
ATOM     49  H   UNL A   1      43.786  28.631  30.496  1.00  0.00     0.167 HD
ATOM     50  C   UNL A   1      45.419  26.353  30.108  1.00  0.00     0.074 A 
ATOM     51  C   UNL A   1      45.850  25.029  29.710  1.00  0.00     0.031 C 
ATOM     52  C   UNL A   1      46.198  27.236  30.781  1.00  0.00     0.031 A 
BRANCH  39  53
ATOM     53  C   UNL A   1      43.383  32.605  32.016  1.00  0.00    -0.014 A 
ATOM     54  C   UNL A   1      43.057  32.832  33.364  1.00  0.00     0.010 A 
ATOM     55  C   UNL A   1      43.810  33.685  31.222  1.00  0.00     0.010 A 
ATOM     56  C   UNL A   1      43.120  34.122  33.899  1.00  0.00     0.020 A 
ATOM     57  C   UNL A   1      43.899  34.971  31.759  1.00  0.00     0.020 A 
ATOM     58  C   UNL A   1      43.536  35.184  33.090  1.00  0.00     0.054 A 
BRANCH  58  59
ATOM     59  S   UNL A   1      43.618  36.848  33.809  1.00  0.00     0.124 S 
ATOM     60  O   UNL A   1      42.342  36.935  34.515  1.00  0.00    -0.237 OA
ATOM     61  O   UNL A   1      44.803  36.771  34.661  1.00  0.00    -0.237 OA
ATOM     62  O   UNL A   1      43.746  37.723  32.646  1.00  0.00    -0.744 OA
ENDBRANCH  58  59
ENDBRANCH  39  53
BRANCH  40  63
ATOM     63  C   UNL A   1      42.360  23.591  27.831  1.00  0.00    -0.014 A 
ATOM     64  C   UNL A   1      41.893  22.495  28.579  1.00  0.00     0.010 A 
ATOM     65  C   UNL A   1      42.738  23.388  26.490  1.00  0.00     0.010 A 
ATOM     66  C   UNL A   1      41.839  21.219  28.009  1.00  0.00     0.020 A 
ATOM     67  C   UNL A   1      42.656  22.121  25.908  1.00  0.00     0.020 A 
ATOM     68  C   UNL A   1      42.222  21.040  26.677  1.00  0.00     0.054 A 
BRANCH  68  69
ATOM     69  S   UNL A   1      42.119  19.381  25.947  1.00  0.00     0.124 S 
ATOM     70  O   UNL A   1      40.683  19.229  25.740  1.00  0.00    -0.237 OA
ATOM     71  O   UNL A   1      42.924  19.519  24.736  1.00  0.00    -0.237 OA
ATOM     72  O   UNL A   1      42.698  18.520  26.976  1.00  0.00    -0.744 OA
ENDBRANCH  68  69
ENDBRANCH  40  63
BRANCH  52  73
ATOM     73  C   UNL A   1      47.578  26.782  31.186  1.00  0.00    -0.014 A 
ATOM     74  C   UNL A   1      47.821  26.168  32.427  1.00  0.00     0.010 A 
ATOM     75  C   UNL A   1      48.647  26.947  30.286  1.00  0.00     0.010 A 
ATOM     76  C   UNL A   1      49.115  25.772  32.779  1.00  0.00     0.020 A 
ATOM     77  C   UNL A   1      49.936  26.525  30.620  1.00  0.00     0.020 A 
ATOM     78  C   UNL A   1      50.166  25.960  31.876  1.00  0.00     0.054 A 
BRANCH  78  79
ATOM     79  S   UNL A   1      51.835  25.426  32.348  1.00  0.00     0.124 S 
ATOM     80  O   UNL A   1      51.741  23.976  32.208  1.00  0.00    -0.237 OA
ATOM     81  O   UNL A   1      52.678  26.099  31.362  1.00  0.00    -0.237 OA
ATOM     82  O   UNL A   1      51.981  25.912  33.718  1.00  0.00    -0.744 OA
ENDBRANCH  78  79
ENDBRANCH  52  73
ENDBRANCH  26  27
ENDBRANCH  19  21
ENDBRANCH  18  19
ENDBRANCH   1  18
TORSDOF 17
ENDMDL
MODEL 2
REMARK VINA RESULT:      -9.6      3.712      5.773
REMARK SMILES C/C=C/C[C@@H](C(=O)OCCOC(=O)c1ccc(-c2c3nc(c(-c4ccc(S(=O)(=O)[O-])cc4)c4ccc([nH]4)c(-c4ccc(S(=O)(=O)[O-])cc4)c4nc(c(-c5ccc(S(=O)(=O)[O-])cc5)c5ccc2[nH]5)C=C4)C=C3)cc1)c1cccc(Cl)c1
REMARK SMILES IDX 10 1 9 2 8 3 6 4 7 5 5 6 4 7 3 8 1 9 2 10 74 11 75 12 80 13
REMARK SMILES IDX 76 14 78 15 77 16 79 17 11 18 12 19 13 20 14 21 15 22 73 23
REMARK SMILES IDX 16 24 72 25 17 26 18 27 19 28 66 29 20 30 71 31 65 32 67 33
REMARK SMILES IDX 21 34 70 35 64 36 63 37 22 39 52 40 33 41 51 42 34 43 37 44
REMARK SMILES IDX 50 45 68 46 35 47 36 48 49 50 69 51 38 52 23 53 24 54 32 55
REMARK SMILES IDX 25 56 31 57 26 58 27 59 28 60 29 61 30 62 53 63 54 64 62 65
REMARK SMILES IDX 55 66 61 67 56 68 57 69 58 70 59 71 60 72 39 73 40 74 48 75
REMARK SMILES IDX 41 76 47 77 42 78 43 79 44 80 45 81 46 82
REMARK H PARENT 67 38 37 49
REMARK Flexibility Score: inf
ROOT
ATOM      1  C   UNL A   1      33.611  32.233  27.745  1.00  0.00     0.275 C 
ENDROOT
BRANCH   1   2
ATOM      2  C   UNL A   1      34.871  33.082  27.955  1.00  0.00     0.274 C 
BRANCH   2   3
ATOM      3  O   UNL A   1      34.676  34.147  28.909  1.00  0.00    -0.462 OA
BRANCH   3   4
ATOM      4  C   UNL A   1      34.647  33.783  30.222  1.00  0.00     0.313 C 
ATOM      5  O   UNL A   1      33.824  34.261  30.993  1.00  0.00    -0.252 OA
BRANCH   4   6
ATOM      6  C   UNL A   1      35.799  32.807  30.612  1.00  0.00     0.133 C 
BRANCH   6   7
ATOM      7  C   UNL A   1      35.507  32.094  31.973  1.00  0.00     0.047 C 
BRANCH   7   8
ATOM      8  C   UNL A   1      36.247  30.816  32.288  1.00  0.00    -0.030 C 
ATOM      9  C   UNL A   1      38.106  29.484  33.291  1.00  0.00     0.035 C 
ATOM     10  C   UNL A   1      37.429  30.763  32.921  1.00  0.00    -0.035 C 
ENDBRANCH   7   8
ENDBRANCH   6   7
BRANCH   6  11
ATOM     11  C   UNL A   1      37.207  33.488  30.583  1.00  0.00    -0.032 A 
ATOM     12  C   UNL A   1      37.858  33.777  29.366  1.00  0.00     0.005 A 
ATOM     13  C   UNL A   1      37.921  33.821  31.753  1.00  0.00     0.025 A 
ATOM     14  C   UNL A   1      39.070  34.480  29.314  1.00  0.00     0.002 A 
ATOM     15  C   UNL A   1      39.149  34.495  31.701  1.00  0.00     0.041 A 
ATOM     16  C   UNL A   1      39.713  34.853  30.486  1.00  0.00     0.020 A 
ATOM     17  Cl  UNL A   1      39.957  34.898  33.167  1.00  0.00    -0.084 Cl
ENDBRANCH   6  11
ENDBRANCH   4   6
ENDBRANCH   3   4
ENDBRANCH   2   3
ENDBRANCH   1   2
BRANCH   1  18
ATOM     18  O   UNL A   1      33.769  30.888  28.238  1.00  0.00    -0.458 OA
BRANCH  18  19
ATOM     19  C   UNL A   1      34.480  30.070  27.427  1.00  0.00     0.338 C 
ATOM     20  O   UNL A   1      34.135  29.680  26.318  1.00  0.00    -0.246 OA
BRANCH  19  21
ATOM     21  C   UNL A   1      35.834  29.826  27.966  1.00  0.00     0.060 A 
ATOM     22  C   UNL A   1      36.909  30.062  27.104  1.00  0.00     0.016 A 
ATOM     23  C   UNL A   1      36.070  29.331  29.252  1.00  0.00     0.016 A 
ATOM     24  C   UNL A   1      38.215  29.822  27.515  1.00  0.00     0.010 A 
ATOM     25  C   UNL A   1      37.386  29.055  29.656  1.00  0.00     0.010 A 
ATOM     26  C   UNL A   1      38.462  29.290  28.782  1.00  0.00    -0.014 A 
BRANCH  26  27
ATOM     27  C   UNL A   1      39.843  28.849  29.086  1.00  0.00     0.031 A 
ATOM     28  C   UNL A   1      40.729  29.763  29.885  1.00  0.00     0.074 A 
ATOM     29  C   UNL A   1      40.261  27.611  28.765  1.00  0.00     0.049 A 
ATOM     30  N   UNL A   1      41.928  29.548  30.361  1.00  0.00    -0.248 NA
ATOM     31  C   UNL A   1      40.182  31.093  30.204  1.00  0.00     0.031 C 
ATOM     32  C   UNL A   1      39.468  26.606  28.061  1.00  0.00     0.029 A 
ATOM     33  N   UNL A   1      41.456  26.983  29.014  1.00  0.00    -0.354 N 
ATOM     34  C   UNL A   1      42.273  30.705  31.049  1.00  0.00     0.074 A 
ATOM     35  C   UNL A   1      41.168  31.629  30.907  1.00  0.00     0.031 C 
ATOM     36  C   UNL A   1      40.198  25.483  27.937  1.00  0.00     0.029 A 
ATOM     37  C   UNL A   1      41.516  25.698  28.532  1.00  0.00     0.049 A 
ATOM     38  H   UNL A   1      42.200  27.414  29.494  1.00  0.00     0.167 HD
ATOM     39  C   UNL A   1      43.408  30.977  31.735  1.00  0.00     0.031 A 
ATOM     40  C   UNL A   1      42.524  24.802  28.562  1.00  0.00     0.031 A 
ATOM     41  C   UNL A   1      44.528  30.080  31.834  1.00  0.00     0.049 A 
ATOM     42  C   UNL A   1      43.818  25.168  29.249  1.00  0.00     0.074 A 
ATOM     43  C   UNL A   1      45.741  30.282  32.469  1.00  0.00     0.029 A 
ATOM     44  N   UNL A   1      44.578  28.813  31.273  1.00  0.00    -0.354 N 
ATOM     45  N   UNL A   1      44.130  26.267  29.895  1.00  0.00    -0.248 NA
ATOM     46  C   UNL A   1      44.890  24.163  29.221  1.00  0.00     0.031 C 
ATOM     47  C   UNL A   1      46.546  29.161  32.244  1.00  0.00     0.029 A 
ATOM     48  C   UNL A   1      45.808  28.230  31.528  1.00  0.00     0.049 A 
ATOM     49  H   UNL A   1      43.847  28.389  30.767  1.00  0.00     0.167 HD
ATOM     50  C   UNL A   1      45.420  26.068  30.382  1.00  0.00     0.074 A 
ATOM     51  C   UNL A   1      45.823  24.741  29.965  1.00  0.00     0.031 C 
ATOM     52  C   UNL A   1      46.197  26.906  31.111  1.00  0.00     0.031 A 
BRANCH  39  53
ATOM     53  C   UNL A   1      43.511  32.332  32.381  1.00  0.00    -0.014 A 
ATOM     54  C   UNL A   1      43.113  32.538  33.713  1.00  0.00     0.010 A 
ATOM     55  C   UNL A   1      44.029  33.412  31.644  1.00  0.00     0.010 A 
ATOM     56  C   UNL A   1      43.196  33.811  34.286  1.00  0.00     0.020 A 
ATOM     57  C   UNL A   1      44.138  34.679  32.221  1.00  0.00     0.020 A 
ATOM     58  C   UNL A   1      43.704  34.875  33.533  1.00  0.00     0.054 A 
BRANCH  58  59
ATOM     59  S   UNL A   1      43.810  36.514  34.301  1.00  0.00     0.124 S 
ATOM     60  O   UNL A   1      43.219  37.368  33.274  1.00  0.00    -0.237 OA
ATOM     61  O   UNL A   1      43.015  36.352  35.516  1.00  0.00    -0.237 OA
ATOM     62  O   UNL A   1      45.242  36.704  34.519  1.00  0.00    -0.744 OA
ENDBRANCH  58  59
ENDBRANCH  39  53
BRANCH  40  63
ATOM     63  C   UNL A   1      42.370  23.474  27.903  1.00  0.00    -0.014 A 
ATOM     64  C   UNL A   1      41.746  22.402  28.567  1.00  0.00     0.010 A 
ATOM     65  C   UNL A   1      42.887  23.266  26.610  1.00  0.00     0.010 A 
ATOM     66  C   UNL A   1      41.673  21.141  27.964  1.00  0.00     0.020 A 
ATOM     67  C   UNL A   1      42.788  22.017  25.993  1.00  0.00     0.020 A 
ATOM     68  C   UNL A   1      42.196  20.957  26.681  1.00  0.00     0.054 A 
BRANCH  68  69
ATOM     69  S   UNL A   1      42.067  19.321  25.906  1.00  0.00     0.124 S 
ATOM     70  O   UNL A   1      42.912  19.476  24.726  1.00  0.00    -0.237 OA
ATOM     71  O   UNL A   1      42.586  18.437  26.947  1.00  0.00    -0.237 OA
ATOM     72  O   UNL A   1      40.637  19.182  25.638  1.00  0.00    -0.744 OA
ENDBRANCH  68  69
ENDBRANCH  40  63
BRANCH  52  73
ATOM     73  C   UNL A   1      47.544  26.395  31.560  1.00  0.00    -0.014 A 
ATOM     74  C   UNL A   1      48.709  26.612  30.803  1.00  0.00     0.010 A 
ATOM     75  C   UNL A   1      47.645  25.711  32.786  1.00  0.00     0.010 A 
ATOM     76  C   UNL A   1      49.939  26.112  31.239  1.00  0.00     0.020 A 
ATOM     77  C   UNL A   1      48.878  25.236  33.241  1.00  0.00     0.020 A 
ATOM     78  C   UNL A   1      50.015  25.421  32.452  1.00  0.00     0.054 A 
BRANCH  78  79
ATOM     79  S   UNL A   1      51.625  24.792  33.005  1.00  0.00     0.124 S 
ATOM     80  O   UNL A   1      51.506  23.365  32.723  1.00  0.00    -0.237 OA
ATOM     81  O   UNL A   1      52.564  25.524  32.159  1.00  0.00    -0.237 OA
ATOM     82  O   UNL A   1      51.668  25.146  34.422  1.00  0.00    -0.744 OA
ENDBRANCH  78  79
ENDBRANCH  52  73
ENDBRANCH  26  27
ENDBRANCH  19  21
ENDBRANCH  18  19
ENDBRANCH   1  18
TORSDOF 17
ENDMDL
MODEL 3
REMARK VINA RESULT:      -9.6      3.667      6.050
REMARK SMILES C/C=C/C[C@@H](C(=O)OCCOC(=O)c1ccc(-c2c3nc(c(-c4ccc(S(=O)(=O)[O-])cc4)c4ccc([nH]4)c(-c4ccc(S(=O)(=O)[O-])cc4)c4nc(c(-c5ccc(S(=O)(=O)[O-])cc5)c5ccc2[nH]5)C=C4)C=C3)cc1)c1cccc(Cl)c1
REMARK SMILES IDX 10 1 9 2 8 3 6 4 7 5 5 6 4 7 3 8 1 9 2 10 74 11 75 12 80 13
REMARK SMILES IDX 76 14 78 15 77 16 79 17 11 18 12 19 13 20 14 21 15 22 73 23
REMARK SMILES IDX 16 24 72 25 17 26 18 27 19 28 66 29 20 30 71 31 65 32 67 33
REMARK SMILES IDX 21 34 70 35 64 36 63 37 22 39 52 40 33 41 51 42 34 43 37 44
REMARK SMILES IDX 50 45 68 46 35 47 36 48 49 50 69 51 38 52 23 53 24 54 32 55
REMARK SMILES IDX 25 56 31 57 26 58 27 59 28 60 29 61 30 62 53 63 54 64 62 65
REMARK SMILES IDX 55 66 61 67 56 68 57 69 58 70 59 71 60 72 39 73 40 74 48 75
REMARK SMILES IDX 41 76 47 77 42 78 43 79 44 80 45 81 46 82
REMARK H PARENT 67 38 37 49
REMARK Flexibility Score: inf
ROOT
ATOM      1  C   UNL A   1      33.855  32.355  27.634  1.00  0.00     0.275 C 
ENDROOT
BRANCH   1   2
ATOM      2  C   UNL A   1      34.364  33.251  28.771  1.00  0.00     0.274 C 
BRANCH   2   3
ATOM      3  O   UNL A   1      34.354  32.590  30.053  1.00  0.00    -0.462 OA
BRANCH   3   4
ATOM      4  C   UNL A   1      35.409  32.849  30.874  1.00  0.00     0.313 C 
ATOM      5  O   UNL A   1      36.447  33.332  30.439  1.00  0.00    -0.252 OA
BRANCH   4   6
ATOM      6  C   UNL A   1      35.170  32.381  32.343  1.00  0.00     0.133 C 
BRANCH   6   7
ATOM      7  C   UNL A   1      34.457  33.489  33.186  1.00  0.00     0.047 C 
BRANCH   7   8
ATOM      8  C   UNL A   1      34.672  34.933  32.805  1.00  0.00    -0.030 C 
ATOM      9  C   UNL A   1      34.030  37.343  32.678  1.00  0.00     0.035 C 
ATOM     10  C   UNL A   1      33.768  35.907  32.993  1.00  0.00    -0.035 C 
ENDBRANCH   7   8
ENDBRANCH   6   7
BRANCH   6  11
ATOM     11  C   UNL A   1      36.472  31.851  33.031  1.00  0.00    -0.032 A 
ATOM     12  C   UNL A   1      36.931  30.535  32.818  1.00  0.00     0.005 A 
ATOM     13  C   UNL A   1      37.240  32.631  33.920  1.00  0.00     0.025 A 
ATOM     14  C   UNL A   1      38.148  30.074  33.339  1.00  0.00     0.002 A 
ATOM     15  C   UNL A   1      38.441  32.158  34.468  1.00  0.00     0.041 A 
ATOM     16  C   UNL A   1      38.914  30.892  34.157  1.00  0.00     0.020 A 
ATOM     17  Cl  UNL A   1      39.347  33.170  35.526  1.00  0.00    -0.084 Cl
ENDBRANCH   6  11
ENDBRANCH   4   6
ENDBRANCH   3   4
ENDBRANCH   2   3
ENDBRANCH   1   2
BRANCH   1  18
ATOM     18  O   UNL A   1      33.598  31.007  28.073  1.00  0.00    -0.458 OA
BRANCH  18  19
ATOM     19  C   UNL A   1      34.279  30.053  27.395  1.00  0.00     0.338 C 
ATOM     20  O   UNL A   1      33.907  29.498  26.368  1.00  0.00    -0.246 OA
BRANCH  19  21
ATOM     21  C   UNL A   1      35.637  29.869  27.948  1.00  0.00     0.060 A 
ATOM     22  C   UNL A   1      36.705  29.992  27.054  1.00  0.00     0.016 A 
ATOM     23  C   UNL A   1      35.882  29.533  29.282  1.00  0.00     0.016 A 
ATOM     24  C   UNL A   1      38.014  29.796  27.480  1.00  0.00     0.010 A 
ATOM     25  C   UNL A   1      37.200  29.300  29.706  1.00  0.00     0.010 A 
ATOM     26  C   UNL A   1      38.269  29.421  28.801  1.00  0.00    -0.014 A 
BRANCH  26  27
ATOM     27  C   UNL A   1      39.651  29.012  29.143  1.00  0.00     0.031 A 
ATOM     28  C   UNL A   1      40.491  29.943  29.973  1.00  0.00     0.074 A 
ATOM     29  C   UNL A   1      40.108  27.786  28.830  1.00  0.00     0.049 A 
ATOM     30  N   UNL A   1      41.680  29.754  30.484  1.00  0.00    -0.248 NA
ATOM     31  C   UNL A   1      39.902  31.258  30.281  1.00  0.00     0.031 C 
ATOM     32  C   UNL A   1      39.361  26.766  28.099  1.00  0.00     0.029 A 
ATOM     33  N   UNL A   1      41.311  27.186  29.113  1.00  0.00    -0.354 N 
ATOM     34  C   UNL A   1      41.976  30.917  31.186  1.00  0.00     0.074 A 
ATOM     35  C   UNL A   1      40.853  31.814  31.015  1.00  0.00     0.031 C 
ATOM     36  C   UNL A   1      40.122  25.661  27.992  1.00  0.00     0.029 A 
ATOM     37  C   UNL A   1      41.416  25.905  28.627  1.00  0.00     0.049 A 
ATOM     38  H   UNL A   1      42.030  27.632  29.617  1.00  0.00     0.167 HD
ATOM     39  C   UNL A   1      43.083  31.213  31.907  1.00  0.00     0.031 A 
ATOM     40  C   UNL A   1      42.444  25.033  28.684  1.00  0.00     0.031 A 
ATOM     41  C   UNL A   1      44.221  30.342  32.036  1.00  0.00     0.049 A 
ATOM     42  C   UNL A   1      43.707  25.427  29.411  1.00  0.00     0.074 A 
ATOM     43  C   UNL A   1      45.409  30.571  32.708  1.00  0.00     0.029 A 
ATOM     44  N   UNL A   1      44.318  29.079  31.471  1.00  0.00    -0.354 N 
ATOM     45  N   UNL A   1      43.973  26.530  30.070  1.00  0.00    -0.248 NA
ATOM     46  C   UNL A   1      44.804  24.448  29.411  1.00  0.00     0.031 C 
ATOM     47  C   UNL A   1      46.247  29.470  32.503  1.00  0.00     0.029 A 
ATOM     48  C   UNL A   1      45.554  28.526  31.761  1.00  0.00     0.049 A 
ATOM     49  H   UNL A   1      43.613  28.640  30.942  1.00  0.00     0.167 HD
ATOM     50  C   UNL A   1      45.252  26.360  30.594  1.00  0.00     0.074 A 
ATOM     51  C   UNL A   1      45.700  25.045  30.184  1.00  0.00     0.031 C 
ATOM     52  C   UNL A   1      45.988  27.213  31.350  1.00  0.00     0.031 A 
BRANCH  39  53
ATOM     53  C   UNL A   1      43.134  32.566  32.561  1.00  0.00    -0.014 A 
ATOM     54  C   UNL A   1      42.721  32.750  33.892  1.00  0.00     0.010 A 
ATOM     55  C   UNL A   1      43.617  33.669  31.833  1.00  0.00     0.010 A 
ATOM     56  C   UNL A   1      42.755  34.022  34.473  1.00  0.00     0.020 A 
ATOM     57  C   UNL A   1      43.677  34.936  32.419  1.00  0.00     0.020 A 
ATOM     58  C   UNL A   1      43.229  35.107  33.729  1.00  0.00     0.054 A 
BRANCH  58  59
ATOM     59  S   UNL A   1      43.272  36.745  34.507  1.00  0.00     0.124 S 
ATOM     60  O   UNL A   1      41.986  36.785  35.199  1.00  0.00    -0.237 OA
ATOM     61  O   UNL A   1      44.447  36.659  35.371  1.00  0.00    -0.237 OA
ATOM     62  O   UNL A   1      43.399  37.663  33.378  1.00  0.00    -0.744 OA
ENDBRANCH  58  59
ENDBRANCH  39  53
BRANCH  40  63
ATOM     63  C   UNL A   1      42.342  23.706  28.015  1.00  0.00    -0.014 A 
ATOM     64  C   UNL A   1      41.580  22.665  28.578  1.00  0.00     0.010 A 
ATOM     65  C   UNL A   1      43.046  23.463  26.821  1.00  0.00     0.010 A 
ATOM     66  C   UNL A   1      41.551  21.402  27.977  1.00  0.00     0.020 A 
ATOM     67  C   UNL A   1      42.995  22.213  26.201  1.00  0.00     0.020 A 
ATOM     68  C   UNL A   1      42.260  21.184  26.793  1.00  0.00     0.054 A 
BRANCH  68  69
ATOM     69  S   UNL A   1      42.189  19.546  26.015  1.00  0.00     0.124 S 
ATOM     70  O   UNL A   1      43.074  19.715  24.867  1.00  0.00    -0.237 OA
ATOM     71  O   UNL A   1      42.684  18.671  27.075  1.00  0.00    -0.237 OA
ATOM     72  O   UNL A   1      40.773  19.382  25.694  1.00  0.00    -0.744 OA
ENDBRANCH  68  69
ENDBRANCH  40  63
BRANCH  52  73
ATOM     73  C   UNL A   1      47.332  26.732  31.837  1.00  0.00    -0.014 A 
ATOM     74  C   UNL A   1      48.513  26.976  31.113  1.00  0.00     0.010 A 
ATOM     75  C   UNL A   1      47.414  26.050  33.066  1.00  0.00     0.010 A 
ATOM     76  C   UNL A   1      49.742  26.504  31.584  1.00  0.00     0.020 A 
ATOM     77  C   UNL A   1      48.644  25.604  33.555  1.00  0.00     0.020 A 
ATOM     78  C   UNL A   1      49.798  25.815  32.799  1.00  0.00     0.054 A 
BRANCH  78  79
ATOM     79  S   UNL A   1      51.406  25.222  33.398  1.00  0.00     0.124 S 
ATOM     80  O   UNL A   1      51.809  26.299  34.298  1.00  0.00    -0.237 OA
ATOM     81  O   UNL A   1      51.062  23.958  34.046  1.00  0.00    -0.237 OA
ATOM     82  O   UNL A   1      52.204  25.094  32.181  1.00  0.00    -0.744 OA
ENDBRANCH  78  79
ENDBRANCH  52  73
ENDBRANCH  26  27
ENDBRANCH  19  21
ENDBRANCH  18  19
ENDBRANCH   1  18
TORSDOF 17
ENDMDL
