MODEL 1
REMARK VINA RESULT:     -10.6      0.000      0.000
REMARK SMILES CCCOc1cccc([C@H]2CC[NH2+][C@@H]2C(=O)OCCOC(=O)c2ccc(-c3c4nc(c(-c5ccc(S(=O)(=O)[O-])cc5)c5ccc([nH]5)c(-c5ccc(S(=O)(=O)[O-])cc5)c5nc(c(-c6ccc(S(=O)(=O)[O-])cc6)c6ccc3[nH]6)C=C5)C=C4)cc2)c1
REMARK SMILES IDX 18 1 17 2 15 3 16 4 14 5 10 6 11 7 12 8 13 9 9 12 5 13 6 14
REMARK SMILES IDX 83 15 7 16 8 17 4 18 3 19 2 20 1 21 19 22 20 23 21 24 22 25
REMARK SMILES IDX 23 26 24 27 82 28 25 29 81 30 26 31 27 32 28 33 75 34 29 35
REMARK SMILES IDX 80 36 74 37 76 38 30 39 79 40 73 41 72 42 31 44 61 45 42 46
REMARK SMILES IDX 60 47 43 48 46 49 59 50 77 51 44 52 45 53 58 55 78 56 47 57
REMARK SMILES IDX 32 58 33 59 41 60 34 61 40 62 35 63 36 64 37 65 38 66 39 67
REMARK SMILES IDX 62 68 63 69 71 70 64 71 70 72 65 73 66 74 67 75 68 76 69 77
REMARK SMILES IDX 48 78 49 79 57 80 50 81 56 82 51 83 52 84 53 85 54 86 55 87
REMARK H PARENT 13 10 13 11 76 43 46 54
REMARK Flexibility Score: inf
ROOT
ATOM      1  C   UNL A   1      38.484  21.961  25.696  1.00  0.00     0.274 C 
ENDROOT
BRANCH   1   2
ATOM      2  O   UNL A   1      37.237  22.438  26.247  1.00  0.00    -0.458 OA
BRANCH   2   3
ATOM      3  C   UNL A   1      36.155  22.430  25.408  1.00  0.00     0.365 C 
ATOM      4  O   UNL A   1      36.133  22.949  24.298  1.00  0.00    -0.245 OA
BRANCH   3   5
ATOM      5  C   UNL A   1      34.987  21.651  26.044  1.00  0.00     0.301 C 
ATOM      6  C   UNL A   1      33.634  22.072  25.422  1.00  0.00     0.095 C 
ATOM      7  C   UNL A   1      32.755  22.315  26.648  1.00  0.00     0.076 C 
ATOM      8  C   UNL A   1      33.752  22.859  27.650  1.00  0.00     0.262 C 
ATOM      9  N   UNL A   1      34.904  21.960  27.507  1.00  0.00    -0.334 N 
ATOM     10  H   UNL A   1      34.760  21.107  28.044  1.00  0.00     0.347 HD
ATOM     11  H   UNL A   1      35.763  22.387  27.853  1.00  0.00     0.347 HD
BRANCH   6  12
ATOM     12  C   UNL A   1      33.027  21.184  24.353  1.00  0.00    -0.034 A 
ATOM     13  C   UNL A   1      32.471  18.974  23.485  1.00  0.00     0.119 A 
ATOM     14  C   UNL A   1      31.998  19.528  22.304  1.00  0.00     0.046 A 
ATOM     15  C   UNL A   1      33.025  19.789  24.474  1.00  0.00     0.050 A 
ATOM     16  C   UNL A   1      32.038  20.910  22.134  1.00  0.00     0.004 A 
ATOM     17  C   UNL A   1      32.542  21.729  23.151  1.00  0.00     0.004 A 
BRANCH  13  18
ATOM     18  O   UNL A   1      32.470  17.615  23.625  1.00  0.00    -0.494 OA
BRANCH  18  19
ATOM     19  C   UNL A   1      33.640  17.008  23.057  1.00  0.00     0.229 C 
BRANCH  19  20
ATOM     20  C   UNL A   1      34.762  16.883  24.094  1.00  0.00     0.038 C 
ATOM     21  C   UNL A   1      34.471  15.861  25.191  1.00  0.00     0.007 C 
ENDBRANCH  19  20
ENDBRANCH  18  19
ENDBRANCH  13  18
ENDBRANCH   6  12
ENDBRANCH   3   5
ENDBRANCH   2   3
ENDBRANCH   1   2
BRANCH   1  22
ATOM     22  C   UNL A   1      39.665  22.492  26.506  1.00  0.00     0.275 C 
BRANCH  22  23
ATOM     23  O   UNL A   1      39.654  23.923  26.433  1.00  0.00    -0.458 OA
BRANCH  23  24
ATOM     24  C   UNL A   1      40.851  24.544  26.538  1.00  0.00     0.338 C 
ATOM     25  O   UNL A   1      41.872  24.256  25.929  1.00  0.00    -0.246 OA
BRANCH  24  26
ATOM     26  C   UNL A   1      40.739  25.666  27.502  1.00  0.00     0.060 A 
ATOM     27  C   UNL A   1      41.636  26.731  27.459  1.00  0.00     0.016 A 
ATOM     28  C   UNL A   1      39.773  25.634  28.506  1.00  0.00     0.016 A 
ATOM     29  C   UNL A   1      41.653  27.690  28.471  1.00  0.00     0.010 A 
ATOM     30  C   UNL A   1      39.702  26.677  29.441  1.00  0.00     0.010 A 
ATOM     31  C   UNL A   1      40.661  27.707  29.458  1.00  0.00    -0.014 A 
BRANCH  31  32
ATOM     32  C   UNL A   1      40.624  28.783  30.496  1.00  0.00     0.031 A 
ATOM     33  C   UNL A   1      41.623  28.785  31.628  1.00  0.00     0.074 A 
ATOM     34  C   UNL A   1      39.691  29.760  30.450  1.00  0.00     0.049 A 
ATOM     35  N   UNL A   1      41.597  29.459  32.751  1.00  0.00    -0.248 NA
ATOM     36  C   UNL A   1      42.789  27.898  31.493  1.00  0.00     0.031 C 
ATOM     37  C   UNL A   1      38.684  29.936  29.400  1.00  0.00     0.029 A 
ATOM     38  N   UNL A   1      39.441  30.801  31.315  1.00  0.00    -0.354 N 
ATOM     39  C   UNL A   1      42.689  29.012  33.489  1.00  0.00     0.074 A 
ATOM     40  C   UNL A   1      43.367  28.023  32.679  1.00  0.00     0.031 C 
ATOM     41  C   UNL A   1      37.971  31.044  29.648  1.00  0.00     0.029 A 
ATOM     42  C   UNL A   1      38.381  31.592  30.934  1.00  0.00     0.049 A 
ATOM     43  H   UNL A   1      39.969  30.965  32.129  1.00  0.00     0.167 HD
ATOM     44  C   UNL A   1      43.080  29.384  34.732  1.00  0.00     0.031 A 
ATOM     45  C   UNL A   1      37.757  32.607  31.564  1.00  0.00     0.031 A 
ATOM     46  C   UNL A   1      42.444  30.416  35.509  1.00  0.00     0.049 A 
ATOM     47  C   UNL A   1      38.195  32.992  32.946  1.00  0.00     0.074 A 
ATOM     48  C   UNL A   1      42.781  30.878  36.770  1.00  0.00     0.029 A 
ATOM     49  N   UNL A   1      41.354  31.166  35.090  1.00  0.00    -0.354 N 
ATOM     50  N   UNL A   1      39.173  32.497  33.665  1.00  0.00    -0.248 NA
ATOM     51  C   UNL A   1      37.425  34.050  33.614  1.00  0.00     0.031 C 
ATOM     52  C   UNL A   1      41.875  31.883  37.128  1.00  0.00     0.029 A 
ATOM     53  C   UNL A   1      41.001  32.077  36.070  1.00  0.00     0.049 A 
ATOM     54  H   UNL A   1      40.899  31.064  34.223  1.00  0.00     0.167 HD
ATOM     55  C   UNL A   1      39.136  33.183  34.871  1.00  0.00     0.074 A 
ATOM     56  C   UNL A   1      38.057  34.146  34.776  1.00  0.00     0.031 C 
ATOM     57  C   UNL A   1      39.921  33.023  35.965  1.00  0.00     0.031 A 
BRANCH  44  58
ATOM     58  C   UNL A   1      44.227  28.634  35.361  1.00  0.00    -0.014 A 
ATOM     59  C   UNL A   1      45.554  29.077  35.242  1.00  0.00     0.010 A 
ATOM     60  C   UNL A   1      43.955  27.486  36.128  1.00  0.00     0.010 A 
ATOM     61  C   UNL A   1      46.594  28.364  35.849  1.00  0.00     0.020 A 
ATOM     62  C   UNL A   1      44.987  26.784  36.757  1.00  0.00     0.020 A 
ATOM     63  C   UNL A   1      46.304  27.219  36.597  1.00  0.00     0.054 A 
BRANCH  63  64
ATOM     64  S   UNL A   1      47.667  26.323  37.394  1.00  0.00     0.124 S 
ATOM     65  O   UNL A   1      47.204  26.239  38.776  1.00  0.00    -0.237 OA
ATOM     66  O   UNL A   1      47.693  25.058  36.662  1.00  0.00    -0.237 OA
ATOM     67  O   UNL A   1      48.824  27.188  37.176  1.00  0.00    -0.744 OA
ENDBRANCH  63  64
ENDBRANCH  44  58
BRANCH  45  68
ATOM     68  C   UNL A   1      36.599  33.280  30.912  1.00  0.00    -0.014 A 
ATOM     69  C   UNL A   1      35.361  33.365  31.569  1.00  0.00     0.010 A 
ATOM     70  C   UNL A   1      36.745  33.876  29.644  1.00  0.00     0.010 A 
ATOM     71  C   UNL A   1      34.289  34.036  30.973  1.00  0.00     0.020 A 
ATOM     72  C   UNL A   1      35.685  34.574  29.060  1.00  0.00     0.020 A 
ATOM     73  C   UNL A   1      34.460  34.643  29.725  1.00  0.00     0.054 A 
BRANCH  73  74
ATOM     74  S   UNL A   1      33.086  35.586  29.007  1.00  0.00     0.124 S 
ATOM     75  O   UNL A   1      32.437  34.584  28.169  1.00  0.00    -0.237 OA
ATOM     76  O   UNL A   1      32.336  36.006  30.188  1.00  0.00    -0.237 OA
ATOM     77  O   UNL A   1      33.756  36.668  28.288  1.00  0.00    -0.744 OA
ENDBRANCH  73  74
ENDBRANCH  45  68
BRANCH  57  78
ATOM     78  C   UNL A   1      39.655  33.928  37.135  1.00  0.00    -0.014 A 
ATOM     79  C   UNL A   1      38.893  33.487  38.232  1.00  0.00     0.010 A 
ATOM     80  C   UNL A   1      40.202  35.223  37.153  1.00  0.00     0.010 A 
ATOM     81  C   UNL A   1      38.656  34.339  39.314  1.00  0.00     0.020 A 
ATOM     82  C   UNL A   1      39.985  36.070  38.241  1.00  0.00     0.020 A 
ATOM     83  C   UNL A   1      39.201  35.628  39.308  1.00  0.00     0.054 A 
BRANCH  83  84
ATOM     84  S   UNL A   1      38.909  36.708  40.737  1.00  0.00     0.124 S 
ATOM     85  O   UNL A   1      38.011  35.894  41.552  1.00  0.00    -0.237 OA
ATOM     86  O   UNL A   1      40.253  36.896  41.280  1.00  0.00    -0.237 OA
ATOM     87  O   UNL A   1      38.309  37.903  40.150  1.00  0.00    -0.744 OA
ENDBRANCH  83  84
ENDBRANCH  57  78
ENDBRANCH  31  32
ENDBRANCH  24  26
ENDBRANCH  23  24
ENDBRANCH  22  23
ENDBRANCH   1  22
TORSDOF 18
ENDMDL
MODEL 2
REMARK VINA RESULT:     -10.6      5.231     11.710
REMARK SMILES CCCOc1cccc([C@H]2CC[NH2+][C@@H]2C(=O)OCCOC(=O)c2ccc(-c3c4nc(c(-c5ccc(S(=O)(=O)[O-])cc5)c5ccc([nH]5)c(-c5ccc(S(=O)(=O)[O-])cc5)c5nc(c(-c6ccc(S(=O)(=O)[O-])cc6)c6ccc3[nH]6)C=C5)C=C4)cc2)c1
REMARK SMILES IDX 18 1 17 2 15 3 16 4 14 5 10 6 11 7 12 8 13 9 9 12 5 13 6 14
REMARK SMILES IDX 83 15 7 16 8 17 4 18 3 19 2 20 1 21 19 22 20 23 21 24 22 25
REMARK SMILES IDX 23 26 24 27 82 28 25 29 81 30 26 31 27 32 28 33 75 34 29 35
REMARK SMILES IDX 80 36 74 37 76 38 30 39 79 40 73 41 72 42 31 44 61 45 42 46
REMARK SMILES IDX 60 47 43 48 46 49 59 50 77 51 44 52 45 53 58 55 78 56 47 57
REMARK SMILES IDX 32 58 33 59 41 60 34 61 40 62 35 63 36 64 37 65 38 66 39 67
REMARK SMILES IDX 62 68 63 69 71 70 64 71 70 72 65 73 66 74 67 75 68 76 69 77
REMARK SMILES IDX 48 78 49 79 57 80 50 81 56 82 51 83 52 84 53 85 54 86 55 87
REMARK H PARENT 13 10 13 11 76 43 46 54
REMARK Flexibility Score: inf
ROOT
ATOM      1  C   UNL A   1      33.665  34.648  28.389  1.00  0.00     0.274 C 
ENDROOT
BRANCH   1   2
ATOM      2  O   UNL A   1      33.118  34.568  29.724  1.00  0.00    -0.458 OA
BRANCH   2   3
ATOM      3  C   UNL A   1      32.913  35.757  30.372  1.00  0.00     0.365 C 
ATOM      4  O   UNL A   1      31.923  36.464  30.229  1.00  0.00    -0.245 OA
BRANCH   3   5
ATOM      5  C   UNL A   1      34.085  36.057  31.327  1.00  0.00     0.301 C 
ATOM      6  C   UNL A   1      33.950  35.255  32.643  1.00  0.00     0.095 C 
ATOM      7  C   UNL A   1      34.182  36.317  33.716  1.00  0.00     0.076 C 
ATOM      8  C   UNL A   1      33.572  37.550  33.080  1.00  0.00     0.262 C 
ATOM      9  N   UNL A   1      34.078  37.507  31.703  1.00  0.00    -0.334 N 
ATOM     10  H   UNL A   1      35.020  37.892  31.656  1.00  0.00     0.347 HD
ATOM     11  H   UNL A   1      33.499  38.059  31.069  1.00  0.00     0.347 HD
BRANCH   6  12
ATOM     12  C   UNL A   1      34.765  33.986  32.798  1.00  0.00    -0.034 A 
ATOM     13  C   UNL A   1      36.370  32.624  34.027  1.00  0.00     0.119 A 
ATOM     14  C   UNL A   1      36.370  31.667  33.022  1.00  0.00     0.046 A 
ATOM     15  C   UNL A   1      35.618  33.791  33.891  1.00  0.00     0.050 A 
ATOM     16  C   UNL A   1      35.572  31.861  31.896  1.00  0.00     0.004 A 
ATOM     17  C   UNL A   1      34.774  33.006  31.789  1.00  0.00     0.004 A 
BRANCH  13  18
ATOM     18  O   UNL A   1      37.190  32.447  35.106  1.00  0.00    -0.494 OA
BRANCH  18  19
ATOM     19  C   UNL A   1      37.217  33.597  35.965  1.00  0.00     0.229 C 
BRANCH  19  20
ATOM     20  C   UNL A   1      38.585  34.288  35.930  1.00  0.00     0.038 C 
ATOM     21  C   UNL A   1      39.014  34.727  34.532  1.00  0.00     0.007 C 
ENDBRANCH  19  20
ENDBRANCH  18  19
ENDBRANCH  13  18
ENDBRANCH   6  12
ENDBRANCH   3   5
ENDBRANCH   2   3
ENDBRANCH   1   2
BRANCH   1  22
ATOM     22  C   UNL A   1      33.704  33.263  27.743  1.00  0.00     0.275 C 
BRANCH  22  23
ATOM     23  O   UNL A   1      34.534  32.416  28.548  1.00  0.00    -0.458 OA
BRANCH  23  24
ATOM     24  C   UNL A   1      34.909  31.237  27.999  1.00  0.00     0.338 C 
ATOM     25  O   UNL A   1      34.286  30.599  27.161  1.00  0.00    -0.246 OA
BRANCH  24  26
ATOM     26  C   UNL A   1      36.224  30.835  28.551  1.00  0.00     0.060 A 
ATOM     27  C   UNL A   1      36.379  29.610  29.197  1.00  0.00     0.016 A 
ATOM     28  C   UNL A   1      37.309  31.709  28.489  1.00  0.00     0.016 A 
ATOM     29  C   UNL A   1      37.557  29.307  29.878  1.00  0.00     0.010 A 
ATOM     30  C   UNL A   1      38.538  31.340  29.053  1.00  0.00     0.010 A 
ATOM     31  C   UNL A   1      38.674  30.144  29.785  1.00  0.00    -0.014 A 
BRANCH  31  32
ATOM     32  C   UNL A   1      39.967  29.782  30.442  1.00  0.00     0.031 A 
ATOM     33  C   UNL A   1      40.840  28.695  29.860  1.00  0.00     0.074 A 
ATOM     34  C   UNL A   1      40.371  30.403  31.572  1.00  0.00     0.049 A 
ATOM     35  N   UNL A   1      41.845  28.060  30.409  1.00  0.00    -0.248 NA
ATOM     36  C   UNL A   1      40.528  28.248  28.493  1.00  0.00     0.031 C 
ATOM     37  C   UNL A   1      39.674  31.507  32.240  1.00  0.00     0.029 A 
ATOM     38  N   UNL A   1      41.478  30.195  32.363  1.00  0.00    -0.354 N 
ATOM     39  C   UNL A   1      42.225  27.083  29.493  1.00  0.00     0.074 A 
ATOM     40  C   UNL A   1      41.354  27.222  28.346  1.00  0.00     0.031 C 
ATOM     41  C   UNL A   1      40.395  31.915  33.294  1.00  0.00     0.029 A 
ATOM     42  C   UNL A   1      41.539  31.029  33.456  1.00  0.00     0.049 A 
ATOM     43  H   UNL A   1      42.162  29.515  32.166  1.00  0.00     0.167 HD
ATOM     44  C   UNL A   1      43.200  26.149  29.607  1.00  0.00     0.031 A 
ATOM     45  C   UNL A   1      42.378  31.052  34.511  1.00  0.00     0.031 A 
ATOM     46  C   UNL A   1      44.109  26.056  30.721  1.00  0.00     0.049 A 
ATOM     47  C   UNL A   1      43.441  30.000  34.626  1.00  0.00     0.074 A 
ATOM     48  C   UNL A   1      45.144  25.157  30.915  1.00  0.00     0.029 A 
ATOM     49  N   UNL A   1      44.109  26.905  31.817  1.00  0.00    -0.354 N 
ATOM     50  N   UNL A   1      43.728  29.029  33.794  1.00  0.00    -0.248 NA
ATOM     51  C   UNL A   1      44.272  30.028  35.837  1.00  0.00     0.031 C 
ATOM     52  C   UNL A   1      45.748  25.441  32.145  1.00  0.00     0.029 A 
ATOM     53  C   UNL A   1      45.117  26.545  32.695  1.00  0.00     0.049 A 
ATOM     54  H   UNL A   1      43.483  27.653  31.952  1.00  0.00     0.167 HD
ATOM     55  C   UNL A   1      44.774  28.328  34.380  1.00  0.00     0.074 A 
ATOM     56  C   UNL A   1      45.085  29.002  35.625  1.00  0.00     0.031 C 
ATOM     57  C   UNL A   1      45.411  27.220  33.932  1.00  0.00     0.031 A 
BRANCH  44  58
ATOM     58  C   UNL A   1      43.309  25.113  28.519  1.00  0.00    -0.014 A 
ATOM     59  C   UNL A   1      43.922  25.395  27.286  1.00  0.00     0.010 A 
ATOM     60  C   UNL A   1      42.828  23.813  28.761  1.00  0.00     0.010 A 
ATOM     61  C   UNL A   1      44.018  24.406  26.302  1.00  0.00     0.020 A 
ATOM     62  C   UNL A   1      42.944  22.813  27.790  1.00  0.00     0.020 A 
ATOM     63  C   UNL A   1      43.523  23.123  26.558  1.00  0.00     0.054 A 
BRANCH  63  64
ATOM     64  S   UNL A   1      43.679  21.849  25.274  1.00  0.00     0.124 S 
ATOM     65  O   UNL A   1      43.572  22.642  24.052  1.00  0.00    -0.237 OA
ATOM     66  O   UNL A   1      44.999  21.283  25.541  1.00  0.00    -0.237 OA
ATOM     67  O   UNL A   1      42.556  20.954  25.536  1.00  0.00    -0.744 OA
ENDBRANCH  63  64
ENDBRANCH  44  58
BRANCH  45  68
ATOM     68  C   UNL A   1      42.192  32.073  35.580  1.00  0.00    -0.014 A 
ATOM     69  C   UNL A   1      42.699  33.374  35.419  1.00  0.00     0.010 A 
ATOM     70  C   UNL A   1      41.472  31.758  36.747  1.00  0.00     0.010 A 
ATOM     71  C   UNL A   1      42.484  34.342  36.404  1.00  0.00     0.020 A 
ATOM     72  C   UNL A   1      41.230  32.731  37.720  1.00  0.00     0.020 A 
ATOM     73  C   UNL A   1      41.745  34.017  37.545  1.00  0.00     0.054 A 
BRANCH  73  74
ATOM     74  S   UNL A   1      41.401  35.309  38.772  1.00  0.00     0.124 S 
ATOM     75  O   UNL A   1      40.027  35.003  39.156  1.00  0.00    -0.237 OA
ATOM     76  O   UNL A   1      42.415  35.059  39.792  1.00  0.00    -0.237 OA
ATOM     77  O   UNL A   1      41.581  36.549  38.019  1.00  0.00    -0.744 OA
ENDBRANCH  73  74
ENDBRANCH  45  68
BRANCH  57  78
ATOM     78  C   UNL A   1      46.527  26.683  34.784  1.00  0.00    -0.014 A 
ATOM     79  C   UNL A   1      46.285  25.701  35.761  1.00  0.00     0.010 A 
ATOM     80  C   UNL A   1      47.841  27.141  34.580  1.00  0.00     0.010 A 
ATOM     81  C   UNL A   1      47.333  25.210  36.543  1.00  0.00     0.020 A 
ATOM     82  C   UNL A   1      48.895  26.638  35.345  1.00  0.00     0.020 A 
ATOM     83  C   UNL A   1      48.632  25.686  36.332  1.00  0.00     0.054 A 
BRANCH  83  84
ATOM     84  S   UNL A   1      49.985  25.012  37.336  1.00  0.00     0.124 S 
ATOM     85  O   UNL A   1      51.020  26.027  37.168  1.00  0.00    -0.237 OA
ATOM     86  O   UNL A   1      49.392  24.933  38.668  1.00  0.00    -0.237 OA
ATOM     87  O   UNL A   1      50.269  23.722  36.711  1.00  0.00    -0.744 OA
ENDBRANCH  83  84
ENDBRANCH  57  78
ENDBRANCH  31  32
ENDBRANCH  24  26
ENDBRANCH  23  24
ENDBRANCH  22  23
ENDBRANCH   1  22
TORSDOF 18
ENDMDL
MODEL 3
REMARK VINA RESULT:     -10.6      3.603      6.309
REMARK SMILES CCCOc1cccc([C@H]2CC[NH2+][C@@H]2C(=O)OCCOC(=O)c2ccc(-c3c4nc(c(-c5ccc(S(=O)(=O)[O-])cc5)c5ccc([nH]5)c(-c5ccc(S(=O)(=O)[O-])cc5)c5nc(c(-c6ccc(S(=O)(=O)[O-])cc6)c6ccc3[nH]6)C=C5)C=C4)cc2)c1
REMARK SMILES IDX 18 1 17 2 15 3 16 4 14 5 10 6 11 7 12 8 13 9 9 12 5 13 6 14
REMARK SMILES IDX 83 15 7 16 8 17 4 18 3 19 2 20 1 21 19 22 20 23 21 24 22 25
REMARK SMILES IDX 23 26 24 27 82 28 25 29 81 30 26 31 27 32 28 33 75 34 29 35
REMARK SMILES IDX 80 36 74 37 76 38 30 39 79 40 73 41 72 42 31 44 61 45 42 46
REMARK SMILES IDX 60 47 43 48 46 49 59 50 77 51 44 52 45 53 58 55 78 56 47 57
REMARK SMILES IDX 32 58 33 59 41 60 34 61 40 62 35 63 36 64 37 65 38 66 39 67
REMARK SMILES IDX 62 68 63 69 71 70 64 71 70 72 65 73 66 74 67 75 68 76 69 77
REMARK SMILES IDX 48 78 49 79 57 80 50 81 56 82 51 83 52 84 53 85 54 86 55 87
REMARK H PARENT 13 10 13 11 76 43 46 54
REMARK Flexibility Score: inf
ROOT
ATOM      1  C   UNL A   1      40.790  20.078  26.496  1.00  0.00     0.274 C 
ENDROOT
BRANCH   1   2
ATOM      2  O   UNL A   1      42.010  20.162  25.728  1.00  0.00    -0.458 OA
BRANCH   2   3
ATOM      3  C   UNL A   1      42.870  19.101  25.830  1.00  0.00     0.365 C 
ATOM      4  O   UNL A   1      42.535  17.925  25.749  1.00  0.00    -0.245 OA
BRANCH   3   5
ATOM      5  C   UNL A   1      44.316  19.598  26.025  1.00  0.00     0.301 C 
ATOM      6  C   UNL A   1      44.680  20.674  24.973  1.00  0.00     0.095 C 
ATOM      7  C   UNL A   1      46.033  20.196  24.450  1.00  0.00     0.076 C 
ATOM      8  C   UNL A   1      45.885  18.689  24.516  1.00  0.00     0.262 C 
ATOM      9  N   UNL A   1      45.275  18.465  25.832  1.00  0.00    -0.334 N 
ATOM     10  H   UNL A   1      45.987  18.473  26.561  1.00  0.00     0.347 HD
ATOM     11  H   UNL A   1      44.807  17.560  25.884  1.00  0.00     0.347 HD
BRANCH   6  12
ATOM     12  C   UNL A   1      44.622  22.132  25.387  1.00  0.00    -0.034 A 
ATOM     13  C   UNL A   1      45.519  24.030  26.627  1.00  0.00     0.119 A 
ATOM     14  C   UNL A   1      44.443  24.820  26.248  1.00  0.00     0.046 A 
ATOM     15  C   UNL A   1      45.580  22.689  26.244  1.00  0.00     0.050 A 
ATOM     16  C   UNL A   1      43.447  24.275  25.441  1.00  0.00     0.004 A 
ATOM     17  C   UNL A   1      43.539  22.946  25.011  1.00  0.00     0.004 A 
BRANCH  13  18
ATOM     18  O   UNL A   1      46.468  24.559  27.456  1.00  0.00    -0.494 OA
BRANCH  18  19
ATOM     19  C   UNL A   1      45.957  24.821  28.771  1.00  0.00     0.229 C 
BRANCH  19  20
ATOM     20  C   UNL A   1      46.651  26.030  29.410  1.00  0.00     0.038 C 
ATOM     21  C   UNL A   1      48.082  25.747  29.859  1.00  0.00     0.007 C 
ENDBRANCH  19  20
ENDBRANCH  18  19
ENDBRANCH  13  18
ENDBRANCH   6  12
ENDBRANCH   3   5
ENDBRANCH   2   3
ENDBRANCH   1   2
BRANCH   1  22
ATOM     22  C   UNL A   1      40.451  21.436  27.111  1.00  0.00     0.275 C 
BRANCH  22  23
ATOM     23  O   UNL A   1      40.312  22.388  26.049  1.00  0.00    -0.458 OA
BRANCH  23  24
ATOM     24  C   UNL A   1      39.189  23.143  26.055  1.00  0.00     0.338 C 
ATOM     25  O   UNL A   1      38.132  22.873  25.500  1.00  0.00    -0.246 OA
BRANCH  24  26
ATOM     26  C   UNL A   1      39.420  24.358  26.872  1.00  0.00     0.060 A 
ATOM     27  C   UNL A   1      40.211  25.399  26.389  1.00  0.00     0.016 A 
ATOM     28  C   UNL A   1      38.902  24.445  28.164  1.00  0.00     0.016 A 
ATOM     29  C   UNL A   1      40.583  26.455  27.219  1.00  0.00     0.010 A 
ATOM     30  C   UNL A   1      39.163  25.579  28.947  1.00  0.00     0.010 A 
ATOM     31  C   UNL A   1      40.034  26.590  28.498  1.00  0.00    -0.014 A 
BRANCH  31  32
ATOM     32  C   UNL A   1      40.364  27.767  29.360  1.00  0.00     0.031 A 
ATOM     33  C   UNL A   1      41.630  27.779  30.181  1.00  0.00     0.074 A 
ATOM     34  C   UNL A   1      39.531  28.829  29.433  1.00  0.00     0.049 A 
ATOM     35  N   UNL A   1      41.964  28.566  31.174  1.00  0.00    -0.248 NA
ATOM     36  C   UNL A   1      42.644  26.761  29.862  1.00  0.00     0.031 C 
ATOM     37  C   UNL A   1      38.292  29.002  28.669  1.00  0.00     0.029 A 
ATOM     38  N   UNL A   1      39.606  29.976  30.189  1.00  0.00    -0.354 N 
ATOM     39  C   UNL A   1      43.179  28.083  31.652  1.00  0.00     0.074 A 
ATOM     40  C   UNL A   1      43.532  26.947  30.830  1.00  0.00     0.031 C 
ATOM     41  C   UNL A   1      37.761  30.200  28.948  1.00  0.00     0.029 A 
ATOM     42  C   UNL A   1      38.546  30.832  29.999  1.00  0.00     0.049 A 
ATOM     43  H   UNL A   1      40.348  30.166  30.808  1.00  0.00     0.167 HD
ATOM     44  C   UNL A   1      43.921  28.539  32.690  1.00  0.00     0.031 A 
ATOM     45  C   UNL A   1      38.197  31.970  30.632  1.00  0.00     0.031 A 
ATOM     46  C   UNL A   1      43.601  29.710  33.465  1.00  0.00     0.049 A 
ATOM     47  C   UNL A   1      39.024  32.448  31.789  1.00  0.00     0.074 A 
ATOM     48  C   UNL A   1      44.304  30.263  34.522  1.00  0.00     0.029 A 
ATOM     49  N   UNL A   1      42.499  30.525  33.251  1.00  0.00    -0.354 N 
ATOM     50  N   UNL A   1      40.120  31.929  32.285  1.00  0.00    -0.248 NA
ATOM     51  C   UNL A   1      38.548  33.648  32.491  1.00  0.00     0.031 C 
ATOM     52  C   UNL A   1      43.609  31.392  34.971  1.00  0.00     0.029 A 
ATOM     53  C   UNL A   1      42.498  31.568  34.162  1.00  0.00     0.049 A 
ATOM     54  H   UNL A   1      41.818  30.383  32.555  1.00  0.00     0.167 HD
ATOM     55  C   UNL A   1      40.466  32.738  33.360  1.00  0.00     0.074 A 
ATOM     56  C   UNL A   1      39.478  33.796  33.425  1.00  0.00     0.031 C 
ATOM     57  C   UNL A   1      41.505  32.609  34.220  1.00  0.00     0.031 A 
BRANCH  44  58
ATOM     58  C   UNL A   1      45.134  27.739  33.089  1.00  0.00    -0.014 A 
ATOM     59  C   UNL A   1      46.430  28.118  32.702  1.00  0.00     0.010 A 
ATOM     60  C   UNL A   1      44.969  26.610  33.912  1.00  0.00     0.010 A 
ATOM     61  C   UNL A   1      47.537  27.360  33.100  1.00  0.00     0.020 A 
ATOM     62  C   UNL A   1      46.074  25.863  34.333  1.00  0.00     0.020 A 
ATOM     63  C   UNL A   1      47.351  26.234  33.909  1.00  0.00     0.054 A 
BRANCH  63  64
ATOM     64  S   UNL A   1      48.803  25.280  34.431  1.00  0.00     0.124 S 
ATOM     65  O   UNL A   1      49.761  26.337  34.742  1.00  0.00    -0.237 OA
ATOM     66  O   UNL A   1      48.301  24.530  35.581  1.00  0.00    -0.237 OA
ATOM     67  O   UNL A   1      49.126  24.471  33.258  1.00  0.00    -0.744 OA
ENDBRANCH  63  64
ENDBRANCH  44  58
BRANCH  45  68
ATOM     68  C   UNL A   1      36.961  32.693  30.224  1.00  0.00    -0.014 A 
ATOM     69  C   UNL A   1      35.769  32.533  30.950  1.00  0.00     0.010 A 
ATOM     70  C   UNL A   1      36.983  33.576  29.128  1.00  0.00     0.010 A 
ATOM     71  C   UNL A   1      34.622  33.247  30.591  1.00  0.00     0.020 A 
ATOM     72  C   UNL A   1      35.847  34.314  28.785  1.00  0.00     0.020 A 
ATOM     73  C   UNL A   1      34.670  34.138  29.514  1.00  0.00     0.054 A 
BRANCH  73  74
ATOM     74  S   UNL A   1      33.198  35.123  29.117  1.00  0.00     0.124 S 
ATOM     75  O   UNL A   1      32.529  34.283  28.130  1.00  0.00    -0.237 OA
ATOM     76  O   UNL A   1      32.530  35.234  30.412  1.00  0.00    -0.237 OA
ATOM     77  O   UNL A   1      33.754  36.374  28.605  1.00  0.00    -0.744 OA
ENDBRANCH  73  74
ENDBRANCH  45  68
BRANCH  57  78
ATOM     78  C   UNL A   1      41.638  33.655  35.292  1.00  0.00    -0.014 A 
ATOM     79  C   UNL A   1      42.402  34.817  35.079  1.00  0.00     0.010 A 
ATOM     80  C   UNL A   1      40.963  33.489  36.514  1.00  0.00     0.010 A 
ATOM     81  C   UNL A   1      42.513  35.781  36.083  1.00  0.00     0.020 A 
ATOM     82  C   UNL A   1      41.055  34.461  37.513  1.00  0.00     0.020 A 
ATOM     83  C   UNL A   1      41.842  35.594  37.297  1.00  0.00     0.054 A 
BRANCH  83  84
ATOM     84  S   UNL A   1      41.974  36.873  38.577  1.00  0.00     0.124 S 
ATOM     85  O   UNL A   1      40.601  37.364  38.655  1.00  0.00    -0.237 OA
ATOM     86  O   UNL A   1      42.440  36.121  39.739  1.00  0.00    -0.237 OA
ATOM     87  O   UNL A   1      42.943  37.816  38.024  1.00  0.00    -0.744 OA
ENDBRANCH  83  84
ENDBRANCH  57  78
ENDBRANCH  31  32
ENDBRANCH  24  26
ENDBRANCH  23  24
ENDBRANCH  22  23
ENDBRANCH   1  22
TORSDOF 18
ENDMDL
