MODEL 1
REMARK VINA RESULT:      -9.2      0.000      0.000
REMARK SMILES CC[N@H+](CC(C)(C)C(=O)OCCOC(=O)c1ccc(-c2c3nc(c(-c4ccc(S(=O)(=O)[O-])cc4)c4ccc([nH]4)c(-c4ccc(S(=O)(=O)[O-])cc4)c4nc(c(-c5ccc(S(=O)(=O)[O-])cc5)c5ccc2[nH]5)C=C4)C=C3)cc1)[C@H]1CC[NH2+]C1
REMARK SMILES IDX 11 1 10 2 8 3 9 4 5 5 6 6 7 7 4 8 3 9 2 11 1 12 76 13 77 14
REMARK SMILES IDX 80 15 78 16 79 17 12 20 13 21 14 22 15 23 16 24 17 25 75 26
REMARK SMILES IDX 18 27 74 28 19 29 20 30 21 31 68 32 22 33 73 34 67 35 69 36
REMARK SMILES IDX 23 37 72 38 66 39 65 40 24 42 54 43 35 44 53 45 36 46 39 47
REMARK SMILES IDX 52 48 70 49 37 50 38 51 51 53 71 54 40 55 25 56 26 57 34 58
REMARK SMILES IDX 27 59 33 60 28 61 29 62 30 63 31 64 32 65 55 66 56 67 64 68
REMARK SMILES IDX 57 69 63 70 58 71 59 72 60 73 61 74 62 75 41 76 42 77 50 78
REMARK SMILES IDX 43 79 49 80 44 81 45 82 46 83 47 84 48 85
REMARK H PARENT 3 10 79 18 79 19 69 41 39 52
REMARK Flexibility Score: inf
ROOT
ATOM      1  C   UNL A   1      33.382  31.157  27.306  1.00  0.00     0.274 C 
ENDROOT
BRANCH   1   2
ATOM      2  O   UNL A   1      32.617  29.927  27.325  1.00  0.00    -0.461 OA
BRANCH   2   3
ATOM      3  C   UNL A   1      33.347  28.837  26.979  1.00  0.00     0.317 C 
ATOM      4  O   UNL A   1      34.504  28.701  27.356  1.00  0.00    -0.251 OA
BRANCH   3   5
ATOM      5  C   UNL A   1      32.617  27.811  26.115  1.00  0.00     0.111 C 
ATOM      6  C   UNL A   1      31.382  27.226  26.807  1.00  0.00     0.029 C 
ATOM      7  C   UNL A   1      33.627  26.667  25.860  1.00  0.00     0.029 C 
BRANCH   5   8
ATOM      8  C   UNL A   1      32.228  28.437  24.721  1.00  0.00     0.280 C 
BRANCH   8   9
ATOM      9  N   UNL A   1      30.960  28.126  23.983  1.00  0.00    -0.327 N 
ATOM     10  H   UNL A   1      30.318  27.628  24.601  1.00  0.00     0.348 HD
BRANCH   9  11
ATOM     11  C   UNL A   1      30.203  29.335  23.607  1.00  0.00     0.259 C 
ATOM     12  C   UNL A   1      29.404  29.360  22.311  1.00  0.00     0.071 C 
ENDBRANCH   9  11
BRANCH   9  13
ATOM     13  C   UNL A   1      31.293  27.236  22.829  1.00  0.00     0.245 C 
ATOM     14  C   UNL A   1      32.767  27.333  22.432  1.00  0.00     0.132 C 
ATOM     15  C   UNL A   1      31.028  25.714  22.875  1.00  0.00     0.326 C 
ATOM     16  C   UNL A   1      33.055  25.991  21.784  1.00  0.00     0.267 C 
ATOM     17  N   UNL A   1      32.308  25.049  22.606  1.00  0.00    -0.341 N 
ATOM     18  H   UNL A   1      32.804  24.860  23.477  1.00  0.00     0.346 HD
ATOM     19  H   UNL A   1      32.182  24.150  22.140  1.00  0.00     0.346 HD
ENDBRANCH   9  13
ENDBRANCH   8   9
ENDBRANCH   5   8
ENDBRANCH   3   5
ENDBRANCH   2   3
ENDBRANCH   1   2
BRANCH   1  20
ATOM     20  C   UNL A   1      32.561  32.467  27.327  1.00  0.00     0.275 C 
BRANCH  20  21
ATOM     21  O   UNL A   1      33.349  33.681  27.393  1.00  0.00    -0.458 OA
BRANCH  21  22
ATOM     22  C   UNL A   1      33.435  34.263  28.621  1.00  0.00     0.338 C 
ATOM     23  O   UNL A   1      32.560  34.934  29.149  1.00  0.00    -0.246 OA
BRANCH  22  24
ATOM     24  C   UNL A   1      34.649  33.821  29.367  1.00  0.00     0.060 A 
ATOM     25  C   UNL A   1      34.457  32.847  30.352  1.00  0.00     0.016 A 
ATOM     26  C   UNL A   1      35.935  34.324  29.157  1.00  0.00     0.016 A 
ATOM     27  C   UNL A   1      35.537  32.321  31.068  1.00  0.00     0.010 A 
ATOM     28  C   UNL A   1      37.018  33.828  29.917  1.00  0.00     0.010 A 
ATOM     29  C   UNL A   1      36.837  32.803  30.863  1.00  0.00    -0.014 A 
BRANCH  29  30
ATOM     30  C   UNL A   1      37.962  32.241  31.674  1.00  0.00     0.031 A 
ATOM     31  C   UNL A   1      38.938  31.285  31.042  1.00  0.00     0.074 A 
ATOM     32  C   UNL A   1      38.178  32.640  32.946  1.00  0.00     0.049 A 
ATOM     33  N   UNL A   1      39.986  30.702  31.569  1.00  0.00    -0.248 NA
ATOM     34  C   UNL A   1      38.688  30.917  29.640  1.00  0.00     0.031 C 
ATOM     35  C   UNL A   1      37.352  33.601  33.669  1.00  0.00     0.029 A 
ATOM     36  N   UNL A   1      39.196  32.350  33.831  1.00  0.00    -0.354 N 
ATOM     37  C   UNL A   1      40.476  29.845  30.592  1.00  0.00     0.074 A 
ATOM     38  C   UNL A   1      39.651  30.033  29.418  1.00  0.00     0.031 C 
ATOM     39  C   UNL A   1      37.959  33.919  34.826  1.00  0.00     0.029 A 
ATOM     40  C   UNL A   1      39.174  33.122  34.977  1.00  0.00     0.049 A 
ATOM     41  H   UNL A   1      39.876  31.659  33.661  1.00  0.00     0.167 HD
ATOM     42  C   UNL A   1      41.479  28.938  30.686  1.00  0.00     0.031 A 
ATOM     43  C   UNL A   1      40.026  33.181  36.025  1.00  0.00     0.031 A 
ATOM     44  C   UNL A   1      42.276  28.722  31.867  1.00  0.00     0.049 A 
ATOM     45  C   UNL A   1      41.149  32.172  36.099  1.00  0.00     0.074 A 
ATOM     46  C   UNL A   1      43.262  27.772  32.076  1.00  0.00     0.029 A 
ATOM     47  N   UNL A   1      42.177  29.455  33.038  1.00  0.00    -0.354 N 
ATOM     48  N   UNL A   1      41.559  31.319  35.191  1.00  0.00    -0.248 NA
ATOM     49  C   UNL A   1      41.879  32.080  37.376  1.00  0.00     0.031 C 
ATOM     50  C   UNL A   1      43.713  27.889  33.395  1.00  0.00     0.029 A 
ATOM     51  C   UNL A   1      43.060  28.958  33.986  1.00  0.00     0.049 A 
ATOM     52  H   UNL A   1      41.569  30.217  33.179  1.00  0.00     0.167 HD
ATOM     53  C   UNL A   1      42.556  30.563  35.801  1.00  0.00     0.074 A 
ATOM     54  C   UNL A   1      42.743  31.105  37.129  1.00  0.00     0.031 C 
ATOM     55  C   UNL A   1      43.224  29.486  35.317  1.00  0.00     0.031 A 
BRANCH  42  56
ATOM     56  C   UNL A   1      41.675  28.012  29.515  1.00  0.00    -0.014 A 
ATOM     57  C   UNL A   1      40.812  26.933  29.262  1.00  0.00     0.010 A 
ATOM     58  C   UNL A   1      42.759  28.240  28.645  1.00  0.00     0.010 A 
ATOM     59  C   UNL A   1      41.059  26.072  28.189  1.00  0.00     0.020 A 
ATOM     60  C   UNL A   1      42.992  27.400  27.555  1.00  0.00     0.020 A 
ATOM     61  C   UNL A   1      42.151  26.307  27.346  1.00  0.00     0.054 A 
BRANCH  61  62
ATOM     62  S   UNL A   1      42.450  25.172  25.965  1.00  0.00     0.124 S 
ATOM     63  O   UNL A   1      41.981  25.954  24.824  1.00  0.00    -0.237 OA
ATOM     64  O   UNL A   1      43.894  24.961  26.031  1.00  0.00    -0.237 OA
ATOM     65  O   UNL A   1      41.637  24.002  26.292  1.00  0.00    -0.744 OA
ENDBRANCH  61  62
ENDBRANCH  42  56
BRANCH  43  66
ATOM     66  C   UNL A   1      39.831  34.162  37.142  1.00  0.00    -0.014 A 
ATOM     67  C   UNL A   1      39.108  33.803  38.298  1.00  0.00     0.010 A 
ATOM     68  C   UNL A   1      40.327  35.475  37.048  1.00  0.00     0.010 A 
ATOM     69  C   UNL A   1      38.883  34.734  39.323  1.00  0.00     0.020 A 
ATOM     70  C   UNL A   1      40.146  36.393  38.087  1.00  0.00     0.020 A 
ATOM     71  C   UNL A   1      39.411  36.022  39.214  1.00  0.00     0.054 A 
BRANCH  71  72
ATOM     72  S   UNL A   1      39.172  37.199  40.575  1.00  0.00     0.124 S 
ATOM     73  O   UNL A   1      40.534  37.668  40.816  1.00  0.00    -0.237 OA
ATOM     74  O   UNL A   1      38.259  38.180  39.994  1.00  0.00    -0.237 OA
ATOM     75  O   UNL A   1      38.596  36.378  41.638  1.00  0.00    -0.744 OA
ENDBRANCH  71  72
ENDBRANCH  43  66
BRANCH  55  76
ATOM     76  C   UNL A   1      44.190  28.785  36.240  1.00  0.00    -0.014 A 
ATOM     77  C   UNL A   1      43.801  27.629  36.942  1.00  0.00     0.010 A 
ATOM     78  C   UNL A   1      45.520  29.231  36.346  1.00  0.00     0.010 A 
ATOM     79  C   UNL A   1      44.718  26.942  37.744  1.00  0.00     0.020 A 
ATOM     80  C   UNL A   1      46.447  28.532  37.126  1.00  0.00     0.020 A 
ATOM     81  C   UNL A   1      46.038  27.395  37.827  1.00  0.00     0.054 A 
BRANCH  81  82
ATOM     82  S   UNL A   1      47.223  26.447  38.822  1.00  0.00     0.124 S 
ATOM     83  O   UNL A   1      46.365  25.447  39.450  1.00  0.00    -0.237 OA
ATOM     84  O   UNL A   1      48.149  25.936  37.813  1.00  0.00    -0.237 OA
ATOM     85  O   UNL A   1      47.788  27.442  39.731  1.00  0.00    -0.744 OA
ENDBRANCH  81  82
ENDBRANCH  55  76
ENDBRANCH  29  30
ENDBRANCH  22  24
ENDBRANCH  21  22
ENDBRANCH  20  21
ENDBRANCH   1  20
TORSDOF 18
ENDMDL
MODEL 2
REMARK VINA RESULT:      -9.1      2.463      8.693
REMARK SMILES CC[N@H+](CC(C)(C)C(=O)OCCOC(=O)c1ccc(-c2c3nc(c(-c4ccc(S(=O)(=O)[O-])cc4)c4ccc([nH]4)c(-c4ccc(S(=O)(=O)[O-])cc4)c4nc(c(-c5ccc(S(=O)(=O)[O-])cc5)c5ccc2[nH]5)C=C4)C=C3)cc1)[C@H]1CC[NH2+]C1
REMARK SMILES IDX 11 1 10 2 8 3 9 4 5 5 6 6 7 7 4 8 3 9 2 11 1 12 76 13 77 14
REMARK SMILES IDX 80 15 78 16 79 17 12 20 13 21 14 22 15 23 16 24 17 25 75 26
REMARK SMILES IDX 18 27 74 28 19 29 20 30 21 31 68 32 22 33 73 34 67 35 69 36
REMARK SMILES IDX 23 37 72 38 66 39 65 40 24 42 54 43 35 44 53 45 36 46 39 47
REMARK SMILES IDX 52 48 70 49 37 50 38 51 51 53 71 54 40 55 25 56 26 57 34 58
REMARK SMILES IDX 27 59 33 60 28 61 29 62 30 63 31 64 32 65 55 66 56 67 64 68
REMARK SMILES IDX 57 69 63 70 58 71 59 72 60 73 61 74 62 75 41 76 42 77 50 78
REMARK SMILES IDX 43 79 49 80 44 81 45 82 46 83 47 84 48 85
REMARK H PARENT 3 10 79 18 79 19 69 41 39 52
REMARK Flexibility Score: inf
ROOT
ATOM      1  C   UNL A   1      37.174  22.991  25.376  1.00  0.00     0.274 C 
ENDROOT
BRANCH   1   2
ATOM      2  O   UNL A   1      36.003  23.348  26.149  1.00  0.00    -0.461 OA
BRANCH   2   3
ATOM      3  C   UNL A   1      34.837  23.113  25.495  1.00  0.00     0.317 C 
ATOM      4  O   UNL A   1      34.783  23.118  24.272  1.00  0.00    -0.251 OA
BRANCH   3   5
ATOM      5  C   UNL A   1      33.632  22.833  26.391  1.00  0.00     0.111 C 
ATOM      6  C   UNL A   1      34.028  22.551  27.843  1.00  0.00     0.029 C 
ATOM      7  C   UNL A   1      32.951  21.570  25.812  1.00  0.00     0.029 C 
BRANCH   5   8
ATOM      8  C   UNL A   1      32.599  24.021  26.317  1.00  0.00     0.280 C 
BRANCH   8   9
ATOM      9  N   UNL A   1      32.171  24.686  25.042  1.00  0.00    -0.327 N 
ATOM     10  H   UNL A   1      32.778  24.386  24.279  1.00  0.00     0.348 HD
BRANCH   9  11
ATOM     11  C   UNL A   1      30.828  24.267  24.597  1.00  0.00     0.259 C 
ATOM     12  C   UNL A   1      30.570  23.984  23.123  1.00  0.00     0.071 C 
ENDBRANCH   9  11
BRANCH   9  13
ATOM     13  C   UNL A   1      32.319  26.164  25.212  1.00  0.00     0.245 C 
ATOM     14  C   UNL A   1      31.958  26.623  26.626  1.00  0.00     0.132 C 
ATOM     15  C   UNL A   1      33.657  26.884  24.927  1.00  0.00     0.326 C 
ATOM     16  C   UNL A   1      32.756  27.901  26.805  1.00  0.00     0.267 C 
ATOM     17  N   UNL A   1      34.023  27.606  26.150  1.00  0.00    -0.341 N 
ATOM     18  H   UNL A   1      34.610  27.025  26.748  1.00  0.00     0.346 HD
ATOM     19  H   UNL A   1      34.558  28.452  25.950  1.00  0.00     0.346 HD
ENDBRANCH   9  13
ENDBRANCH   8   9
ENDBRANCH   5   8
ENDBRANCH   3   5
ENDBRANCH   2   3
ENDBRANCH   1   2
BRANCH   1  20
ATOM     20  C   UNL A   1      38.535  23.154  26.092  1.00  0.00     0.275 C 
BRANCH  20  21
ATOM     21  O   UNL A   1      38.978  24.525  26.256  1.00  0.00    -0.458 OA
BRANCH  21  22
ATOM     22  C   UNL A   1      40.256  24.683  26.699  1.00  0.00     0.338 C 
ATOM     23  O   UNL A   1      41.245  24.163  26.204  1.00  0.00    -0.246 OA
BRANCH  22  24
ATOM     24  C   UNL A   1      40.360  25.742  27.743  1.00  0.00     0.060 A 
ATOM     25  C   UNL A   1      39.369  25.745  28.731  1.00  0.00     0.016 A 
ATOM     26  C   UNL A   1      41.355  26.722  27.783  1.00  0.00     0.016 A 
ATOM     27  C   UNL A   1      39.407  26.659  29.789  1.00  0.00     0.010 A 
ATOM     28  C   UNL A   1      41.362  27.677  28.825  1.00  0.00     0.010 A 
ATOM     29  C   UNL A   1      40.404  27.641  29.854  1.00  0.00    -0.014 A 
BRANCH  29  30
ATOM     30  C   UNL A   1      40.390  28.624  30.982  1.00  0.00     0.031 A 
ATOM     31  C   UNL A   1      39.313  29.674  31.049  1.00  0.00     0.074 A 
ATOM     32  C   UNL A   1      41.275  28.540  31.999  1.00  0.00     0.049 A 
ATOM     33  N   UNL A   1      39.117  30.604  31.951  1.00  0.00    -0.248 NA
ATOM     34  C   UNL A   1      38.343  29.697  29.944  1.00  0.00     0.031 C 
ATOM     35  C   UNL A   1      42.335  27.542  32.098  1.00  0.00     0.029 A 
ATOM     36  N   UNL A   1      41.380  29.250  33.176  1.00  0.00    -0.354 N 
ATOM     37  C   UNL A   1      38.052  31.365  31.487  1.00  0.00     0.074 A 
ATOM     38  C   UNL A   1      37.601  30.750  30.257  1.00  0.00     0.031 C 
ATOM     39  C   UNL A   1      42.896  27.618  33.318  1.00  0.00     0.029 A 
ATOM     40  C   UNL A   1      42.302  28.726  34.062  1.00  0.00     0.049 A 
ATOM     41  H   UNL A   1      40.847  30.055  33.368  1.00  0.00     0.167 HD
ATOM     42  C   UNL A   1      37.540  32.510  32.003  1.00  0.00     0.031 A 
ATOM     43  C   UNL A   1      42.631  29.092  35.321  1.00  0.00     0.031 A 
ATOM     44  C   UNL A   1      38.014  33.146  33.206  1.00  0.00     0.049 A 
ATOM     45  C   UNL A   1      42.034  30.361  35.884  1.00  0.00     0.074 A 
ATOM     46  C   UNL A   1      37.605  34.348  33.761  1.00  0.00     0.029 A 
ATOM     47  N   UNL A   1      39.003  32.642  34.036  1.00  0.00    -0.354 N 
ATOM     48  N   UNL A   1      41.072  31.111  35.399  1.00  0.00    -0.248 NA
ATOM     49  C   UNL A   1      42.623  30.879  37.131  1.00  0.00     0.031 C 
ATOM     50  C   UNL A   1      38.392  34.601  34.889  1.00  0.00     0.029 A 
ATOM     51  C   UNL A   1      39.241  33.524  35.079  1.00  0.00     0.049 A 
ATOM     52  H   UNL A   1      39.468  31.784  33.905  1.00  0.00     0.167 HD
ATOM     53  C   UNL A   1      40.976  32.206  36.253  1.00  0.00     0.074 A 
ATOM     54  C   UNL A   1      41.922  31.988  37.326  1.00  0.00     0.031 C 
ATOM     55  C   UNL A   1      40.204  33.314  36.132  1.00  0.00     0.031 A 
BRANCH  42  56
ATOM     56  C   UNL A   1      36.497  33.222  31.183  1.00  0.00    -0.014 A 
ATOM     57  C   UNL A   1      36.798  33.831  29.954  1.00  0.00     0.010 A 
ATOM     58  C   UNL A   1      35.176  33.275  31.668  1.00  0.00     0.010 A 
ATOM     59  C   UNL A   1      35.808  34.522  29.250  1.00  0.00     0.020 A 
ATOM     60  C   UNL A   1      34.176  33.937  30.953  1.00  0.00     0.020 A 
ATOM     61  C   UNL A   1      34.505  34.575  29.756  1.00  0.00     0.054 A 
BRANCH  61  62
ATOM     62  S   UNL A   1      33.241  35.481  28.824  1.00  0.00     0.124 S 
ATOM     63  O   UNL A   1      32.475  36.116  29.893  1.00  0.00    -0.237 OA
ATOM     64  O   UNL A   1      34.038  36.386  28.001  1.00  0.00    -0.237 OA
ATOM     65  O   UNL A   1      32.533  34.435  28.089  1.00  0.00    -0.744 OA
ENDBRANCH  61  62
ENDBRANCH  42  56
BRANCH  43  66
ATOM     66  C   UNL A   1      43.631  28.318  36.128  1.00  0.00    -0.014 A 
ATOM     67  C   UNL A   1      43.223  27.236  36.935  1.00  0.00     0.010 A 
ATOM     68  C   UNL A   1      44.992  28.674  36.131  1.00  0.00     0.010 A 
ATOM     69  C   UNL A   1      44.148  26.540  37.726  1.00  0.00     0.020 A 
ATOM     70  C   UNL A   1      45.927  27.955  36.882  1.00  0.00     0.020 A 
ATOM     71  C   UNL A   1      45.497  26.900  37.688  1.00  0.00     0.054 A 
BRANCH  71  72
ATOM     72  S   UNL A   1      46.698  25.951  38.664  1.00  0.00     0.124 S 
ATOM     73  O   UNL A   1      47.961  26.583  38.293  1.00  0.00    -0.237 OA
ATOM     74  O   UNL A   1      46.253  26.185  40.036  1.00  0.00    -0.237 OA
ATOM     75  O   UNL A   1      46.520  24.582  38.187  1.00  0.00    -0.744 OA
ENDBRANCH  71  72
ENDBRANCH  43  66
BRANCH  55  76
ATOM     76  C   UNL A   1      40.376  34.407  37.159  1.00  0.00    -0.014 A 
ATOM     77  C   UNL A   1      41.314  35.437  36.960  1.00  0.00     0.010 A 
ATOM     78  C   UNL A   1      39.541  34.454  38.290  1.00  0.00     0.010 A 
ATOM     79  C   UNL A   1      41.424  36.485  37.879  1.00  0.00     0.020 A 
ATOM     80  C   UNL A   1      39.630  35.514  39.198  1.00  0.00     0.020 A 
ATOM     81  C   UNL A   1      40.577  36.520  38.991  1.00  0.00     0.054 A 
BRANCH  81  82
ATOM     82  S   UNL A   1      40.696  37.925  40.133  1.00  0.00     0.124 S 
ATOM     83  O   UNL A   1      41.877  38.624  39.635  1.00  0.00    -0.237 OA
ATOM     84  O   UNL A   1      39.425  38.615  39.924  1.00  0.00    -0.237 OA
ATOM     85  O   UNL A   1      40.851  37.298  41.442  1.00  0.00    -0.744 OA
ENDBRANCH  81  82
ENDBRANCH  55  76
ENDBRANCH  29  30
ENDBRANCH  22  24
ENDBRANCH  21  22
ENDBRANCH  20  21
ENDBRANCH   1  20
TORSDOF 18
ENDMDL
MODEL 3
REMARK VINA RESULT:      -9.0      2.716      8.608
REMARK SMILES CC[N@H+](CC(C)(C)C(=O)OCCOC(=O)c1ccc(-c2c3nc(c(-c4ccc(S(=O)(=O)[O-])cc4)c4ccc([nH]4)c(-c4ccc(S(=O)(=O)[O-])cc4)c4nc(c(-c5ccc(S(=O)(=O)[O-])cc5)c5ccc2[nH]5)C=C4)C=C3)cc1)[C@H]1CC[NH2+]C1
REMARK SMILES IDX 11 1 10 2 8 3 9 4 5 5 6 6 7 7 4 8 3 9 2 11 1 12 76 13 77 14
REMARK SMILES IDX 80 15 78 16 79 17 12 20 13 21 14 22 15 23 16 24 17 25 75 26
REMARK SMILES IDX 18 27 74 28 19 29 20 30 21 31 68 32 22 33 73 34 67 35 69 36
REMARK SMILES IDX 23 37 72 38 66 39 65 40 24 42 54 43 35 44 53 45 36 46 39 47
REMARK SMILES IDX 52 48 70 49 37 50 38 51 51 53 71 54 40 55 25 56 26 57 34 58
REMARK SMILES IDX 27 59 33 60 28 61 29 62 30 63 31 64 32 65 55 66 56 67 64 68
REMARK SMILES IDX 57 69 63 70 58 71 59 72 60 73 61 74 62 75 41 76 42 77 50 78
REMARK SMILES IDX 43 79 49 80 44 81 45 82 46 83 47 84 48 85
REMARK H PARENT 3 10 79 18 79 19 69 41 39 52
REMARK Flexibility Score: inf
ROOT
ATOM      1  C   UNL A   1      37.395  22.893  25.782  1.00  0.00     0.274 C 
ENDROOT
BRANCH   1   2
ATOM      2  O   UNL A   1      36.090  23.245  26.303  1.00  0.00    -0.461 OA
BRANCH   2   3
ATOM      3  C   UNL A   1      35.161  22.273  26.120  1.00  0.00     0.317 C 
ATOM      4  O   UNL A   1      35.478  21.155  25.735  1.00  0.00    -0.251 OA
BRANCH   3   5
ATOM      5  C   UNL A   1      33.723  22.676  26.442  1.00  0.00     0.111 C 
ATOM      6  C   UNL A   1      33.505  24.191  26.376  1.00  0.00     0.029 C 
ATOM      7  C   UNL A   1      33.459  22.204  27.891  1.00  0.00     0.029 C 
BRANCH   5   8
ATOM      8  C   UNL A   1      32.712  21.928  25.493  1.00  0.00     0.280 C 
BRANCH   8   9
ATOM      9  N   UNL A   1      33.067  21.395  24.136  1.00  0.00    -0.327 N 
ATOM     10  H   UNL A   1      34.078  21.268  24.072  1.00  0.00     0.348 HD
BRANCH   9  11
ATOM     11  C   UNL A   1      32.536  20.041  23.893  1.00  0.00     0.259 C 
ATOM     12  C   UNL A   1      32.720  18.953  24.943  1.00  0.00     0.071 C 
ENDBRANCH   9  11
BRANCH   9  13
ATOM     13  C   UNL A   1      32.651  22.402  23.113  1.00  0.00     0.245 C 
ATOM     14  C   UNL A   1      31.407  23.182  23.542  1.00  0.00     0.132 C 
ATOM     15  C   UNL A   1      33.617  23.503  22.617  1.00  0.00     0.326 C 
ATOM     16  C   UNL A   1      31.531  24.498  22.795  1.00  0.00     0.267 C 
ATOM     17  N   UNL A   1      32.956  24.791  22.854  1.00  0.00    -0.341 N 
ATOM     18  H   UNL A   1      33.209  25.160  23.771  1.00  0.00     0.346 HD
ATOM     19  H   UNL A   1      33.232  25.495  22.169  1.00  0.00     0.346 HD
ENDBRANCH   9  13
ENDBRANCH   8   9
ENDBRANCH   5   8
ENDBRANCH   3   5
ENDBRANCH   2   3
ENDBRANCH   1   2
BRANCH   1  20
ATOM     20  C   UNL A   1      38.497  23.968  25.930  1.00  0.00     0.275 C 
BRANCH  20  21
ATOM     21  O   UNL A   1      39.693  23.525  26.619  1.00  0.00    -0.458 OA
BRANCH  21  22
ATOM     22  C   UNL A   1      40.697  24.441  26.706  1.00  0.00     0.338 C 
ATOM     23  O   UNL A   1      41.587  24.595  25.883  1.00  0.00    -0.246 OA
BRANCH  22  24
ATOM     24  C   UNL A   1      40.484  25.401  27.827  1.00  0.00     0.060 A 
ATOM     25  C   UNL A   1      41.475  26.369  28.019  1.00  0.00     0.016 A 
ATOM     26  C   UNL A   1      39.386  25.380  28.690  1.00  0.00     0.016 A 
ATOM     27  C   UNL A   1      41.343  27.353  29.005  1.00  0.00     0.010 A 
ATOM     28  C   UNL A   1      39.279  26.343  29.719  1.00  0.00     0.010 A 
ATOM     29  C   UNL A   1      40.243  27.356  29.872  1.00  0.00    -0.014 A 
BRANCH  29  30
ATOM     30  C   UNL A   1      40.155  28.403  30.938  1.00  0.00     0.031 A 
ATOM     31  C   UNL A   1      41.232  28.499  31.986  1.00  0.00     0.074 A 
ATOM     32  C   UNL A   1      39.172  29.329  30.934  1.00  0.00     0.049 A 
ATOM     33  N   UNL A   1      41.346  29.344  32.981  1.00  0.00    -0.248 NA
ATOM     34  C   UNL A   1      42.307  27.498  31.921  1.00  0.00     0.031 C 
ATOM     35  C   UNL A   1      38.096  29.396  29.950  1.00  0.00     0.029 A 
ATOM     36  N   UNL A   1      38.957  30.434  31.731  1.00  0.00    -0.354 N 
ATOM     37  C   UNL A   1      42.460  28.933  33.701  1.00  0.00     0.074 A 
ATOM     38  C   UNL A   1      43.025  27.804  32.993  1.00  0.00     0.031 C 
ATOM     39  C   UNL A   1      37.417  30.544  30.120  1.00  0.00     0.029 A 
ATOM     40  C   UNL A   1      37.946  31.259  31.279  1.00  0.00     0.049 A 
ATOM     41  H   UNL A   1      39.477  30.617  32.547  1.00  0.00     0.167 HD
ATOM     42  C   UNL A   1      42.931  29.411  34.880  1.00  0.00     0.031 A 
ATOM     43  C   UNL A   1      37.496  32.448  31.741  1.00  0.00     0.031 A 
ATOM     44  C   UNL A   1      42.346  30.509  35.607  1.00  0.00     0.049 A 
ATOM     45  C   UNL A   1      38.049  32.971  33.047  1.00  0.00     0.074 A 
ATOM     46  C   UNL A   1      42.711  31.010  36.846  1.00  0.00     0.029 A 
ATOM     47  N   UNL A   1      41.274  31.271  35.170  1.00  0.00    -0.354 N 
ATOM     48  N   UNL A   1      39.062  32.530  33.754  1.00  0.00    -0.248 NA
ATOM     49  C   UNL A   1      37.344  34.110  33.659  1.00  0.00     0.031 C 
ATOM     50  C   UNL A   1      41.818  32.031  37.187  1.00  0.00     0.029 A 
ATOM     51  C   UNL A   1      40.942  32.216  36.130  1.00  0.00     0.049 A 
ATOM     52  H   UNL A   1      40.815  31.158  34.307  1.00  0.00     0.167 HD
ATOM     53  C   UNL A   1      39.084  33.305  34.910  1.00  0.00     0.074 A 
ATOM     54  C   UNL A   1      38.034  34.291  34.777  1.00  0.00     0.031 C 
ATOM     55  C   UNL A   1      39.877  33.180  36.003  1.00  0.00     0.031 A 
BRANCH  42  56
ATOM     56  C   UNL A   1      44.059  28.649  35.524  1.00  0.00    -0.014 A 
ATOM     57  C   UNL A   1      43.832  27.582  36.409  1.00  0.00     0.010 A 
ATOM     58  C   UNL A   1      45.384  29.021  35.226  1.00  0.00     0.010 A 
ATOM     59  C   UNL A   1      44.909  26.933  37.020  1.00  0.00     0.020 A 
ATOM     60  C   UNL A   1      46.463  28.356  35.811  1.00  0.00     0.020 A 
ATOM     61  C   UNL A   1      46.218  27.329  36.721  1.00  0.00     0.054 A 
BRANCH  61  62
ATOM     62  S   UNL A   1      47.596  26.473  37.531  1.00  0.00     0.124 S 
ATOM     63  O   UNL A   1      48.123  25.654  36.443  1.00  0.00    -0.237 OA
ATOM     64  O   UNL A   1      48.451  27.577  37.957  1.00  0.00    -0.237 OA
ATOM     65  O   UNL A   1      46.957  25.730  38.615  1.00  0.00    -0.744 OA
ENDBRANCH  61  62
ENDBRANCH  42  56
BRANCH  43  66
ATOM     66  C   UNL A   1      36.413  33.206  31.033  1.00  0.00    -0.014 A 
ATOM     67  C   UNL A   1      36.687  33.914  29.845  1.00  0.00     0.010 A 
ATOM     68  C   UNL A   1      35.108  33.262  31.556  1.00  0.00     0.010 A 
ATOM     69  C   UNL A   1      35.686  34.662  29.207  1.00  0.00     0.020 A 
ATOM     70  C   UNL A   1      34.095  33.968  30.899  1.00  0.00     0.020 A 
ATOM     71  C   UNL A   1      34.394  34.677  29.735  1.00  0.00     0.054 A 
BRANCH  71  72
ATOM     72  S   UNL A   1      33.090  35.594  28.866  1.00  0.00     0.124 S 
ATOM     73  O   UNL A   1      32.325  36.162  29.973  1.00  0.00    -0.237 OA
ATOM     74  O   UNL A   1      33.849  36.551  28.065  1.00  0.00    -0.237 OA
ATOM     75  O   UNL A   1      32.402  34.560  28.097  1.00  0.00    -0.744 OA
ENDBRANCH  71  72
ENDBRANCH  43  66
BRANCH  55  76
ATOM     76  C   UNL A   1      39.616  34.099  37.171  1.00  0.00    -0.014 A 
ATOM     77  C   UNL A   1      38.828  33.673  38.257  1.00  0.00     0.010 A 
ATOM     78  C   UNL A   1      40.225  35.365  37.227  1.00  0.00     0.010 A 
ATOM     79  C   UNL A   1      38.643  34.501  39.369  1.00  0.00     0.020 A 
ATOM     80  C   UNL A   1      40.064  36.186  38.348  1.00  0.00     0.020 A 
ATOM     81  C   UNL A   1      39.267  35.751  39.410  1.00  0.00     0.054 A 
BRANCH  81  82
ATOM     82  S   UNL A   1      39.063  36.778  40.892  1.00  0.00     0.124 S 
ATOM     83  O   UNL A   1      38.168  35.963  41.708  1.00  0.00    -0.237 OA
ATOM     84  O   UNL A   1      40.432  36.896  41.389  1.00  0.00    -0.237 OA
ATOM     85  O   UNL A   1      38.484  38.017  40.380  1.00  0.00    -0.744 OA
ENDBRANCH  81  82
ENDBRANCH  55  76
ENDBRANCH  29  30
ENDBRANCH  22  24
ENDBRANCH  21  22
ENDBRANCH  20  21
ENDBRANCH   1  20
TORSDOF 18
ENDMDL
