MODEL 1
REMARK VINA RESULT:      -9.4      0.000      0.000
REMARK SMILES C[NH2+][C@]1(C(=O)OCCOC(=O)c2ccc(-c3c4nc(c(-c5ccc(S(=O)(=O)[O-])cc5)c5ccc([nH]5)c(-c5ccc(S(=O)(=O)[O-])cc5)c5nc(c(-c6ccc(S(=O)(=O)[O-])cc6)c6ccc3[nH]6)C=C5)C=C4)cc2)CCC[C@@H]1CCOC[C@@H]1CCCO1
REMARK SMILES IDX 7 1 6 2 4 3 5 4 3 5 72 6 75 7 73 8 74 9 2 10 1 11 76 14
REMARK SMILES IDX 77 15 78 16 79 17 80 18 81 19 84 20 82 21 83 22 8 23 9 24
REMARK SMILES IDX 10 25 11 26 12 27 13 28 71 29 14 30 70 31 15 32 16 33 17 34
REMARK SMILES IDX 64 35 18 36 69 37 63 38 65 39 19 40 68 41 62 42 61 43 20 45
REMARK SMILES IDX 50 46 31 47 49 48 32 49 35 50 48 51 66 52 33 53 34 54 47 56
REMARK SMILES IDX 67 57 36 58 21 59 22 60 30 61 23 62 29 63 24 64 25 65 26 66
REMARK SMILES IDX 27 67 28 68 51 69 52 70 60 71 53 72 59 73 54 74 55 75 56 76
REMARK SMILES IDX 57 77 58 78 37 79 38 80 46 81 39 82 45 83 40 84 41 85 42 86
REMARK SMILES IDX 43 87 44 88
REMARK H PARENT 2 12 2 13 65 44 35 55
REMARK Flexibility Score: inf
ROOT
ATOM      1  C   UNL A   1      36.039  22.275  24.927  1.00  0.00     0.274 C 
ENDROOT
BRANCH   1   2
ATOM      2  O   UNL A   1      35.585  23.245  25.893  1.00  0.00    -0.457 OA
BRANCH   2   3
ATOM      3  C   UNL A   1      34.622  24.105  25.447  1.00  0.00     0.368 C 
ATOM      4  O   UNL A   1      34.875  25.187  24.930  1.00  0.00    -0.245 OA
BRANCH   3   5
ATOM      5  C   UNL A   1      33.179  23.554  25.646  1.00  0.00     0.197 C 
ATOM      6  C   UNL A   1      32.268  24.588  26.352  1.00  0.00     0.081 C 
ATOM      7  C   UNL A   1      32.465  23.526  24.258  1.00  0.00     0.065 C 
ATOM      8  C   UNL A   1      30.847  24.182  25.968  1.00  0.00     0.008 C 
ATOM      9  C   UNL A   1      30.968  23.474  24.616  1.00  0.00     0.011 C 
BRANCH   5  10
ATOM     10  N   UNL A   1      33.232  22.349  26.504  1.00  0.00    -0.334 N 
ATOM     11  C   UNL A   1      33.089  22.463  27.939  1.00  0.00     0.331 C 
ATOM     12  H   UNL A   1      32.488  21.730  26.184  1.00  0.00     0.347 HD
ATOM     13  H   UNL A   1      34.196  22.032  26.393  1.00  0.00     0.347 HD
ENDBRANCH   5  10
BRANCH   7  14
ATOM     14  C   UNL A   1      32.942  22.476  23.237  1.00  0.00     0.039 C 
BRANCH  14  15
ATOM     15  C   UNL A   1      32.432  21.036  23.415  1.00  0.00     0.161 C 
BRANCH  15  16
ATOM     16  O   UNL A   1      33.185  20.226  24.299  1.00  0.00    -0.379 OA
BRANCH  16  17
ATOM     17  C   UNL A   1      32.567  19.253  25.134  1.00  0.00     0.192 C 
BRANCH  17  18
ATOM     18  C   UNL A   1      32.521  17.779  24.695  1.00  0.00     0.144 C 
ATOM     19  C   UNL A   1      32.907  16.755  25.747  1.00  0.00     0.037 C 
ATOM     20  O   UNL A   1      33.335  17.513  23.541  1.00  0.00    -0.376 OA
ATOM     21  C   UNL A   1      33.363  15.584  24.920  1.00  0.00     0.031 C 
ATOM     22  C   UNL A   1      34.020  16.269  23.739  1.00  0.00     0.160 C 
ENDBRANCH  17  18
ENDBRANCH  16  17
ENDBRANCH  15  16
ENDBRANCH  14  15
ENDBRANCH   7  14
ENDBRANCH   3   5
ENDBRANCH   2   3
ENDBRANCH   1   2
BRANCH   1  23
ATOM     23  C   UNL A   1      37.557  22.326  24.792  1.00  0.00     0.275 C 
BRANCH  23  24
ATOM     24  O   UNL A   1      38.154  22.311  26.098  1.00  0.00    -0.458 OA
BRANCH  24  25
ATOM     25  C   UNL A   1      39.444  22.719  26.165  1.00  0.00     0.338 C 
ATOM     26  O   UNL A   1      40.424  22.132  25.741  1.00  0.00    -0.246 OA
BRANCH  25  27
ATOM     27  C   UNL A   1      39.516  24.029  26.840  1.00  0.00     0.060 A 
ATOM     28  C   UNL A   1      40.341  25.025  26.329  1.00  0.00     0.016 A 
ATOM     29  C   UNL A   1      38.872  24.223  28.061  1.00  0.00     0.016 A 
ATOM     30  C   UNL A   1      40.625  26.154  27.090  1.00  0.00     0.010 A 
ATOM     31  C   UNL A   1      39.072  25.415  28.770  1.00  0.00     0.010 A 
ATOM     32  C   UNL A   1      39.995  26.377  28.319  1.00  0.00    -0.014 A 
BRANCH  32  33
ATOM     33  C   UNL A   1      40.363  27.561  29.150  1.00  0.00     0.031 A 
ATOM     34  C   UNL A   1      41.701  27.605  29.849  1.00  0.00     0.074 A 
ATOM     35  C   UNL A   1      39.544  28.630  29.245  1.00  0.00     0.049 A 
ATOM     36  N   UNL A   1      42.123  28.424  30.778  1.00  0.00    -0.248 NA
ATOM     37  C   UNL A   1      42.692  26.588  29.456  1.00  0.00     0.031 C 
ATOM     38  C   UNL A   1      38.261  28.789  28.555  1.00  0.00     0.029 A 
ATOM     39  N   UNL A   1      39.682  29.805  29.947  1.00  0.00    -0.354 N 
ATOM     40  C   UNL A   1      43.388  27.973  31.138  1.00  0.00     0.074 A 
ATOM     41  C   UNL A   1      43.676  26.818  30.315  1.00  0.00     0.031 C 
ATOM     42  C   UNL A   1      37.769  30.010  28.811  1.00  0.00     0.029 A 
ATOM     43  C   UNL A   1      38.629  30.674  29.781  1.00  0.00     0.049 A 
ATOM     44  H   UNL A   1      40.462  30.004  30.514  1.00  0.00     0.167 HD
ATOM     45  C   UNL A   1      44.228  28.467  32.079  1.00  0.00     0.031 A 
ATOM     46  C   UNL A   1      38.347  31.846  30.382  1.00  0.00     0.031 A 
ATOM     47  C   UNL A   1      43.963  29.650  32.856  1.00  0.00     0.049 A 
ATOM     48  C   UNL A   1      39.264  32.351  31.460  1.00  0.00     0.074 A 
ATOM     49  C   UNL A   1      44.734  30.217  33.856  1.00  0.00     0.029 A 
ATOM     50  N   UNL A   1      42.851  30.462  32.700  1.00  0.00    -0.354 N 
ATOM     51  N   UNL A   1      40.397  31.843  31.881  1.00  0.00    -0.248 NA
ATOM     52  C   UNL A   1      38.845  33.569  32.168  1.00  0.00     0.031 C 
ATOM     53  C   UNL A   1      44.071  31.356  34.327  1.00  0.00     0.029 A 
ATOM     54  C   UNL A   1      42.910  31.522  33.590  1.00  0.00     0.049 A 
ATOM     55  H   UNL A   1      42.125  30.308  32.053  1.00  0.00     0.167 HD
ATOM     56  C   UNL A   1      40.825  32.677  32.906  1.00  0.00     0.074 A 
ATOM     57  C   UNL A   1      39.846  33.739  33.021  1.00  0.00     0.031 C 
ATOM     58  C   UNL A   1      41.926  32.568  33.692  1.00  0.00     0.031 A 
BRANCH  45  59
ATOM     59  C   UNL A   1      45.484  27.690  32.368  1.00  0.00    -0.014 A 
ATOM     60  C   UNL A   1      45.513  26.647  33.309  1.00  0.00     0.010 A 
ATOM     61  C   UNL A   1      46.659  28.003  31.656  1.00  0.00     0.010 A 
ATOM     62  C   UNL A   1      46.704  25.958  33.563  1.00  0.00     0.020 A 
ATOM     63  C   UNL A   1      47.844  27.302  31.890  1.00  0.00     0.020 A 
ATOM     64  C   UNL A   1      47.864  26.296  32.858  1.00  0.00     0.054 A 
BRANCH  64  65
ATOM     65  S   UNL A   1      49.395  25.385  33.199  1.00  0.00     0.124 S 
ATOM     66  O   UNL A   1      49.813  24.986  31.857  1.00  0.00    -0.237 OA
ATOM     67  O   UNL A   1      50.234  26.391  33.844  1.00  0.00    -0.237 OA
ATOM     68  O   UNL A   1      48.963  24.291  34.066  1.00  0.00    -0.744 OA
ENDBRANCH  64  65
ENDBRANCH  45  59
BRANCH  46  69
ATOM     69  C   UNL A   1      37.092  32.575  30.042  1.00  0.00    -0.014 A 
ATOM     70  C   UNL A   1      35.954  32.467  30.860  1.00  0.00     0.010 A 
ATOM     71  C   UNL A   1      37.037  33.396  28.901  1.00  0.00     0.010 A 
ATOM     72  C   UNL A   1      34.785  33.164  30.539  1.00  0.00     0.020 A 
ATOM     73  C   UNL A   1      35.882  34.118  28.595  1.00  0.00     0.020 A 
ATOM     74  C   UNL A   1      34.757  33.987  29.410  1.00  0.00     0.054 A 
BRANCH  74  75
ATOM     75  S   UNL A   1      33.253  34.933  29.041  1.00  0.00     0.124 S 
ATOM     76  O   UNL A   1      32.588  34.960  30.340  1.00  0.00    -0.237 OA
ATOM     77  O   UNL A   1      33.785  36.211  28.575  1.00  0.00    -0.237 OA
ATOM     78  O   UNL A   1      32.591  34.131  28.014  1.00  0.00    -0.744 OA
ENDBRANCH  74  75
ENDBRANCH  46  69
BRANCH  58  79
ATOM     79  C   UNL A   1      42.140  33.636  34.726  1.00  0.00    -0.014 A 
ATOM     80  C   UNL A   1      41.573  33.527  36.008  1.00  0.00     0.010 A 
ATOM     81  C   UNL A   1      42.956  34.741  34.424  1.00  0.00     0.010 A 
ATOM     82  C   UNL A   1      41.797  34.521  36.964  1.00  0.00     0.020 A 
ATOM     83  C   UNL A   1      43.201  35.725  35.385  1.00  0.00     0.020 A 
ATOM     84  C   UNL A   1      42.608  35.615  36.645  1.00  0.00     0.054 A 
BRANCH  84  85
ATOM     85  S   UNL A   1      42.921  36.871  37.915  1.00  0.00     0.124 S 
ATOM     86  O   UNL A   1      41.569  37.204  38.353  1.00  0.00    -0.237 OA
ATOM     87  O   UNL A   1      43.737  36.151  38.889  1.00  0.00    -0.237 OA
ATOM     88  O   UNL A   1      43.620  37.929  37.189  1.00  0.00    -0.744 OA
ENDBRANCH  84  85
ENDBRANCH  58  79
ENDBRANCH  32  33
ENDBRANCH  25  27
ENDBRANCH  24  25
ENDBRANCH  23  24
ENDBRANCH   1  23
TORSDOF 20
ENDMDL
MODEL 2
REMARK VINA RESULT:      -9.3      3.498      5.062
REMARK SMILES C[NH2+][C@]1(C(=O)OCCOC(=O)c2ccc(-c3c4nc(c(-c5ccc(S(=O)(=O)[O-])cc5)c5ccc([nH]5)c(-c5ccc(S(=O)(=O)[O-])cc5)c5nc(c(-c6ccc(S(=O)(=O)[O-])cc6)c6ccc3[nH]6)C=C5)C=C4)cc2)CCC[C@@H]1CCOC[C@@H]1CCCO1
REMARK SMILES IDX 7 1 6 2 4 3 5 4 3 5 72 6 75 7 73 8 74 9 2 10 1 11 76 14
REMARK SMILES IDX 77 15 78 16 79 17 80 18 81 19 84 20 82 21 83 22 8 23 9 24
REMARK SMILES IDX 10 25 11 26 12 27 13 28 71 29 14 30 70 31 15 32 16 33 17 34
REMARK SMILES IDX 64 35 18 36 69 37 63 38 65 39 19 40 68 41 62 42 61 43 20 45
REMARK SMILES IDX 50 46 31 47 49 48 32 49 35 50 48 51 66 52 33 53 34 54 47 56
REMARK SMILES IDX 67 57 36 58 21 59 22 60 30 61 23 62 29 63 24 64 25 65 26 66
REMARK SMILES IDX 27 67 28 68 51 69 52 70 60 71 53 72 59 73 54 74 55 75 56 76
REMARK SMILES IDX 57 77 58 78 37 79 38 80 46 81 39 82 45 83 40 84 41 85 42 86
REMARK SMILES IDX 43 87 44 88
REMARK H PARENT 2 12 2 13 65 44 35 55
REMARK Flexibility Score: inf
ROOT
ATOM      1  C   UNL A   1      37.010  22.468  23.891  1.00  0.00     0.274 C 
ENDROOT
BRANCH   1   2
ATOM      2  O   UNL A   1      35.886  23.127  24.510  1.00  0.00    -0.457 OA
BRANCH   2   3
ATOM      3  C   UNL A   1      34.703  23.012  23.839  1.00  0.00     0.368 C 
ATOM      4  O   UNL A   1      34.567  23.311  22.658  1.00  0.00    -0.245 OA
BRANCH   3   5
ATOM      5  C   UNL A   1      33.556  22.445  24.727  1.00  0.00     0.197 C 
ATOM      6  C   UNL A   1      33.931  22.474  26.229  1.00  0.00     0.081 C 
ATOM      7  C   UNL A   1      32.394  23.488  24.759  1.00  0.00     0.065 C 
ATOM      8  C   UNL A   1      32.595  22.457  26.966  1.00  0.00     0.008 C 
ATOM      9  C   UNL A   1      31.584  23.097  26.010  1.00  0.00     0.011 C 
BRANCH   5  10
ATOM     10  N   UNL A   1      33.308  21.033  24.358  1.00  0.00    -0.334 N 
ATOM     11  C   UNL A   1      34.158  19.980  24.870  1.00  0.00     0.331 C 
ATOM     12  H   UNL A   1      32.358  20.815  24.660  1.00  0.00     0.347 HD
ATOM     13  H   UNL A   1      33.503  21.021  23.357  1.00  0.00     0.347 HD
ENDBRANCH   5  10
BRANCH   7  14
ATOM     14  C   UNL A   1      31.575  23.675  23.468  1.00  0.00     0.039 C 
BRANCH  14  15
ATOM     15  C   UNL A   1      30.983  25.069  23.204  1.00  0.00     0.161 C 
BRANCH  15  16
ATOM     16  O   UNL A   1      30.601  25.800  24.356  1.00  0.00    -0.379 OA
BRANCH  16  17
ATOM     17  C   UNL A   1      30.380  27.206  24.312  1.00  0.00     0.192 C 
BRANCH  17  18
ATOM     18  C   UNL A   1      29.682  27.838  23.095  1.00  0.00     0.144 C 
ATOM     19  C   UNL A   1      30.212  29.187  22.646  1.00  0.00     0.037 C 
ATOM     20  O   UNL A   1      28.265  27.989  23.278  1.00  0.00    -0.376 OA
ATOM     21  C   UNL A   1      29.029  29.790  21.937  1.00  0.00     0.031 C 
ATOM     22  C   UNL A   1      27.869  29.265  22.759  1.00  0.00     0.160 C 
ENDBRANCH  17  18
ENDBRANCH  16  17
ENDBRANCH  15  16
ENDBRANCH  14  15
ENDBRANCH   7  14
ENDBRANCH   3   5
ENDBRANCH   2   3
ENDBRANCH   1   2
BRANCH   1  23
ATOM     23  C   UNL A   1      37.566  21.383  24.807  1.00  0.00     0.275 C 
BRANCH  23  24
ATOM     24  O   UNL A   1      37.989  21.974  26.046  1.00  0.00    -0.458 OA
BRANCH  24  25
ATOM     25  C   UNL A   1      39.325  22.001  26.265  1.00  0.00     0.338 C 
ATOM     26  O   UNL A   1      40.133  21.131  25.991  1.00  0.00    -0.246 OA
BRANCH  25  27
ATOM     27  C   UNL A   1      39.699  23.280  26.899  1.00  0.00     0.060 A 
ATOM     28  C   UNL A   1      39.154  24.469  26.428  1.00  0.00     0.016 A 
ATOM     29  C   UNL A   1      40.697  23.313  27.870  1.00  0.00     0.016 A 
ATOM     30  C   UNL A   1      39.690  25.689  26.828  1.00  0.00     0.010 A 
ATOM     31  C   UNL A   1      41.154  24.546  28.355  1.00  0.00     0.010 A 
ATOM     32  C   UNL A   1      40.693  25.755  27.801  1.00  0.00    -0.014 A 
BRANCH  32  33
ATOM     33  C   UNL A   1      41.301  27.068  28.168  1.00  0.00     0.031 A 
ATOM     34  C   UNL A   1      42.776  27.304  27.945  1.00  0.00     0.074 A 
ATOM     35  C   UNL A   1      40.545  28.080  28.643  1.00  0.00     0.049 A 
ATOM     36  N   UNL A   1      43.534  28.275  28.387  1.00  0.00    -0.248 NA
ATOM     37  C   UNL A   1      43.494  26.313  27.125  1.00  0.00     0.031 C 
ATOM     38  C   UNL A   1      39.091  28.049  28.825  1.00  0.00     0.029 A 
ATOM     39  N   UNL A   1      40.894  29.350  29.040  1.00  0.00    -0.354 N 
ATOM     40  C   UNL A   1      44.826  27.968  27.971  1.00  0.00     0.074 A 
ATOM     41  C   UNL A   1      44.748  26.731  27.226  1.00  0.00     0.031 C 
ATOM     42  C   UNL A   1      38.669  29.257  29.227  1.00  0.00     0.029 A 
ATOM     43  C   UNL A   1      39.827  30.111  29.457  1.00  0.00     0.049 A 
ATOM     44  H   UNL A   1      41.821  29.682  29.027  1.00  0.00     0.167 HD
ATOM     45  C   UNL A   1      45.974  28.649  28.203  1.00  0.00     0.031 A 
ATOM     46  C   UNL A   1      39.779  31.335  30.019  1.00  0.00     0.031 A 
ATOM     47  C   UNL A   1      46.040  29.909  28.896  1.00  0.00     0.049 A 
ATOM     48  C   UNL A   1      41.067  32.051  30.315  1.00  0.00     0.074 A 
ATOM     49  C   UNL A   1      47.156  30.665  29.209  1.00  0.00     0.029 A 
ATOM     50  N   UNL A   1      44.938  30.611  29.360  1.00  0.00    -0.354 N 
ATOM     51  N   UNL A   1      42.294  31.688  30.030  1.00  0.00    -0.248 NA
ATOM     52  C   UNL A   1      40.964  33.324  31.040  1.00  0.00     0.031 C 
ATOM     53  C   UNL A   1      46.731  31.810  29.892  1.00  0.00     0.029 A 
ATOM     54  C   UNL A   1      45.348  31.789  29.963  1.00  0.00     0.049 A 
ATOM     55  H   UNL A   1      44.003  30.317  29.273  1.00  0.00     0.167 HD
ATOM     56  C   UNL A   1      43.111  32.687  30.545  1.00  0.00     0.074 A 
ATOM     57  C   UNL A   1      42.238  33.684  31.130  1.00  0.00     0.031 C 
ATOM     58  C   UNL A   1      44.465  32.767  30.543  1.00  0.00     0.031 A 
BRANCH  45  59
ATOM     59  C   UNL A   1      47.263  28.010  27.759  1.00  0.00    -0.014 A 
ATOM     60  C   UNL A   1      48.035  27.216  28.625  1.00  0.00     0.010 A 
ATOM     61  C   UNL A   1      47.695  28.196  26.431  1.00  0.00     0.010 A 
ATOM     62  C   UNL A   1      49.236  26.653  28.181  1.00  0.00     0.020 A 
ATOM     63  C   UNL A   1      48.882  27.615  25.979  1.00  0.00     0.020 A 
ATOM     64  C   UNL A   1      49.656  26.863  26.863  1.00  0.00     0.054 A 
BRANCH  64  65
ATOM     65  S   UNL A   1      51.214  26.116  26.309  1.00  0.00     0.124 S 
ATOM     66  O   UNL A   1      52.203  27.031  26.875  1.00  0.00    -0.237 OA
ATOM     67  O   UNL A   1      51.169  24.788  26.914  1.00  0.00    -0.237 OA
ATOM     68  O   UNL A   1      51.110  26.137  24.852  1.00  0.00    -0.744 OA
ENDBRANCH  64  65
ENDBRANCH  45  59
BRANCH  46  69
ATOM     69  C   UNL A   1      38.470  31.918  30.424  1.00  0.00    -0.014 A 
ATOM     70  C   UNL A   1      37.927  31.655  31.693  1.00  0.00     0.010 A 
ATOM     71  C   UNL A   1      37.765  32.757  29.541  1.00  0.00     0.010 A 
ATOM     72  C   UNL A   1      36.702  32.216  32.069  1.00  0.00     0.020 A 
ATOM     73  C   UNL A   1      36.558  33.345  29.924  1.00  0.00     0.020 A 
ATOM     74  C   UNL A   1      36.027  33.060  31.183  1.00  0.00     0.054 A 
BRANCH  74  75
ATOM     75  S   UNL A   1      34.470  33.830  31.707  1.00  0.00     0.124 S 
ATOM     76  O   UNL A   1      34.944  34.989  32.457  1.00  0.00    -0.237 OA
ATOM     77  O   UNL A   1      33.814  34.125  30.435  1.00  0.00    -0.237 OA
ATOM     78  O   UNL A   1      33.827  32.788  32.503  1.00  0.00    -0.744 OA
ENDBRANCH  74  75
ENDBRANCH  46  69
BRANCH  58  79
ATOM     79  C   UNL A   1      45.081  33.985  31.172  1.00  0.00    -0.014 A 
ATOM     80  C   UNL A   1      45.307  35.152  30.421  1.00  0.00     0.010 A 
ATOM     81  C   UNL A   1      45.397  33.973  32.543  1.00  0.00     0.010 A 
ATOM     82  C   UNL A   1      45.865  36.281  31.027  1.00  0.00     0.020 A 
ATOM     83  C   UNL A   1      45.934  35.107  33.155  1.00  0.00     0.020 A 
ATOM     84  C   UNL A   1      46.177  36.251  32.390  1.00  0.00     0.054 A 
BRANCH  84  85
ATOM     85  S   UNL A   1      46.859  37.741  33.165  1.00  0.00     0.124 S 
ATOM     86  O   UNL A   1      47.569  38.365  32.051  1.00  0.00    -0.237 OA
ATOM     87  O   UNL A   1      45.664  38.446  33.621  1.00  0.00    -0.237 OA
ATOM     88  O   UNL A   1      47.710  37.218  34.231  1.00  0.00    -0.744 OA
ENDBRANCH  84  85
ENDBRANCH  58  79
ENDBRANCH  32  33
ENDBRANCH  25  27
ENDBRANCH  24  25
ENDBRANCH  23  24
ENDBRANCH   1  23
TORSDOF 20
ENDMDL
MODEL 3
REMARK VINA RESULT:      -9.2      1.814      3.842
REMARK SMILES C[NH2+][C@]1(C(=O)OCCOC(=O)c2ccc(-c3c4nc(c(-c5ccc(S(=O)(=O)[O-])cc5)c5ccc([nH]5)c(-c5ccc(S(=O)(=O)[O-])cc5)c5nc(c(-c6ccc(S(=O)(=O)[O-])cc6)c6ccc3[nH]6)C=C5)C=C4)cc2)CCC[C@@H]1CCOC[C@@H]1CCCO1
REMARK SMILES IDX 7 1 6 2 4 3 5 4 3 5 72 6 75 7 73 8 74 9 2 10 1 11 76 14
REMARK SMILES IDX 77 15 78 16 79 17 80 18 81 19 84 20 82 21 83 22 8 23 9 24
REMARK SMILES IDX 10 25 11 26 12 27 13 28 71 29 14 30 70 31 15 32 16 33 17 34
REMARK SMILES IDX 64 35 18 36 69 37 63 38 65 39 19 40 68 41 62 42 61 43 20 45
REMARK SMILES IDX 50 46 31 47 49 48 32 49 35 50 48 51 66 52 33 53 34 54 47 56
REMARK SMILES IDX 67 57 36 58 21 59 22 60 30 61 23 62 29 63 24 64 25 65 26 66
REMARK SMILES IDX 27 67 28 68 51 69 52 70 60 71 53 72 59 73 54 74 55 75 56 76
REMARK SMILES IDX 57 77 58 78 37 79 38 80 46 81 39 82 45 83 40 84 41 85 42 86
REMARK SMILES IDX 43 87 44 88
REMARK H PARENT 2 12 2 13 65 44 35 55
REMARK Flexibility Score: inf
ROOT
ATOM      1  C   UNL A   1      36.422  21.970  24.148  1.00  0.00     0.274 C 
ENDROOT
BRANCH   1   2
ATOM      2  O   UNL A   1      35.624  22.956  24.834  1.00  0.00    -0.457 OA
BRANCH   2   3
ATOM      3  C   UNL A   1      34.649  22.452  25.646  1.00  0.00     0.368 C 
ATOM      4  O   UNL A   1      34.851  21.565  26.469  1.00  0.00    -0.245 OA
BRANCH   3   5
ATOM      5  C   UNL A   1      33.267  23.136  25.430  1.00  0.00     0.197 C 
ATOM      6  C   UNL A   1      32.126  22.343  26.113  1.00  0.00     0.081 C 
ATOM      7  C   UNL A   1      33.211  24.426  26.308  1.00  0.00     0.065 C 
ATOM      8  C   UNL A   1      31.010  23.364  26.318  1.00  0.00     0.008 C 
ATOM      9  C   UNL A   1      31.704  24.724  26.427  1.00  0.00     0.011 C 
BRANCH   5  10
ATOM     10  N   UNL A   1      32.969  23.183  23.980  1.00  0.00    -0.334 N 
ATOM     11  C   UNL A   1      32.609  21.977  23.265  1.00  0.00     0.331 C 
ATOM     12  H   UNL A   1      32.195  23.835  23.862  1.00  0.00     0.347 HD
ATOM     13  H   UNL A   1      33.869  23.433  23.570  1.00  0.00     0.347 HD
ENDBRANCH   5  10
BRANCH   7  14
ATOM     14  C   UNL A   1      34.092  25.613  25.879  1.00  0.00     0.039 C 
BRANCH  14  15
ATOM     15  C   UNL A   1      33.503  27.024  26.041  1.00  0.00     0.161 C 
BRANCH  15  16
ATOM     16  O   UNL A   1      33.757  27.919  24.972  1.00  0.00    -0.379 OA
BRANCH  16  17
ATOM     17  C   UNL A   1      32.866  28.984  24.659  1.00  0.00     0.192 C 
BRANCH  17  18
ATOM     18  C   UNL A   1      31.364  28.703  24.478  1.00  0.00     0.144 C 
ATOM     19  C   UNL A   1      30.992  27.753  23.354  1.00  0.00     0.037 C 
ATOM     20  O   UNL A   1      30.589  29.897  24.284  1.00  0.00    -0.376 OA
ATOM     21  C   UNL A   1      29.578  28.155  23.033  1.00  0.00     0.031 C 
ATOM     22  C   UNL A   1      29.617  29.652  23.259  1.00  0.00     0.160 C 
ENDBRANCH  17  18
ENDBRANCH  16  17
ENDBRANCH  15  16
ENDBRANCH  14  15
ENDBRANCH   7  14
ENDBRANCH   3   5
ENDBRANCH   2   3
ENDBRANCH   1   2
BRANCH   1  23
ATOM     23  C   UNL A   1      37.734  21.734  24.889  1.00  0.00     0.275 C 
BRANCH  23  24
ATOM     24  O   UNL A   1      38.265  22.993  25.332  1.00  0.00    -0.458 OA
BRANCH  24  25
ATOM     25  C   UNL A   1      39.158  22.935  26.349  1.00  0.00     0.338 C 
ATOM     26  O   UNL A   1      39.771  21.955  26.735  1.00  0.00    -0.246 OA
BRANCH  25  27
ATOM     27  C   UNL A   1      39.308  24.272  26.954  1.00  0.00     0.060 A 
ATOM     28  C   UNL A   1      39.897  25.298  26.224  1.00  0.00     0.016 A 
ATOM     29  C   UNL A   1      38.993  24.471  28.297  1.00  0.00     0.016 A 
ATOM     30  C   UNL A   1      40.287  26.473  26.860  1.00  0.00     0.010 A 
ATOM     31  C   UNL A   1      39.283  25.701  28.904  1.00  0.00     0.010 A 
ATOM     32  C   UNL A   1      39.984  26.702  28.206  1.00  0.00    -0.014 A 
BRANCH  32  33
ATOM     33  C   UNL A   1      40.469  27.939  28.887  1.00  0.00     0.031 A 
ATOM     34  C   UNL A   1      41.902  28.029  29.356  1.00  0.00     0.074 A 
ATOM     35  C   UNL A   1      39.665  29.013  29.042  1.00  0.00     0.049 A 
ATOM     36  N   UNL A   1      42.459  28.908  30.150  1.00  0.00    -0.248 NA
ATOM     37  C   UNL A   1      42.827  26.987  28.878  1.00  0.00     0.031 C 
ATOM     38  C   UNL A   1      38.286  29.125  28.558  1.00  0.00     0.029 A 
ATOM     39  N   UNL A   1      39.902  30.232  29.633  1.00  0.00    -0.354 N 
ATOM     40  C   UNL A   1      43.770  28.481  30.330  1.00  0.00     0.074 A 
ATOM     41  C   UNL A   1      43.933  27.274  29.550  1.00  0.00     0.031 C 
ATOM     42  C   UNL A   1      37.830  30.362  28.808  1.00  0.00     0.029 A 
ATOM     43  C   UNL A   1      38.828  31.088  29.581  1.00  0.00     0.049 A 
ATOM     44  H   UNL A   1      40.761  30.468  30.052  1.00  0.00     0.167 HD
ATOM     45  C   UNL A   1      44.745  29.037  31.089  1.00  0.00     0.031 A 
ATOM     46  C   UNL A   1      38.634  32.299  30.141  1.00  0.00     0.031 A 
ATOM     47  C   UNL A   1      44.597  30.269  31.818  1.00  0.00     0.049 A 
ATOM     48  C   UNL A   1      39.707  32.874  31.021  1.00  0.00     0.074 A 
ATOM     49  C   UNL A   1      45.513  30.902  32.640  1.00  0.00     0.029 A 
ATOM     50  N   UNL A   1      43.466  31.070  31.790  1.00  0.00    -0.354 N 
ATOM     51  N   UNL A   1      40.898  32.395  31.287  1.00  0.00    -0.248 NA
ATOM     52  C   UNL A   1      39.396  34.137  31.705  1.00  0.00     0.031 C 
ATOM     53  C   UNL A   1      44.922  32.070  33.136  1.00  0.00     0.029 A 
ATOM     54  C   UNL A   1      43.656  32.187  32.585  1.00  0.00     0.049 A 
ATOM     55  H   UNL A   1      42.647  30.873  31.279  1.00  0.00     0.167 HD
ATOM     56  C   UNL A   1      41.477  33.296  32.172  1.00  0.00     0.074 A 
ATOM     57  C   UNL A   1      40.519  34.364  32.373  1.00  0.00     0.031 C 
ATOM     58  C   UNL A   1      42.691  33.238  32.775  1.00  0.00     0.031 A 
BRANCH  45  59
ATOM     59  C   UNL A   1      46.040  28.280  31.222  1.00  0.00    -0.014 A 
ATOM     60  C   UNL A   1      47.116  28.488  30.342  1.00  0.00     0.010 A 
ATOM     61  C   UNL A   1      46.183  27.354  32.274  1.00  0.00     0.010 A 
ATOM     62  C   UNL A   1      48.297  27.752  30.488  1.00  0.00     0.020 A 
ATOM     63  C   UNL A   1      47.370  26.635  32.436  1.00  0.00     0.020 A 
ATOM     64  C   UNL A   1      48.413  26.825  31.529  1.00  0.00     0.054 A 
BRANCH  64  65
ATOM     65  S   UNL A   1      49.957  25.889  31.702  1.00  0.00     0.124 S 
ATOM     66  O   UNL A   1      50.214  25.476  30.324  1.00  0.00    -0.237 OA
ATOM     67  O   UNL A   1      50.881  26.884  32.241  1.00  0.00    -0.237 OA
ATOM     68  O   UNL A   1      49.608  24.808  32.621  1.00  0.00    -0.744 OA
ENDBRANCH  64  65
ENDBRANCH  45  59
BRANCH  46  69
ATOM     69  C   UNL A   1      37.334  33.003  29.960  1.00  0.00    -0.014 A 
ATOM     70  C   UNL A   1      37.087  33.773  28.810  1.00  0.00     0.010 A 
ATOM     71  C   UNL A   1      36.326  32.892  30.935  1.00  0.00     0.010 A 
ATOM     72  C   UNL A   1      35.859  34.422  28.644  1.00  0.00     0.020 A 
ATOM     73  C   UNL A   1      35.087  33.511  30.758  1.00  0.00     0.020 A 
ATOM     74  C   UNL A   1      34.866  34.284  29.617  1.00  0.00     0.054 A 
BRANCH  74  75
ATOM     75  S   UNL A   1      33.256  35.080  29.358  1.00  0.00     0.124 S 
ATOM     76  O   UNL A   1      32.659  34.228  28.335  1.00  0.00    -0.237 OA
ATOM     77  O   UNL A   1      32.644  35.002  30.682  1.00  0.00    -0.237 OA
ATOM     78  O   UNL A   1      33.610  36.429  28.922  1.00  0.00    -0.744 OA
ENDBRANCH  74  75
ENDBRANCH  46  69
BRANCH  58  79
ATOM     79  C   UNL A   1      43.058  34.373  33.689  1.00  0.00    -0.014 A 
ATOM     80  C   UNL A   1      42.727  34.339  35.054  1.00  0.00     0.010 A 
ATOM     81  C   UNL A   1      43.782  35.467  33.180  1.00  0.00     0.010 A 
ATOM     82  C   UNL A   1      43.093  35.395  35.893  1.00  0.00     0.020 A 
ATOM     83  C   UNL A   1      44.167  36.513  34.021  1.00  0.00     0.020 A 
ATOM     84  C   UNL A   1      43.808  36.477  35.371  1.00  0.00     0.054 A 
BRANCH  84  85
ATOM     85  S   UNL A   1      44.310  37.816  36.486  1.00  0.00     0.124 S 
ATOM     86  O   UNL A   1      44.047  39.001  35.675  1.00  0.00    -0.237 OA
ATOM     87  O   UNL A   1      43.425  37.631  37.633  1.00  0.00    -0.237 OA
ATOM     88  O   UNL A   1      45.720  37.539  36.746  1.00  0.00    -0.744 OA
ENDBRANCH  84  85
ENDBRANCH  58  79
ENDBRANCH  32  33
ENDBRANCH  25  27
ENDBRANCH  24  25
ENDBRANCH  23  24
ENDBRANCH   1  23
TORSDOF 20
ENDMDL
