MODEL 1
REMARK VINA RESULT:      -9.7      0.000      0.000
REMARK SMILES CC1(C)CCC[C@@H]1[NH2+]Cc1cc(C(=O)OCCOC(=O)c2ccc(-c3c4nc(c(-c5ccc(S(=O)(=O)[O-])cc5)c5ccc([nH]5)c(-c5ccc(S(=O)(=O)[O-])cc5)c5nc(c(-c6ccc(S(=O)(=O)[O-])cc6)c6ccc3[nH]6)C=C5)C=C4)cc2)cs1
REMARK SMILES IDX 16 1 15 2 13 3 14 4 12 5 10 6 11 7 82 8 81 9 9 10 8 11 7 14
REMARK SMILES IDX 1 15 2 16 3 17 4 18 5 19 6 20 17 21 18 22 19 23 20 24 21 25
REMARK SMILES IDX 22 26 80 27 23 28 79 29 24 30 25 31 26 32 73 33 27 34 78 35
REMARK SMILES IDX 72 36 74 37 28 38 77 39 71 40 70 41 29 43 59 44 40 45 58 46
REMARK SMILES IDX 41 47 44 48 57 49 75 50 42 51 43 52 56 54 76 55 45 56 30 57
REMARK SMILES IDX 31 58 39 59 32 60 38 61 33 62 34 63 35 64 36 65 37 66 60 67
REMARK SMILES IDX 61 68 69 69 62 70 68 71 63 72 64 73 65 74 66 75 67 76 46 77
REMARK SMILES IDX 47 78 55 79 48 80 54 81 49 82 50 83 51 84 52 85 53 86
REMARK H PARENT 8 12 8 13 74 42 44 53
REMARK Flexibility Score: inf
ROOT
ATOM      1  C   UNL A   1      33.069  33.681  27.864  1.00  0.00     0.275 C 
ENDROOT
BRANCH   1   2
ATOM      2  O   UNL A   1      32.609  34.504  28.951  1.00  0.00    -0.458 OA
BRANCH   2   3
ATOM      3  C   UNL A   1      33.382  35.589  29.246  1.00  0.00     0.339 C 
ATOM      4  O   UNL A   1      33.808  36.382  28.416  1.00  0.00    -0.246 OA
BRANCH   3   5
ATOM      5  C   UNL A   1      33.607  35.742  30.679  1.00  0.00     0.071 A 
ATOM      6  C   UNL A   1      34.325  35.258  32.858  1.00  0.00     0.060 A 
ATOM      7  C   UNL A   1      34.196  34.785  31.566  1.00  0.00     0.037 A 
ATOM      8  S   UNL A   1      33.578  36.785  33.044  1.00  0.00    -0.142 S 
ATOM      9  C   UNL A   1      33.249  36.886  31.373  1.00  0.00     0.081 A 
BRANCH   6  10
ATOM     10  C   UNL A   1      35.100  34.649  33.991  1.00  0.00     0.308 C 
BRANCH  10  11
ATOM     11  N   UNL A   1      35.546  33.353  33.513  1.00  0.00    -0.339 N 
ATOM     12  H   UNL A   1      34.838  32.674  33.791  1.00  0.00     0.346 HD
ATOM     13  H   UNL A   1      35.678  33.497  32.512  1.00  0.00     0.346 HD
BRANCH  11  14
ATOM     14  C   UNL A   1      36.824  32.834  33.954  1.00  0.00     0.188 C 
ATOM     15  C   UNL A   1      38.611  34.653  34.330  1.00  0.00     0.017 C 
ATOM     16  C   UNL A   1      38.149  33.476  33.461  1.00  0.00     0.017 C 
ATOM     17  C   UNL A   1      38.109  33.905  31.981  1.00  0.00     0.017 C 
ATOM     18  C   UNL A   1      39.125  32.295  33.645  1.00  0.00     0.013 C 
ATOM     19  C   UNL A   1      38.360  31.073  33.162  1.00  0.00     0.007 C 
ATOM     20  C   UNL A   1      36.894  31.374  33.449  1.00  0.00     0.065 C 
ENDBRANCH  11  14
ENDBRANCH  10  11
ENDBRANCH   6  10
ENDBRANCH   3   5
ENDBRANCH   2   3
ENDBRANCH   1   2
BRANCH   1  21
ATOM     21  C   UNL A   1      34.416  33.038  28.201  1.00  0.00     0.275 C 
BRANCH  21  22
ATOM     22  O   UNL A   1      34.239  31.775  28.870  1.00  0.00    -0.458 OA
BRANCH  22  23
ATOM     23  C   UNL A   1      34.407  30.675  28.098  1.00  0.00     0.338 C 
ATOM     24  O   UNL A   1      33.610  30.202  27.306  1.00  0.00    -0.246 OA
BRANCH  23  25
ATOM     25  C   UNL A   1      35.781  30.171  28.252  1.00  0.00     0.060 A 
ATOM     26  C   UNL A   1      36.162  29.702  29.507  1.00  0.00     0.016 A 
ATOM     27  C   UNL A   1      36.717  30.256  27.223  1.00  0.00     0.016 A 
ATOM     28  C   UNL A   1      37.479  29.332  29.757  1.00  0.00     0.010 A 
ATOM     29  C   UNL A   1      38.037  29.850  27.464  1.00  0.00     0.010 A 
ATOM     30  C   UNL A   1      38.434  29.398  28.737  1.00  0.00    -0.014 A 
BRANCH  30  31
ATOM     31  C   UNL A   1      39.847  29.041  29.032  1.00  0.00     0.031 A 
ATOM     32  C   UNL A   1      40.750  30.034  29.715  1.00  0.00     0.074 A 
ATOM     33  C   UNL A   1      40.315  27.813  28.728  1.00  0.00     0.049 A 
ATOM     34  N   UNL A   1      42.033  29.954  29.958  1.00  0.00    -0.248 NA
ATOM     35  C   UNL A   1      40.126  31.282  30.182  1.00  0.00     0.031 C 
ATOM     36  C   UNL A   1      39.530  26.731  28.128  1.00  0.00     0.029 A 
ATOM     37  N   UNL A   1      41.563  27.264  28.892  1.00  0.00    -0.354 N 
ATOM     38  C   UNL A   1      42.381  31.158  30.560  1.00  0.00     0.074 A 
ATOM     39  C   UNL A   1      41.174  31.952  30.641  1.00  0.00     0.031 C 
ATOM     40  C   UNL A   1      40.306  25.642  28.004  1.00  0.00     0.029 A 
ATOM     41  C   UNL A   1      41.659  25.967  28.442  1.00  0.00     0.049 A 
ATOM     42  H   UNL A   1      42.318  27.751  29.295  1.00  0.00     0.167 HD
ATOM     43  C   UNL A   1      43.596  31.566  31.001  1.00  0.00     0.031 A 
ATOM     44  C   UNL A   1      42.721  25.143  28.354  1.00  0.00     0.031 A 
ATOM     45  C   UNL A   1      44.789  30.761  30.941  1.00  0.00     0.049 A 
ATOM     46  C   UNL A   1      44.070  25.637  28.795  1.00  0.00     0.074 A 
ATOM     47  C   UNL A   1      46.066  31.082  31.369  1.00  0.00     0.029 A 
ATOM     48  N   UNL A   1      44.852  29.473  30.428  1.00  0.00    -0.354 N 
ATOM     49  N   UNL A   1      44.391  26.795  29.322  1.00  0.00    -0.248 NA
ATOM     50  C   UNL A   1      45.204  24.718  28.619  1.00  0.00     0.031 C 
ATOM     51  C   UNL A   1      46.911  30.007  31.070  1.00  0.00     0.029 A 
ATOM     52  C   UNL A   1      46.150  28.995  30.507  1.00  0.00     0.049 A 
ATOM     53  H   UNL A   1      44.087  28.974  30.062  1.00  0.00     0.167 HD
ATOM     54  C   UNL A   1      45.761  26.738  29.554  1.00  0.00     0.074 A 
ATOM     55  C   UNL A   1      46.204  25.426  29.126  1.00  0.00     0.031 C 
ATOM     56  C   UNL A   1      46.577  27.689  30.072  1.00  0.00     0.031 A 
BRANCH  43  57
ATOM     57  C   UNL A   1      43.706  32.971  31.533  1.00  0.00    -0.014 A 
ATOM     58  C   UNL A   1      43.553  33.258  32.902  1.00  0.00     0.010 A 
ATOM     59  C   UNL A   1      43.990  34.023  30.642  1.00  0.00     0.010 A 
ATOM     60  C   UNL A   1      43.632  34.577  33.360  1.00  0.00     0.020 A 
ATOM     61  C   UNL A   1      44.098  35.339  31.102  1.00  0.00     0.020 A 
ATOM     62  C   UNL A   1      43.897  35.610  32.456  1.00  0.00     0.054 A 
BRANCH  62  63
ATOM     63  S   UNL A   1      43.994  37.312  33.076  1.00  0.00     0.124 S 
ATOM     64  O   UNL A   1      42.794  37.400  33.904  1.00  0.00    -0.237 OA
ATOM     65  O   UNL A   1      45.261  37.317  33.804  1.00  0.00    -0.237 OA
ATOM     66  O   UNL A   1      43.974  38.125  31.863  1.00  0.00    -0.744 OA
ENDBRANCH  62  63
ENDBRANCH  43  57
BRANCH  44  67
ATOM     67  C   UNL A   1      42.552  23.778  27.783  1.00  0.00    -0.014 A 
ATOM     68  C   UNL A   1      42.815  23.531  26.424  1.00  0.00     0.010 A 
ATOM     69  C   UNL A   1      42.149  22.710  28.606  1.00  0.00     0.010 A 
ATOM     70  C   UNL A   1      42.677  22.241  25.899  1.00  0.00     0.020 A 
ATOM     71  C   UNL A   1      42.039  21.415  28.093  1.00  0.00     0.020 A 
ATOM     72  C   UNL A   1      42.297  21.190  26.739  1.00  0.00     0.054 A 
BRANCH  72  73
ATOM     73  S   UNL A   1      42.193  19.513  26.055  1.00  0.00     0.124 S 
ATOM     74  O   UNL A   1      43.048  19.612  24.876  1.00  0.00    -0.237 OA
ATOM     75  O   UNL A   1      42.713  18.693  27.147  1.00  0.00    -0.237 OA
ATOM     76  O   UNL A   1      40.767  19.342  25.783  1.00  0.00    -0.744 OA
ENDBRANCH  72  73
ENDBRANCH  44  67
BRANCH  56  77
ATOM     77  C   UNL A   1      48.032  27.336  30.232  1.00  0.00    -0.014 A 
ATOM     78  C   UNL A   1      48.965  27.612  29.217  1.00  0.00     0.010 A 
ATOM     79  C   UNL A   1      48.477  26.762  31.437  1.00  0.00     0.010 A 
ATOM     80  C   UNL A   1      50.313  27.292  29.393  1.00  0.00     0.020 A 
ATOM     81  C   UNL A   1      49.829  26.464  31.626  1.00  0.00     0.020 A 
ATOM     82  C   UNL A   1      50.738  26.720  30.597  1.00  0.00     0.054 A 
BRANCH  82  83
ATOM     83  S   UNL A   1      52.500  26.352  30.818  1.00  0.00     0.124 S 
ATOM     84  O   UNL A   1      52.459  25.152  31.650  1.00  0.00    -0.237 OA
ATOM     85  O   UNL A   1      52.961  26.150  29.446  1.00  0.00    -0.237 OA
ATOM     86  O   UNL A   1      53.024  27.547  31.475  1.00  0.00    -0.744 OA
ENDBRANCH  82  83
ENDBRANCH  56  77
ENDBRANCH  30  31
ENDBRANCH  23  25
ENDBRANCH  22  23
ENDBRANCH  21  22
ENDBRANCH   1  21
TORSDOF 17
ENDMDL
MODEL 2
REMARK VINA RESULT:      -9.4      5.053     12.931
REMARK SMILES CC1(C)CCC[C@@H]1[NH2+]Cc1cc(C(=O)OCCOC(=O)c2ccc(-c3c4nc(c(-c5ccc(S(=O)(=O)[O-])cc5)c5ccc([nH]5)c(-c5ccc(S(=O)(=O)[O-])cc5)c5nc(c(-c6ccc(S(=O)(=O)[O-])cc6)c6ccc3[nH]6)C=C5)C=C4)cc2)cs1
REMARK SMILES IDX 16 1 15 2 13 3 14 4 12 5 10 6 11 7 82 8 81 9 9 10 8 11 7 14
REMARK SMILES IDX 1 15 2 16 3 17 4 18 5 19 6 20 17 21 18 22 19 23 20 24 21 25
REMARK SMILES IDX 22 26 80 27 23 28 79 29 24 30 25 31 26 32 73 33 27 34 78 35
REMARK SMILES IDX 72 36 74 37 28 38 77 39 71 40 70 41 29 43 59 44 40 45 58 46
REMARK SMILES IDX 41 47 44 48 57 49 75 50 42 51 43 52 56 54 76 55 45 56 30 57
REMARK SMILES IDX 31 58 39 59 32 60 38 61 33 62 34 63 35 64 36 65 37 66 60 67
REMARK SMILES IDX 61 68 69 69 62 70 68 71 63 72 64 73 65 74 66 75 67 76 46 77
REMARK SMILES IDX 47 78 55 79 48 80 54 81 49 82 50 83 51 84 52 85 53 86
REMARK H PARENT 8 12 8 13 74 42 44 53
REMARK Flexibility Score: inf
ROOT
ATOM      1  C   UNL A   1      42.365  21.625  25.917  1.00  0.00     0.275 C 
ENDROOT
BRANCH   1   2
ATOM      2  O   UNL A   1      41.105  21.565  26.608  1.00  0.00    -0.458 OA
BRANCH   2   3
ATOM      3  C   UNL A   1      40.185  20.697  26.097  1.00  0.00     0.339 C 
ATOM      4  O   UNL A   1      40.382  19.500  25.928  1.00  0.00    -0.246 OA
BRANCH   3   5
ATOM      5  C   UNL A   1      38.904  21.338  25.819  1.00  0.00     0.071 A 
ATOM      6  C   UNL A   1      36.682  21.603  25.117  1.00  0.00     0.060 A 
ATOM      7  C   UNL A   1      37.768  20.750  25.175  1.00  0.00     0.037 A 
ATOM      8  S   UNL A   1      37.084  23.168  25.678  1.00  0.00    -0.142 S 
ATOM      9  C   UNL A   1      38.638  22.654  26.159  1.00  0.00     0.081 A 
BRANCH   6  10
ATOM     10  C   UNL A   1      35.267  21.271  24.742  1.00  0.00     0.308 C 
BRANCH  10  11
ATOM     11  N   UNL A   1      35.017  19.944  25.277  1.00  0.00    -0.339 N 
ATOM     12  H   UNL A   1      35.859  19.665  25.780  1.00  0.00     0.346 HD
ATOM     13  H   UNL A   1      34.168  20.063  25.829  1.00  0.00     0.346 HD
BRANCH  11  14
ATOM     14  C   UNL A   1      34.688  18.865  24.371  1.00  0.00     0.188 C 
ATOM     15  C   UNL A   1      32.352  19.079  23.303  1.00  0.00     0.017 C 
ATOM     16  C   UNL A   1      33.239  18.314  24.294  1.00  0.00     0.017 C 
ATOM     17  C   UNL A   1      32.539  18.234  25.665  1.00  0.00     0.017 C 
ATOM     18  C   UNL A   1      33.501  16.894  23.748  1.00  0.00     0.013 C 
ATOM     19  C   UNL A   1      34.723  16.401  24.505  1.00  0.00     0.007 C 
ATOM     20  C   UNL A   1      35.536  17.652  24.819  1.00  0.00     0.065 C 
ENDBRANCH  11  14
ENDBRANCH  10  11
ENDBRANCH   6  10
ENDBRANCH   3   5
ENDBRANCH   2   3
ENDBRANCH   1   2
BRANCH   1  21
ATOM     21  C   UNL A   1      42.853  23.072  25.799  1.00  0.00     0.275 C 
BRANCH  21  22
ATOM     22  O   UNL A   1      41.983  23.975  26.508  1.00  0.00    -0.458 OA
BRANCH  22  23
ATOM     23  C   UNL A   1      41.929  25.237  26.021  1.00  0.00     0.338 C 
ATOM     24  O   UNL A   1      42.058  25.585  24.859  1.00  0.00    -0.246 OA
BRANCH  23  25
ATOM     25  C   UNL A   1      41.557  26.167  27.100  1.00  0.00     0.060 A 
ATOM     26  C   UNL A   1      42.263  27.364  27.195  1.00  0.00     0.016 A 
ATOM     27  C   UNL A   1      40.614  25.831  28.069  1.00  0.00     0.016 A 
ATOM     28  C   UNL A   1      42.053  28.229  28.263  1.00  0.00     0.010 A 
ATOM     29  C   UNL A   1      40.377  26.719  29.128  1.00  0.00     0.010 A 
ATOM     30  C   UNL A   1      41.104  27.920  29.242  1.00  0.00    -0.014 A 
BRANCH  30  31
ATOM     31  C   UNL A   1      40.922  28.833  30.402  1.00  0.00     0.031 A 
ATOM     32  C   UNL A   1      41.861  28.757  31.577  1.00  0.00     0.074 A 
ATOM     33  C   UNL A   1      39.945  29.762  30.388  1.00  0.00     0.049 A 
ATOM     34  N   UNL A   1      41.804  29.386  32.723  1.00  0.00    -0.248 NA
ATOM     35  C   UNL A   1      43.011  27.849  31.446  1.00  0.00     0.031 C 
ATOM     36  C   UNL A   1      39.009  29.992  29.285  1.00  0.00     0.029 A 
ATOM     37  N   UNL A   1      39.581  30.695  31.329  1.00  0.00    -0.354 N 
ATOM     38  C   UNL A   1      42.879  28.916  33.468  1.00  0.00     0.074 A 
ATOM     39  C   UNL A   1      43.569  27.945  32.645  1.00  0.00     0.031 C 
ATOM     40  C   UNL A   1      38.203  31.018  29.599  1.00  0.00     0.029 A 
ATOM     41  C   UNL A   1      38.509  31.469  30.952  1.00  0.00     0.049 A 
ATOM     42  H   UNL A   1      40.045  30.800  32.191  1.00  0.00     0.167 HD
ATOM     43  C   UNL A   1      43.255  29.258  34.725  1.00  0.00     0.031 A 
ATOM     44  C   UNL A   1      37.822  32.410  31.630  1.00  0.00     0.031 A 
ATOM     45  C   UNL A   1      42.580  30.244  35.530  1.00  0.00     0.049 A 
ATOM     46  C   UNL A   1      38.221  32.733  33.042  1.00  0.00     0.074 A 
ATOM     47  C   UNL A   1      42.888  30.667  36.810  1.00  0.00     0.029 A 
ATOM     48  N   UNL A   1      41.465  30.967  35.128  1.00  0.00    -0.354 N 
ATOM     49  N   UNL A   1      39.214  32.247  33.749  1.00  0.00    -0.248 NA
ATOM     50  C   UNL A   1      37.399  33.722  33.754  1.00  0.00     0.031 C 
ATOM     51  C   UNL A   1      41.931  31.609  37.203  1.00  0.00     0.029 A 
ATOM     52  C   UNL A   1      41.060  31.815  36.146  1.00  0.00     0.049 A 
ATOM     53  H   UNL A   1      41.028  30.887  34.251  1.00  0.00     0.167 HD
ATOM     54  C   UNL A   1      39.145  32.882  34.984  1.00  0.00     0.074 A 
ATOM     55  C   UNL A   1      38.025  33.798  34.922  1.00  0.00     0.031 C 
ATOM     56  C   UNL A   1      39.938  32.718  36.072  1.00  0.00     0.031 A 
BRANCH  43  57
ATOM     57  C   UNL A   1      44.419  28.515  35.328  1.00  0.00    -0.014 A 
ATOM     58  C   UNL A   1      45.746  28.942  35.142  1.00  0.00     0.010 A 
ATOM     59  C   UNL A   1      44.171  27.377  36.118  1.00  0.00     0.010 A 
ATOM     60  C   UNL A   1      46.806  28.214  35.691  1.00  0.00     0.020 A 
ATOM     61  C   UNL A   1      45.227  26.663  36.693  1.00  0.00     0.020 A 
ATOM     62  C   UNL A   1      46.540  27.074  36.458  1.00  0.00     0.054 A 
BRANCH  62  63
ATOM     63  S   UNL A   1      47.932  26.147  37.160  1.00  0.00     0.124 S 
ATOM     64  O   UNL A   1      48.848  27.221  37.537  1.00  0.00    -0.237 OA
ATOM     65  O   UNL A   1      47.313  25.432  38.273  1.00  0.00    -0.237 OA
ATOM     66  O   UNL A   1      48.381  25.305  36.055  1.00  0.00    -0.744 OA
ENDBRANCH  62  63
ENDBRANCH  43  57
BRANCH  44  67
ATOM     67  C   UNL A   1      36.657  33.081  30.988  1.00  0.00    -0.014 A 
ATOM     68  C   UNL A   1      35.384  33.031  31.581  1.00  0.00     0.010 A 
ATOM     69  C   UNL A   1      36.824  33.796  29.788  1.00  0.00     0.010 A 
ATOM     70  C   UNL A   1      34.299  33.683  30.985  1.00  0.00     0.020 A 
ATOM     71  C   UNL A   1      35.750  34.474  29.205  1.00  0.00     0.020 A 
ATOM     72  C   UNL A   1      34.491  34.407  29.805  1.00  0.00     0.054 A 
BRANCH  72  73
ATOM     73  S   UNL A   1      33.088  35.305  29.087  1.00  0.00     0.124 S 
ATOM     74  O   UNL A   1      33.736  36.488  28.529  1.00  0.00    -0.237 OA
ATOM     75  O   UNL A   1      32.566  34.350  28.112  1.00  0.00    -0.237 OA
ATOM     76  O   UNL A   1      32.216  35.550  30.235  1.00  0.00    -0.744 OA
ENDBRANCH  72  73
ENDBRANCH  44  67
BRANCH  56  77
ATOM     77  C   UNL A   1      39.640  33.568  37.278  1.00  0.00    -0.014 A 
ATOM     78  C   UNL A   1      38.796  33.107  38.303  1.00  0.00     0.010 A 
ATOM     79  C   UNL A   1      40.252  34.828  37.406  1.00  0.00     0.010 A 
ATOM     80  C   UNL A   1      38.546  33.905  39.422  1.00  0.00     0.020 A 
ATOM     81  C   UNL A   1      40.024  35.618  38.536  1.00  0.00     0.020 A 
ATOM     82  C   UNL A   1      39.161  35.156  39.532  1.00  0.00     0.054 A 
BRANCH  82  83
ATOM     83  S   UNL A   1      38.854  36.156  41.013  1.00  0.00     0.124 S 
ATOM     84  O   UNL A   1      37.720  35.463  41.619  1.00  0.00    -0.237 OA
ATOM     85  O   UNL A   1      40.117  36.051  41.740  1.00  0.00    -0.237 OA
ATOM     86  O   UNL A   1      38.558  37.484  40.479  1.00  0.00    -0.744 OA
ENDBRANCH  82  83
ENDBRANCH  56  77
ENDBRANCH  30  31
ENDBRANCH  23  25
ENDBRANCH  22  23
ENDBRANCH  21  22
ENDBRANCH   1  21
TORSDOF 17
ENDMDL
MODEL 3
REMARK VINA RESULT:      -9.2      3.377      5.937
REMARK SMILES CC1(C)CCC[C@@H]1[NH2+]Cc1cc(C(=O)OCCOC(=O)c2ccc(-c3c4nc(c(-c5ccc(S(=O)(=O)[O-])cc5)c5ccc([nH]5)c(-c5ccc(S(=O)(=O)[O-])cc5)c5nc(c(-c6ccc(S(=O)(=O)[O-])cc6)c6ccc3[nH]6)C=C5)C=C4)cc2)cs1
REMARK SMILES IDX 16 1 15 2 13 3 14 4 12 5 10 6 11 7 82 8 81 9 9 10 8 11 7 14
REMARK SMILES IDX 1 15 2 16 3 17 4 18 5 19 6 20 17 21 18 22 19 23 20 24 21 25
REMARK SMILES IDX 22 26 80 27 23 28 79 29 24 30 25 31 26 32 73 33 27 34 78 35
REMARK SMILES IDX 72 36 74 37 28 38 77 39 71 40 70 41 29 43 59 44 40 45 58 46
REMARK SMILES IDX 41 47 44 48 57 49 75 50 42 51 43 52 56 54 76 55 45 56 30 57
REMARK SMILES IDX 31 58 39 59 32 60 38 61 33 62 34 63 35 64 36 65 37 66 60 67
REMARK SMILES IDX 61 68 69 69 62 70 68 71 63 72 64 73 65 74 66 75 67 76 46 77
REMARK SMILES IDX 47 78 55 79 48 80 54 81 49 82 50 83 51 84 52 85 53 86
REMARK H PARENT 8 12 8 13 74 42 44 53
REMARK Flexibility Score: inf
ROOT
ATOM      1  C   UNL A   1      32.562  29.786  25.277  1.00  0.00     0.275 C 
ENDROOT
BRANCH   1   2
ATOM      2  O   UNL A   1      31.562  28.884  24.773  1.00  0.00    -0.458 OA
BRANCH   2   3
ATOM      3  C   UNL A   1      31.775  28.399  23.515  1.00  0.00     0.339 C 
ATOM      4  O   UNL A   1      32.112  29.084  22.557  1.00  0.00    -0.246 OA
BRANCH   3   5
ATOM      5  C   UNL A   1      31.613  26.951  23.439  1.00  0.00     0.071 A 
ATOM      6  C   UNL A   1      32.069  24.710  22.918  1.00  0.00     0.060 A 
ATOM      7  C   UNL A   1      32.459  26.026  22.747  1.00  0.00     0.037 A 
ATOM      8  S   UNL A   1      30.587  24.602  23.766  1.00  0.00    -0.142 S 
ATOM      9  C   UNL A   1      30.568  26.283  24.053  1.00  0.00     0.081 A 
BRANCH   6  10
ATOM     10  C   UNL A   1      32.829  23.467  22.556  1.00  0.00     0.308 C 
BRANCH  10  11
ATOM     11  N   UNL A   1      34.222  23.760  22.839  1.00  0.00    -0.339 N 
ATOM     12  H   UNL A   1      34.760  23.461  22.026  1.00  0.00     0.346 HD
ATOM     13  H   UNL A   1      34.221  24.758  23.049  1.00  0.00     0.346 HD
BRANCH  11  14
ATOM     14  C   UNL A   1      34.850  23.167  24.001  1.00  0.00     0.188 C 
ATOM     15  C   UNL A   1      33.423  23.313  26.142  1.00  0.00     0.017 C 
ATOM     16  C   UNL A   1      34.675  23.806  25.405  1.00  0.00     0.017 C 
ATOM     17  C   UNL A   1      34.694  25.347  25.385  1.00  0.00     0.017 C 
ATOM     18  C   UNL A   1      35.931  23.269  26.123  1.00  0.00     0.013 C 
ATOM     19  C   UNL A   1      37.048  23.385  25.099  1.00  0.00     0.007 C 
ATOM     20  C   UNL A   1      36.373  23.221  23.743  1.00  0.00     0.065 C 
ENDBRANCH  11  14
ENDBRANCH  10  11
ENDBRANCH   6  10
ENDBRANCH   3   5
ENDBRANCH   2   3
ENDBRANCH   1   2
BRANCH   1  21
ATOM     21  C   UNL A   1      32.378  30.018  26.779  1.00  0.00     0.275 C 
BRANCH  21  22
ATOM     22  O   UNL A   1      33.537  29.589  27.519  1.00  0.00    -0.458 OA
BRANCH  22  23
ATOM     23  C   UNL A   1      34.322  30.580  28.003  1.00  0.00     0.338 C 
ATOM     24  O   UNL A   1      33.974  31.702  28.331  1.00  0.00    -0.246 OA
BRANCH  23  25
ATOM     25  C   UNL A   1      35.687  30.072  28.209  1.00  0.00     0.060 A 
ATOM     26  C   UNL A   1      36.022  29.612  29.481  1.00  0.00     0.016 A 
ATOM     27  C   UNL A   1      36.659  30.144  27.213  1.00  0.00     0.016 A 
ATOM     28  C   UNL A   1      37.327  29.238  29.780  1.00  0.00     0.010 A 
ATOM     29  C   UNL A   1      37.968  29.735  27.504  1.00  0.00     0.010 A 
ATOM     30  C   UNL A   1      38.318  29.292  28.794  1.00  0.00    -0.014 A 
BRANCH  30  31
ATOM     31  C   UNL A   1      39.719  28.931  29.142  1.00  0.00     0.031 A 
ATOM     32  C   UNL A   1      40.585  29.908  29.893  1.00  0.00     0.074 A 
ATOM     33  C   UNL A   1      40.205  27.714  28.824  1.00  0.00     0.049 A 
ATOM     34  N   UNL A   1      41.857  29.825  30.190  1.00  0.00    -0.248 NA
ATOM     35  C   UNL A   1      39.935  31.139  30.366  1.00  0.00     0.031 C 
ATOM     36  C   UNL A   1      39.453  26.647  28.159  1.00  0.00     0.029 A 
ATOM     37  N   UNL A   1      41.447  27.165  29.028  1.00  0.00    -0.354 N 
ATOM     38  C   UNL A   1      42.171  31.013  30.841  1.00  0.00     0.074 A 
ATOM     39  C   UNL A   1      40.958  31.800  30.891  1.00  0.00     0.031 C 
ATOM     40  C   UNL A   1      40.238  25.565  28.040  1.00  0.00     0.029 A 
ATOM     41  C   UNL A   1      41.569  25.882  28.546  1.00  0.00     0.049 A 
ATOM     42  H   UNL A   1      42.181  27.643  29.478  1.00  0.00     0.167 HD
ATOM     43  C   UNL A   1      43.364  31.412  31.347  1.00  0.00     0.031 A 
ATOM     44  C   UNL A   1      42.638  25.065  28.482  1.00  0.00     0.031 A 
ATOM     45  C   UNL A   1      44.562  30.614  31.318  1.00  0.00     0.049 A 
ATOM     46  C   UNL A   1      43.964  25.550  28.998  1.00  0.00     0.074 A 
ATOM     47  C   UNL A   1      45.817  30.926  31.811  1.00  0.00     0.029 A 
ATOM     48  N   UNL A   1      44.654  29.341  30.772  1.00  0.00    -0.354 N 
ATOM     49  N   UNL A   1      44.255  26.694  29.571  1.00  0.00    -0.248 NA
ATOM     50  C   UNL A   1      45.108  24.640  28.846  1.00  0.00     0.031 C 
ATOM     51  C   UNL A   1      46.680  29.864  31.520  1.00  0.00     0.029 A 
ATOM     52  C   UNL A   1      45.949  28.865  30.896  1.00  0.00     0.049 A 
ATOM     53  H   UNL A   1      43.908  28.850  30.358  1.00  0.00     0.167 HD
ATOM     54  C   UNL A   1      45.614  26.635  29.862  1.00  0.00     0.074 A 
ATOM     55  C   UNL A   1      46.082  25.338  29.417  1.00  0.00     0.031 C 
ATOM     56  C   UNL A   1      46.402  27.573  30.442  1.00  0.00     0.031 A 
BRANCH  43  57
ATOM     57  C   UNL A   1      43.443  32.802  31.924  1.00  0.00    -0.014 A 
ATOM     58  C   UNL A   1      43.191  33.054  33.285  1.00  0.00     0.010 A 
ATOM     59  C   UNL A   1      43.799  33.874  31.085  1.00  0.00     0.010 A 
ATOM     60  C   UNL A   1      43.245  34.359  33.783  1.00  0.00     0.020 A 
ATOM     61  C   UNL A   1      43.881  35.177  31.586  1.00  0.00     0.020 A 
ATOM     62  C   UNL A   1      43.582  35.414  32.929  1.00  0.00     0.054 A 
BRANCH  62  63
ATOM     63  S   UNL A   1      43.645  37.099  33.599  1.00  0.00     0.124 S 
ATOM     64  O   UNL A   1      44.917  37.089  34.316  1.00  0.00    -0.237 OA
ATOM     65  O   UNL A   1      43.609  37.926  32.396  1.00  0.00    -0.237 OA
ATOM     66  O   UNL A   1      42.456  37.181  34.444  1.00  0.00    -0.744 OA
ENDBRANCH  62  63
ENDBRANCH  43  57
BRANCH  44  67
ATOM     67  C   UNL A   1      42.501  23.716  27.865  1.00  0.00    -0.014 A 
ATOM     68  C   UNL A   1      42.717  23.531  26.489  1.00  0.00     0.010 A 
ATOM     69  C   UNL A   1      42.177  22.602  28.662  1.00  0.00     0.010 A 
ATOM     70  C   UNL A   1      42.610  22.257  25.920  1.00  0.00     0.020 A 
ATOM     71  C   UNL A   1      42.099  21.323  28.103  1.00  0.00     0.020 A 
ATOM     72  C   UNL A   1      42.308  21.160  26.733  1.00  0.00     0.054 A 
BRANCH  72  73
ATOM     73  S   UNL A   1      42.245  19.507  25.989  1.00  0.00     0.124 S 
ATOM     74  O   UNL A   1      43.133  19.656  24.839  1.00  0.00    -0.237 OA
ATOM     75  O   UNL A   1      42.742  18.655  27.066  1.00  0.00    -0.237 OA
ATOM     76  O   UNL A   1      40.829  19.330  25.669  1.00  0.00    -0.744 OA
ENDBRANCH  72  73
ENDBRANCH  44  67
BRANCH  56  77
ATOM     77  C   UNL A   1      47.849  27.222  30.658  1.00  0.00    -0.014 A 
ATOM     78  C   UNL A   1      48.251  26.418  31.739  1.00  0.00     0.010 A 
ATOM     79  C   UNL A   1      48.815  27.665  29.736  1.00  0.00     0.010 A 
ATOM     80  C   UNL A   1      49.598  26.090  31.911  1.00  0.00     0.020 A 
ATOM     81  C   UNL A   1      50.160  27.318  29.891  1.00  0.00     0.020 A 
ATOM     82  C   UNL A   1      50.545  26.542  30.986  1.00  0.00     0.054 A 
BRANCH  82  83
ATOM     83  S   UNL A   1      52.281  26.067  31.208  1.00  0.00     0.124 S 
ATOM     84  O   UNL A   1      52.747  25.965  29.827  1.00  0.00    -0.237 OA
ATOM     85  O   UNL A   1      52.825  27.186  31.973  1.00  0.00    -0.237 OA
ATOM     86  O   UNL A   1      52.204  24.802  31.935  1.00  0.00    -0.744 OA
ENDBRANCH  82  83
ENDBRANCH  56  77
ENDBRANCH  30  31
ENDBRANCH  23  25
ENDBRANCH  22  23
ENDBRANCH  21  22
ENDBRANCH   1  21
TORSDOF 17
ENDMDL
