MODEL 1
REMARK VINA RESULT:      -9.0      0.000      0.000
REMARK SMILES Cc1cccc(Cl)c1Nc1ccccc1CC(=O)OCCOC(=O)c1ccc(-c2c3nc(c(-c4ccc(S(=O)(=O)[O-])cc4)c4ccc([nH]4)c(-c4ccc(S(=O)(=O)[O-])cc4)c4nc(c(-c5ccc(S(=O)(=O)[O-])cc5)c5ccc2[nH]5)C=C4)C=C3)cc1
REMARK SMILES IDX 20 1 19 2 17 3 18 4 16 5 15 6 10 7 11 8 12 9 14 10 13 11
REMARK SMILES IDX 9 12 8 14 1 15 2 16 3 17 4 18 6 19 5 20 7 21 21 22 22 23
REMARK SMILES IDX 23 24 24 25 25 26 26 27 84 28 27 29 83 30 28 31 29 32 30 33
REMARK SMILES IDX 77 34 31 35 82 36 76 37 78 38 32 39 81 40 75 41 74 42 33 44
REMARK SMILES IDX 63 45 44 46 62 47 45 48 48 49 61 50 79 51 46 52 47 53 60 55
REMARK SMILES IDX 80 56 49 57 34 58 35 59 43 60 36 61 42 62 37 63 38 64 39 65
REMARK SMILES IDX 40 66 41 67 64 68 65 69 73 70 66 71 72 72 67 73 68 74 69 75
REMARK SMILES IDX 70 76 71 77 50 78 51 79 59 80 52 81 58 82 53 83 54 84 55 85
REMARK SMILES IDX 56 86 57 87
REMARK H PARENT 9 13 78 43 48 54
REMARK Flexibility Score: inf
ROOT
ATOM      1  C   UNL A   1      40.507  19.895  25.931  1.00  0.00     0.274 C 
ENDROOT
BRANCH   1   2
ATOM      2  O   UNL A   1      41.517  20.580  26.693  1.00  0.00    -0.462 OA
BRANCH   2   3
ATOM      3  C   UNL A   1      42.538  21.098  25.961  1.00  0.00     0.310 C 
ATOM      4  O   UNL A   1      43.244  20.446  25.198  1.00  0.00    -0.252 OA
BRANCH   3   5
ATOM      5  C   UNL A   1      42.812  22.553  26.238  1.00  0.00     0.160 C 
BRANCH   5   6
ATOM      6  C   UNL A   1      43.329  22.952  27.606  1.00  0.00    -0.013 A 
ATOM      7  C   UNL A   1      44.606  23.534  27.776  1.00  0.00     0.042 A 
ATOM      8  C   UNL A   1      45.047  23.844  29.075  1.00  0.00     0.026 A 
ATOM      9  C   UNL A   1      44.226  23.648  30.185  1.00  0.00     0.002 A 
ATOM     10  C   UNL A   1      42.502  22.796  28.735  1.00  0.00     0.006 A 
ATOM     11  C   UNL A   1      42.945  23.141  30.012  1.00  0.00     0.000 A 
BRANCH   7  12
ATOM     12  N   UNL A   1      45.427  23.936  26.700  1.00  0.00    -0.354 N 
ATOM     13  H   UNL A   1      45.753  23.204  26.129  1.00  0.00     0.167 HD
BRANCH  12  14
ATOM     14  C   UNL A   1      45.854  25.232  26.315  1.00  0.00     0.060 A 
ATOM     15  C   UNL A   1      48.022  24.802  27.588  1.00  0.00     0.046 C 
ATOM     16  C   UNL A   1      47.141  25.663  26.722  1.00  0.00    -0.026 A 
ATOM     17  C   UNL A   1      47.658  26.879  26.239  1.00  0.00     0.005 A 
ATOM     18  C   UNL A   1      46.914  27.680  25.377  1.00  0.00     0.002 A 
ATOM     19  C   UNL A   1      45.104  26.079  25.466  1.00  0.00     0.064 A 
ATOM     20  C   UNL A   1      45.635  27.286  25.000  1.00  0.00     0.023 A 
ATOM     21  Cl  UNL A   1      43.469  25.735  25.003  1.00  0.00    -0.082 Cl
ENDBRANCH  12  14
ENDBRANCH   7  12
ENDBRANCH   5   6
ENDBRANCH   3   5
ENDBRANCH   2   3
ENDBRANCH   1   2
BRANCH   1  22
ATOM     22  C   UNL A   1      39.278  20.779  25.731  1.00  0.00     0.275 C 
BRANCH  22  23
ATOM     23  O   UNL A   1      39.311  21.888  26.646  1.00  0.00    -0.458 OA
BRANCH  23  24
ATOM     24  C   UNL A   1      38.648  22.996  26.249  1.00  0.00     0.338 C 
ATOM     25  O   UNL A   1      37.691  23.058  25.498  1.00  0.00    -0.246 OA
BRANCH  24  26
ATOM     26  C   UNL A   1      39.265  24.186  26.857  1.00  0.00     0.060 A 
ATOM     27  C   UNL A   1      39.032  24.507  28.197  1.00  0.00     0.016 A 
ATOM     28  C   UNL A   1      40.001  25.046  26.042  1.00  0.00     0.016 A 
ATOM     29  C   UNL A   1      39.507  25.711  28.718  1.00  0.00     0.010 A 
ATOM     30  C   UNL A   1      40.517  26.225  26.579  1.00  0.00     0.010 A 
ATOM     31  C   UNL A   1      40.257  26.580  27.914  1.00  0.00    -0.014 A 
BRANCH  31  32
ATOM     32  C   UNL A   1      40.750  27.880  28.436  1.00  0.00     0.031 A 
ATOM     33  C   UNL A   1      42.179  28.012  28.885  1.00  0.00     0.074 A 
ATOM     34  C   UNL A   1      39.907  28.923  28.558  1.00  0.00     0.049 A 
ATOM     35  N   UNL A   1      42.752  28.989  29.540  1.00  0.00    -0.248 NA
ATOM     36  C   UNL A   1      43.077  26.891  28.566  1.00  0.00     0.031 C 
ATOM     37  C   UNL A   1      38.507  28.936  28.133  1.00  0.00     0.029 A 
ATOM     38  N   UNL A   1      40.105  30.169  29.098  1.00  0.00    -0.354 N 
ATOM     39  C   UNL A   1      44.064  28.583  29.752  1.00  0.00     0.074 A 
ATOM     40  C   UNL A   1      44.201  27.271  29.157  1.00  0.00     0.031 C 
ATOM     41  C   UNL A   1      37.970  30.132  28.430  1.00  0.00     0.029 A 
ATOM     42  C   UNL A   1      38.970  30.944  29.118  1.00  0.00     0.049 A 
ATOM     43  H   UNL A   1      40.976  30.479  29.437  1.00  0.00     0.167 HD
ATOM     44  C   UNL A   1      45.061  29.241  30.390  1.00  0.00     0.031 A 
ATOM     45  C   UNL A   1      38.744  32.154  29.665  1.00  0.00     0.031 A 
ATOM     46  C   UNL A   1      44.928  30.554  30.964  1.00  0.00     0.049 A 
ATOM     47  C   UNL A   1      39.855  32.856  30.391  1.00  0.00     0.074 A 
ATOM     48  C   UNL A   1      45.888  31.315  31.610  1.00  0.00     0.029 A 
ATOM     49  N   UNL A   1      43.762  31.304  30.959  1.00  0.00    -0.354 N 
ATOM     50  N   UNL A   1      41.087  32.453  30.597  1.00  0.00    -0.248 NA
ATOM     51  C   UNL A   1      39.545  34.171  30.967  1.00  0.00     0.031 C 
ATOM     52  C   UNL A   1      45.290  32.510  32.027  1.00  0.00     0.029 A 
ATOM     53  C   UNL A   1      43.971  32.511  31.605  1.00  0.00     0.049 A 
ATOM     54  H   UNL A   1      42.909  31.020  30.556  1.00  0.00     0.167 HD
ATOM     55  C   UNL A   1      41.703  33.472  31.314  1.00  0.00     0.074 A 
ATOM     56  C   UNL A   1      40.713  34.515  31.494  1.00  0.00     0.031 C 
ATOM     57  C   UNL A   1      42.974  33.537  31.780  1.00  0.00     0.031 A 
BRANCH  44  58
ATOM     58  C   UNL A   1      46.378  28.526  30.538  1.00  0.00    -0.014 A 
ATOM     59  C   UNL A   1      47.391  28.647  29.572  1.00  0.00     0.010 A 
ATOM     60  C   UNL A   1      46.607  27.731  31.677  1.00  0.00     0.010 A 
ATOM     61  C   UNL A   1      48.594  27.952  29.720  1.00  0.00     0.020 A 
ATOM     62  C   UNL A   1      47.818  27.052  31.840  1.00  0.00     0.020 A 
ATOM     63  C   UNL A   1      48.796  27.151  30.849  1.00  0.00     0.054 A 
BRANCH  63  64
ATOM     64  S   UNL A   1      50.367  26.258  31.023  1.00  0.00     0.124 S 
ATOM     65  O   UNL A   1      50.178  25.563  32.293  1.00  0.00    -0.237 OA
ATOM     66  O   UNL A   1      50.388  25.405  29.838  1.00  0.00    -0.237 OA
ATOM     67  O   UNL A   1      51.368  27.322  31.036  1.00  0.00    -0.744 OA
ENDBRANCH  63  64
ENDBRANCH  44  58
BRANCH  45  68
ATOM     68  C   UNL A   1      37.389  32.758  29.568  1.00  0.00    -0.014 A 
ATOM     69  C   UNL A   1      36.579  32.878  30.710  1.00  0.00     0.010 A 
ATOM     70  C   UNL A   1      36.921  33.256  28.338  1.00  0.00     0.010 A 
ATOM     71  C   UNL A   1      35.324  33.487  30.623  1.00  0.00     0.020 A 
ATOM     72  C   UNL A   1      35.677  33.886  28.253  1.00  0.00     0.020 A 
ATOM     73  C   UNL A   1      34.882  33.992  29.396  1.00  0.00     0.054 A 
BRANCH  73  74
ATOM     74  S   UNL A   1      33.288  34.855  29.322  1.00  0.00     0.124 S 
ATOM     75  O   UNL A   1      32.559  34.061  28.338  1.00  0.00    -0.237 OA
ATOM     76  O   UNL A   1      32.806  34.755  30.698  1.00  0.00    -0.237 OA
ATOM     77  O   UNL A   1      33.652  36.205  28.894  1.00  0.00    -0.744 OA
ENDBRANCH  73  74
ENDBRANCH  45  68
BRANCH  57  78
ATOM     78  C   UNL A   1      43.377  34.788  32.510  1.00  0.00    -0.014 A 
ATOM     79  C   UNL A   1      43.087  34.956  33.875  1.00  0.00     0.010 A 
ATOM     80  C   UNL A   1      44.096  35.787  31.831  1.00  0.00     0.010 A 
ATOM     81  C   UNL A   1      43.489  36.116  34.543  1.00  0.00     0.020 A 
ATOM     82  C   UNL A   1      44.517  36.939  32.500  1.00  0.00     0.020 A 
ATOM     83  C   UNL A   1      44.198  37.101  33.851  1.00  0.00     0.054 A 
BRANCH  83  84
ATOM     84  S   UNL A   1      44.747  38.581  34.746  1.00  0.00     0.124 S 
ATOM     85  O   UNL A   1      45.028  38.046  36.075  1.00  0.00    -0.237 OA
ATOM     86  O   UNL A   1      45.916  39.009  33.980  1.00  0.00    -0.237 OA
ATOM     87  O   UNL A   1      43.596  39.479  34.665  1.00  0.00    -0.744 OA
ENDBRANCH  83  84
ENDBRANCH  57  78
ENDBRANCH  31  32
ENDBRANCH  24  26
ENDBRANCH  23  24
ENDBRANCH  22  23
ENDBRANCH   1  22
TORSDOF 17
ENDMDL
MODEL 2
REMARK VINA RESULT:      -8.9      4.871      7.485
REMARK SMILES Cc1cccc(Cl)c1Nc1ccccc1CC(=O)OCCOC(=O)c1ccc(-c2c3nc(c(-c4ccc(S(=O)(=O)[O-])cc4)c4ccc([nH]4)c(-c4ccc(S(=O)(=O)[O-])cc4)c4nc(c(-c5ccc(S(=O)(=O)[O-])cc5)c5ccc2[nH]5)C=C4)C=C3)cc1
REMARK SMILES IDX 20 1 19 2 17 3 18 4 16 5 15 6 10 7 11 8 12 9 14 10 13 11
REMARK SMILES IDX 9 12 8 14 1 15 2 16 3 17 4 18 6 19 5 20 7 21 21 22 22 23
REMARK SMILES IDX 23 24 24 25 25 26 26 27 84 28 27 29 83 30 28 31 29 32 30 33
REMARK SMILES IDX 77 34 31 35 82 36 76 37 78 38 32 39 81 40 75 41 74 42 33 44
REMARK SMILES IDX 63 45 44 46 62 47 45 48 48 49 61 50 79 51 46 52 47 53 60 55
REMARK SMILES IDX 80 56 49 57 34 58 35 59 43 60 36 61 42 62 37 63 38 64 39 65
REMARK SMILES IDX 40 66 41 67 64 68 65 69 73 70 66 71 72 72 67 73 68 74 69 75
REMARK SMILES IDX 70 76 71 77 50 78 51 79 59 80 52 81 58 82 53 83 54 84 55 85
REMARK SMILES IDX 56 86 57 87
REMARK H PARENT 9 13 78 43 48 54
REMARK Flexibility Score: inf
ROOT
ATOM      1  C   UNL A   1      37.736  22.454  25.463  1.00  0.00     0.274 C 
ENDROOT
BRANCH   1   2
ATOM      2  O   UNL A   1      37.095  23.702  25.143  1.00  0.00    -0.462 OA
BRANCH   2   3
ATOM      3  C   UNL A   1      35.861  23.872  25.687  1.00  0.00     0.310 C 
ATOM      4  O   UNL A   1      35.529  23.460  26.794  1.00  0.00    -0.252 OA
BRANCH   3   5
ATOM      5  C   UNL A   1      34.872  24.535  24.764  1.00  0.00     0.160 C 
BRANCH   5   6
ATOM      6  C   UNL A   1      33.397  24.468  25.105  1.00  0.00    -0.013 A 
ATOM      7  C   UNL A   1      32.578  23.409  24.649  1.00  0.00     0.042 A 
ATOM      8  C   UNL A   1      31.207  23.424  24.963  1.00  0.00     0.026 A 
ATOM      9  C   UNL A   1      30.658  24.424  25.764  1.00  0.00     0.002 A 
ATOM     10  C   UNL A   1      32.830  25.447  25.942  1.00  0.00     0.006 A 
ATOM     11  C   UNL A   1      31.475  25.426  26.270  1.00  0.00     0.000 A 
BRANCH   7  12
ATOM     12  N   UNL A   1      33.080  22.265  23.991  1.00  0.00    -0.354 N 
ATOM     13  H   UNL A   1      33.733  22.448  23.278  1.00  0.00     0.167 HD
BRANCH  12  14
ATOM     14  C   UNL A   1      32.789  20.893  24.199  1.00  0.00     0.060 A 
ATOM     15  C   UNL A   1      31.984  20.786  21.781  1.00  0.00     0.046 C 
ATOM     16  C   UNL A   1      32.273  20.144  23.113  1.00  0.00    -0.026 A 
ATOM     17  C   UNL A   1      32.111  18.752  23.236  1.00  0.00     0.005 A 
ATOM     18  C   UNL A   1      32.431  18.097  24.422  1.00  0.00     0.002 A 
ATOM     19  C   UNL A   1      33.075  20.211  25.405  1.00  0.00     0.064 A 
ATOM     20  C   UNL A   1      32.902  18.827  25.508  1.00  0.00     0.023 A 
ATOM     21  Cl  UNL A   1      33.582  21.026  26.848  1.00  0.00    -0.082 Cl
ENDBRANCH  12  14
ENDBRANCH   7  12
ENDBRANCH   5   6
ENDBRANCH   3   5
ENDBRANCH   2   3
ENDBRANCH   1   2
BRANCH   1  22
ATOM     22  C   UNL A   1      39.059  22.687  26.187  1.00  0.00     0.275 C 
BRANCH  22  23
ATOM     23  O   UNL A   1      39.202  24.078  26.523  1.00  0.00    -0.458 OA
BRANCH  23  24
ATOM     24  C   UNL A   1      40.469  24.512  26.701  1.00  0.00     0.338 C 
ATOM     25  O   UNL A   1      41.464  24.170  26.085  1.00  0.00    -0.246 OA
BRANCH  24  26
ATOM     26  C   UNL A   1      40.507  25.491  27.799  1.00  0.00     0.060 A 
ATOM     27  C   UNL A   1      39.422  25.633  28.668  1.00  0.00     0.016 A 
ATOM     28  C   UNL A   1      41.603  26.349  27.891  1.00  0.00     0.016 A 
ATOM     29  C   UNL A   1      39.415  26.660  29.613  1.00  0.00     0.010 A 
ATOM     30  C   UNL A   1      41.615  27.344  28.869  1.00  0.00     0.010 A 
ATOM     31  C   UNL A   1      40.514  27.523  29.724  1.00  0.00    -0.014 A 
BRANCH  31  32
ATOM     32  C   UNL A   1      40.520  28.641  30.701  1.00  0.00     0.031 A 
ATOM     33  C   UNL A   1      41.466  28.608  31.870  1.00  0.00     0.074 A 
ATOM     34  C   UNL A   1      39.645  29.657  30.573  1.00  0.00     0.049 A 
ATOM     35  N   UNL A   1      41.499  29.378  32.927  1.00  0.00    -0.248 NA
ATOM     36  C   UNL A   1      42.500  27.561  31.852  1.00  0.00     0.031 C 
ATOM     37  C   UNL A   1      38.696  29.824  29.471  1.00  0.00     0.029 A 
ATOM     38  N   UNL A   1      39.399  30.729  31.393  1.00  0.00    -0.354 N 
ATOM     39  C   UNL A   1      42.527  28.883  33.722  1.00  0.00     0.074 A 
ATOM     40  C   UNL A   1      43.090  27.746  33.025  1.00  0.00     0.031 C 
ATOM     41  C   UNL A   1      37.969  30.934  29.684  1.00  0.00     0.029 A 
ATOM     42  C   UNL A   1      38.360  31.519  30.964  1.00  0.00     0.049 A 
ATOM     43  H   UNL A   1      39.918  30.915  32.208  1.00  0.00     0.167 HD
ATOM     44  C   UNL A   1      42.957  29.331  34.925  1.00  0.00     0.031 A 
ATOM     45  C   UNL A   1      37.758  32.572  31.551  1.00  0.00     0.031 A 
ATOM     46  C   UNL A   1      42.408  30.473  35.608  1.00  0.00     0.049 A 
ATOM     47  C   UNL A   1      38.232  33.037  32.898  1.00  0.00     0.074 A 
ATOM     48  C   UNL A   1      42.793  31.020  36.820  1.00  0.00     0.029 A 
ATOM     49  N   UNL A   1      41.359  31.246  35.137  1.00  0.00    -0.354 N 
ATOM     50  N   UNL A   1      39.196  32.549  33.644  1.00  0.00    -0.248 NA
ATOM     51  C   UNL A   1      37.534  34.188  33.486  1.00  0.00     0.031 C 
ATOM     52  C   UNL A   1      41.950  32.103  37.098  1.00  0.00     0.029 A 
ATOM     53  C   UNL A   1      41.070  32.256  36.040  1.00  0.00     0.049 A 
ATOM     54  H   UNL A   1      40.887  31.099  34.284  1.00  0.00     0.167 HD
ATOM     55  C   UNL A   1      39.228  33.344  34.785  1.00  0.00     0.074 A 
ATOM     56  C   UNL A   1      38.198  34.351  34.624  1.00  0.00     0.031 C 
ATOM     57  C   UNL A   1      40.038  33.247  35.867  1.00  0.00     0.031 A 
BRANCH  44  58
ATOM     58  C   UNL A   1      44.052  28.551  35.603  1.00  0.00    -0.014 A 
ATOM     59  C   UNL A   1      43.764  27.469  36.451  1.00  0.00     0.010 A 
ATOM     60  C   UNL A   1      45.395  28.901  35.369  1.00  0.00     0.010 A 
ATOM     61  C   UNL A   1      44.797  26.777  37.089  1.00  0.00     0.020 A 
ATOM     62  C   UNL A   1      46.433  28.197  35.987  1.00  0.00     0.020 A 
ATOM     63  C   UNL A   1      46.125  27.152  36.860  1.00  0.00     0.054 A 
BRANCH  63  64
ATOM     64  S   UNL A   1      47.452  26.239  37.696  1.00  0.00     0.124 S 
ATOM     65  O   UNL A   1      47.221  26.587  39.096  1.00  0.00    -0.237 OA
ATOM     66  O   UNL A   1      47.167  24.852  37.339  1.00  0.00    -0.237 OA
ATOM     67  O   UNL A   1      48.672  26.789  37.110  1.00  0.00    -0.744 OA
ENDBRANCH  63  64
ENDBRANCH  44  58
BRANCH  45  68
ATOM     68  C   UNL A   1      36.614  33.233  30.870  1.00  0.00    -0.014 A 
ATOM     69  C   UNL A   1      35.328  33.194  31.437  1.00  0.00     0.010 A 
ATOM     70  C   UNL A   1      36.815  33.942  29.672  1.00  0.00     0.010 A 
ATOM     71  C   UNL A   1      34.264  33.855  30.817  1.00  0.00     0.020 A 
ATOM     72  C   UNL A   1      35.758  34.622  29.062  1.00  0.00     0.020 A 
ATOM     73  C   UNL A   1      34.486  34.569  29.636  1.00  0.00     0.054 A 
BRANCH  73  74
ATOM     74  S   UNL A   1      33.111  35.490  28.893  1.00  0.00     0.124 S 
ATOM     75  O   UNL A   1      32.392  35.966  30.070  1.00  0.00    -0.237 OA
ATOM     76  O   UNL A   1      33.799  36.518  28.113  1.00  0.00    -0.237 OA
ATOM     77  O   UNL A   1      32.416  34.480  28.098  1.00  0.00    -0.744 OA
ENDBRANCH  73  74
ENDBRANCH  45  68
BRANCH  57  78
ATOM     78  C   UNL A   1      39.861  34.271  36.953  1.00  0.00    -0.014 A 
ATOM     79  C   UNL A   1      40.423  35.554  36.838  1.00  0.00     0.010 A 
ATOM     80  C   UNL A   1      39.082  33.959  38.081  1.00  0.00     0.010 A 
ATOM     81  C   UNL A   1      40.230  36.501  37.848  1.00  0.00     0.020 A 
ATOM     82  C   UNL A   1      38.870  34.910  39.083  1.00  0.00     0.020 A 
ATOM     83  C   UNL A   1      39.458  36.172  38.965  1.00  0.00     0.054 A 
BRANCH  83  84
ATOM     84  S   UNL A   1      39.184  37.429  40.245  1.00  0.00     0.124 S 
ATOM     85  O   UNL A   1      38.611  36.638  41.330  1.00  0.00    -0.237 OA
ATOM     86  O   UNL A   1      40.531  37.944  40.486  1.00  0.00    -0.237 OA
ATOM     87  O   UNL A   1      38.268  38.374  39.609  1.00  0.00    -0.744 OA
ENDBRANCH  83  84
ENDBRANCH  57  78
ENDBRANCH  31  32
ENDBRANCH  24  26
ENDBRANCH  23  24
ENDBRANCH  22  23
ENDBRANCH   1  22
TORSDOF 17
ENDMDL
MODEL 3
REMARK VINA RESULT:      -8.8      4.887      9.591
REMARK SMILES Cc1cccc(Cl)c1Nc1ccccc1CC(=O)OCCOC(=O)c1ccc(-c2c3nc(c(-c4ccc(S(=O)(=O)[O-])cc4)c4ccc([nH]4)c(-c4ccc(S(=O)(=O)[O-])cc4)c4nc(c(-c5ccc(S(=O)(=O)[O-])cc5)c5ccc2[nH]5)C=C4)C=C3)cc1
REMARK SMILES IDX 20 1 19 2 17 3 18 4 16 5 15 6 10 7 11 8 12 9 14 10 13 11
REMARK SMILES IDX 9 12 8 14 1 15 2 16 3 17 4 18 6 19 5 20 7 21 21 22 22 23
REMARK SMILES IDX 23 24 24 25 25 26 26 27 84 28 27 29 83 30 28 31 29 32 30 33
REMARK SMILES IDX 77 34 31 35 82 36 76 37 78 38 32 39 81 40 75 41 74 42 33 44
REMARK SMILES IDX 63 45 44 46 62 47 45 48 48 49 61 50 79 51 46 52 47 53 60 55
REMARK SMILES IDX 80 56 49 57 34 58 35 59 43 60 36 61 42 62 37 63 38 64 39 65
REMARK SMILES IDX 40 66 41 67 64 68 65 69 73 70 66 71 72 72 67 73 68 74 69 75
REMARK SMILES IDX 70 76 71 77 50 78 51 79 59 80 52 81 58 82 53 83 54 84 55 85
REMARK SMILES IDX 56 86 57 87
REMARK H PARENT 9 13 78 43 48 54
REMARK Flexibility Score: inf
ROOT
ATOM      1  C   UNL A   1      31.749  28.814  26.822  1.00  0.00     0.274 C 
ENDROOT
BRANCH   1   2
ATOM      2  O   UNL A   1      32.759  27.867  27.216  1.00  0.00    -0.462 OA
BRANCH   2   3
ATOM      3  C   UNL A   1      32.816  26.738  26.461  1.00  0.00     0.310 C 
ATOM      4  O   UNL A   1      32.006  25.819  26.527  1.00  0.00    -0.252 OA
BRANCH   3   5
ATOM      5  C   UNL A   1      34.038  26.650  25.585  1.00  0.00     0.160 C 
BRANCH   5   6
ATOM      6  C   UNL A   1      34.329  25.347  24.867  1.00  0.00    -0.013 A 
ATOM      7  C   UNL A   1      33.845  25.094  23.563  1.00  0.00     0.042 A 
ATOM      8  C   UNL A   1      34.113  23.850  22.966  1.00  0.00     0.026 A 
ATOM      9  C   UNL A   1      34.898  22.893  23.607  1.00  0.00     0.002 A 
ATOM     10  C   UNL A   1      35.150  24.383  25.482  1.00  0.00     0.006 A 
ATOM     11  C   UNL A   1      35.433  23.168  24.858  1.00  0.00     0.000 A 
BRANCH   7  12
ATOM     12  N   UNL A   1      33.201  26.069  22.770  1.00  0.00    -0.354 N 
ATOM     13  H   UNL A   1      33.611  26.225  21.889  1.00  0.00     0.167 HD
BRANCH  12  14
ATOM     14  C   UNL A   1      32.057  26.859  23.046  1.00  0.00     0.060 A 
ATOM     15  C   UNL A   1      33.533  28.926  22.814  1.00  0.00     0.046 C 
ATOM     16  C   UNL A   1      32.197  28.269  23.045  1.00  0.00    -0.026 A 
ATOM     17  C   UNL A   1      31.059  29.086  23.169  1.00  0.00     0.005 A 
ATOM     18  C   UNL A   1      29.792  28.530  23.312  1.00  0.00     0.002 A 
ATOM     19  C   UNL A   1      30.763  26.316  23.227  1.00  0.00     0.064 A 
ATOM     20  C   UNL A   1      29.645  27.148  23.352  1.00  0.00     0.023 A 
ATOM     21  Cl  UNL A   1      30.470  24.615  23.382  1.00  0.00    -0.082 Cl
ENDBRANCH  12  14
ENDBRANCH   7  12
ENDBRANCH   5   6
ENDBRANCH   3   5
ENDBRANCH   2   3
ENDBRANCH   1   2
BRANCH   1  22
ATOM     22  C   UNL A   1      32.286  30.242  26.875  1.00  0.00     0.275 C 
BRANCH  22  23
ATOM     23  O   UNL A   1      33.720  30.229  26.974  1.00  0.00    -0.458 OA
BRANCH  23  24
ATOM     24  C   UNL A   1      34.273  31.272  27.630  1.00  0.00     0.338 C 
ATOM     25  O   UNL A   1      33.814  32.394  27.760  1.00  0.00    -0.246 OA
BRANCH  24  26
ATOM     26  C   UNL A   1      35.576  30.873  28.187  1.00  0.00     0.060 A 
ATOM     27  C   UNL A   1      35.735  29.635  28.816  1.00  0.00     0.016 A 
ATOM     28  C   UNL A   1      36.620  31.797  28.171  1.00  0.00     0.016 A 
ATOM     29  C   UNL A   1      36.934  29.331  29.462  1.00  0.00     0.010 A 
ATOM     30  C   UNL A   1      37.834  31.470  28.775  1.00  0.00     0.010 A 
ATOM     31  C   UNL A   1      37.995  30.245  29.445  1.00  0.00    -0.014 A 
BRANCH  31  32
ATOM     32  C   UNL A   1      39.271  29.958  30.149  1.00  0.00     0.031 A 
ATOM     33  C   UNL A   1      40.165  28.853  29.657  1.00  0.00     0.074 A 
ATOM     34  C   UNL A   1      39.603  30.648  31.257  1.00  0.00     0.049 A 
ATOM     35  N   UNL A   1      41.212  28.320  30.232  1.00  0.00    -0.248 NA
ATOM     36  C   UNL A   1      39.824  28.260  28.354  1.00  0.00     0.031 C 
ATOM     37  C   UNL A   1      38.840  31.763  31.822  1.00  0.00     0.029 A 
ATOM     38  N   UNL A   1      40.660  30.495  32.118  1.00  0.00    -0.354 N 
ATOM     39  C   UNL A   1      41.631  27.302  29.384  1.00  0.00     0.074 A 
ATOM     40  C   UNL A   1      40.722  27.290  28.257  1.00  0.00     0.031 C 
ATOM     41  C   UNL A   1      39.454  32.192  32.937  1.00  0.00     0.029 A 
ATOM     42  C   UNL A   1      40.616  31.346  33.196  1.00  0.00     0.049 A 
ATOM     43  H   UNL A   1      41.381  29.840  31.977  1.00  0.00     0.167 HD
ATOM     44  C   UNL A   1      42.673  26.450  29.534  1.00  0.00     0.031 A 
ATOM     45  C   UNL A   1      41.396  31.414  34.293  1.00  0.00     0.031 A 
ATOM     46  C   UNL A   1      43.587  26.476  30.646  1.00  0.00     0.049 A 
ATOM     47  C   UNL A   1      42.530  30.443  34.453  1.00  0.00     0.074 A 
ATOM     48  C   UNL A   1      44.689  25.669  30.876  1.00  0.00     0.029 A 
ATOM     49  N   UNL A   1      43.507  27.356  31.714  1.00  0.00    -0.354 N 
ATOM     50  N   UNL A   1      42.905  29.475  33.650  1.00  0.00    -0.248 NA
ATOM     51  C   UNL A   1      43.342  30.568  35.671  1.00  0.00     0.031 C 
ATOM     52  C   UNL A   1      45.254  26.040  32.102  1.00  0.00     0.029 A 
ATOM     53  C   UNL A   1      44.529  27.104  32.614  1.00  0.00     0.049 A 
ATOM     54  H   UNL A   1      42.824  28.059  31.817  1.00  0.00     0.167 HD
ATOM     55  C   UNL A   1      44.005  28.884  34.259  1.00  0.00     0.074 A 
ATOM     56  C   UNL A   1      44.244  29.611  35.490  1.00  0.00     0.031 C 
ATOM     57  C   UNL A   1      44.750  27.834  33.837  1.00  0.00     0.031 A 
BRANCH  44  58
ATOM     58  C   UNL A   1      42.853  25.385  28.485  1.00  0.00    -0.014 A 
ATOM     59  C   UNL A   1      42.161  24.163  28.556  1.00  0.00     0.010 A 
ATOM     60  C   UNL A   1      43.718  25.621  27.402  1.00  0.00     0.010 A 
ATOM     61  C   UNL A   1      42.364  23.180  27.584  1.00  0.00     0.020 A 
ATOM     62  C   UNL A   1      43.907  24.649  26.415  1.00  0.00     0.020 A 
ATOM     63  C   UNL A   1      43.244  23.426  26.525  1.00  0.00     0.054 A 
BRANCH  63  64
ATOM     64  S   UNL A   1      43.492  22.136  25.272  1.00  0.00     0.124 S 
ATOM     65  O   UNL A   1      44.832  21.654  25.598  1.00  0.00    -0.237 OA
ATOM     66  O   UNL A   1      42.405  21.201  25.550  1.00  0.00    -0.237 OA
ATOM     67  O   UNL A   1      43.379  22.857  24.007  1.00  0.00    -0.744 OA
ENDBRANCH  63  64
ENDBRANCH  44  58
BRANCH  45  68
ATOM     68  C   UNL A   1      41.099  32.428  35.339  1.00  0.00    -0.014 A 
ATOM     69  C   UNL A   1      41.610  33.732  35.233  1.00  0.00     0.010 A 
ATOM     70  C   UNL A   1      40.264  32.103  36.424  1.00  0.00     0.010 A 
ATOM     71  C   UNL A   1      41.292  34.695  36.195  1.00  0.00     0.020 A 
ATOM     72  C   UNL A   1      39.926  33.069  37.375  1.00  0.00     0.020 A 
ATOM     73  C   UNL A   1      40.447  34.359  37.257  1.00  0.00     0.054 A 
BRANCH  73  74
ATOM     74  S   UNL A   1      39.977  35.644  38.448  1.00  0.00     0.124 S 
ATOM     75  O   UNL A   1      41.165  35.728  39.290  1.00  0.00    -0.237 OA
ATOM     76  O   UNL A   1      39.727  36.800  37.589  1.00  0.00    -0.237 OA
ATOM     77  O   UNL A   1      38.788  35.091  39.093  1.00  0.00    -0.744 OA
ENDBRANCH  73  74
ENDBRANCH  45  68
BRANCH  57  78
ATOM     78  C   UNL A   1      45.911  27.421  34.699  1.00  0.00    -0.014 A 
ATOM     79  C   UNL A   1      47.178  28.004  34.535  1.00  0.00     0.010 A 
ATOM     80  C   UNL A   1      45.715  26.472  35.718  1.00  0.00     0.010 A 
ATOM     81  C   UNL A   1      48.241  27.624  35.361  1.00  0.00     0.020 A 
ATOM     82  C   UNL A   1      46.770  26.105  36.558  1.00  0.00     0.020 A 
ATOM     83  C   UNL A   1      48.030  26.675  36.365  1.00  0.00     0.054 A 
BRANCH  83  84
ATOM     84  S   UNL A   1      49.411  26.226  37.453  1.00  0.00     0.124 S 
ATOM     85  O   UNL A   1      49.387  27.307  38.436  1.00  0.00    -0.237 OA
ATOM     86  O   UNL A   1      49.015  24.912  37.954  1.00  0.00    -0.237 OA
ATOM     87  O   UNL A   1      50.567  26.221  36.558  1.00  0.00    -0.744 OA
ENDBRANCH  83  84
ENDBRANCH  57  78
ENDBRANCH  31  32
ENDBRANCH  24  26
ENDBRANCH  23  24
ENDBRANCH  22  23
ENDBRANCH   1  22
TORSDOF 17
ENDMDL
