MODEL 1
REMARK VINA RESULT:     -11.9      0.000      0.000
REMARK SMILES O=C(OCCOC(=O)c1ccc(-c2c3nc(c(-c4ccc(S(=O)(=O)[O-])cc4)c4ccc([nH]4)c(-c4ccc(S(=O)(=O)[O-])cc4)c4nc(c(-c5ccc(S(=O)(=O)[O-])cc5)c5ccc2[nH]5)C=C4)C=C3)cc1)c1ccc(NC(=O)c2ccccc2NC(=O)C2CC2)cc1
REMARK SMILES IDX 4 1 3 2 2 3 1 4 69 5 70 6 89 7 71 8 88 9 72 10 73 11 74 12
REMARK SMILES IDX 75 14 76 15 77 16 81 17 78 18 80 19 79 20 82 21 83 22 84 24
REMARK SMILES IDX 85 25 86 26 87 27 5 28 6 29 7 30 8 31 9 32 10 33 68 34 11 35
REMARK SMILES IDX 67 36 12 37 13 38 14 39 61 40 15 41 66 42 60 43 62 44 16 45
REMARK SMILES IDX 65 46 59 47 58 48 17 50 47 51 28 52 46 53 29 54 32 55 45 56
REMARK SMILES IDX 63 57 30 58 31 59 44 61 64 62 33 63 18 64 19 65 27 66 20 67
REMARK SMILES IDX 26 68 21 69 22 70 23 71 24 72 25 73 48 74 49 75 57 76 50 77
REMARK SMILES IDX 56 78 51 79 52 80 53 81 54 82 55 83 34 84 35 85 43 86 36 87
REMARK SMILES IDX 42 88 37 89 38 90 39 91 40 92 41 93
REMARK H PARENT 73 13 82 23 62 49 32 60
REMARK Flexibility Score: inf
ROOT
ATOM      1  C   UNL A   1      32.428  30.051  25.701  1.00  0.00     0.275 C 
ENDROOT
BRANCH   1   2
ATOM      2  O   UNL A   1      31.337  29.214  26.124  1.00  0.00    -0.458 OA
BRANCH   2   3
ATOM      3  C   UNL A   1      31.342  27.969  26.664  1.00  0.00     0.338 C 
ATOM      4  O   UNL A   1      31.069  27.839  27.855  1.00  0.00    -0.246 OA
BRANCH   3   5
ATOM      5  C   UNL A   1      31.782  26.757  25.905  1.00  0.00     0.060 A 
ATOM      6  C   UNL A   1      32.557  25.717  26.421  1.00  0.00     0.018 A 
ATOM      7  C   UNL A   1      31.335  26.642  24.582  1.00  0.00     0.018 A 
ATOM      8  C   UNL A   1      32.661  24.491  25.745  1.00  0.00     0.027 A 
ATOM      9  C   UNL A   1      31.508  25.447  23.876  1.00  0.00     0.027 A 
ATOM     10  C   UNL A   1      32.070  24.326  24.501  1.00  0.00     0.041 A 
BRANCH  10  11
ATOM     11  N   UNL A   1      31.957  23.109  23.819  1.00  0.00    -0.322 N 
ATOM     12  C   UNL A   1      32.813  22.066  23.569  1.00  0.00     0.257 C 
ATOM     13  H   UNL A   1      31.062  22.970  23.432  1.00  0.00     0.170 HD
ATOM     14  O   UNL A   1      32.406  21.116  22.897  1.00  0.00    -0.269 OA
BRANCH  12  15
ATOM     15  C   UNL A   1      34.206  21.976  24.043  1.00  0.00     0.063 A 
ATOM     16  C   UNL A   1      35.098  22.850  23.393  1.00  0.00     0.016 A 
ATOM     17  C   UNL A   1      34.700  20.937  24.868  1.00  0.00     0.054 A 
ATOM     18  C   UNL A   1      36.473  22.702  23.547  1.00  0.00     0.001 A 
ATOM     19  C   UNL A   1      36.089  20.781  24.956  1.00  0.00     0.027 A 
ATOM     20  C   UNL A   1      36.968  21.656  24.315  1.00  0.00     0.002 A 
BRANCH  17  21
ATOM     21  N   UNL A   1      33.830  20.036  25.515  1.00  0.00    -0.325 N 
ATOM     22  C   UNL A   1      33.385  18.768  25.192  1.00  0.00     0.227 C 
ATOM     23  H   UNL A   1      33.469  20.379  26.364  1.00  0.00     0.169 HD
ATOM     24  O   UNL A   1      32.524  18.243  25.893  1.00  0.00    -0.274 OA
BRANCH  22  25
ATOM     25  C   UNL A   1      33.937  17.973  24.059  1.00  0.00     0.079 C 
ATOM     26  C   UNL A   1      33.598  16.527  23.780  1.00  0.00     0.014 C 
ATOM     27  C   UNL A   1      32.996  17.594  22.925  1.00  0.00     0.014 C 
ENDBRANCH  22  25
ENDBRANCH  17  21
ENDBRANCH  12  15
ENDBRANCH  10  11
ENDBRANCH   3   5
ENDBRANCH   2   3
ENDBRANCH   1   2
BRANCH   1  28
ATOM     28  C   UNL A   1      33.803  29.739  26.289  1.00  0.00     0.275 C 
BRANCH  28  29
ATOM     29  O   UNL A   1      33.877  29.846  27.712  1.00  0.00    -0.458 OA
BRANCH  29  30
ATOM     30  C   UNL A   1      34.739  30.783  28.189  1.00  0.00     0.338 C 
ATOM     31  O   UNL A   1      34.466  31.953  28.421  1.00  0.00    -0.246 OA
BRANCH  30  32
ATOM     32  C   UNL A   1      36.071  30.175  28.438  1.00  0.00     0.060 A 
ATOM     33  C   UNL A   1      36.390  29.663  29.697  1.00  0.00     0.016 A 
ATOM     34  C   UNL A   1      37.026  30.121  27.424  1.00  0.00     0.016 A 
ATOM     35  C   UNL A   1      37.675  29.157  29.945  1.00  0.00     0.010 A 
ATOM     36  C   UNL A   1      38.305  29.620  27.662  1.00  0.00     0.010 A 
ATOM     37  C   UNL A   1      38.653  29.168  28.937  1.00  0.00    -0.014 A 
BRANCH  37  38
ATOM     38  C   UNL A   1      40.052  28.747  29.192  1.00  0.00     0.031 A 
ATOM     39  C   UNL A   1      41.036  29.722  29.789  1.00  0.00     0.074 A 
ATOM     40  C   UNL A   1      40.474  27.535  28.787  1.00  0.00     0.049 A 
ATOM     41  N   UNL A   1      42.268  29.518  30.178  1.00  0.00    -0.248 NA
ATOM     42  C   UNL A   1      40.581  31.113  29.942  1.00  0.00     0.031 C 
ATOM     43  C   UNL A   1      39.647  26.545  28.094  1.00  0.00     0.029 A 
ATOM     44  N   UNL A   1      41.706  26.938  28.877  1.00  0.00    -0.354 N 
ATOM     45  C   UNL A   1      42.733  30.748  30.635  1.00  0.00     0.074 A 
ATOM     46  C   UNL A   1      41.672  31.705  30.406  1.00  0.00     0.031 C 
ATOM     47  C   UNL A   1      40.397  25.465  27.821  1.00  0.00     0.029 A 
ATOM     48  C   UNL A   1      41.746  25.675  28.338  1.00  0.00     0.049 A 
ATOM     49  H   UNL A   1      42.485  27.374  29.290  1.00  0.00     0.167 HD
ATOM     50  C   UNL A   1      43.924  31.047  31.212  1.00  0.00     0.031 A 
ATOM     51  C   UNL A   1      42.746  24.772  28.301  1.00  0.00     0.031 A 
ATOM     52  C   UNL A   1      44.984  30.085  31.390  1.00  0.00     0.049 A 
ATOM     53  C   UNL A   1      44.046  25.095  28.988  1.00  0.00     0.074 A 
ATOM     54  C   UNL A   1      46.192  30.238  32.048  1.00  0.00     0.029 A 
ATOM     55  N   UNL A   1      44.969  28.794  30.881  1.00  0.00    -0.354 N 
ATOM     56  N   UNL A   1      44.411  26.209  29.579  1.00  0.00    -0.248 NA
ATOM     57  C   UNL A   1      45.047  24.023  29.048  1.00  0.00     0.031 C 
ATOM     58  C   UNL A   1      46.931  29.062  31.882  1.00  0.00     0.029 A 
ATOM     59  C   UNL A   1      46.156  28.148  31.185  1.00  0.00     0.049 A 
ATOM     60  H   UNL A   1      44.223  28.395  30.377  1.00  0.00     0.167 HD
ATOM     61  C   UNL A   1      45.669  25.959  30.118  1.00  0.00     0.074 A 
ATOM     62  C   UNL A   1      45.995  24.585  29.787  1.00  0.00     0.031 C 
ATOM     63  C   UNL A   1      46.474  26.785  30.834  1.00  0.00     0.031 A 
BRANCH  50  64
ATOM     64  C   UNL A   1      44.137  32.465  31.696  1.00  0.00    -0.014 A 
ATOM     65  C   UNL A   1      43.729  32.863  32.985  1.00  0.00     0.010 A 
ATOM     66  C   UNL A   1      44.786  33.407  30.876  1.00  0.00     0.010 A 
ATOM     67  C   UNL A   1      43.908  34.180  33.418  1.00  0.00     0.020 A 
ATOM     68  C   UNL A   1      45.000  34.718  31.319  1.00  0.00     0.020 A 
ATOM     69  C   UNL A   1      44.538  35.102  32.579  1.00  0.00     0.054 A 
BRANCH  69  70
ATOM     70  S   UNL A   1      44.763  36.803  33.172  1.00  0.00     0.124 S 
ATOM     71  O   UNL A   1      43.405  37.166  33.573  1.00  0.00    -0.237 OA
ATOM     72  O   UNL A   1      45.715  36.637  34.268  1.00  0.00    -0.237 OA
ATOM     73  O   UNL A   1      45.278  37.515  32.006  1.00  0.00    -0.744 OA
ENDBRANCH  69  70
ENDBRANCH  50  64
BRANCH  51  74
ATOM     74  C   UNL A   1      42.499  23.437  27.692  1.00  0.00    -0.014 A 
ATOM     75  C   UNL A   1      42.927  23.172  26.379  1.00  0.00     0.010 A 
ATOM     76  C   UNL A   1      41.908  22.402  28.440  1.00  0.00     0.010 A 
ATOM     77  C   UNL A   1      42.772  21.898  25.825  1.00  0.00     0.020 A 
ATOM     78  C   UNL A   1      41.772  21.120  27.896  1.00  0.00     0.020 A 
ATOM     79  C   UNL A   1      42.205  20.877  26.592  1.00  0.00     0.054 A 
BRANCH  79  80
ATOM     80  S   UNL A   1      42.105  19.210  25.879  1.00  0.00     0.124 S 
ATOM     81  O   UNL A   1      42.963  19.328  24.704  1.00  0.00    -0.237 OA
ATOM     82  O   UNL A   1      42.622  18.375  26.960  1.00  0.00    -0.237 OA
ATOM     83  O   UNL A   1      40.681  19.042  25.601  1.00  0.00    -0.744 OA
ENDBRANCH  79  80
ENDBRANCH  51  74
BRANCH  63  84
ATOM     84  C   UNL A   1      47.775  26.216  31.337  1.00  0.00    -0.014 A 
ATOM     85  C   UNL A   1      47.883  25.643  32.618  1.00  0.00     0.010 A 
ATOM     86  C   UNL A   1      48.902  26.219  30.493  1.00  0.00     0.010 A 
ATOM     87  C   UNL A   1      49.104  25.125  33.060  1.00  0.00     0.020 A 
ATOM     88  C   UNL A   1      50.115  25.672  30.919  1.00  0.00     0.020 A 
ATOM     89  C   UNL A   1      50.213  25.145  32.207  1.00  0.00     0.054 A 
BRANCH  89  90
ATOM     90  S   UNL A   1      51.777  24.442  32.795  1.00  0.00     0.124 S 
ATOM     91  O   UNL A   1      51.626  23.031  32.449  1.00  0.00    -0.237 OA
ATOM     92  O   UNL A   1      52.772  25.176  32.015  1.00  0.00    -0.237 OA
ATOM     93  O   UNL A   1      51.775  24.737  34.226  1.00  0.00    -0.744 OA
ENDBRANCH  89  90
ENDBRANCH  63  84
ENDBRANCH  37  38
ENDBRANCH  30  32
ENDBRANCH  29  30
ENDBRANCH  28  29
ENDBRANCH   1  28
TORSDOF 18
ENDMDL
MODEL 2
REMARK VINA RESULT:     -11.7      1.336      8.196
REMARK SMILES O=C(OCCOC(=O)c1ccc(-c2c3nc(c(-c4ccc(S(=O)(=O)[O-])cc4)c4ccc([nH]4)c(-c4ccc(S(=O)(=O)[O-])cc4)c4nc(c(-c5ccc(S(=O)(=O)[O-])cc5)c5ccc2[nH]5)C=C4)C=C3)cc1)c1ccc(NC(=O)c2ccccc2NC(=O)C2CC2)cc1
REMARK SMILES IDX 4 1 3 2 2 3 1 4 69 5 70 6 89 7 71 8 88 9 72 10 73 11 74 12
REMARK SMILES IDX 75 14 76 15 77 16 81 17 78 18 80 19 79 20 82 21 83 22 84 24
REMARK SMILES IDX 85 25 86 26 87 27 5 28 6 29 7 30 8 31 9 32 10 33 68 34 11 35
REMARK SMILES IDX 67 36 12 37 13 38 14 39 61 40 15 41 66 42 60 43 62 44 16 45
REMARK SMILES IDX 65 46 59 47 58 48 17 50 47 51 28 52 46 53 29 54 32 55 45 56
REMARK SMILES IDX 63 57 30 58 31 59 44 61 64 62 33 63 18 64 19 65 27 66 20 67
REMARK SMILES IDX 26 68 21 69 22 70 23 71 24 72 25 73 48 74 49 75 57 76 50 77
REMARK SMILES IDX 56 78 51 79 52 80 53 81 54 82 55 83 34 84 35 85 43 86 36 87
REMARK SMILES IDX 42 88 37 89 38 90 39 91 40 92 41 93
REMARK H PARENT 73 13 82 23 62 49 32 60
REMARK Flexibility Score: inf
ROOT
ATOM      1  C   UNL A   1      31.919  29.722  26.775  1.00  0.00     0.275 C 
ENDROOT
BRANCH   1   2
ATOM      2  O   UNL A   1      31.426  28.590  26.036  1.00  0.00    -0.458 OA
BRANCH   2   3
ATOM      3  C   UNL A   1      31.253  27.299  26.416  1.00  0.00     0.338 C 
ATOM      4  O   UNL A   1      31.434  26.999  27.594  1.00  0.00    -0.246 OA
BRANCH   3   5
ATOM      5  C   UNL A   1      30.969  26.198  25.443  1.00  0.00     0.060 A 
ATOM      6  C   UNL A   1      30.902  26.343  24.057  1.00  0.00     0.018 A 
ATOM      7  C   UNL A   1      30.804  24.912  25.973  1.00  0.00     0.018 A 
ATOM      8  C   UNL A   1      30.939  25.221  23.212  1.00  0.00     0.027 A 
ATOM      9  C   UNL A   1      30.760  23.797  25.128  1.00  0.00     0.027 A 
ATOM     10  C   UNL A   1      30.946  23.942  23.748  1.00  0.00     0.041 A 
BRANCH  10  11
ATOM     11  N   UNL A   1      31.158  22.766  23.020  1.00  0.00    -0.322 N 
ATOM     12  C   UNL A   1      32.211  21.895  22.888  1.00  0.00     0.257 C 
ATOM     13  H   UNL A   1      30.377  22.506  22.479  1.00  0.00     0.170 HD
ATOM     14  O   UNL A   1      32.089  20.934  22.126  1.00  0.00    -0.269 OA
BRANCH  12  15
ATOM     15  C   UNL A   1      33.501  22.006  23.594  1.00  0.00     0.063 A 
ATOM     16  C   UNL A   1      34.380  22.959  23.047  1.00  0.00     0.016 A 
ATOM     17  C   UNL A   1      33.965  21.076  24.553  1.00  0.00     0.054 A 
ATOM     18  C   UNL A   1      35.715  22.997  23.437  1.00  0.00     0.001 A 
ATOM     19  C   UNL A   1      35.326  21.105  24.882  1.00  0.00     0.027 A 
ATOM     20  C   UNL A   1      36.191  22.058  24.343  1.00  0.00     0.002 A 
BRANCH  17  21
ATOM     21  N   UNL A   1      33.111  20.098  25.102  1.00  0.00    -0.325 N 
ATOM     22  C   UNL A   1      33.003  18.734  24.911  1.00  0.00     0.227 C 
ATOM     23  H   UNL A   1      32.463  20.460  25.750  1.00  0.00     0.169 HD
ATOM     24  O   UNL A   1      32.077  18.129  25.445  1.00  0.00    -0.274 OA
BRANCH  22  25
ATOM     25  C   UNL A   1      33.990  17.939  24.127  1.00  0.00     0.079 C 
ATOM     26  C   UNL A   1      33.902  16.448  23.898  1.00  0.00     0.014 C 
ATOM     27  C   UNL A   1      33.551  17.377  22.783  1.00  0.00     0.014 C 
ENDBRANCH  22  25
ENDBRANCH  17  21
ENDBRANCH  12  15
ENDBRANCH  10  11
ENDBRANCH   3   5
ENDBRANCH   2   3
ENDBRANCH   1   2
BRANCH   1  28
ATOM     28  C   UNL A   1      33.383  30.099  26.559  1.00  0.00     0.275 C 
BRANCH  28  29
ATOM     29  O   UNL A   1      34.290  29.521  27.501  1.00  0.00    -0.458 OA
BRANCH  29  30
ATOM     30  C   UNL A   1      34.978  30.402  28.276  1.00  0.00     0.338 C 
ATOM     31  O   UNL A   1      34.519  31.416  28.783  1.00  0.00    -0.246 OA
BRANCH  30  32
ATOM     32  C   UNL A   1      36.376  29.938  28.462  1.00  0.00     0.060 A 
ATOM     33  C   UNL A   1      36.778  29.375  29.675  1.00  0.00     0.016 A 
ATOM     34  C   UNL A   1      37.310  30.070  27.436  1.00  0.00     0.016 A 
ATOM     35  C   UNL A   1      38.118  29.006  29.869  1.00  0.00     0.010 A 
ATOM     36  C   UNL A   1      38.643  29.707  27.619  1.00  0.00     0.010 A 
ATOM     37  C   UNL A   1      39.066  29.206  28.853  1.00  0.00    -0.014 A 
BRANCH  37  38
ATOM     38  C   UNL A   1      40.510  28.933  29.059  1.00  0.00     0.031 A 
ATOM     39  C   UNL A   1      41.081  27.583  28.707  1.00  0.00     0.074 A 
ATOM     40  C   UNL A   1      41.287  29.851  29.664  1.00  0.00     0.049 A 
ATOM     41  N   UNL A   1      42.327  27.183  28.719  1.00  0.00    -0.248 NA
ATOM     42  C   UNL A   1      40.119  26.538  28.319  1.00  0.00     0.031 C 
ATOM     43  C   UNL A   1      40.827  31.151  30.154  1.00  0.00     0.029 A 
ATOM     44  N   UNL A   1      42.619  29.822  29.991  1.00  0.00    -0.354 N 
ATOM     45  C   UNL A   1      42.303  25.848  28.327  1.00  0.00     0.074 A 
ATOM     46  C   UNL A   1      40.912  25.488  28.155  1.00  0.00     0.031 C 
ATOM     47  C   UNL A   1      41.861  31.795  30.721  1.00  0.00     0.029 A 
ATOM     48  C   UNL A   1      43.058  30.965  30.614  1.00  0.00     0.049 A 
ATOM     49  H   UNL A   1      43.204  29.055  29.795  1.00  0.00     0.167 HD
ATOM     50  C   UNL A   1      43.345  25.007  28.109  1.00  0.00     0.031 A 
ATOM     51  C   UNL A   1      44.294  31.322  31.016  1.00  0.00     0.031 A 
ATOM     52  C   UNL A   1      44.722  25.374  28.330  1.00  0.00     0.049 A 
ATOM     53  C   UNL A   1      45.450  30.402  30.724  1.00  0.00     0.074 A 
ATOM     54  C   UNL A   1      45.868  24.650  28.050  1.00  0.00     0.029 A 
ATOM     55  N   UNL A   1      45.136  26.565  28.910  1.00  0.00    -0.354 N 
ATOM     56  N   UNL A   1      45.435  29.206  30.183  1.00  0.00    -0.248 NA
ATOM     57  C   UNL A   1      46.791  30.903  31.047  1.00  0.00     0.031 C 
ATOM     58  C   UNL A   1      46.968  25.376  28.519  1.00  0.00     0.029 A 
ATOM     59  C   UNL A   1      46.516  26.586  29.023  1.00  0.00     0.049 A 
ATOM     60  H   UNL A   1      44.535  27.290  29.199  1.00  0.00     0.167 HD
ATOM     61  C   UNL A   1      46.768  28.827  30.063  1.00  0.00     0.074 A 
ATOM     62  C   UNL A   1      47.559  29.926  30.582  1.00  0.00     0.031 C 
ATOM     63  C   UNL A   1      47.290  27.681  29.557  1.00  0.00     0.031 A 
BRANCH  50  64
ATOM     64  C   UNL A   1      43.033  23.615  27.602  1.00  0.00    -0.014 A 
ATOM     65  C   UNL A   1      42.549  22.616  28.469  1.00  0.00     0.010 A 
ATOM     66  C   UNL A   1      43.187  23.304  26.238  1.00  0.00     0.010 A 
ATOM     67  C   UNL A   1      42.285  21.326  27.999  1.00  0.00     0.020 A 
ATOM     68  C   UNL A   1      42.890  22.023  25.755  1.00  0.00     0.020 A 
ATOM     69  C   UNL A   1      42.462  21.035  26.644  1.00  0.00     0.054 A 
BRANCH  69  70
ATOM     70  S   UNL A   1      42.104  19.354  26.063  1.00  0.00     0.124 S 
ATOM     71  O   UNL A   1      42.556  18.540  27.189  1.00  0.00    -0.237 OA
ATOM     72  O   UNL A   1      40.658  19.387  25.856  1.00  0.00    -0.237 OA
ATOM     73  O   UNL A   1      42.902  19.228  24.846  1.00  0.00    -0.744 OA
ENDBRANCH  69  70
ENDBRANCH  50  64
BRANCH  51  74
ATOM     74  C   UNL A   1      44.502  32.664  31.625  1.00  0.00    -0.014 A 
ATOM     75  C   UNL A   1      44.702  33.786  30.802  1.00  0.00     0.010 A 
ATOM     76  C   UNL A   1      44.424  32.843  33.018  1.00  0.00     0.010 A 
ATOM     77  C   UNL A   1      44.819  35.063  31.358  1.00  0.00     0.020 A 
ATOM     78  C   UNL A   1      44.517  34.123  33.576  1.00  0.00     0.020 A 
ATOM     79  C   UNL A   1      44.715  35.225  32.742  1.00  0.00     0.054 A 
BRANCH  79  80
ATOM     80  S   UNL A   1      44.774  36.905  33.427  1.00  0.00     0.124 S 
ATOM     81  O   UNL A   1      44.295  37.708  32.306  1.00  0.00    -0.237 OA
ATOM     82  O   UNL A   1      43.870  36.810  34.570  1.00  0.00    -0.237 OA
ATOM     83  O   UNL A   1      46.183  37.085  33.770  1.00  0.00    -0.744 OA
ENDBRANCH  79  80
ENDBRANCH  51  74
BRANCH  63  84
ATOM     84  C   UNL A   1      48.792  27.567  29.510  1.00  0.00    -0.014 A 
ATOM     85  C   UNL A   1      49.537  28.095  28.439  1.00  0.00     0.010 A 
ATOM     86  C   UNL A   1      49.472  26.956  30.579  1.00  0.00     0.010 A 
ATOM     87  C   UNL A   1      50.929  27.974  28.419  1.00  0.00     0.020 A 
ATOM     88  C   UNL A   1      50.866  26.862  30.579  1.00  0.00     0.020 A 
ATOM     89  C   UNL A   1      51.585  27.355  29.490  1.00  0.00     0.054 A 
BRANCH  89  90
ATOM     90  S   UNL A   1      53.394  27.235  29.453  1.00  0.00     0.124 S 
ATOM     91  O   UNL A   1      53.603  26.060  28.611  1.00  0.00    -0.237 OA
ATOM     92  O   UNL A   1      53.788  28.511  28.859  1.00  0.00    -0.237 OA
ATOM     93  O   UNL A   1      53.760  27.069  30.857  1.00  0.00    -0.744 OA
ENDBRANCH  89  90
ENDBRANCH  63  84
ENDBRANCH  37  38
ENDBRANCH  30  32
ENDBRANCH  29  30
ENDBRANCH  28  29
ENDBRANCH   1  28
TORSDOF 18
ENDMDL
MODEL 3
REMARK VINA RESULT:     -11.6      1.441      2.266
REMARK SMILES O=C(OCCOC(=O)c1ccc(-c2c3nc(c(-c4ccc(S(=O)(=O)[O-])cc4)c4ccc([nH]4)c(-c4ccc(S(=O)(=O)[O-])cc4)c4nc(c(-c5ccc(S(=O)(=O)[O-])cc5)c5ccc2[nH]5)C=C4)C=C3)cc1)c1ccc(NC(=O)c2ccccc2NC(=O)C2CC2)cc1
REMARK SMILES IDX 4 1 3 2 2 3 1 4 69 5 70 6 89 7 71 8 88 9 72 10 73 11 74 12
REMARK SMILES IDX 75 14 76 15 77 16 81 17 78 18 80 19 79 20 82 21 83 22 84 24
REMARK SMILES IDX 85 25 86 26 87 27 5 28 6 29 7 30 8 31 9 32 10 33 68 34 11 35
REMARK SMILES IDX 67 36 12 37 13 38 14 39 61 40 15 41 66 42 60 43 62 44 16 45
REMARK SMILES IDX 65 46 59 47 58 48 17 50 47 51 28 52 46 53 29 54 32 55 45 56
REMARK SMILES IDX 63 57 30 58 31 59 44 61 64 62 33 63 18 64 19 65 27 66 20 67
REMARK SMILES IDX 26 68 21 69 22 70 23 71 24 72 25 73 48 74 49 75 57 76 50 77
REMARK SMILES IDX 56 78 51 79 52 80 53 81 54 82 55 83 34 84 35 85 43 86 36 87
REMARK SMILES IDX 42 88 37 89 38 90 39 91 40 92 41 93
REMARK H PARENT 73 13 82 23 62 49 32 60
REMARK Flexibility Score: inf
ROOT
ATOM      1  C   UNL A   1      31.962  29.237  25.576  1.00  0.00     0.275 C 
ENDROOT
BRANCH   1   2
ATOM      2  O   UNL A   1      33.001  29.023  24.604  1.00  0.00    -0.458 OA
BRANCH   2   3
ATOM      3  C   UNL A   1      32.957  28.425  23.387  1.00  0.00     0.338 C 
ATOM      4  O   UNL A   1      32.535  29.065  22.427  1.00  0.00    -0.246 OA
BRANCH   3   5
ATOM      5  C   UNL A   1      33.287  26.980  23.182  1.00  0.00     0.060 A 
ATOM      6  C   UNL A   1      34.032  26.189  24.057  1.00  0.00     0.018 A 
ATOM      7  C   UNL A   1      32.761  26.367  22.037  1.00  0.00     0.018 A 
ATOM      8  C   UNL A   1      34.031  24.789  23.943  1.00  0.00     0.027 A 
ATOM      9  C   UNL A   1      32.829  24.979  21.881  1.00  0.00     0.027 A 
ATOM     10  C   UNL A   1      33.363  24.174  22.894  1.00  0.00     0.041 A 
BRANCH  10  11
ATOM     11  N   UNL A   1      33.145  22.796  22.778  1.00  0.00    -0.322 N 
ATOM     12  C   UNL A   1      32.853  21.791  23.667  1.00  0.00     0.257 C 
ATOM     13  H   UNL A   1      33.220  22.475  21.850  1.00  0.00     0.170 HD
ATOM     14  O   UNL A   1      32.742  20.641  23.240  1.00  0.00    -0.269 OA
BRANCH  12  15
ATOM     15  C   UNL A   1      32.653  21.970  25.117  1.00  0.00     0.063 A 
ATOM     16  C   UNL A   1      31.575  22.810  25.453  1.00  0.00     0.016 A 
ATOM     17  C   UNL A   1      33.591  21.584  26.102  1.00  0.00     0.054 A 
ATOM     18  C   UNL A   1      31.421  23.277  26.756  1.00  0.00     0.001 A 
ATOM     19  C   UNL A   1      33.439  22.116  27.389  1.00  0.00     0.027 A 
ATOM     20  C   UNL A   1      32.364  22.942  27.719  1.00  0.00     0.002 A 
BRANCH  17  21
ATOM     21  N   UNL A   1      34.690  20.759  25.788  1.00  0.00    -0.325 N 
ATOM     22  C   UNL A   1      35.937  21.023  25.254  1.00  0.00     0.227 C 
ATOM     23  H   UNL A   1      34.539  19.807  25.988  1.00  0.00     0.169 HD
ATOM     24  O   UNL A   1      36.676  20.083  24.973  1.00  0.00    -0.274 OA
BRANCH  22  25
ATOM     25  C   UNL A   1      36.461  22.403  25.047  1.00  0.00     0.079 C 
ATOM     26  C   UNL A   1      36.536  23.462  26.122  1.00  0.00     0.014 C 
ATOM     27  C   UNL A   1      37.788  22.770  25.695  1.00  0.00     0.014 C 
ENDBRANCH  22  25
ENDBRANCH  17  21
ENDBRANCH  12  15
ENDBRANCH  10  11
ENDBRANCH   3   5
ENDBRANCH   2   3
ENDBRANCH   1   2
BRANCH   1  28
ATOM     28  C   UNL A   1      32.291  30.170  26.740  1.00  0.00     0.275 C 
BRANCH  28  29
ATOM     29  O   UNL A   1      33.414  29.765  27.526  1.00  0.00    -0.458 OA
BRANCH  29  30
ATOM     30  C   UNL A   1      34.290  30.751  27.858  1.00  0.00     0.338 C 
ATOM     31  O   UNL A   1      34.032  31.945  27.913  1.00  0.00    -0.246 OA
BRANCH  30  32
ATOM     32  C   UNL A   1      35.614  30.168  28.191  1.00  0.00     0.060 A 
ATOM     33  C   UNL A   1      35.866  29.674  29.473  1.00  0.00     0.016 A 
ATOM     34  C   UNL A   1      36.629  30.121  27.237  1.00  0.00     0.016 A 
ATOM     35  C   UNL A   1      37.143  29.193  29.803  1.00  0.00     0.010 A 
ATOM     36  C   UNL A   1      37.900  29.645  27.555  1.00  0.00     0.010 A 
ATOM     37  C   UNL A   1      38.178  29.211  28.854  1.00  0.00    -0.014 A 
BRANCH  37  38
ATOM     38  C   UNL A   1      39.567  28.817  29.197  1.00  0.00     0.031 A 
ATOM     39  C   UNL A   1      40.489  29.807  29.863  1.00  0.00     0.074 A 
ATOM     40  C   UNL A   1      40.039  27.617  28.810  1.00  0.00     0.049 A 
ATOM     41  N   UNL A   1      41.697  29.625  30.330  1.00  0.00    -0.248 NA
ATOM     42  C   UNL A   1      39.995  31.187  29.996  1.00  0.00     0.031 C 
ATOM     43  C   UNL A   1      39.281  26.617  28.059  1.00  0.00     0.029 A 
ATOM     44  N   UNL A   1      41.275  27.046  28.976  1.00  0.00    -0.354 N 
ATOM     45  C   UNL A   1      42.105  30.861  30.825  1.00  0.00     0.074 A 
ATOM     46  C   UNL A   1      41.041  31.798  30.535  1.00  0.00     0.031 C 
ATOM     47  C   UNL A   1      40.069  25.555  27.827  1.00  0.00     0.029 A 
ATOM     48  C   UNL A   1      41.377  25.788  28.432  1.00  0.00     0.049 A 
ATOM     49  H   UNL A   1      42.017  27.494  29.442  1.00  0.00     0.167 HD
ATOM     50  C   UNL A   1      43.250  31.179  31.480  1.00  0.00     0.031 A 
ATOM     51  C   UNL A   1      42.396  24.907  28.453  1.00  0.00     0.031 A 
ATOM     52  C   UNL A   1      44.316  30.238  31.719  1.00  0.00     0.049 A 
ATOM     53  C   UNL A   1      43.642  25.251  29.226  1.00  0.00     0.074 A 
ATOM     54  C   UNL A   1      45.475  30.410  32.456  1.00  0.00     0.029 A 
ATOM     55  N   UNL A   1      44.362  28.951  31.201  1.00  0.00    -0.354 N 
ATOM     56  N   UNL A   1      43.944  26.367  29.847  1.00  0.00    -0.248 NA
ATOM     57  C   UNL A   1      44.659  24.199  29.343  1.00  0.00     0.031 C 
ATOM     58  C   UNL A   1      46.249  29.251  32.330  1.00  0.00     0.029 A 
ATOM     59  C   UNL A   1      45.539  28.327  31.577  1.00  0.00     0.049 A 
ATOM     60  H   UNL A   1      43.658  28.541  30.647  1.00  0.00     0.167 HD
ATOM     61  C   UNL A   1      45.169  26.138  30.465  1.00  0.00     0.074 A 
ATOM     62  C   UNL A   1      45.545  24.774  30.146  1.00  0.00     0.031 C 
ATOM     63  C   UNL A   1      45.908  26.974  31.237  1.00  0.00     0.031 A 
BRANCH  50  64
ATOM     64  C   UNL A   1      43.401  32.597  31.987  1.00  0.00    -0.014 A 
ATOM     65  C   UNL A   1      42.862  32.987  33.229  1.00  0.00     0.010 A 
ATOM     66  C   UNL A   1      44.121  33.547  31.239  1.00  0.00     0.010 A 
ATOM     67  C   UNL A   1      42.985  34.304  33.682  1.00  0.00     0.020 A 
ATOM     68  C   UNL A   1      44.278  34.859  31.705  1.00  0.00     0.020 A 
ATOM     69  C   UNL A   1      43.688  35.234  32.914  1.00  0.00     0.054 A 
BRANCH  69  70
ATOM     70  S   UNL A   1      43.838  36.934  33.532  1.00  0.00     0.124 S 
ATOM     71  O   UNL A   1      43.750  37.714  32.299  1.00  0.00    -0.237 OA
ATOM     72  O   UNL A   1      42.691  37.052  34.429  1.00  0.00    -0.237 OA
ATOM     73  O   UNL A   1      45.143  36.955  34.187  1.00  0.00    -0.744 OA
ENDBRANCH  69  70
ENDBRANCH  50  64
BRANCH  51  74
ATOM     74  C   UNL A   1      42.217  23.572  27.820  1.00  0.00    -0.014 A 
ATOM     75  C   UNL A   1      42.827  23.291  26.584  1.00  0.00     0.010 A 
ATOM     76  C   UNL A   1      41.506  22.552  28.478  1.00  0.00     0.010 A 
ATOM     77  C   UNL A   1      42.733  22.017  26.019  1.00  0.00     0.020 A 
ATOM     78  C   UNL A   1      41.429  21.268  27.925  1.00  0.00     0.020 A 
ATOM     79  C   UNL A   1      42.043  21.010  26.699  1.00  0.00     0.054 A 
BRANCH  79  80
ATOM     80  S   UNL A   1      42.019  19.340  25.986  1.00  0.00     0.124 S 
ATOM     81  O   UNL A   1      42.901  19.489  24.832  1.00  0.00    -0.237 OA
ATOM     82  O   UNL A   1      42.539  18.525  27.080  1.00  0.00    -0.237 OA
ATOM     83  O   UNL A   1      40.609  19.123  25.672  1.00  0.00    -0.744 OA
ENDBRANCH  79  80
ENDBRANCH  51  74
BRANCH  63  84
ATOM     84  C   UNL A   1      47.187  26.428  31.820  1.00  0.00    -0.014 A 
ATOM     85  C   UNL A   1      47.208  25.776  33.067  1.00  0.00     0.010 A 
ATOM     86  C   UNL A   1      48.381  26.535  31.084  1.00  0.00     0.010 A 
ATOM     87  C   UNL A   1      48.409  25.281  33.584  1.00  0.00     0.020 A 
ATOM     88  C   UNL A   1      49.577  26.012  31.583  1.00  0.00     0.020 A 
ATOM     89  C   UNL A   1      49.586  25.404  32.839  1.00  0.00     0.054 A 
BRANCH  89  90
ATOM     90  S   UNL A   1      51.125  24.730  33.521  1.00  0.00     0.124 S 
ATOM     91  O   UNL A   1      51.753  25.919  34.090  1.00  0.00    -0.237 OA
ATOM     92  O   UNL A   1      50.643  23.749  34.491  1.00  0.00    -0.237 OA
ATOM     93  O   UNL A   1      51.803  24.164  32.357  1.00  0.00    -0.744 OA
ENDBRANCH  89  90
ENDBRANCH  63  84
ENDBRANCH  37  38
ENDBRANCH  30  32
ENDBRANCH  29  30
ENDBRANCH  28  29
ENDBRANCH   1  28
TORSDOF 18
ENDMDL
