MODEL 1
REMARK VINA RESULT:      -8.2      0.000      0.000
REMARK SMILES NS(=O)(=O)c1ccc(-n2nc(NC(=O)NCCCCCCCCCCC(=O)OCCOC(=O)c3ccc(-c4c5nc(c(-c6ccc(S(=O)(=O)[O-])cc6)c6ccc([nH]6)c(-c6ccc(S(=O)(=O)[O-])cc6)c6nc(c(-c7ccc(S(=O)(=O)[O-])cc7)c7ccc4[nH]7)C=C6)C=C5)cc3)cc2-c2ccccc2)cc1
REMARK SMILES IDX 23 1 22 2 21 3 20 4 19 5 18 6 17 7 16 8 15 9 12 10 13 11
REMARK SMILES IDX 14 13 11 15 9 16 10 17 95 18 94 19 8 20 5 21 6 22 103 23
REMARK SMILES IDX 7 24 102 25 2 26 3 27 4 28 1 29 96 32 97 33 101 34 98 35
REMARK SMILES IDX 100 36 99 37 24 38 25 39 26 40 27 41 28 42 29 43 30 44 31 45
REMARK SMILES IDX 32 46 33 47 34 48 35 49 93 50 36 51 92 52 37 53 38 54 39 55
REMARK SMILES IDX 86 56 40 57 91 58 85 59 87 60 41 61 90 62 84 63 83 64 42 66
REMARK SMILES IDX 72 67 53 68 71 69 54 70 57 71 70 72 88 73 55 74 56 75 69 77
REMARK SMILES IDX 89 78 58 79 43 80 44 81 52 82 45 83 51 84 46 85 47 86 48 87
REMARK SMILES IDX 49 88 50 89 73 90 74 91 82 92 75 93 81 94 76 95 77 96 78 97
REMARK SMILES IDX 79 98 80 99 59 100 60 101 68 102 61 103 67 104 62 105 63 106
REMARK SMILES IDX 64 107 65 108 66 109
REMARK H PARENT 12 12 15 14 1 30 1 31 87 65 57 76
REMARK Flexibility Score: inf
ROOT
ATOM      1  C   UNL A   1      37.077  29.413  29.391  1.00  0.00     0.001 C 
ENDROOT
BRANCH   1   2
ATOM      2  C   UNL A   1      38.307  28.522  29.225  1.00  0.00     0.000 C 
BRANCH   2   3
ATOM      3  C   UNL A   1      39.127  28.895  27.996  1.00  0.00     0.000 C 
BRANCH   3   4
ATOM      4  C   UNL A   1      40.134  27.817  27.603  1.00  0.00     0.000 C 
BRANCH   4   5
ATOM      5  C   UNL A   1      40.228  26.649  28.590  1.00  0.00     0.000 C 
BRANCH   5   6
ATOM      6  C   UNL A   1      41.417  25.713  28.341  1.00  0.00     0.002 C 
BRANCH   6   7
ATOM      7  C   UNL A   1      41.040  24.290  27.934  1.00  0.00     0.021 C 
BRANCH   7   8
ATOM      8  C   UNL A   1      42.167  23.276  28.036  1.00  0.00     0.117 C 
BRANCH   8   9
ATOM      9  N   UNL A   1      41.928  22.024  27.356  1.00  0.00    -0.338 N 
ATOM     10  N   UNL A   1      43.526  22.145  25.594  1.00  0.00    -0.291 N 
ATOM     11  C   UNL A   1      42.510  21.530  26.242  1.00  0.00     0.320 C 
ATOM     12  H   UNL A   1      43.622  21.879  24.651  1.00  0.00     0.173 HD
ATOM     13  O   UNL A   1      42.006  20.526  25.726  1.00  0.00    -0.248 OA
ATOM     14  H   UNL A   1      41.242  21.448  27.764  1.00  0.00     0.165 HD
BRANCH  10  15
ATOM     15  C   UNL A   1      44.450  23.077  26.014  1.00  0.00     0.157 A 
ATOM     16  N   UNL A   1      45.232  24.893  26.770  1.00  0.00    -0.231 N 
ATOM     17  N   UNL A   1      44.265  23.976  26.981  1.00  0.00    -0.149 NA
ATOM     18  C   UNL A   1      46.279  24.347  26.037  1.00  0.00     0.076 A 
ATOM     19  C   UNL A   1      45.760  23.185  25.493  1.00  0.00     0.078 A 
BRANCH  16  20
ATOM     20  C   UNL A   1      45.039  26.246  27.169  1.00  0.00     0.065 A 
ATOM     21  C   UNL A   1      44.663  28.900  27.961  1.00  0.00     0.082 A 
ATOM     22  C   UNL A   1      44.833  27.910  28.931  1.00  0.00     0.024 A 
ATOM     23  C   UNL A   1      44.697  28.575  26.600  1.00  0.00     0.024 A 
ATOM     24  C   UNL A   1      45.009  26.582  28.533  1.00  0.00     0.030 A 
ATOM     25  C   UNL A   1      44.916  27.249  26.201  1.00  0.00     0.030 A 
BRANCH  21  26
ATOM     26  S   UNL A   1      44.353  30.579  28.423  1.00  0.00     0.238 S 
ATOM     27  O   UNL A   1      45.444  31.033  29.257  1.00  0.00    -0.207 OA
ATOM     28  O   UNL A   1      42.967  30.710  28.789  1.00  0.00    -0.207 OA
BRANCH  26  29
ATOM     29  N   UNL A   1      44.517  31.456  26.993  1.00  0.00    -0.225 NA
ATOM     30  H   UNL A   1      44.320  32.441  27.173  1.00  0.00     0.137 HD
ATOM     31  H   UNL A   1      43.860  31.099  26.298  1.00  0.00     0.137 HD
ENDBRANCH  26  29
ENDBRANCH  21  26
ENDBRANCH  16  20
BRANCH  18  32
ATOM     32  C   UNL A   1      47.603  24.953  25.953  1.00  0.00     0.000 A 
ATOM     33  C   UNL A   1      48.435  24.935  27.083  1.00  0.00     0.010 A 
ATOM     34  C   UNL A   1      48.036  25.603  24.795  1.00  0.00     0.010 A 
ATOM     35  C   UNL A   1      49.660  25.595  27.074  1.00  0.00     0.001 A 
ATOM     36  C   UNL A   1      49.268  26.261  24.786  1.00  0.00     0.001 A 
ATOM     37  C   UNL A   1      50.073  26.264  25.926  1.00  0.00     0.000 A 
ENDBRANCH  18  32
ENDBRANCH  10  15
ENDBRANCH   8   9
ENDBRANCH   7   8
ENDBRANCH   6   7
ENDBRANCH   5   6
ENDBRANCH   4   5
ENDBRANCH   3   4
ENDBRANCH   2   3
ENDBRANCH   1   2
BRANCH   1  38
ATOM     38  C   UNL A   1      36.667  30.101  28.087  1.00  0.00     0.012 C 
BRANCH  38  39
ATOM     39  C   UNL A   1      35.510  29.461  27.310  1.00  0.00     0.123 C 
BRANCH  39  40
ATOM     40  C   UNL A   1      34.216  30.242  27.164  1.00  0.00     0.305 C 
ATOM     41  O   UNL A   1      33.429  30.058  26.241  1.00  0.00    -0.252 OA
BRANCH  40  42
ATOM     42  O   UNL A   1      33.995  31.100  28.190  1.00  0.00    -0.462 OA
BRANCH  42  43
ATOM     43  C   UNL A   1      33.506  32.416  27.877  1.00  0.00     0.274 C 
BRANCH  43  44
ATOM     44  C   UNL A   1      34.632  33.441  27.891  1.00  0.00     0.275 C 
BRANCH  44  45
ATOM     45  O   UNL A   1      34.353  34.473  28.836  1.00  0.00    -0.458 OA
BRANCH  45  46
ATOM     46  C   UNL A   1      34.358  34.050  30.118  1.00  0.00     0.338 C 
ATOM     47  O   UNL A   1      33.536  34.310  30.979  1.00  0.00    -0.246 OA
BRANCH  46  48
ATOM     48  C   UNL A   1      35.617  33.380  30.422  1.00  0.00     0.060 A 
ATOM     49  C   UNL A   1      35.591  32.274  31.278  1.00  0.00     0.016 A 
ATOM     50  C   UNL A   1      36.786  34.096  30.152  1.00  0.00     0.016 A 
ATOM     51  C   UNL A   1      36.721  32.002  32.021  1.00  0.00     0.010 A 
ATOM     52  C   UNL A   1      37.896  33.843  30.912  1.00  0.00     0.010 A 
ATOM     53  C   UNL A   1      37.822  32.855  31.892  1.00  0.00    -0.014 A 
BRANCH  53  54
ATOM     54  C   UNL A   1      38.980  32.643  32.733  1.00  0.00     0.031 A 
ATOM     55  C   UNL A   1      38.852  33.311  34.050  1.00  0.00     0.074 A 
ATOM     56  C   UNL A   1      39.958  31.780  32.400  1.00  0.00     0.049 A 
ATOM     57  N   UNL A   1      39.566  34.278  34.517  1.00  0.00    -0.248 NA
ATOM     58  C   UNL A   1      37.668  32.986  34.868  1.00  0.00     0.031 C 
ATOM     59  C   UNL A   1      40.013  30.859  31.259  1.00  0.00     0.029 A 
ATOM     60  N   UNL A   1      41.076  31.454  33.098  1.00  0.00    -0.354 N 
ATOM     61  C   UNL A   1      39.054  34.539  35.782  1.00  0.00     0.074 A 
ATOM     62  C   UNL A   1      37.781  33.871  35.856  1.00  0.00     0.031 C 
ATOM     63  C   UNL A   1      40.965  29.923  31.487  1.00  0.00     0.029 A 
ATOM     64  C   UNL A   1      41.673  30.259  32.711  1.00  0.00     0.049 A 
ATOM     65  H   UNL A   1      41.434  32.018  33.820  1.00  0.00     0.167 HD
ATOM     66  C   UNL A   1      39.827  35.062  36.771  1.00  0.00     0.031 A 
ATOM     67  C   UNL A   1      42.627  29.574  33.400  1.00  0.00     0.031 A 
ATOM     68  C   UNL A   1      41.033  35.648  36.248  1.00  0.00     0.049 A 
ATOM     69  C   UNL A   1      43.233  30.532  34.361  1.00  0.00     0.074 A 
ATOM     70  C   UNL A   1      41.297  36.682  35.371  1.00  0.00     0.029 A 
ATOM     71  N   UNL A   1      42.173  34.878  36.284  1.00  0.00    -0.354 N 
ATOM     72  N   UNL A   1      43.927  31.573  33.991  1.00  0.00    -0.248 NA
ATOM     73  C   UNL A   1      42.658  30.609  35.695  1.00  0.00     0.031 C 
ATOM     74  C   UNL A   1      42.380  36.216  34.570  1.00  0.00     0.029 A 
ATOM     75  C   UNL A   1      42.776  34.966  35.053  1.00  0.00     0.049 A 
ATOM     76  H   UNL A   1      42.497  34.356  37.053  1.00  0.00     0.167 HD
ATOM     77  C   UNL A   1      43.516  32.593  34.838  1.00  0.00     0.074 A 
ATOM     78  C   UNL A   1      42.796  31.920  35.920  1.00  0.00     0.031 C 
ATOM     79  C   UNL A   1      43.546  33.901  34.442  1.00  0.00     0.031 A 
BRANCH  66  80
ATOM     80  C   UNL A   1      39.657  34.685  38.218  1.00  0.00    -0.014 A 
ATOM     81  C   UNL A   1      39.718  33.330  38.588  1.00  0.00     0.010 A 
ATOM     82  C   UNL A   1      39.190  35.596  39.191  1.00  0.00     0.010 A 
ATOM     83  C   UNL A   1      39.302  32.908  39.859  1.00  0.00     0.020 A 
ATOM     84  C   UNL A   1      38.816  35.193  40.473  1.00  0.00     0.020 A 
ATOM     85  C   UNL A   1      38.850  33.844  40.790  1.00  0.00     0.054 A 
BRANCH  85  86
ATOM     86  S   UNL A   1      38.254  33.283  42.403  1.00  0.00     0.124 S 
ATOM     87  O   UNL A   1      37.953  34.546  43.070  1.00  0.00    -0.237 OA
ATOM     88  O   UNL A   1      37.100  32.468  42.037  1.00  0.00    -0.237 OA
ATOM     89  O   UNL A   1      39.387  32.541  42.948  1.00  0.00    -0.744 OA
ENDBRANCH  85  86
ENDBRANCH  66  80
BRANCH  67  90
ATOM     90  C   UNL A   1      42.780  28.101  33.545  1.00  0.00    -0.014 A 
ATOM     91  C   UNL A   1      43.603  27.361  32.672  1.00  0.00     0.010 A 
ATOM     92  C   UNL A   1      42.352  27.463  34.728  1.00  0.00     0.010 A 
ATOM     93  C   UNL A   1      44.031  26.060  33.001  1.00  0.00     0.020 A 
ATOM     94  C   UNL A   1      42.771  26.167  35.060  1.00  0.00     0.020 A 
ATOM     95  C   UNL A   1      43.630  25.479  34.205  1.00  0.00     0.054 A 
BRANCH  95  96
ATOM     96  S   UNL A   1      44.332  23.879  34.714  1.00  0.00     0.124 S 
ATOM     97  O   UNL A   1      45.137  24.246  35.876  1.00  0.00    -0.237 OA
ATOM     98  O   UNL A   1      43.141  23.083  34.997  1.00  0.00    -0.237 OA
ATOM     99  O   UNL A   1      45.095  23.449  33.544  1.00  0.00    -0.744 OA
ENDBRANCH  95  96
ENDBRANCH  67  90
BRANCH  79 100
ATOM    100  C   UNL A   1      44.263  34.244  33.152  1.00  0.00    -0.014 A 
ATOM    101  C   UNL A   1      45.648  34.494  33.054  1.00  0.00     0.010 A 
ATOM    102  C   UNL A   1      43.519  34.158  31.962  1.00  0.00     0.010 A 
ATOM    103  C   UNL A   1      46.260  34.682  31.802  1.00  0.00     0.020 A 
ATOM    104  C   UNL A   1      44.124  34.325  30.714  1.00  0.00     0.020 A 
ATOM    105  C   UNL A   1      45.489  34.598  30.638  1.00  0.00     0.054 A 
BRANCH 105 106
ATOM    106  S   UNL A   1      46.279  34.809  29.016  1.00  0.00     0.124 S 
ATOM    107  O   UNL A   1      46.321  36.261  28.871  1.00  0.00    -0.237 OA
ATOM    108  O   UNL A   1      47.574  34.157  29.195  1.00  0.00    -0.237 OA
ATOM    109  O   UNL A   1      45.373  34.124  28.095  1.00  0.00    -0.744 OA
ENDBRANCH 105 106
ENDBRANCH  79 100
ENDBRANCH  53  54
ENDBRANCH  46  48
ENDBRANCH  45  46
ENDBRANCH  44  45
ENDBRANCH  43  44
ENDBRANCH  42  43
ENDBRANCH  40  42
ENDBRANCH  39  40
ENDBRANCH  38  39
ENDBRANCH   1  38
TORSDOF 29
ENDMDL
MODEL 2
REMARK VINA RESULT:      -8.0      1.509      2.404
REMARK SMILES NS(=O)(=O)c1ccc(-n2nc(NC(=O)NCCCCCCCCCCC(=O)OCCOC(=O)c3ccc(-c4c5nc(c(-c6ccc(S(=O)(=O)[O-])cc6)c6ccc([nH]6)c(-c6ccc(S(=O)(=O)[O-])cc6)c6nc(c(-c7ccc(S(=O)(=O)[O-])cc7)c7ccc4[nH]7)C=C6)C=C5)cc3)cc2-c2ccccc2)cc1
REMARK SMILES IDX 23 1 22 2 21 3 20 4 19 5 18 6 17 7 16 8 15 9 12 10 13 11
REMARK SMILES IDX 14 13 11 15 9 16 10 17 95 18 94 19 8 20 5 21 6 22 103 23
REMARK SMILES IDX 7 24 102 25 2 26 3 27 4 28 1 29 96 32 97 33 101 34 98 35
REMARK SMILES IDX 100 36 99 37 24 38 25 39 26 40 27 41 28 42 29 43 30 44 31 45
REMARK SMILES IDX 32 46 33 47 34 48 35 49 93 50 36 51 92 52 37 53 38 54 39 55
REMARK SMILES IDX 86 56 40 57 91 58 85 59 87 60 41 61 90 62 84 63 83 64 42 66
REMARK SMILES IDX 72 67 53 68 71 69 54 70 57 71 70 72 88 73 55 74 56 75 69 77
REMARK SMILES IDX 89 78 58 79 43 80 44 81 52 82 45 83 51 84 46 85 47 86 48 87
REMARK SMILES IDX 49 88 50 89 73 90 74 91 82 92 75 93 81 94 76 95 77 96 78 97
REMARK SMILES IDX 79 98 80 99 59 100 60 101 68 102 61 103 67 104 62 105 63 106
REMARK SMILES IDX 64 107 65 108 66 109
REMARK H PARENT 12 12 15 14 1 30 1 31 87 65 57 76
REMARK Flexibility Score: inf
ROOT
ATOM      1  C   UNL A   1      37.238  29.310  29.362  1.00  0.00     0.001 C 
ENDROOT
BRANCH   1   2
ATOM      2  C   UNL A   1      38.508  28.472  29.209  1.00  0.00     0.000 C 
BRANCH   2   3
ATOM      3  C   UNL A   1      39.295  28.845  27.958  1.00  0.00     0.000 C 
BRANCH   3   4
ATOM      4  C   UNL A   1      40.418  27.858  27.647  1.00  0.00     0.000 C 
BRANCH   4   5
ATOM      5  C   UNL A   1      40.691  26.839  28.759  1.00  0.00     0.000 C 
BRANCH   5   6
ATOM      6  C   UNL A   1      41.913  25.949  28.507  1.00  0.00     0.002 C 
BRANCH   6   7
ATOM      7  C   UNL A   1      41.591  24.503  28.134  1.00  0.00     0.021 C 
BRANCH   7   8
ATOM      8  C   UNL A   1      42.798  23.586  28.029  1.00  0.00     0.117 C 
BRANCH   8   9
ATOM      9  N   UNL A   1      42.624  22.440  27.166  1.00  0.00    -0.338 N 
ATOM     10  N   UNL A   1      43.544  23.257  25.127  1.00  0.00    -0.291 N 
ATOM     11  C   UNL A   1      42.925  22.301  25.857  1.00  0.00     0.320 C 
ATOM     12  H   UNL A   1      43.398  23.180  24.156  1.00  0.00     0.173 HD
ATOM     13  O   UNL A   1      42.503  21.297  25.274  1.00  0.00    -0.248 OA
ATOM     14  H   UNL A   1      42.229  21.648  27.595  1.00  0.00     0.165 HD
BRANCH  10  15
ATOM     15  C   UNL A   1      44.341  24.318  25.495  1.00  0.00     0.157 A 
ATOM     16  N   UNL A   1      45.843  25.413  26.510  1.00  0.00    -0.231 N 
ATOM     17  N   UNL A   1      45.613  24.238  25.886  1.00  0.00    -0.149 NA
ATOM     18  C   UNL A   1      44.938  26.380  26.087  1.00  0.00     0.076 A 
ATOM     19  C   UNL A   1      43.924  25.670  25.470  1.00  0.00     0.078 A 
BRANCH  16  20
ATOM     20  C   UNL A   1      46.817  25.500  27.543  1.00  0.00     0.065 A 
ATOM     21  C   UNL A   1      48.737  25.672  29.568  1.00  0.00     0.082 A 
ATOM     22  C   UNL A   1      49.143  25.438  28.252  1.00  0.00     0.024 A 
ATOM     23  C   UNL A   1      47.381  25.838  29.874  1.00  0.00     0.024 A 
ATOM     24  C   UNL A   1      48.181  25.341  27.243  1.00  0.00     0.030 A 
ATOM     25  C   UNL A   1      46.420  25.782  28.855  1.00  0.00     0.030 A 
BRANCH  21  26
ATOM     26  S   UNL A   1      49.915  25.718  30.886  1.00  0.00     0.238 S 
ATOM     27  O   UNL A   1      50.734  26.900  30.727  1.00  0.00    -0.207 OA
ATOM     28  O   UNL A   1      50.456  24.397  31.070  1.00  0.00    -0.207 OA
BRANCH  26  29
ATOM     29  N   UNL A   1      49.001  26.017  32.270  1.00  0.00    -0.225 NA
ATOM     30  H   UNL A   1      49.612  26.026  33.086  1.00  0.00     0.137 HD
ATOM     31  H   UNL A   1      48.300  25.284  32.379  1.00  0.00     0.137 HD
ENDBRANCH  26  29
ENDBRANCH  21  26
ENDBRANCH  16  20
BRANCH  18  32
ATOM     32  C   UNL A   1      45.137  27.811  26.293  1.00  0.00     0.000 A 
ATOM     33  C   UNL A   1      46.304  28.416  25.800  1.00  0.00     0.010 A 
ATOM     34  C   UNL A   1      44.224  28.578  27.020  1.00  0.00     0.010 A 
ATOM     35  C   UNL A   1      46.579  29.753  26.069  1.00  0.00     0.001 A 
ATOM     36  C   UNL A   1      44.499  29.921  27.285  1.00  0.00     0.001 A 
ATOM     37  C   UNL A   1      45.678  30.504  26.818  1.00  0.00     0.000 A 
ENDBRANCH  18  32
ENDBRANCH  10  15
ENDBRANCH   8   9
ENDBRANCH   7   8
ENDBRANCH   6   7
ENDBRANCH   5   6
ENDBRANCH   4   5
ENDBRANCH   3   4
ENDBRANCH   2   3
ENDBRANCH   1   2
BRANCH   1  38
ATOM     38  C   UNL A   1      36.814  29.982  28.054  1.00  0.00     0.012 C 
BRANCH  38  39
ATOM     39  C   UNL A   1      35.645  29.334  27.299  1.00  0.00     0.123 C 
BRANCH  39  40
ATOM     40  C   UNL A   1      34.337  30.098  27.198  1.00  0.00     0.305 C 
ATOM     41  O   UNL A   1      33.510  29.885  26.318  1.00  0.00    -0.252 OA
BRANCH  40  42
ATOM     42  O   UNL A   1      34.154  30.976  28.216  1.00  0.00    -0.462 OA
BRANCH  42  43
ATOM     43  C   UNL A   1      33.652  32.285  27.895  1.00  0.00     0.274 C 
BRANCH  43  44
ATOM     44  C   UNL A   1      34.784  33.295  27.767  1.00  0.00     0.275 C 
BRANCH  44  45
ATOM     45  O   UNL A   1      34.575  34.390  28.657  1.00  0.00    -0.458 OA
BRANCH  45  46
ATOM     46  C   UNL A   1      34.604  34.042  29.962  1.00  0.00     0.338 C 
ATOM     47  O   UNL A   1      33.795  34.348  30.819  1.00  0.00    -0.246 OA
BRANCH  46  48
ATOM     48  C   UNL A   1      35.871  33.396  30.282  1.00  0.00     0.060 A 
ATOM     49  C   UNL A   1      35.850  32.262  31.101  1.00  0.00     0.016 A 
ATOM     50  C   UNL A   1      37.028  34.151  30.071  1.00  0.00     0.016 A 
ATOM     51  C   UNL A   1      36.964  31.996  31.870  1.00  0.00     0.010 A 
ATOM     52  C   UNL A   1      38.121  33.902  30.857  1.00  0.00     0.010 A 
ATOM     53  C   UNL A   1      38.045  32.881  31.802  1.00  0.00    -0.014 A 
BRANCH  53  54
ATOM     54  C   UNL A   1      39.182  32.672  32.671  1.00  0.00     0.031 A 
ATOM     55  C   UNL A   1      39.036  33.369  33.970  1.00  0.00     0.074 A 
ATOM     56  C   UNL A   1      40.156  31.789  32.376  1.00  0.00     0.049 A 
ATOM     57  N   UNL A   1      39.754  34.336  34.432  1.00  0.00    -0.248 NA
ATOM     58  C   UNL A   1      37.832  33.077  34.771  1.00  0.00     0.031 C 
ATOM     59  C   UNL A   1      40.221  30.843  31.257  1.00  0.00     0.029 A 
ATOM     60  N   UNL A   1      41.254  31.463  33.104  1.00  0.00    -0.354 N 
ATOM     61  C   UNL A   1      39.220  34.631  35.681  1.00  0.00     0.074 A 
ATOM     62  C   UNL A   1      37.937  33.981  35.742  1.00  0.00     0.031 C 
ATOM     63  C   UNL A   1      41.156  29.900  31.523  1.00  0.00     0.029 A 
ATOM     64  C   UNL A   1      41.843  30.252  32.755  1.00  0.00     0.049 A 
ATOM     65  H   UNL A   1      41.606  32.038  33.821  1.00  0.00     0.167 HD
ATOM     66  C   UNL A   1      39.980  35.165  36.673  1.00  0.00     0.031 A 
ATOM     67  C   UNL A   1      42.773  29.570  33.477  1.00  0.00     0.031 A 
ATOM     68  C   UNL A   1      41.204  35.723  36.163  1.00  0.00     0.049 A 
ATOM     69  C   UNL A   1      43.373  30.540  34.430  1.00  0.00     0.074 A 
ATOM     70  C   UNL A   1      41.500  36.734  35.271  1.00  0.00     0.029 A 
ATOM     71  N   UNL A   1      42.333  34.939  36.239  1.00  0.00    -0.354 N 
ATOM     72  N   UNL A   1      44.087  31.564  34.053  1.00  0.00    -0.248 NA
ATOM     73  C   UNL A   1      42.771  30.653  35.750  1.00  0.00     0.031 C 
ATOM     74  C   UNL A   1      42.592  36.238  34.502  1.00  0.00     0.029 A 
ATOM     75  C   UNL A   1      42.962  34.993  35.020  1.00  0.00     0.049 A 
ATOM     76  H   UNL A   1      42.634  34.430  37.025  1.00  0.00     0.167 HD
ATOM     77  C   UNL A   1      43.673  32.607  34.870  1.00  0.00     0.074 A 
ATOM     78  C   UNL A   1      42.922  31.966  35.951  1.00  0.00     0.031 C 
ATOM     79  C   UNL A   1      43.729  33.905  34.447  1.00  0.00     0.031 A 
BRANCH  66  80
ATOM     80  C   UNL A   1      39.775  34.821  38.124  1.00  0.00    -0.014 A 
ATOM     81  C   UNL A   1      39.923  33.486  38.543  1.00  0.00     0.010 A 
ATOM     82  C   UNL A   1      39.197  35.722  39.045  1.00  0.00     0.010 A 
ATOM     83  C   UNL A   1      39.484  33.073  39.810  1.00  0.00     0.020 A 
ATOM     84  C   UNL A   1      38.799  35.332  40.324  1.00  0.00     0.020 A 
ATOM     85  C   UNL A   1      38.922  34.000  40.689  1.00  0.00     0.054 A 
BRANCH  85  86
ATOM     86  S   UNL A   1      38.299  33.445  42.293  1.00  0.00     0.124 S 
ATOM     87  O   UNL A   1      37.894  34.704  42.912  1.00  0.00    -0.237 OA
ATOM     88  O   UNL A   1      37.214  32.548  41.908  1.00  0.00    -0.237 OA
ATOM     89  O   UNL A   1      39.455  32.791  42.902  1.00  0.00    -0.744 OA
ENDBRANCH  85  86
ENDBRANCH  66  80
BRANCH  67  90
ATOM     90  C   UNL A   1      42.904  28.098  33.657  1.00  0.00    -0.014 A 
ATOM     91  C   UNL A   1      43.571  27.301  32.704  1.00  0.00     0.010 A 
ATOM     92  C   UNL A   1      42.631  27.516  34.912  1.00  0.00     0.010 A 
ATOM     93  C   UNL A   1      44.004  25.998  33.020  1.00  0.00     0.020 A 
ATOM     94  C   UNL A   1      43.055  26.219  35.231  1.00  0.00     0.020 A 
ATOM     95  C   UNL A   1      43.763  25.474  34.291  1.00  0.00     0.054 A 
BRANCH  95  96
ATOM     96  S   UNL A   1      44.485  23.869  34.757  1.00  0.00     0.124 S 
ATOM     97  O   UNL A   1      45.474  24.250  35.761  1.00  0.00    -0.237 OA
ATOM     98  O   UNL A   1      43.328  23.132  35.258  1.00  0.00    -0.237 OA
ATOM     99  O   UNL A   1      45.040  23.363  33.503  1.00  0.00    -0.744 OA
ENDBRANCH  95  96
ENDBRANCH  67  90
BRANCH  79 100
ATOM    100  C   UNL A   1      44.477  34.211  33.165  1.00  0.00    -0.014 A 
ATOM    101  C   UNL A   1      45.861  34.474  33.095  1.00  0.00     0.010 A 
ATOM    102  C   UNL A   1      43.766  34.076  31.959  1.00  0.00     0.010 A 
ATOM    103  C   UNL A   1      46.505  34.625  31.854  1.00  0.00     0.020 A 
ATOM    104  C   UNL A   1      44.402  34.206  30.723  1.00  0.00     0.020 A 
ATOM    105  C   UNL A   1      45.766  34.491  30.674  1.00  0.00     0.054 A 
BRANCH 105 106
ATOM    106  S   UNL A   1      46.597  34.656  29.067  1.00  0.00     0.124 S 
ATOM    107  O   UNL A   1      46.521  36.092  28.815  1.00  0.00    -0.237 OA
ATOM    108  O   UNL A   1      47.935  34.134  29.335  1.00  0.00    -0.237 OA
ATOM    109  O   UNL A   1      45.789  33.829  28.171  1.00  0.00    -0.744 OA
ENDBRANCH 105 106
ENDBRANCH  79 100
ENDBRANCH  53  54
ENDBRANCH  46  48
ENDBRANCH  45  46
ENDBRANCH  44  45
ENDBRANCH  43  44
ENDBRANCH  42  43
ENDBRANCH  40  42
ENDBRANCH  39  40
ENDBRANCH  38  39
ENDBRANCH   1  38
TORSDOF 29
ENDMDL
MODEL 3
REMARK VINA RESULT:      -7.9      2.933      5.452
REMARK SMILES NS(=O)(=O)c1ccc(-n2nc(NC(=O)NCCCCCCCCCCC(=O)OCCOC(=O)c3ccc(-c4c5nc(c(-c6ccc(S(=O)(=O)[O-])cc6)c6ccc([nH]6)c(-c6ccc(S(=O)(=O)[O-])cc6)c6nc(c(-c7ccc(S(=O)(=O)[O-])cc7)c7ccc4[nH]7)C=C6)C=C5)cc3)cc2-c2ccccc2)cc1
REMARK SMILES IDX 23 1 22 2 21 3 20 4 19 5 18 6 17 7 16 8 15 9 12 10 13 11
REMARK SMILES IDX 14 13 11 15 9 16 10 17 95 18 94 19 8 20 5 21 6 22 103 23
REMARK SMILES IDX 7 24 102 25 2 26 3 27 4 28 1 29 96 32 97 33 101 34 98 35
REMARK SMILES IDX 100 36 99 37 24 38 25 39 26 40 27 41 28 42 29 43 30 44 31 45
REMARK SMILES IDX 32 46 33 47 34 48 35 49 93 50 36 51 92 52 37 53 38 54 39 55
REMARK SMILES IDX 86 56 40 57 91 58 85 59 87 60 41 61 90 62 84 63 83 64 42 66
REMARK SMILES IDX 72 67 53 68 71 69 54 70 57 71 70 72 88 73 55 74 56 75 69 77
REMARK SMILES IDX 89 78 58 79 43 80 44 81 52 82 45 83 51 84 46 85 47 86 48 87
REMARK SMILES IDX 49 88 50 89 73 90 74 91 82 92 75 93 81 94 76 95 77 96 78 97
REMARK SMILES IDX 79 98 80 99 59 100 60 101 68 102 61 103 67 104 62 105 63 106
REMARK SMILES IDX 64 107 65 108 66 109
REMARK H PARENT 12 12 15 14 1 30 1 31 87 65 57 76
REMARK Flexibility Score: inf
ROOT
ATOM      1  C   UNL A   1      39.740  29.633  30.205  1.00  0.00     0.001 C 
ENDROOT
BRANCH   1   2
ATOM      2  C   UNL A   1      41.203  29.189  30.161  1.00  0.00     0.000 C 
BRANCH   2   3
ATOM      3  C   UNL A   1      41.745  28.861  31.547  1.00  0.00     0.000 C 
BRANCH   3   4
ATOM      4  C   UNL A   1      42.819  27.775  31.523  1.00  0.00     0.000 C 
BRANCH   4   5
ATOM      5  C   UNL A   1      44.061  28.131  30.698  1.00  0.00     0.000 C 
BRANCH   5   6
ATOM      6  C   UNL A   1      44.654  29.508  31.021  1.00  0.00     0.002 C 
BRANCH   6   7
ATOM      7  C   UNL A   1      45.294  30.226  29.835  1.00  0.00     0.021 C 
BRANCH   7   8
ATOM      8  C   UNL A   1      44.403  30.360  28.612  1.00  0.00     0.117 C 
BRANCH   8   9
ATOM      9  N   UNL A   1      44.972  31.117  27.519  1.00  0.00    -0.338 N 
ATOM     10  N   UNL A   1      45.511  29.375  25.987  1.00  0.00    -0.291 N 
ATOM     11  C   UNL A   1      45.501  30.676  26.357  1.00  0.00     0.320 C 
ATOM     12  H   UNL A   1      46.200  29.152  25.320  1.00  0.00     0.173 HD
ATOM     13  O   UNL A   1      46.112  31.492  25.658  1.00  0.00    -0.248 OA
ATOM     14  H   UNL A   1      44.974  32.093  27.640  1.00  0.00     0.165 HD
BRANCH  10  15
ATOM     15  C   UNL A   1      44.734  28.306  26.373  1.00  0.00     0.157 A 
ATOM     16  N   UNL A   1      44.059  26.307  26.554  1.00  0.00    -0.231 N 
ATOM     17  N   UNL A   1      45.172  27.068  26.607  1.00  0.00    -0.149 NA
ATOM     18  C   UNL A   1      42.925  27.075  26.787  1.00  0.00     0.076 A 
ATOM     19  C   UNL A   1      43.343  28.383  26.616  1.00  0.00     0.078 A 
BRANCH  16  20
ATOM     20  C   UNL A   1      44.141  24.939  26.168  1.00  0.00     0.065 A 
ATOM     21  C   UNL A   1      44.305  22.256  25.402  1.00  0.00     0.082 A 
ATOM     22  C   UNL A   1      44.377  23.255  24.430  1.00  0.00     0.024 A 
ATOM     23  C   UNL A   1      44.169  22.590  26.755  1.00  0.00     0.024 A 
ATOM     24  C   UNL A   1      44.284  24.596  24.813  1.00  0.00     0.030 A 
ATOM     25  C   UNL A   1      44.117  23.936  27.143  1.00  0.00     0.030 A 
BRANCH  21  26
ATOM     26  S   UNL A   1      44.334  20.546  24.951  1.00  0.00     0.238 S 
ATOM     27  O   UNL A   1      44.702  20.447  23.555  1.00  0.00    -0.207 OA
ATOM     28  O   UNL A   1      43.178  19.899  25.513  1.00  0.00    -0.207 OA
BRANCH  26  29
ATOM     29  N   UNL A   1      45.650  19.904  25.785  1.00  0.00    -0.225 NA
ATOM     30  H   UNL A   1      45.963  20.570  26.492  1.00  0.00     0.137 HD
ATOM     31  H   UNL A   1      46.410  19.720  25.131  1.00  0.00     0.137 HD
ENDBRANCH  26  29
ENDBRANCH  21  26
ENDBRANCH  16  20
BRANCH  18  32
ATOM     32  C   UNL A   1      41.630  26.508  27.147  1.00  0.00     0.000 A 
ATOM     33  C   UNL A   1      41.305  26.354  28.504  1.00  0.00     0.010 A 
ATOM     34  C   UNL A   1      40.733  26.059  26.175  1.00  0.00     0.010 A 
ATOM     35  C   UNL A   1      40.127  25.720  28.886  1.00  0.00     0.001 A 
ATOM     36  C   UNL A   1      39.549  25.427  26.559  1.00  0.00     0.001 A 
ATOM     37  C   UNL A   1      39.251  25.251  27.912  1.00  0.00     0.000 A 
ENDBRANCH  18  32
ENDBRANCH  10  15
ENDBRANCH   8   9
ENDBRANCH   7   8
ENDBRANCH   6   7
ENDBRANCH   5   6
ENDBRANCH   4   5
ENDBRANCH   3   4
ENDBRANCH   2   3
ENDBRANCH   1   2
BRANCH   1  38
ATOM     38  C   UNL A   1      39.061  29.563  28.835  1.00  0.00     0.012 C 
BRANCH  38  39
ATOM     39  C   UNL A   1      37.554  29.279  28.831  1.00  0.00     0.123 C 
BRANCH  39  40
ATOM     40  C   UNL A   1      36.698  29.901  29.920  1.00  0.00     0.305 C 
ATOM     41  O   UNL A   1      36.261  29.260  30.870  1.00  0.00    -0.252 OA
BRANCH  40  42
ATOM     42  O   UNL A   1      36.533  31.239  29.767  1.00  0.00    -0.462 OA
BRANCH  42  43
ATOM     43  C   UNL A   1      35.242  31.716  29.347  1.00  0.00     0.274 C 
BRANCH  43  44
ATOM     44  C   UNL A   1      34.702  32.765  30.309  1.00  0.00     0.275 C 
BRANCH  44  45
ATOM     45  O   UNL A   1      34.306  32.157  31.537  1.00  0.00    -0.458 OA
BRANCH  45  46
ATOM     46  C   UNL A   1      34.542  32.924  32.623  1.00  0.00     0.338 C 
ATOM     47  O   UNL A   1      33.741  33.628  33.211  1.00  0.00    -0.246 OA
BRANCH  46  48
ATOM     48  C   UNL A   1      35.972  32.970  32.905  1.00  0.00     0.060 A 
ATOM     49  C   UNL A   1      36.618  31.779  33.255  1.00  0.00     0.016 A 
ATOM     50  C   UNL A   1      36.516  34.229  33.175  1.00  0.00     0.016 A 
ATOM     51  C   UNL A   1      37.737  31.859  34.057  1.00  0.00     0.010 A 
ATOM     52  C   UNL A   1      37.609  34.305  33.995  1.00  0.00     0.010 A 
ATOM     53  C   UNL A   1      38.155  33.122  34.491  1.00  0.00    -0.014 A 
BRANCH  53  54
ATOM     54  C   UNL A   1      39.268  33.219  35.410  1.00  0.00     0.031 A 
ATOM     55  C   UNL A   1      38.828  33.310  36.822  1.00  0.00     0.074 A 
ATOM     56  C   UNL A   1      40.543  33.054  35.009  1.00  0.00     0.049 A 
ATOM     57  N   UNL A   1      38.984  34.299  37.634  1.00  0.00    -0.248 NA
ATOM     58  C   UNL A   1      37.949  32.242  37.333  1.00  0.00     0.031 C 
ATOM     59  C   UNL A   1      41.040  32.664  33.685  1.00  0.00     0.029 A 
ATOM     60  N   UNL A   1      41.676  33.081  35.755  1.00  0.00    -0.354 N 
ATOM     61  C   UNL A   1      38.405  33.891  38.830  1.00  0.00     0.074 A 
ATOM     62  C   UNL A   1      37.615  32.726  38.528  1.00  0.00     0.031 C 
ATOM     63  C   UNL A   1      42.326  32.253  33.795  1.00  0.00     0.029 A 
ATOM     64  C   UNL A   1      42.779  32.480  35.157  1.00  0.00     0.049 A 
ATOM     65  H   UNL A   1      41.715  33.493  36.648  1.00  0.00     0.167 HD
ATOM     66  C   UNL A   1      38.826  34.377  40.028  1.00  0.00     0.031 A 
ATOM     67  C   UNL A   1      43.943  32.137  35.773  1.00  0.00     0.031 A 
ATOM     68  C   UNL A   1      39.598  35.581  39.871  1.00  0.00     0.049 A 
ATOM     69  C   UNL A   1      44.007  32.917  37.036  1.00  0.00     0.074 A 
ATOM     70  C   UNL A   1      39.330  36.833  39.355  1.00  0.00     0.029 A 
ATOM     71  N   UNL A   1      40.968  35.453  39.872  1.00  0.00    -0.354 N 
ATOM     72  N   UNL A   1      44.110  34.217  37.070  1.00  0.00    -0.248 NA
ATOM     73  C   UNL A   1      43.463  32.305  38.239  1.00  0.00     0.031 C 
ATOM     74  C   UNL A   1      40.505  37.191  38.632  1.00  0.00     0.029 A 
ATOM     75  C   UNL A   1      41.456  36.184  38.816  1.00  0.00     0.049 A 
ATOM     76  H   UNL A   1      41.503  34.931  40.512  1.00  0.00     0.167 HD
ATOM     77  C   UNL A   1      43.254  34.615  38.087  1.00  0.00     0.074 A 
ATOM     78  C   UNL A   1      42.947  33.390  38.826  1.00  0.00     0.031 C 
ATOM     79  C   UNL A   1      42.648  35.840  38.066  1.00  0.00     0.031 A 
BRANCH  66  80
ATOM     80  C   UNL A   1      38.855  33.539  41.278  1.00  0.00    -0.014 A 
ATOM     81  C   UNL A   1      39.652  32.379  41.311  1.00  0.00     0.010 A 
ATOM     82  C   UNL A   1      37.934  33.714  42.334  1.00  0.00     0.010 A 
ATOM     83  C   UNL A   1      39.506  31.432  42.334  1.00  0.00     0.020 A 
ATOM     84  C   UNL A   1      37.813  32.800  43.380  1.00  0.00     0.020 A 
ATOM     85  C   UNL A   1      38.585  31.649  43.359  1.00  0.00     0.054 A 
BRANCH  85  86
ATOM     86  S   UNL A   1      38.359  30.390  44.638  1.00  0.00     0.124 S 
ATOM     87  O   UNL A   1      39.724  29.909  44.832  1.00  0.00    -0.237 OA
ATOM     88  O   UNL A   1      37.796  31.167  45.738  1.00  0.00    -0.237 OA
ATOM     89  O   UNL A   1      37.441  29.436  44.021  1.00  0.00    -0.744 OA
ENDBRANCH  85  86
ENDBRANCH  66  80
BRANCH  67  90
ATOM     90  C   UNL A   1      44.791  30.936  35.539  1.00  0.00    -0.014 A 
ATOM     91  C   UNL A   1      44.274  29.787  34.906  1.00  0.00     0.010 A 
ATOM     92  C   UNL A   1      46.193  31.028  35.670  1.00  0.00     0.010 A 
ATOM     93  C   UNL A   1      45.128  28.803  34.371  1.00  0.00     0.020 A 
ATOM     94  C   UNL A   1      47.048  30.051  35.143  1.00  0.00     0.020 A 
ATOM     95  C   UNL A   1      46.513  28.954  34.472  1.00  0.00     0.054 A 
BRANCH  95  96
ATOM     96  S   UNL A   1      47.613  27.782  33.619  1.00  0.00     0.124 S 
ATOM     97  O   UNL A   1      48.934  28.200  34.080  1.00  0.00    -0.237 OA
ATOM     98  O   UNL A   1      47.151  26.490  34.116  1.00  0.00    -0.237 OA
ATOM     99  O   UNL A   1      47.347  28.027  32.202  1.00  0.00    -0.744 OA
ENDBRANCH  95  96
ENDBRANCH  67  90
BRANCH  79 100
ATOM    100  C   UNL A   1      43.112  36.854  37.039  1.00  0.00    -0.014 A 
ATOM    101  C   UNL A   1      44.178  37.756  37.238  1.00  0.00     0.010 A 
ATOM    102  C   UNL A   1      42.536  36.781  35.759  1.00  0.00     0.010 A 
ATOM    103  C   UNL A   1      44.631  38.580  36.193  1.00  0.00     0.020 A 
ATOM    104  C   UNL A   1      42.993  37.582  34.711  1.00  0.00     0.020 A 
ATOM    105  C   UNL A   1      44.030  38.487  34.933  1.00  0.00     0.054 A 
BRANCH 105 106
ATOM    106  S   UNL A   1      44.630  39.526  33.570  1.00  0.00     0.124 S 
ATOM    107  O   UNL A   1      45.626  38.671  32.932  1.00  0.00    -0.237 OA
ATOM    108  O   UNL A   1      43.419  39.772  32.789  1.00  0.00    -0.237 OA
ATOM    109  O   UNL A   1      45.170  40.707  34.243  1.00  0.00    -0.744 OA
ENDBRANCH 105 106
ENDBRANCH  79 100
ENDBRANCH  53  54
ENDBRANCH  46  48
ENDBRANCH  45  46
ENDBRANCH  44  45
ENDBRANCH  43  44
ENDBRANCH  42  43
ENDBRANCH  40  42
ENDBRANCH  39  40
ENDBRANCH  38  39
ENDBRANCH   1  38
TORSDOF 29
ENDMDL
