MODEL 1
REMARK VINA RESULT:     -13.4      0.000      0.000
REMARK SMILES Cc1ccc(C(=O)OCCOC(=O)c2ccc(-c3c4nc(c(-c5ccc(S(=O)(=O)[O-])cc5)c5ccc([nH]5)c(-c5ccc(S(=O)(=O)[O-])cc5)c5nc(c(-c6ccc(S(=O)(=O)[O-])cc6)c6ccc3[nH]6)C=C5)C=C4)cc2)cc1NC(=O)Cc1ccc2ccccc2c1
REMARK SMILES IDX 9 1 8 2 6 3 7 4 5 5 1 6 2 7 3 8 75 9 4 10 74 11 76 12 77 13
REMARK SMILES IDX 78 15 79 16 80 17 81 18 89 19 82 20 88 21 83 22 87 23 84 24
REMARK SMILES IDX 86 25 85 26 10 27 11 28 12 29 13 30 14 31 15 32 73 33 16 34
REMARK SMILES IDX 72 35 17 36 18 37 19 38 66 39 20 40 71 41 65 42 67 43 21 44
REMARK SMILES IDX 70 45 64 46 63 47 22 49 52 50 33 51 51 52 34 53 37 54 50 55
REMARK SMILES IDX 68 56 35 57 36 58 49 60 69 61 38 62 23 63 24 64 32 65 25 66
REMARK SMILES IDX 31 67 26 68 27 69 28 70 29 71 30 72 53 73 54 74 62 75 55 76
REMARK SMILES IDX 61 77 56 78 57 79 58 80 59 81 60 82 39 83 40 84 48 85 41 86
REMARK SMILES IDX 47 87 42 88 43 89 44 90 45 91 46 92
REMARK H PARENT 76 14 67 48 37 59
REMARK Flexibility Score: inf
ROOT
ATOM      1  C   UNL A   1      34.180  28.913  26.064  1.00  0.00     0.275 C 
ENDROOT
BRANCH   1   2
ATOM      2  O   UNL A   1      33.037  29.219  25.242  1.00  0.00    -0.458 OA
BRANCH   2   3
ATOM      3  C   UNL A   1      33.171  28.817  23.957  1.00  0.00     0.338 C 
ATOM      4  O   UNL A   1      33.983  29.252  23.150  1.00  0.00    -0.246 OA
BRANCH   3   5
ATOM      5  C   UNL A   1      32.040  28.010  23.469  1.00  0.00     0.062 A 
ATOM      6  C   UNL A   1      28.132  26.347  24.099  1.00  0.00     0.046 C 
ATOM      7  C   UNL A   1      29.529  26.867  23.915  1.00  0.00    -0.027 A 
ATOM      8  C   UNL A   1      29.698  27.917  22.983  1.00  0.00     0.006 A 
ATOM      9  C   UNL A   1      30.652  26.419  24.632  1.00  0.00     0.044 A 
ATOM     10  C   UNL A   1      30.935  28.548  22.828  1.00  0.00     0.016 A 
ATOM     11  C   UNL A   1      31.901  26.845  24.209  1.00  0.00     0.042 A 
BRANCH   9  12
ATOM     12  N   UNL A   1      30.534  25.647  25.815  1.00  0.00    -0.326 N 
ATOM     13  C   UNL A   1      30.554  24.261  25.982  1.00  0.00     0.228 C 
ATOM     14  H   UNL A   1      30.421  26.166  26.644  1.00  0.00     0.169 HD
ATOM     15  O   UNL A   1      30.406  23.820  27.124  1.00  0.00    -0.274 OA
BRANCH  13  16
ATOM     16  C   UNL A   1      30.810  23.371  24.770  1.00  0.00     0.135 C 
BRANCH  16  17
ATOM     17  C   UNL A   1      32.096  22.608  24.557  1.00  0.00    -0.038 A 
ATOM     18  C   UNL A   1      32.242  21.382  25.229  1.00  0.00     0.005 A 
ATOM     19  C   UNL A   1      33.231  23.196  23.996  1.00  0.00     0.013 A 
ATOM     20  C   UNL A   1      33.477  20.743  25.323  1.00  0.00     0.009 A 
ATOM     21  C   UNL A   1      34.497  22.594  24.129  1.00  0.00    -0.018 A 
ATOM     22  C   UNL A   1      34.618  21.349  24.793  1.00  0.00    -0.018 A 
ATOM     23  C   UNL A   1      35.655  23.225  23.655  1.00  0.00     0.009 A 
ATOM     24  C   UNL A   1      35.882  20.762  24.944  1.00  0.00     0.009 A 
ATOM     25  C   UNL A   1      36.911  22.643  23.838  1.00  0.00     0.001 A 
ATOM     26  C   UNL A   1      37.023  21.409  24.475  1.00  0.00     0.001 A 
ENDBRANCH  16  17
ENDBRANCH  13  16
ENDBRANCH   9  12
ENDBRANCH   3   5
ENDBRANCH   2   3
ENDBRANCH   1   2
BRANCH   1  27
ATOM     27  C   UNL A   1      34.320  29.880  27.254  1.00  0.00     0.275 C 
BRANCH  27  28
ATOM     28  O   UNL A   1      35.375  29.666  28.221  1.00  0.00    -0.458 OA
BRANCH  28  29
ATOM     29  C   UNL A   1      36.528  30.353  28.044  1.00  0.00     0.338 C 
ATOM     30  O   UNL A   1      36.595  31.581  28.061  1.00  0.00    -0.246 OA
BRANCH  29  31
ATOM     31  C   UNL A   1      37.669  29.411  28.147  1.00  0.00     0.060 A 
ATOM     32  C   UNL A   1      38.669  29.434  27.166  1.00  0.00     0.016 A 
ATOM     33  C   UNL A   1      37.892  28.779  29.374  1.00  0.00     0.016 A 
ATOM     34  C   UNL A   1      39.940  28.950  27.453  1.00  0.00     0.010 A 
ATOM     35  C   UNL A   1      39.166  28.410  29.708  1.00  0.00     0.010 A 
ATOM     36  C   UNL A   1      40.177  28.470  28.740  1.00  0.00    -0.014 A 
BRANCH  36  37
ATOM     37  C   UNL A   1      41.313  27.638  29.081  1.00  0.00     0.031 A 
ATOM     38  C   UNL A   1      41.392  26.222  28.688  1.00  0.00     0.074 A 
ATOM     39  C   UNL A   1      42.308  28.403  29.583  1.00  0.00     0.049 A 
ATOM     40  N   UNL A   1      42.166  25.353  29.234  1.00  0.00    -0.248 NA
ATOM     41  C   UNL A   1      40.559  25.640  27.636  1.00  0.00     0.031 C 
ATOM     42  C   UNL A   1      43.716  28.132  29.780  1.00  0.00     0.029 A 
ATOM     43  N   UNL A   1      42.130  29.657  30.201  1.00  0.00    -0.354 N 
ATOM     44  C   UNL A   1      42.224  24.271  28.371  1.00  0.00     0.074 A 
ATOM     45  C   UNL A   1      41.090  24.417  27.496  1.00  0.00     0.031 C 
ATOM     46  C   UNL A   1      44.161  28.957  30.750  1.00  0.00     0.029 A 
ATOM     47  C   UNL A   1      42.994  29.663  31.285  1.00  0.00     0.049 A 
ATOM     48  H   UNL A   1      41.521  30.378  29.921  1.00  0.00     0.167 HD
ATOM     49  C   UNL A   1      43.363  23.519  28.339  1.00  0.00     0.031 A 
ATOM     50  C   UNL A   1      42.488  29.541  32.550  1.00  0.00     0.031 A 
ATOM     51  C   UNL A   1      44.307  24.023  29.336  1.00  0.00     0.049 A 
ATOM     52  C   UNL A   1      43.002  28.255  33.153  1.00  0.00     0.074 A 
ATOM     53  C   UNL A   1      45.369  24.904  29.215  1.00  0.00     0.029 A 
ATOM     54  N   UNL A   1      43.971  23.981  30.684  1.00  0.00    -0.354 N 
ATOM     55  N   UNL A   1      43.160  27.139  32.490  1.00  0.00    -0.248 NA
ATOM     56  C   UNL A   1      43.499  28.189  34.521  1.00  0.00     0.031 C 
ATOM     57  C   UNL A   1      45.585  25.491  30.487  1.00  0.00     0.029 A 
ATOM     58  C   UNL A   1      44.657  24.964  31.372  1.00  0.00     0.049 A 
ATOM     59  H   UNL A   1      43.338  23.344  31.089  1.00  0.00     0.167 HD
ATOM     60  C   UNL A   1      43.910  26.283  33.256  1.00  0.00     0.074 A 
ATOM     61  C   UNL A   1      44.042  26.961  34.538  1.00  0.00     0.031 C 
ATOM     62  C   UNL A   1      44.473  25.125  32.803  1.00  0.00     0.031 A 
BRANCH  49  63
ATOM     63  C   UNL A   1      43.788  22.629  27.183  1.00  0.00    -0.014 A 
ATOM     64  C   UNL A   1      42.962  21.534  26.839  1.00  0.00     0.010 A 
ATOM     65  C   UNL A   1      44.973  22.766  26.434  1.00  0.00     0.010 A 
ATOM     66  C   UNL A   1      43.327  20.583  25.878  1.00  0.00     0.020 A 
ATOM     67  C   UNL A   1      45.357  21.810  25.467  1.00  0.00     0.020 A 
ATOM     68  C   UNL A   1      44.535  20.715  25.207  1.00  0.00     0.054 A 
BRANCH  68  69
ATOM     69  S   UNL A   1      44.990  19.445  23.995  1.00  0.00     0.124 S 
ATOM     70  O   UNL A   1      44.226  18.285  24.453  1.00  0.00    -0.237 OA
ATOM     71  O   UNL A   1      44.539  20.033  22.737  1.00  0.00    -0.237 OA
ATOM     72  O   UNL A   1      46.439  19.324  24.140  1.00  0.00    -0.744 OA
ENDBRANCH  68  69
ENDBRANCH  49  63
BRANCH  50  73
ATOM     73  C   UNL A   1      41.126  30.135  32.799  1.00  0.00    -0.014 A 
ATOM     74  C   UNL A   1      40.882  31.457  32.352  1.00  0.00     0.010 A 
ATOM     75  C   UNL A   1      40.018  29.379  33.219  1.00  0.00     0.010 A 
ATOM     76  C   UNL A   1      39.583  31.967  32.227  1.00  0.00     0.020 A 
ATOM     77  C   UNL A   1      38.707  29.894  33.114  1.00  0.00     0.020 A 
ATOM     78  C   UNL A   1      38.497  31.175  32.593  1.00  0.00     0.054 A 
BRANCH  78  79
ATOM     79  S   UNL A   1      36.818  31.751  32.169  1.00  0.00     0.124 S 
ATOM     80  O   UNL A   1      36.162  30.519  31.747  1.00  0.00    -0.237 OA
ATOM     81  O   UNL A   1      36.358  32.308  33.439  1.00  0.00    -0.237 OA
ATOM     82  O   UNL A   1      37.063  32.734  31.114  1.00  0.00    -0.744 OA
ENDBRANCH  78  79
ENDBRANCH  50  73
BRANCH  62  83
ATOM     83  C   UNL A   1      45.048  24.053  33.685  1.00  0.00    -0.014 A 
ATOM     84  C   UNL A   1      44.360  22.875  34.000  1.00  0.00     0.010 A 
ATOM     85  C   UNL A   1      46.406  24.145  34.080  1.00  0.00     0.010 A 
ATOM     86  C   UNL A   1      44.974  21.863  34.744  1.00  0.00     0.020 A 
ATOM     87  C   UNL A   1      47.044  23.118  34.771  1.00  0.00     0.020 A 
ATOM     88  C   UNL A   1      46.310  21.994  35.127  1.00  0.00     0.054 A 
BRANCH  88  89
ATOM     89  S   UNL A   1      47.101  20.657  36.045  1.00  0.00     0.124 S 
ATOM     90  O   UNL A   1      47.953  20.059  35.020  1.00  0.00    -0.237 OA
ATOM     91  O   UNL A   1      47.805  21.367  37.110  1.00  0.00    -0.237 OA
ATOM     92  O   UNL A   1      45.980  19.833  36.490  1.00  0.00    -0.744 OA
ENDBRANCH  88  89
ENDBRANCH  62  83
ENDBRANCH  36  37
ENDBRANCH  29  31
ENDBRANCH  28  29
ENDBRANCH  27  28
ENDBRANCH   1  27
TORSDOF 17
ENDMDL
MODEL 2
REMARK VINA RESULT:     -13.3      1.115      1.512
REMARK SMILES Cc1ccc(C(=O)OCCOC(=O)c2ccc(-c3c4nc(c(-c5ccc(S(=O)(=O)[O-])cc5)c5ccc([nH]5)c(-c5ccc(S(=O)(=O)[O-])cc5)c5nc(c(-c6ccc(S(=O)(=O)[O-])cc6)c6ccc3[nH]6)C=C5)C=C4)cc2)cc1NC(=O)Cc1ccc2ccccc2c1
REMARK SMILES IDX 9 1 8 2 6 3 7 4 5 5 1 6 2 7 3 8 75 9 4 10 74 11 76 12 77 13
REMARK SMILES IDX 78 15 79 16 80 17 81 18 89 19 82 20 88 21 83 22 87 23 84 24
REMARK SMILES IDX 86 25 85 26 10 27 11 28 12 29 13 30 14 31 15 32 73 33 16 34
REMARK SMILES IDX 72 35 17 36 18 37 19 38 66 39 20 40 71 41 65 42 67 43 21 44
REMARK SMILES IDX 70 45 64 46 63 47 22 49 52 50 33 51 51 52 34 53 37 54 50 55
REMARK SMILES IDX 68 56 35 57 36 58 49 60 69 61 38 62 23 63 24 64 32 65 25 66
REMARK SMILES IDX 31 67 26 68 27 69 28 70 29 71 30 72 53 73 54 74 62 75 55 76
REMARK SMILES IDX 61 77 56 78 57 79 58 80 59 81 60 82 39 83 40 84 48 85 41 86
REMARK SMILES IDX 47 87 42 88 43 89 44 90 45 91 46 92
REMARK H PARENT 76 14 67 48 37 59
REMARK Flexibility Score: inf
ROOT
ATOM      1  C   UNL A   1      33.194  30.180  26.690  1.00  0.00     0.275 C 
ENDROOT
BRANCH   1   2
ATOM      2  O   UNL A   1      33.748  29.371  25.635  1.00  0.00    -0.458 OA
BRANCH   2   3
ATOM      3  C   UNL A   1      32.810  28.742  24.888  1.00  0.00     0.338 C 
ATOM      4  O   UNL A   1      31.659  29.121  24.714  1.00  0.00    -0.246 OA
BRANCH   3   5
ATOM      5  C   UNL A   1      33.170  27.361  24.528  1.00  0.00     0.062 A 
ATOM      6  C   UNL A   1      32.011  23.485  23.088  1.00  0.00     0.046 C 
ATOM      7  C   UNL A   1      32.396  24.818  23.663  1.00  0.00    -0.027 A 
ATOM      8  C   UNL A   1      33.184  25.660  22.844  1.00  0.00     0.006 A 
ATOM      9  C   UNL A   1      31.990  25.296  24.921  1.00  0.00     0.044 A 
ATOM     10  C   UNL A   1      33.493  26.964  23.240  1.00  0.00     0.016 A 
ATOM     11  C   UNL A   1      32.591  26.450  25.398  1.00  0.00     0.042 A 
BRANCH   9  12
ATOM     12  N   UNL A   1      30.929  24.701  25.649  1.00  0.00    -0.326 N 
ATOM     13  C   UNL A   1      30.973  23.797  26.713  1.00  0.00     0.228 C 
ATOM     14  H   UNL A   1      30.026  24.964  25.362  1.00  0.00     0.169 HD
ATOM     15  O   UNL A   1      29.901  23.398  27.170  1.00  0.00    -0.274 OA
BRANCH  13  16
ATOM     16  C   UNL A   1      32.327  23.393  27.287  1.00  0.00     0.135 C 
BRANCH  16  17
ATOM     17  C   UNL A   1      33.431  22.778  26.459  1.00  0.00    -0.038 A 
ATOM     18  C   UNL A   1      33.247  21.460  26.008  1.00  0.00     0.005 A 
ATOM     19  C   UNL A   1      34.713  23.329  26.394  1.00  0.00     0.013 A 
ATOM     20  C   UNL A   1      34.300  20.714  25.483  1.00  0.00     0.009 A 
ATOM     21  C   UNL A   1      35.800  22.572  25.919  1.00  0.00    -0.018 A 
ATOM     22  C   UNL A   1      35.589  21.252  25.452  1.00  0.00    -0.018 A 
ATOM     23  C   UNL A   1      37.106  23.082  25.942  1.00  0.00     0.009 A 
ATOM     24  C   UNL A   1      36.676  20.492  25.000  1.00  0.00     0.009 A 
ATOM     25  C   UNL A   1      38.184  22.303  25.518  1.00  0.00     0.001 A 
ATOM     26  C   UNL A   1      37.968  21.012  25.040  1.00  0.00     0.001 A 
ENDBRANCH  16  17
ENDBRANCH  13  16
ENDBRANCH   9  12
ENDBRANCH   3   5
ENDBRANCH   2   3
ENDBRANCH   1   2
BRANCH   1  27
ATOM     27  C   UNL A   1      34.218  30.466  27.805  1.00  0.00     0.275 C 
BRANCH  27  28
ATOM     28  O   UNL A   1      35.448  29.705  27.850  1.00  0.00    -0.458 OA
BRANCH  28  29
ATOM     29  C   UNL A   1      36.607  30.401  27.926  1.00  0.00     0.338 C 
ATOM     30  O   UNL A   1      36.657  31.611  28.140  1.00  0.00    -0.246 OA
BRANCH  29  31
ATOM     31  C   UNL A   1      37.736  29.445  28.025  1.00  0.00     0.060 A 
ATOM     32  C   UNL A   1      38.808  29.553  27.128  1.00  0.00     0.016 A 
ATOM     33  C   UNL A   1      37.866  28.699  29.200  1.00  0.00     0.016 A 
ATOM     34  C   UNL A   1      40.053  29.036  27.463  1.00  0.00     0.010 A 
ATOM     35  C   UNL A   1      39.111  28.291  29.592  1.00  0.00     0.010 A 
ATOM     36  C   UNL A   1      40.193  28.434  28.713  1.00  0.00    -0.014 A 
BRANCH  36  37
ATOM     37  C   UNL A   1      41.299  27.565  29.058  1.00  0.00     0.031 A 
ATOM     38  C   UNL A   1      41.321  26.142  28.686  1.00  0.00     0.074 A 
ATOM     39  C   UNL A   1      42.327  28.300  29.540  1.00  0.00     0.049 A 
ATOM     40  N   UNL A   1      42.067  25.252  29.240  1.00  0.00    -0.248 NA
ATOM     41  C   UNL A   1      40.458  25.575  27.650  1.00  0.00     0.031 C 
ATOM     42  C   UNL A   1      43.725  27.979  29.729  1.00  0.00     0.029 A 
ATOM     43  N   UNL A   1      42.201  29.569  30.139  1.00  0.00    -0.354 N 
ATOM     44  C   UNL A   1      42.077  24.155  28.394  1.00  0.00     0.074 A 
ATOM     45  C   UNL A   1      40.942  24.330  27.526  1.00  0.00     0.031 C 
ATOM     46  C   UNL A   1      44.209  28.802  30.683  1.00  0.00     0.029 A 
ATOM     47  C   UNL A   1      43.074  29.560  31.215  1.00  0.00     0.049 A 
ATOM     48  H   UNL A   1      41.617  30.308  29.852  1.00  0.00     0.167 HD
ATOM     49  C   UNL A   1      43.186  23.361  28.364  1.00  0.00     0.031 A 
ATOM     50  C   UNL A   1      42.575  29.476  32.487  1.00  0.00     0.031 A 
ATOM     51  C   UNL A   1      44.157  23.844  29.346  1.00  0.00     0.049 A 
ATOM     52  C   UNL A   1      43.045  28.181  33.105  1.00  0.00     0.074 A 
ATOM     53  C   UNL A   1      45.250  24.683  29.202  1.00  0.00     0.029 A 
ATOM     54  N   UNL A   1      43.832  23.835  30.697  1.00  0.00    -0.354 N 
ATOM     55  N   UNL A   1      43.156  27.049  32.459  1.00  0.00    -0.248 NA
ATOM     56  C   UNL A   1      43.551  28.118  34.470  1.00  0.00     0.031 C 
ATOM     57  C   UNL A   1      45.499  25.281  30.463  1.00  0.00     0.029 A 
ATOM     58  C   UNL A   1      44.560  24.803  31.364  1.00  0.00     0.049 A 
ATOM     59  H   UNL A   1      43.179  23.230  31.117  1.00  0.00     0.167 HD
ATOM     60  C   UNL A   1      43.880  26.178  33.233  1.00  0.00     0.074 A 
ATOM     61  C   UNL A   1      44.048  26.870  34.502  1.00  0.00     0.031 C 
ATOM     62  C   UNL A   1      44.395  24.992  32.793  1.00  0.00     0.031 A 
BRANCH  49  63
ATOM     63  C   UNL A   1      43.568  22.438  27.220  1.00  0.00    -0.014 A 
ATOM     64  C   UNL A   1      42.741  21.322  26.952  1.00  0.00     0.010 A 
ATOM     65  C   UNL A   1      44.713  22.563  26.409  1.00  0.00     0.010 A 
ATOM     66  C   UNL A   1      43.072  20.343  26.006  1.00  0.00     0.020 A 
ATOM     67  C   UNL A   1      45.064  21.581  25.458  1.00  0.00     0.020 A 
ATOM     68  C   UNL A   1      44.245  20.467  25.274  1.00  0.00     0.054 A 
BRANCH  68  69
ATOM     69  S   UNL A   1      44.659  19.163  24.084  1.00  0.00     0.124 S 
ATOM     70  O   UNL A   1      44.474  19.838  22.801  1.00  0.00    -0.237 OA
ATOM     71  O   UNL A   1      46.042  18.845  24.430  1.00  0.00    -0.237 OA
ATOM     72  O   UNL A   1      43.690  18.107  24.370  1.00  0.00    -0.744 OA
ENDBRANCH  68  69
ENDBRANCH  49  63
BRANCH  50  73
ATOM     73  C   UNL A   1      41.239  30.125  32.737  1.00  0.00    -0.014 A 
ATOM     74  C   UNL A   1      41.156  31.537  32.661  1.00  0.00     0.010 A 
ATOM     75  C   UNL A   1      40.030  29.408  32.794  1.00  0.00     0.010 A 
ATOM     76  C   UNL A   1      39.928  32.201  32.539  1.00  0.00     0.020 A 
ATOM     77  C   UNL A   1      38.788  30.073  32.692  1.00  0.00     0.020 A 
ATOM     78  C   UNL A   1      38.747  31.462  32.537  1.00  0.00     0.054 A 
BRANCH  78  79
ATOM     79  S   UNL A   1      37.191  32.313  32.106  1.00  0.00     0.124 S 
ATOM     80  O   UNL A   1      37.042  33.265  33.201  1.00  0.00    -0.237 OA
ATOM     81  O   UNL A   1      37.513  32.894  30.804  1.00  0.00    -0.237 OA
ATOM     82  O   UNL A   1      36.217  31.223  32.075  1.00  0.00    -0.744 OA
ENDBRANCH  78  79
ENDBRANCH  50  73
BRANCH  62  83
ATOM     83  C   UNL A   1      44.937  23.914  33.688  1.00  0.00    -0.014 A 
ATOM     84  C   UNL A   1      44.193  22.787  34.060  1.00  0.00     0.010 A 
ATOM     85  C   UNL A   1      46.310  23.936  34.034  1.00  0.00     0.010 A 
ATOM     86  C   UNL A   1      44.772  21.763  34.813  1.00  0.00     0.020 A 
ATOM     87  C   UNL A   1      46.911  22.893  34.734  1.00  0.00     0.020 A 
ATOM     88  C   UNL A   1      46.126  21.825  35.148  1.00  0.00     0.054 A 
BRANCH  88  89
ATOM     89  S   UNL A   1      46.869  20.469  36.079  1.00  0.00     0.124 S 
ATOM     90  O   UNL A   1      46.479  20.803  37.447  1.00  0.00    -0.237 OA
ATOM     91  O   UNL A   1      46.219  19.291  35.510  1.00  0.00    -0.237 OA
ATOM     92  O   UNL A   1      48.295  20.588  35.785  1.00  0.00    -0.744 OA
ENDBRANCH  88  89
ENDBRANCH  62  83
ENDBRANCH  36  37
ENDBRANCH  29  31
ENDBRANCH  28  29
ENDBRANCH  27  28
ENDBRANCH   1  27
TORSDOF 17
ENDMDL
MODEL 3
REMARK VINA RESULT:     -13.2      4.460     10.793
REMARK SMILES Cc1ccc(C(=O)OCCOC(=O)c2ccc(-c3c4nc(c(-c5ccc(S(=O)(=O)[O-])cc5)c5ccc([nH]5)c(-c5ccc(S(=O)(=O)[O-])cc5)c5nc(c(-c6ccc(S(=O)(=O)[O-])cc6)c6ccc3[nH]6)C=C5)C=C4)cc2)cc1NC(=O)Cc1ccc2ccccc2c1
REMARK SMILES IDX 9 1 8 2 6 3 7 4 5 5 1 6 2 7 3 8 75 9 4 10 74 11 76 12 77 13
REMARK SMILES IDX 78 15 79 16 80 17 81 18 89 19 82 20 88 21 83 22 87 23 84 24
REMARK SMILES IDX 86 25 85 26 10 27 11 28 12 29 13 30 14 31 15 32 73 33 16 34
REMARK SMILES IDX 72 35 17 36 18 37 19 38 66 39 20 40 71 41 65 42 67 43 21 44
REMARK SMILES IDX 70 45 64 46 63 47 22 49 52 50 33 51 51 52 34 53 37 54 50 55
REMARK SMILES IDX 68 56 35 57 36 58 49 60 69 61 38 62 23 63 24 64 32 65 25 66
REMARK SMILES IDX 31 67 26 68 27 69 28 70 29 71 30 72 53 73 54 74 62 75 55 76
REMARK SMILES IDX 61 77 56 78 57 79 58 80 59 81 60 82 39 83 40 84 48 85 41 86
REMARK SMILES IDX 47 87 42 88 43 89 44 90 45 91 46 92
REMARK H PARENT 76 14 67 48 37 59
REMARK Flexibility Score: inf
ROOT
ATOM      1  C   UNL A   1      36.573  22.681  25.674  1.00  0.00     0.275 C 
ENDROOT
BRANCH   1   2
ATOM      2  O   UNL A   1      35.865  23.537  24.757  1.00  0.00    -0.458 OA
BRANCH   2   3
ATOM      3  C   UNL A   1      35.736  23.011  23.517  1.00  0.00     0.338 C 
ATOM      4  O   UNL A   1      36.649  22.794  22.731  1.00  0.00    -0.246 OA
BRANCH   3   5
ATOM      5  C   UNL A   1      34.348  22.996  23.023  1.00  0.00     0.062 A 
ATOM      6  C   UNL A   1      30.255  24.222  23.439  1.00  0.00     0.046 C 
ATOM      7  C   UNL A   1      31.671  23.734  23.341  1.00  0.00    -0.027 A 
ATOM      8  C   UNL A   1      32.458  24.273  22.298  1.00  0.00     0.006 A 
ATOM      9  C   UNL A   1      32.271  22.828  24.234  1.00  0.00     0.044 A 
ATOM     10  C   UNL A   1      33.820  23.974  22.195  1.00  0.00     0.016 A 
ATOM     11  C   UNL A   1      33.514  22.316  23.897  1.00  0.00     0.042 A 
BRANCH   9  12
ATOM     12  N   UNL A   1      31.697  22.515  25.492  1.00  0.00    -0.326 N 
ATOM     13  C   UNL A   1      31.944  23.072  26.748  1.00  0.00     0.228 C 
ATOM     14  H   UNL A   1      31.024  21.798  25.478  1.00  0.00     0.169 HD
ATOM     15  O   UNL A   1      31.330  22.609  27.711  1.00  0.00    -0.274 OA
BRANCH  13  16
ATOM     16  C   UNL A   1      32.909  24.248  26.862  1.00  0.00     0.135 C 
BRANCH  16  17
ATOM     17  C   UNL A   1      32.667  25.587  26.206  1.00  0.00    -0.038 A 
ATOM     18  C   UNL A   1      31.382  26.144  26.322  1.00  0.00     0.005 A 
ATOM     19  C   UNL A   1      33.539  26.124  25.256  1.00  0.00     0.013 A 
ATOM     20  C   UNL A   1      30.978  27.221  25.534  1.00  0.00     0.009 A 
ATOM     21  C   UNL A   1      33.130  27.175  24.414  1.00  0.00    -0.018 A 
ATOM     22  C   UNL A   1      31.838  27.734  24.561  1.00  0.00    -0.018 A 
ATOM     23  C   UNL A   1      33.963  27.654  23.393  1.00  0.00     0.009 A 
ATOM     24  C   UNL A   1      31.424  28.765  23.706  1.00  0.00     0.009 A 
ATOM     25  C   UNL A   1      33.528  28.660  22.529  1.00  0.00     0.001 A 
ATOM     26  C   UNL A   1      32.263  29.221  22.690  1.00  0.00     0.001 A 
ENDBRANCH  16  17
ENDBRANCH  13  16
ENDBRANCH   9  12
ENDBRANCH   3   5
ENDBRANCH   2   3
ENDBRANCH   1   2
BRANCH   1  27
ATOM     27  C   UNL A   1      38.027  23.140  25.897  1.00  0.00     0.275 C 
BRANCH  27  28
ATOM     28  O   UNL A   1      38.313  24.109  26.933  1.00  0.00    -0.458 OA
BRANCH  28  29
ATOM     29  C   UNL A   1      39.549  24.082  27.484  1.00  0.00     0.338 C 
ATOM     30  O   UNL A   1      40.327  23.139  27.357  1.00  0.00    -0.246 OA
BRANCH  29  31
ATOM     31  C   UNL A   1      39.892  25.444  27.961  1.00  0.00     0.060 A 
ATOM     32  C   UNL A   1      40.267  26.423  27.032  1.00  0.00     0.016 A 
ATOM     33  C   UNL A   1      39.504  25.805  29.256  1.00  0.00     0.016 A 
ATOM     34  C   UNL A   1      40.127  27.770  27.342  1.00  0.00     0.010 A 
ATOM     35  C   UNL A   1      39.250  27.121  29.529  1.00  0.00     0.010 A 
ATOM     36  C   UNL A   1      39.588  28.099  28.585  1.00  0.00    -0.014 A 
BRANCH  36  37
ATOM     37  C   UNL A   1      39.699  29.417  29.176  1.00  0.00     0.031 A 
ATOM     38  C   UNL A   1      38.685  30.460  28.957  1.00  0.00     0.074 A 
ATOM     39  C   UNL A   1      40.705  29.432  30.080  1.00  0.00     0.049 A 
ATOM     40  N   UNL A   1      38.877  31.718  29.142  1.00  0.00    -0.248 NA
ATOM     41  C   UNL A   1      37.337  30.171  28.465  1.00  0.00     0.031 C 
ATOM     42  C   UNL A   1      41.025  30.366  31.137  1.00  0.00     0.029 A 
ATOM     43  N   UNL A   1      41.809  28.556  30.075  1.00  0.00    -0.354 N 
ATOM     44  C   UNL A   1      37.626  32.310  29.193  1.00  0.00     0.074 A 
ATOM     45  C   UNL A   1      36.726  31.357  28.598  1.00  0.00     0.031 C 
ATOM     46  C   UNL A   1      42.344  30.251  31.400  1.00  0.00     0.029 A 
ATOM     47  C   UNL A   1      42.905  29.339  30.401  1.00  0.00     0.049 A 
ATOM     48  H   UNL A   1      41.802  27.590  29.882  1.00  0.00     0.167 HD
ATOM     49  C   UNL A   1      37.461  33.429  29.957  1.00  0.00     0.031 A 
ATOM     50  C   UNL A   1      43.811  29.666  29.429  1.00  0.00     0.031 A 
ATOM     51  C   UNL A   1      38.746  33.813  30.541  1.00  0.00     0.049 A 
ATOM     52  C   UNL A   1      43.792  31.164  29.237  1.00  0.00     0.074 A 
ATOM     53  C   UNL A   1      39.295  33.538  31.782  1.00  0.00     0.029 A 
ATOM     54  N   UNL A   1      39.796  34.183  29.710  1.00  0.00    -0.354 N 
ATOM     55  N   UNL A   1      42.714  31.902  29.286  1.00  0.00    -0.248 NA
ATOM     56  C   UNL A   1      45.019  31.941  29.112  1.00  0.00     0.031 C 
ATOM     57  C   UNL A   1      40.705  33.621  31.655  1.00  0.00     0.029 A 
ATOM     58  C   UNL A   1      41.003  33.947  30.341  1.00  0.00     0.049 A 
ATOM     59  H   UNL A   1      39.696  34.558  28.804  1.00  0.00     0.167 HD
ATOM     60  C   UNL A   1      43.094  33.219  29.369  1.00  0.00     0.074 A 
ATOM     61  C   UNL A   1      44.539  33.193  29.192  1.00  0.00     0.031 C 
ATOM     62  C   UNL A   1      42.255  34.252  29.672  1.00  0.00     0.031 A 
BRANCH  49  63
ATOM     63  C   UNL A   1      36.133  33.927  30.500  1.00  0.00    -0.014 A 
ATOM     64  C   UNL A   1      35.276  34.641  29.630  1.00  0.00     0.010 A 
ATOM     65  C   UNL A   1      35.680  33.781  31.825  1.00  0.00     0.010 A 
ATOM     66  C   UNL A   1      34.092  35.251  30.064  1.00  0.00     0.020 A 
ATOM     67  C   UNL A   1      34.492  34.396  32.279  1.00  0.00     0.020 A 
ATOM     68  C   UNL A   1      33.713  35.141  31.395  1.00  0.00     0.054 A 
BRANCH  68  69
ATOM     69  S   UNL A   1      32.193  35.973  31.928  1.00  0.00     0.124 S 
ATOM     70  O   UNL A   1      31.566  36.328  30.656  1.00  0.00    -0.237 OA
ATOM     71  O   UNL A   1      31.512  34.930  32.691  1.00  0.00    -0.237 OA
ATOM     72  O   UNL A   1      32.670  37.106  32.717  1.00  0.00    -0.744 OA
ENDBRANCH  68  69
ENDBRANCH  49  63
BRANCH  50  73
ATOM     73  C   UNL A   1      44.036  28.652  28.338  1.00  0.00    -0.014 A 
ATOM     74  C   UNL A   1      44.452  27.350  28.711  1.00  0.00     0.010 A 
ATOM     75  C   UNL A   1      43.621  28.843  27.008  1.00  0.00     0.010 A 
ATOM     76  C   UNL A   1      44.359  26.264  27.831  1.00  0.00     0.020 A 
ATOM     77  C   UNL A   1      43.544  27.756  26.110  1.00  0.00     0.020 A 
ATOM     78  C   UNL A   1      43.887  26.469  26.536  1.00  0.00     0.054 A 
BRANCH  78  79
ATOM     79  S   UNL A   1      43.519  25.009  25.504  1.00  0.00     0.124 S 
ATOM     80  O   UNL A   1      44.752  24.847  24.743  1.00  0.00    -0.237 OA
ATOM     81  O   UNL A   1      43.259  23.983  26.511  1.00  0.00    -0.237 OA
ATOM     82  O   UNL A   1      42.349  25.435  24.736  1.00  0.00    -0.744 OA
ENDBRANCH  78  79
ENDBRANCH  50  73
BRANCH  62  83
ATOM     83  C   UNL A   1      42.591  35.705  29.491  1.00  0.00    -0.014 A 
ATOM     84  C   UNL A   1      43.527  36.375  30.289  1.00  0.00     0.010 A 
ATOM     85  C   UNL A   1      42.079  36.392  28.363  1.00  0.00     0.010 A 
ATOM     86  C   UNL A   1      43.878  37.701  30.020  1.00  0.00     0.020 A 
ATOM     87  C   UNL A   1      42.467  37.693  28.054  1.00  0.00     0.020 A 
ATOM     88  C   UNL A   1      43.344  38.351  28.907  1.00  0.00     0.054 A 
BRANCH  88  89
ATOM     89  S   UNL A   1      43.847  40.046  28.548  1.00  0.00     0.124 S 
ATOM     90  O   UNL A   1      42.815  40.467  27.603  1.00  0.00    -0.237 OA
ATOM     91  O   UNL A   1      43.794  40.685  29.861  1.00  0.00    -0.237 OA
ATOM     92  O   UNL A   1      45.188  39.898  27.988  1.00  0.00    -0.744 OA
ENDBRANCH  88  89
ENDBRANCH  62  83
ENDBRANCH  36  37
ENDBRANCH  29  31
ENDBRANCH  28  29
ENDBRANCH  27  28
ENDBRANCH   1  27
TORSDOF 17
ENDMDL
