MODEL 1
REMARK VINA RESULT:     -11.9      0.000      0.000
REMARK SMILES O=C(OCCOC(=O)c1ccc(-c2c3nc(c(-c4ccc(S(=O)(=O)[O-])cc4)c4ccc([nH]4)c(-c4ccc(S(=O)(=O)[O-])cc4)c4nc(c(-c5ccc(S(=O)(=O)[O-])cc5)c5ccc2[nH]5)C=C4)C=C3)cc1)C1=Cc2cc(S(F)(F)(F)(F)F)ccc2O[C@@H]1C(F)(F)F
REMARK SMILES IDX 5 1 4 2 3 3 2 4 1 5 69 6 70 7 84 8 71 9 83 10 72 11 82 12
REMARK SMILES IDX 73 13 81 14 80 15 85 16 86 17 87 18 88 19 74 20 75 21 76 22
REMARK SMILES IDX 77 23 78 24 79 25 6 26 7 27 8 28 9 29 10 30 68 31 11 32
REMARK SMILES IDX 67 33 12 34 13 35 14 36 61 37 15 38 66 39 60 40 62 41 16 42
REMARK SMILES IDX 65 43 59 44 58 45 17 47 47 48 28 49 46 50 29 51 32 52 45 53
REMARK SMILES IDX 63 54 30 55 31 56 44 58 64 59 33 60 18 61 19 62 27 63 20 64
REMARK SMILES IDX 26 65 21 66 22 67 23 68 24 69 25 70 48 71 49 72 57 73 50 74
REMARK SMILES IDX 56 75 51 76 52 77 53 78 54 79 55 80 34 81 35 82 43 83 36 84
REMARK SMILES IDX 42 85 37 86 38 87 39 88 40 89 41 90
REMARK H PARENT 62 46 32 57
REMARK Flexibility Score: inf
ROOT
ATOM      1  C   UNL A   1      38.397  23.991  26.152  1.00  0.00     0.275 C 
ENDROOT
BRANCH   1   2
ATOM      2  C   UNL A   1      36.937  23.600  25.997  1.00  0.00     0.275 C 
BRANCH   2   3
ATOM      3  O   UNL A   1      36.475  23.993  24.713  1.00  0.00    -0.459 OA
BRANCH   3   4
ATOM      4  C   UNL A   1      35.577  23.159  23.996  1.00  0.00     0.338 C 
ATOM      5  O   UNL A   1      35.814  22.866  22.782  1.00  0.00    -0.246 OA
BRANCH   4   6
ATOM      6  C   UNL A   1      34.333  22.617  24.680  1.00  0.00     0.087 C 
ATOM      7  C   UNL A   1      33.357  23.469  25.092  1.00  0.00     0.027 C 
ATOM      8  C   UNL A   1      34.179  21.121  24.901  1.00  0.00     0.316 C 
ATOM      9  C   UNL A   1      33.511  24.965  24.869  1.00  0.00     0.019 A 
ATOM     10  O   UNL A   1      34.391  24.469  22.718  1.00  0.00    -0.475 OA
ATOM     11  C   UNL A   1      33.205  25.847  25.892  1.00  0.00     0.036 A 
ATOM     12  C   UNL A   1      33.935  25.401  23.689  1.00  0.00     0.128 A 
ATOM     13  C   UNL A   1      33.102  27.196  25.476  1.00  0.00     0.107 A 
ATOM     14  C   UNL A   1      33.935  26.742  23.397  1.00  0.00     0.048 A 
ATOM     15  C   UNL A   1      33.587  27.668  24.342  1.00  0.00     0.028 A 
BRANCH   8  16
ATOM     16  C   UNL A   1      32.933  20.627  24.184  1.00  0.00     0.430 C 
ATOM     17  F   UNL A   1      31.885  20.726  24.997  1.00  0.00    -0.167 F 
ATOM     18  F   UNL A   1      32.723  21.367  23.099  1.00  0.00    -0.167 F 
ATOM     19  F   UNL A   1      33.100  19.356  23.830  1.00  0.00    -0.167 F 
ENDBRANCH   8  16
BRANCH  13  20
ATOM     20  S   UNL A   1      32.245  28.353  26.572  1.00  0.00     0.310 S 
ATOM     21  F   UNL A   1      31.897  27.211  27.616  1.00  0.00    -0.094 F 
ATOM     22  F   UNL A   1      30.895  28.001  25.841  1.00  0.00    -0.094 F 
ATOM     23  F   UNL A   1      31.508  29.350  27.511  1.00  0.00    -0.094 F 
ATOM     24  F   UNL A   1      33.579  28.588  27.384  1.00  0.00    -0.094 F 
ATOM     25  F   UNL A   1      32.984  27.261  25.701  1.00  0.00    -0.094 F 
ENDBRANCH  13  20
ENDBRANCH   4   6
ENDBRANCH   3   4
ENDBRANCH   2   3
ENDBRANCH   1   2
BRANCH   1  26
ATOM     26  O   UNL A   1      38.550  24.803  27.306  1.00  0.00    -0.458 OA
BRANCH  26  27
ATOM     27  C   UNL A   1      39.520  25.840  27.323  1.00  0.00     0.338 C 
ATOM     28  O   UNL A   1      40.280  26.015  26.319  1.00  0.00    -0.246 OA
BRANCH  27  29
ATOM     29  C   UNL A   1      39.649  26.741  28.540  1.00  0.00     0.060 A 
ATOM     30  C   UNL A   1      40.536  27.805  28.529  1.00  0.00     0.016 A 
ATOM     31  C   UNL A   1      38.894  26.484  29.602  1.00  0.00     0.016 A 
ATOM     32  C   UNL A   1      40.764  28.374  29.804  1.00  0.00     0.010 A 
ATOM     33  C   UNL A   1      39.080  27.174  30.776  1.00  0.00     0.010 A 
ATOM     34  C   UNL A   1      39.982  28.199  30.854  1.00  0.00    -0.014 A 
BRANCH  34  35
ATOM     35  C   UNL A   1      40.078  29.089  32.083  1.00  0.00     0.031 A 
ATOM     36  C   UNL A   1      39.125  30.104  32.192  1.00  0.00     0.074 A 
ATOM     37  C   UNL A   1      41.086  28.870  33.005  1.00  0.00     0.049 A 
ATOM     38  N   UNL A   1      38.994  30.991  33.179  1.00  0.00    -0.248 NA
ATOM     39  C   UNL A   1      38.075  30.360  31.196  1.00  0.00     0.031 C 
ATOM     40  C   UNL A   1      42.045  27.842  32.906  1.00  0.00     0.029 A 
ATOM     41  N   UNL A   1      41.346  29.579  34.156  1.00  0.00    -0.354 N 
ATOM     42  C   UNL A   1      37.954  31.794  32.942  1.00  0.00     0.074 A 
ATOM     43  C   UNL A   1      37.352  31.403  31.660  1.00  0.00     0.031 C 
ATOM     44  C   UNL A   1      42.878  27.939  33.974  1.00  0.00     0.029 A 
ATOM     45  C   UNL A   1      42.455  29.027  34.760  1.00  0.00     0.049 A 
ATOM     46  H   UNL A   1      40.831  30.349  34.489  1.00  0.00     0.167 HD
ATOM     47  C   UNL A   1      37.482  32.834  33.744  1.00  0.00     0.031 A 
ATOM     48  C   UNL A   1      43.076  29.436  35.930  1.00  0.00     0.031 A 
ATOM     49  C   UNL A   1      38.079  33.214  34.936  1.00  0.00     0.049 A 
ATOM     50  C   UNL A   1      42.639  30.514  36.704  1.00  0.00     0.074 A 
ATOM     51  C   UNL A   1      37.612  34.256  35.762  1.00  0.00     0.029 A 
ATOM     52  N   UNL A   1      39.200  32.678  35.528  1.00  0.00    -0.354 N 
ATOM     53  N   UNL A   1      41.577  31.290  36.486  1.00  0.00    -0.248 NA
ATOM     54  C   UNL A   1      43.309  30.975  37.927  1.00  0.00     0.031 C 
ATOM     55  C   UNL A   1      38.447  34.352  36.831  1.00  0.00     0.029 A 
ATOM     56  C   UNL A   1      39.448  33.373  36.692  1.00  0.00     0.049 A 
ATOM     57  H   UNL A   1      39.733  31.927  35.180  1.00  0.00     0.167 HD
ATOM     58  C   UNL A   1      41.470  32.204  37.452  1.00  0.00     0.074 A 
ATOM     59  C   UNL A   1      42.586  32.020  38.389  1.00  0.00     0.031 C 
ATOM     60  C   UNL A   1      40.483  33.182  37.593  1.00  0.00     0.031 A 
BRANCH  47  61
ATOM     61  C   UNL A   1      36.247  33.592  33.286  1.00  0.00    -0.014 A 
ATOM     62  C   UNL A   1      36.395  34.815  32.655  1.00  0.00     0.010 A 
ATOM     63  C   UNL A   1      35.045  33.075  33.516  1.00  0.00     0.010 A 
ATOM     64  C   UNL A   1      35.195  35.559  32.558  1.00  0.00     0.020 A 
ATOM     65  C   UNL A   1      33.911  33.810  33.270  1.00  0.00     0.020 A 
ATOM     66  C   UNL A   1      33.985  35.051  32.702  1.00  0.00     0.054 A 
BRANCH  66  67
ATOM     67  S   UNL A   1      32.505  35.948  32.173  1.00  0.00     0.124 S 
ATOM     68  O   UNL A   1      31.258  35.161  32.582  1.00  0.00    -0.237 OA
ATOM     69  O   UNL A   1      32.479  37.327  32.837  1.00  0.00    -0.237 OA
ATOM     70  O   UNL A   1      32.529  36.136  30.473  1.00  0.00    -0.744 OA
ENDBRANCH  66  67
ENDBRANCH  47  61
BRANCH  48  71
ATOM     71  C   UNL A   1      44.301  28.667  36.397  1.00  0.00    -0.014 A 
ATOM     72  C   UNL A   1      44.140  27.550  37.200  1.00  0.00     0.010 A 
ATOM     73  C   UNL A   1      45.507  29.070  36.012  1.00  0.00     0.010 A 
ATOM     74  C   UNL A   1      45.340  27.087  37.787  1.00  0.00     0.020 A 
ATOM     75  C   UNL A   1      46.638  28.482  36.525  1.00  0.00     0.020 A 
ATOM     76  C   UNL A   1      46.551  27.411  37.370  1.00  0.00     0.054 A 
BRANCH  76  77
ATOM     77  S   UNL A   1      48.017  26.485  37.890  1.00  0.00     0.124 S 
ATOM     78  O   UNL A   1      48.868  26.145  36.665  1.00  0.00    -0.237 OA
ATOM     79  O   UNL A   1      48.840  27.334  38.863  1.00  0.00    -0.237 OA
ATOM     80  O   UNL A   1      47.532  25.039  38.666  1.00  0.00    -0.744 OA
ENDBRANCH  76  77
ENDBRANCH  48  71
BRANCH  60  81
ATOM     81  C   UNL A   1      40.549  34.092  38.808  1.00  0.00    -0.014 A 
ATOM     82  C   UNL A   1      39.887  33.733  39.970  1.00  0.00     0.010 A 
ATOM     83  C   UNL A   1      41.243  35.222  38.731  1.00  0.00     0.010 A 
ATOM     84  C   UNL A   1      39.778  34.780  40.916  1.00  0.00     0.020 A 
ATOM     85  C   UNL A   1      41.199  36.141  39.753  1.00  0.00     0.020 A 
ATOM     86  C   UNL A   1      40.515  35.877  40.907  1.00  0.00     0.054 A 
BRANCH  86  87
ATOM     87  S   UNL A   1      40.614  36.970  42.346  1.00  0.00     0.124 S 
ATOM     88  O   UNL A   1      40.657  38.426  41.878  1.00  0.00    -0.237 OA
ATOM     89  O   UNL A   1      39.388  36.756  43.235  1.00  0.00    -0.237 OA
ATOM     90  O   UNL A   1      42.031  36.614  43.236  1.00  0.00    -0.744 OA
ENDBRANCH  86  87
ENDBRANCH  60  81
ENDBRANCH  34  35
ENDBRANCH  27  29
ENDBRANCH  26  27
ENDBRANCH   1  26
TORSDOF 16
ENDMDL
MODEL 2
REMARK VINA RESULT:     -11.7      7.833     13.053
REMARK SMILES O=C(OCCOC(=O)c1ccc(-c2c3nc(c(-c4ccc(S(=O)(=O)[O-])cc4)c4ccc([nH]4)c(-c4ccc(S(=O)(=O)[O-])cc4)c4nc(c(-c5ccc(S(=O)(=O)[O-])cc5)c5ccc2[nH]5)C=C4)C=C3)cc1)C1=Cc2cc(S(F)(F)(F)(F)F)ccc2O[C@@H]1C(F)(F)F
REMARK SMILES IDX 5 1 4 2 3 3 2 4 1 5 69 6 70 7 84 8 71 9 83 10 72 11 82 12
REMARK SMILES IDX 73 13 81 14 80 15 85 16 86 17 87 18 88 19 74 20 75 21 76 22
REMARK SMILES IDX 77 23 78 24 79 25 6 26 7 27 8 28 9 29 10 30 68 31 11 32
REMARK SMILES IDX 67 33 12 34 13 35 14 36 61 37 15 38 66 39 60 40 62 41 16 42
REMARK SMILES IDX 65 43 59 44 58 45 17 47 47 48 28 49 46 50 29 51 32 52 45 53
REMARK SMILES IDX 63 54 30 55 31 56 44 58 64 59 33 60 18 61 19 62 27 63 20 64
REMARK SMILES IDX 26 65 21 66 22 67 23 68 24 69 25 70 48 71 49 72 57 73 50 74
REMARK SMILES IDX 56 75 51 76 52 77 53 78 54 79 55 80 34 81 35 82 43 83 36 84
REMARK SMILES IDX 42 85 37 86 38 87 39 88 40 89 41 90
REMARK H PARENT 62 46 32 57
REMARK Flexibility Score: inf
ROOT
ATOM      1  C   UNL A   1      34.979  29.704  27.923  1.00  0.00     0.275 C 
ENDROOT
BRANCH   1   2
ATOM      2  C   UNL A   1      34.207  29.121  26.751  1.00  0.00     0.275 C 
BRANCH   2   3
ATOM      3  O   UNL A   1      33.306  28.130  27.223  1.00  0.00    -0.459 OA
BRANCH   3   4
ATOM      4  C   UNL A   1      32.042  27.964  26.597  1.00  0.00     0.338 C 
ATOM      5  O   UNL A   1      30.998  27.805  27.305  1.00  0.00    -0.246 OA
BRANCH   4   6
ATOM      6  C   UNL A   1      31.938  27.975  25.081  1.00  0.00     0.087 C 
ATOM      7  C   UNL A   1      32.455  26.947  24.356  1.00  0.00     0.027 C 
ATOM      8  C   UNL A   1      31.255  29.135  24.375  1.00  0.00     0.316 C 
ATOM      9  C   UNL A   1      33.137  25.787  25.062  1.00  0.00     0.019 A 
ATOM     10  O   UNL A   1      31.414  25.878  26.696  1.00  0.00    -0.475 OA
ATOM     11  C   UNL A   1      34.340  25.300  24.579  1.00  0.00     0.036 A 
ATOM     12  C   UNL A   1      32.560  25.256  26.134  1.00  0.00     0.128 A 
ATOM     13  C   UNL A   1      34.717  24.052  25.129  1.00  0.00     0.107 A 
ATOM     14  C   UNL A   1      33.061  24.111  26.702  1.00  0.00     0.048 A 
ATOM     15  C   UNL A   1      34.214  23.541  26.239  1.00  0.00     0.028 A 
BRANCH   8  16
ATOM     16  C   UNL A   1      30.070  28.617  23.576  1.00  0.00     0.430 C 
ATOM     17  F   UNL A   1      29.138  29.562  23.503  1.00  0.00    -0.167 F 
ATOM     18  F   UNL A   1      30.469  28.291  22.351  1.00  0.00    -0.167 F 
ATOM     19  F   UNL A   1      29.566  27.544  24.179  1.00  0.00    -0.167 F 
ENDBRANCH   8  16
BRANCH  13  20
ATOM     20  S   UNL A   1      35.974  23.090  24.252  1.00  0.00     0.310 S 
ATOM     21  F   UNL A   1      36.200  22.129  25.494  1.00  0.00    -0.094 F 
ATOM     22  F   UNL A   1      37.080  24.029  24.866  1.00  0.00    -0.094 F 
ATOM     23  F   UNL A   1      37.054  22.265  23.496  1.00  0.00    -0.094 F 
ATOM     24  F   UNL A   1      34.868  22.075  23.760  1.00  0.00    -0.094 F 
ATOM     25  F   UNL A   1      34.880  23.848  25.103  1.00  0.00    -0.094 F 
ENDBRANCH  13  20
ENDBRANCH   4   6
ENDBRANCH   3   4
ENDBRANCH   2   3
ENDBRANCH   1   2
BRANCH   1  26
ATOM     26  O   UNL A   1      36.369  29.672  27.637  1.00  0.00    -0.458 OA
BRANCH  26  27
ATOM     27  C   UNL A   1      37.296  29.309  28.650  1.00  0.00     0.338 C 
ATOM     28  O   UNL A   1      36.889  29.088  29.833  1.00  0.00    -0.246 OA
BRANCH  27  29
ATOM     29  C   UNL A   1      38.774  29.187  28.319  1.00  0.00     0.060 A 
ATOM     30  C   UNL A   1      39.214  29.363  27.018  1.00  0.00     0.016 A 
ATOM     31  C   UNL A   1      39.623  28.913  29.303  1.00  0.00     0.016 A 
ATOM     32  C   UNL A   1      40.547  28.943  26.801  1.00  0.00     0.010 A 
ATOM     33  C   UNL A   1      40.944  28.645  29.032  1.00  0.00     0.010 A 
ATOM     34  C   UNL A   1      41.435  28.743  27.759  1.00  0.00    -0.014 A 
BRANCH  34  35
ATOM     35  C   UNL A   1      42.921  28.626  27.463  1.00  0.00     0.031 A 
ATOM     36  C   UNL A   1      43.375  27.378  27.034  1.00  0.00     0.074 A 
ATOM     37  C   UNL A   1      43.739  29.728  27.642  1.00  0.00     0.049 A 
ATOM     38  N   UNL A   1      44.619  27.037  26.697  1.00  0.00    -0.248 NA
ATOM     39  C   UNL A   1      42.513  26.197  26.876  1.00  0.00     0.031 C 
ATOM     40  C   UNL A   1      43.288  30.993  28.067  1.00  0.00     0.029 A 
ATOM     41  N   UNL A   1      45.101  29.809  27.450  1.00  0.00    -0.354 N 
ATOM     42  C   UNL A   1      44.661  25.757  26.319  1.00  0.00     0.074 A 
ATOM     43  C   UNL A   1      43.308  25.197  26.435  1.00  0.00     0.031 C 
ATOM     44  C   UNL A   1      44.363  31.821  28.142  1.00  0.00     0.029 A 
ATOM     45  C   UNL A   1      45.504  31.088  27.765  1.00  0.00     0.049 A 
ATOM     46  H   UNL A   1      45.685  29.079  27.143  1.00  0.00     0.167 HD
ATOM     47  C   UNL A   1      45.773  25.037  25.880  1.00  0.00     0.031 A 
ATOM     48  C   UNL A   1      46.790  31.606  27.732  1.00  0.00     0.031 A 
ATOM     49  C   UNL A   1      47.051  25.567  25.807  1.00  0.00     0.049 A 
ATOM     50  C   UNL A   1      47.912  30.868  27.349  1.00  0.00     0.074 A 
ATOM     51  C   UNL A   1      48.183  24.857  25.359  1.00  0.00     0.029 A 
ATOM     52  N   UNL A   1      47.458  26.839  26.143  1.00  0.00    -0.354 N 
ATOM     53  N   UNL A   1      47.947  29.601  26.933  1.00  0.00    -0.248 NA
ATOM     54  C   UNL A   1      49.283  31.396  27.341  1.00  0.00     0.031 C 
ATOM     55  C   UNL A   1      49.258  25.685  25.435  1.00  0.00     0.029 A 
ATOM     56  C   UNL A   1      48.817  26.927  25.930  1.00  0.00     0.049 A 
ATOM     57  H   UNL A   1      46.878  27.561  26.479  1.00  0.00     0.167 HD
ATOM     58  C   UNL A   1      49.199  29.248  26.637  1.00  0.00     0.074 A 
ATOM     59  C   UNL A   1      50.077  30.395  26.902  1.00  0.00     0.031 C 
ATOM     60  C   UNL A   1      49.644  28.017  26.151  1.00  0.00     0.031 A 
BRANCH  47  61
ATOM     61  C   UNL A   1      45.571  23.590  25.460  1.00  0.00    -0.014 A 
ATOM     62  C   UNL A   1      45.373  23.292  24.122  1.00  0.00     0.010 A 
ATOM     63  C   UNL A   1      45.569  22.638  26.386  1.00  0.00     0.010 A 
ATOM     64  C   UNL A   1      44.893  21.981  23.893  1.00  0.00     0.020 A 
ATOM     65  C   UNL A   1      45.221  21.350  26.063  1.00  0.00     0.020 A 
ATOM     66  C   UNL A   1      44.955  20.996  24.769  1.00  0.00     0.054 A 
BRANCH  66  67
ATOM     67  S   UNL A   1      44.702  19.270  24.285  1.00  0.00     0.124 S 
ATOM     68  O   UNL A   1      44.532  19.187  22.766  1.00  0.00    -0.237 OA
ATOM     69  O   UNL A   1      45.916  18.438  24.708  1.00  0.00    -0.237 OA
ATOM     70  O   UNL A   1      43.299  18.662  25.051  1.00  0.00    -0.744 OA
ENDBRANCH  66  67
ENDBRANCH  47  61
BRANCH  48  71
ATOM     71  C   UNL A   1      46.989  33.058  28.135  1.00  0.00    -0.014 A 
ATOM     72  C   UNL A   1      47.249  33.367  29.460  1.00  0.00     0.010 A 
ATOM     73  C   UNL A   1      46.927  34.005  27.206  1.00  0.00     0.010 A 
ATOM     74  C   UNL A   1      47.144  34.745  29.759  1.00  0.00     0.020 A 
ATOM     75  C   UNL A   1      46.967  35.333  27.557  1.00  0.00     0.020 A 
ATOM     76  C   UNL A   1      47.162  35.710  28.857  1.00  0.00     0.054 A 
BRANCH  76  77
ATOM     77  S   UNL A   1      47.431  37.440  29.318  1.00  0.00     0.124 S 
ATOM     78  O   UNL A   1      48.176  38.159  28.190  1.00  0.00    -0.237 OA
ATOM     79  O   UNL A   1      46.081  38.122  29.553  1.00  0.00    -0.237 OA
ATOM     80  O   UNL A   1      48.362  37.510  30.751  1.00  0.00    -0.744 OA
ENDBRANCH  76  77
ENDBRANCH  48  71
BRANCH  60  81
ATOM     81  C   UNL A   1      51.124  27.863  25.847  1.00  0.00    -0.014 A 
ATOM     82  C   UNL A   1      51.586  28.084  24.560  1.00  0.00     0.010 A 
ATOM     83  C   UNL A   1      51.952  27.517  26.826  1.00  0.00     0.010 A 
ATOM     84  C   UNL A   1      52.908  27.631  24.339  1.00  0.00     0.020 A 
ATOM     85  C   UNL A   1      53.267  27.218  26.558  1.00  0.00     0.020 A 
ATOM     86  C   UNL A   1      53.777  27.358  25.296  1.00  0.00     0.054 A 
BRANCH  86  87
ATOM     87  S   UNL A   1      55.545  27.179  24.957  1.00  0.00     0.124 S 
ATOM     88  O   UNL A   1      55.924  28.042  23.752  1.00  0.00    -0.237 OA
ATOM     89  O   UNL A   1      56.348  27.630  26.179  1.00  0.00    -0.237 OA
ATOM     90  O   UNL A   1      55.897  25.540  24.618  1.00  0.00    -0.744 OA
ENDBRANCH  86  87
ENDBRANCH  60  81
ENDBRANCH  34  35
ENDBRANCH  27  29
ENDBRANCH  26  27
ENDBRANCH   1  26
TORSDOF 16
ENDMDL
MODEL 3
REMARK VINA RESULT:     -11.7      7.625     12.119
REMARK SMILES O=C(OCCOC(=O)c1ccc(-c2c3nc(c(-c4ccc(S(=O)(=O)[O-])cc4)c4ccc([nH]4)c(-c4ccc(S(=O)(=O)[O-])cc4)c4nc(c(-c5ccc(S(=O)(=O)[O-])cc5)c5ccc2[nH]5)C=C4)C=C3)cc1)C1=Cc2cc(S(F)(F)(F)(F)F)ccc2O[C@@H]1C(F)(F)F
REMARK SMILES IDX 5 1 4 2 3 3 2 4 1 5 69 6 70 7 84 8 71 9 83 10 72 11 82 12
REMARK SMILES IDX 73 13 81 14 80 15 85 16 86 17 87 18 88 19 74 20 75 21 76 22
REMARK SMILES IDX 77 23 78 24 79 25 6 26 7 27 8 28 9 29 10 30 68 31 11 32
REMARK SMILES IDX 67 33 12 34 13 35 14 36 61 37 15 38 66 39 60 40 62 41 16 42
REMARK SMILES IDX 65 43 59 44 58 45 17 47 47 48 28 49 46 50 29 51 32 52 45 53
REMARK SMILES IDX 63 54 30 55 31 56 44 58 64 59 33 60 18 61 19 62 27 63 20 64
REMARK SMILES IDX 26 65 21 66 22 67 23 68 24 69 25 70 48 71 49 72 57 73 50 74
REMARK SMILES IDX 56 75 51 76 52 77 53 78 54 79 55 80 34 81 35 82 43 83 36 84
REMARK SMILES IDX 42 85 37 86 38 87 39 88 40 89 41 90
REMARK H PARENT 62 46 32 57
REMARK Flexibility Score: inf
ROOT
ATOM      1  C   UNL A   1      34.678  29.821  27.680  1.00  0.00     0.275 C 
ENDROOT
BRANCH   1   2
ATOM      2  C   UNL A   1      34.346  28.753  26.651  1.00  0.00     0.275 C 
BRANCH   2   3
ATOM      3  O   UNL A   1      33.378  27.863  27.187  1.00  0.00    -0.459 OA
BRANCH   3   4
ATOM      4  C   UNL A   1      32.102  27.749  26.577  1.00  0.00     0.338 C 
ATOM      5  O   UNL A   1      31.056  27.686  27.296  1.00  0.00    -0.246 OA
BRANCH   4   6
ATOM      6  C   UNL A   1      31.986  27.704  25.061  1.00  0.00     0.087 C 
ATOM      7  C   UNL A   1      32.507  26.655  24.371  1.00  0.00     0.027 C 
ATOM      8  C   UNL A   1      31.285  28.830  24.319  1.00  0.00     0.316 C 
ATOM      9  C   UNL A   1      33.207  25.528  25.113  1.00  0.00     0.019 A 
ATOM     10  O   UNL A   1      31.496  25.663  26.757  1.00  0.00    -0.475 OA
ATOM     11  C   UNL A   1      34.411  25.036  24.639  1.00  0.00     0.036 A 
ATOM     12  C   UNL A   1      32.644  25.032  26.208  1.00  0.00     0.128 A 
ATOM     13  C   UNL A   1      34.805  23.813  25.231  1.00  0.00     0.107 A 
ATOM     14  C   UNL A   1      33.161  23.913  26.814  1.00  0.00     0.048 A 
ATOM     15  C   UNL A   1      34.317  23.338  26.363  1.00  0.00     0.028 A 
BRANCH   8  16
ATOM     16  C   UNL A   1      30.099  28.271  23.550  1.00  0.00     0.430 C 
ATOM     17  F   UNL A   1      29.610  27.217  24.196  1.00  0.00    -0.167 F 
ATOM     18  F   UNL A   1      29.158  29.204  23.447  1.00  0.00    -0.167 F 
ATOM     19  F   UNL A   1      30.494  27.902  22.334  1.00  0.00    -0.167 F 
ENDBRANCH   8  16
BRANCH  13  20
ATOM     20  S   UNL A   1      36.065  22.831  24.380  1.00  0.00     0.310 S 
ATOM     21  F   UNL A   1      35.958  23.712  23.065  1.00  0.00    -0.094 F 
ATOM     22  F   UNL A   1      34.918  21.929  23.786  1.00  0.00    -0.094 F 
ATOM     23  F   UNL A   1      37.147  21.984  23.651  1.00  0.00    -0.094 F 
ATOM     24  F   UNL A   1      37.188  23.829  24.869  1.00  0.00    -0.094 F 
ATOM     25  F   UNL A   1      34.970  23.765  25.033  1.00  0.00    -0.094 F 
ENDBRANCH  13  20
ENDBRANCH   4   6
ENDBRANCH   3   4
ENDBRANCH   2   3
ENDBRANCH   1   2
BRANCH   1  26
ATOM     26  O   UNL A   1      36.066  30.114  27.627  1.00  0.00    -0.458 OA
BRANCH  26  27
ATOM     27  C   UNL A   1      36.939  29.604  28.624  1.00  0.00     0.338 C 
ATOM     28  O   UNL A   1      36.484  29.297  29.770  1.00  0.00    -0.246 OA
BRANCH  27  29
ATOM     29  C   UNL A   1      38.418  29.426  28.320  1.00  0.00     0.060 A 
ATOM     30  C   UNL A   1      38.868  29.448  27.010  1.00  0.00     0.016 A 
ATOM     31  C   UNL A   1      39.257  29.253  29.335  1.00  0.00     0.016 A 
ATOM     32  C   UNL A   1      40.197  28.988  26.853  1.00  0.00     0.010 A 
ATOM     33  C   UNL A   1      40.576  28.940  29.106  1.00  0.00     0.010 A 
ATOM     34  C   UNL A   1      41.075  28.886  27.834  1.00  0.00    -0.014 A 
BRANCH  34  35
ATOM     35  C   UNL A   1      42.562  28.718  27.564  1.00  0.00     0.031 A 
ATOM     36  C   UNL A   1      43.364  29.841  27.777  1.00  0.00     0.074 A 
ATOM     37  C   UNL A   1      43.039  27.499  27.117  1.00  0.00     0.049 A 
ATOM     38  N   UNL A   1      44.686  29.935  27.629  1.00  0.00    -0.248 NA
ATOM     39  C   UNL A   1      42.854  31.147  28.219  1.00  0.00     0.031 C 
ATOM     40  C   UNL A   1      42.237  26.359  26.909  1.00  0.00     0.029 A 
ATOM     41  N   UNL A   1      44.337  27.165  26.799  1.00  0.00    -0.354 N 
ATOM     42  C   UNL A   1      45.099  31.164  27.945  1.00  0.00     0.074 A 
ATOM     43  C   UNL A   1      43.926  31.963  28.322  1.00  0.00     0.031 C 
ATOM     44  C   UNL A   1      43.038  25.357  26.459  1.00  0.00     0.029 A 
ATOM     45  C   UNL A   1      44.353  25.852  26.380  1.00  0.00     0.049 A 
ATOM     46  H   UNL A   1      45.118  27.761  26.859  1.00  0.00     0.167 HD
ATOM     47  C   UNL A   1      46.408  31.650  27.934  1.00  0.00     0.031 A 
ATOM     48  C   UNL A   1      45.443  25.112  25.950  1.00  0.00     0.031 A 
ATOM     49  C   UNL A   1      47.503  30.895  27.545  1.00  0.00     0.049 A 
ATOM     50  C   UNL A   1      46.744  25.615  25.884  1.00  0.00     0.074 A 
ATOM     51  C   UNL A   1      48.831  31.367  27.535  1.00  0.00     0.029 A 
ATOM     52  N   UNL A   1      47.517  29.591  27.104  1.00  0.00    -0.354 N 
ATOM     53  N   UNL A   1      47.162  26.831  26.237  1.00  0.00    -0.248 NA
ATOM     54  C   UNL A   1      47.901  24.850  25.399  1.00  0.00     0.031 C 
ATOM     55  C   UNL A   1      49.631  30.364  27.086  1.00  0.00     0.029 A 
ATOM     56  C   UNL A   1      48.818  29.249  26.807  1.00  0.00     0.049 A 
ATOM     57  H   UNL A   1      46.731  29.004  27.016  1.00  0.00     0.167 HD
ATOM     58  C   UNL A   1      48.479  26.938  26.049  1.00  0.00     0.074 A 
ATOM     59  C   UNL A   1      48.972  25.667  25.500  1.00  0.00     0.031 C 
ATOM     60  C   UNL A   1      49.290  28.042  26.317  1.00  0.00     0.031 A 
BRANCH  47  61
ATOM     61  C   UNL A   1      46.645  33.085  28.375  1.00  0.00    -0.014 A 
ATOM     62  C   UNL A   1      46.890  33.354  29.711  1.00  0.00     0.010 A 
ATOM     63  C   UNL A   1      46.594  34.058  27.473  1.00  0.00     0.010 A 
ATOM     64  C   UNL A   1      46.785  34.725  30.048  1.00  0.00     0.020 A 
ATOM     65  C   UNL A   1      46.633  35.375  27.864  1.00  0.00     0.020 A 
ATOM     66  C   UNL A   1      46.815  35.715  29.176  1.00  0.00     0.054 A 
BRANCH  66  67
ATOM     67  S   UNL A   1      47.082  37.430  29.689  1.00  0.00     0.124 S 
ATOM     68  O   UNL A   1      48.549  37.806  29.466  1.00  0.00    -0.237 OA
ATOM     69  O   UNL A   1      46.187  38.356  28.862  1.00  0.00    -0.237 OA
ATOM     70  O   UNL A   1      46.696  37.596  31.347  1.00  0.00    -0.744 OA
ENDBRANCH  66  67
ENDBRANCH  47  61
BRANCH  48  71
ATOM     71  C   UNL A   1      45.208  23.671  25.526  1.00  0.00    -0.014 A 
ATOM     72  C   UNL A   1      45.341  22.656  26.459  1.00  0.00     0.010 A 
ATOM     73  C   UNL A   1      44.862  23.412  24.270  1.00  0.00     0.010 A 
ATOM     74  C   UNL A   1      45.369  21.359  25.895  1.00  0.00     0.020 A 
ATOM     75  C   UNL A   1      44.775  22.116  23.822  1.00  0.00     0.020 A 
ATOM     76  C   UNL A   1      44.953  21.063  24.676  1.00  0.00     0.054 A 
BRANCH  76  77
ATOM     77  S   UNL A   1      44.637  19.356  24.165  1.00  0.00     0.124 S 
ATOM     78  O   UNL A   1      45.750  18.449  24.697  1.00  0.00    -0.237 OA
ATOM     79  O   UNL A   1      43.290  18.895  24.729  1.00  0.00    -0.237 OA
ATOM     80  O   UNL A   1      44.599  19.270  22.457  1.00  0.00    -0.744 OA
ENDBRANCH  76  77
ENDBRANCH  48  71
BRANCH  60  81
ATOM     81  C   UNL A   1      50.781  27.912  26.057  1.00  0.00    -0.014 A 
ATOM     82  C   UNL A   1      51.617  27.464  27.067  1.00  0.00     0.010 A 
ATOM     83  C   UNL A   1      51.258  28.231  24.859  1.00  0.00     0.010 A 
ATOM     84  C   UNL A   1      52.993  27.663  26.803  1.00  0.00     0.020 A 
ATOM     85  C   UNL A   1      52.613  28.274  24.634  1.00  0.00     0.020 A 
ATOM     86  C   UNL A   1      53.500  27.902  25.606  1.00  0.00     0.054 A 
BRANCH  86  87
ATOM     87  S   UNL A   1      55.271  27.744  25.272  1.00  0.00     0.124 S 
ATOM     88  O   UNL A   1      55.717  28.872  24.339  1.00  0.00    -0.237 OA
ATOM     89  O   UNL A   1      56.049  27.834  26.587  1.00  0.00    -0.237 OA
ATOM     90  O   UNL A   1      55.579  26.234  24.530  1.00  0.00    -0.744 OA
ENDBRANCH  86  87
ENDBRANCH  60  81
ENDBRANCH  34  35
ENDBRANCH  27  29
ENDBRANCH  26  27
ENDBRANCH   1  26
TORSDOF 16
ENDMDL
