MODEL 1
REMARK VINA RESULT:     -10.3      0.000      0.000
REMARK SMILES Cc1cccc2sc(NC(=O)/C=C/C(=O)OCCOC(=O)c3ccc(-c4c5nc(c(-c6ccc(S(=O)(=O)[O-])cc6)c6ccc([nH]6)c(-c6ccc(S(=O)(=O)[O-])cc6)c6nc(c(-c7ccc(S(=O)(=O)[O-])cc7)c7ccc4[nH]7)C=C6)C=C5)cc3)nc12
REMARK SMILES IDX 18 1 17 2 16 3 14 4 15 5 13 6 12 7 10 8 9 9 11 11 8 12 1 13
REMARK SMILES IDX 2 14 3 15 83 16 4 17 6 18 82 19 5 20 7 21 19 22 20 23 21 24
REMARK SMILES IDX 22 25 23 26 81 27 24 28 80 29 25 30 26 31 27 32 74 33 28 34
REMARK SMILES IDX 79 35 73 36 75 37 29 38 78 39 72 40 71 41 30 43 60 44 41 45
REMARK SMILES IDX 59 46 42 47 45 48 58 49 76 50 43 51 44 52 57 54 77 55 46 56
REMARK SMILES IDX 31 57 32 58 40 59 33 60 39 61 34 62 35 63 36 64 37 65 38 66
REMARK SMILES IDX 61 67 62 68 70 69 63 70 69 71 64 72 65 73 66 74 67 75 68 76
REMARK SMILES IDX 47 77 48 78 56 79 49 80 55 81 50 82 51 83 52 84 53 85 54 86
REMARK H PARENT 9 10 75 42 45 53
REMARK Flexibility Score: inf
ROOT
ATOM      1  C   UNL A   1      40.482  21.703  26.194  1.00  0.00     0.275 C 
ENDROOT
BRANCH   1   2
ATOM      2  C   UNL A   1      40.778  20.213  26.393  1.00  0.00     0.275 C 
BRANCH   2   3
ATOM      3  O   UNL A   1      42.031  19.982  27.080  1.00  0.00    -0.459 OA
BRANCH   3   4
ATOM      4  C   UNL A   1      42.685  18.850  26.702  1.00  0.00     0.331 C 
ATOM      5  O   UNL A   1      42.684  17.795  27.299  1.00  0.00    -0.247 OA
BRANCH   4   6
ATOM      6  C   UNL A   1      43.446  18.992  25.435  1.00  0.00     0.099 C 
ATOM      7  C   UNL A   1      44.783  19.042  25.328  1.00  0.00     0.079 C 
BRANCH   7   8
ATOM      8  C   UNL A   1      45.412  19.545  24.074  1.00  0.00     0.250 C 
ATOM      9  N   UNL A   1      45.759  20.863  23.896  1.00  0.00    -0.298 N 
ATOM     10  H   UNL A   1      46.296  21.028  23.087  1.00  0.00     0.172 HD
ATOM     11  O   UNL A   1      45.672  18.722  23.195  1.00  0.00    -0.270 OA
BRANCH   9  12
ATOM     12  C   UNL A   1      45.496  21.999  24.633  1.00  0.00     0.190 A 
ATOM     13  C   UNL A   1      47.669  24.763  27.336  1.00  0.00     0.047 C 
ATOM     14  C   UNL A   1      46.442  24.944  26.491  1.00  0.00    -0.024 A 
ATOM     15  C   UNL A   1      45.830  26.221  26.465  1.00  0.00     0.006 A 
ATOM     16  C   UNL A   1      45.862  23.917  25.707  1.00  0.00     0.087 A 
ATOM     17  C   UNL A   1      44.665  26.467  25.747  1.00  0.00     0.002 A 
ATOM     18  C   UNL A   1      44.621  24.182  25.136  1.00  0.00     0.057 A 
ATOM     19  N   UNL A   1      46.370  22.638  25.385  1.00  0.00    -0.220 NA
ATOM     20  C   UNL A   1      44.008  25.434  25.106  1.00  0.00     0.021 A 
ATOM     21  S   UNL A   1      43.981  22.728  24.580  1.00  0.00    -0.097 S 
ENDBRANCH   9  12
ENDBRANCH   7   8
ENDBRANCH   4   6
ENDBRANCH   3   4
ENDBRANCH   2   3
ENDBRANCH   1   2
BRANCH   1  22
ATOM     22  O   UNL A   1      39.135  22.026  26.599  1.00  0.00    -0.458 OA
BRANCH  22  23
ATOM     23  C   UNL A   1      38.637  23.177  26.091  1.00  0.00     0.338 C 
ATOM     24  O   UNL A   1      37.698  23.289  25.315  1.00  0.00    -0.246 OA
BRANCH  23  25
ATOM     25  C   UNL A   1      39.257  24.341  26.751  1.00  0.00     0.060 A 
ATOM     26  C   UNL A   1      38.916  24.530  28.085  1.00  0.00     0.016 A 
ATOM     27  C   UNL A   1      40.056  25.283  26.099  1.00  0.00     0.016 A 
ATOM     28  C   UNL A   1      39.410  25.618  28.798  1.00  0.00     0.010 A 
ATOM     29  C   UNL A   1      40.527  26.406  26.810  1.00  0.00     0.010 A 
ATOM     30  C   UNL A   1      40.215  26.572  28.171  1.00  0.00    -0.014 A 
BRANCH  30  31
ATOM     31  C   UNL A   1      40.626  27.751  28.978  1.00  0.00     0.031 A 
ATOM     32  C   UNL A   1      42.068  27.911  29.375  1.00  0.00     0.074 A 
ATOM     33  C   UNL A   1      39.764  28.765  29.193  1.00  0.00     0.049 A 
ATOM     34  N   UNL A   1      42.647  28.901  30.004  1.00  0.00    -0.248 NA
ATOM     35  C   UNL A   1      42.978  26.819  28.995  1.00  0.00     0.031 C 
ATOM     36  C   UNL A   1      38.376  28.798  28.738  1.00  0.00     0.029 A 
ATOM     37  N   UNL A   1      39.951  29.991  29.786  1.00  0.00    -0.354 N 
ATOM     38  C   UNL A   1      43.982  28.536  30.132  1.00  0.00     0.074 A 
ATOM     39  C   UNL A   1      44.134  27.254  29.478  1.00  0.00     0.031 C 
ATOM     40  C   UNL A   1      37.857  30.009  29.008  1.00  0.00     0.029 A 
ATOM     41  C   UNL A   1      38.856  30.822  29.702  1.00  0.00     0.049 A 
ATOM     42  H   UNL A   1      40.790  30.252  30.231  1.00  0.00     0.167 HD
ATOM     43  C   UNL A   1      44.981  29.189  30.774  1.00  0.00     0.031 A 
ATOM     44  C   UNL A   1      38.679  32.088  30.134  1.00  0.00     0.031 A 
ATOM     45  C   UNL A   1      44.826  30.447  31.453  1.00  0.00     0.049 A 
ATOM     46  C   UNL A   1      39.788  32.768  30.900  1.00  0.00     0.074 A 
ATOM     47  C   UNL A   1      45.755  31.131  32.222  1.00  0.00     0.029 A 
ATOM     48  N   UNL A   1      43.672  31.212  31.450  1.00  0.00    -0.354 N 
ATOM     49  N   UNL A   1      41.020  32.366  31.100  1.00  0.00    -0.248 NA
ATOM     50  C   UNL A   1      39.465  34.057  31.532  1.00  0.00     0.031 C 
ATOM     51  C   UNL A   1      45.141  32.282  32.728  1.00  0.00     0.029 A 
ATOM     52  C   UNL A   1      43.853  32.348  32.224  1.00  0.00     0.049 A 
ATOM     53  H   UNL A   1      42.844  30.983  30.969  1.00  0.00     0.167 HD
ATOM     54  C   UNL A   1      41.612  33.344  31.895  1.00  0.00     0.074 A 
ATOM     55  C   UNL A   1      40.621  34.379  32.097  1.00  0.00     0.031 C 
ATOM     56  C   UNL A   1      42.858  33.368  32.430  1.00  0.00     0.031 A 
BRANCH  43  57
ATOM     57  C   UNL A   1      46.300  28.478  30.883  1.00  0.00    -0.014 A 
ATOM     58  C   UNL A   1      46.610  27.641  31.968  1.00  0.00     0.010 A 
ATOM     59  C   UNL A   1      47.250  28.657  29.859  1.00  0.00     0.010 A 
ATOM     60  C   UNL A   1      47.863  27.025  32.045  1.00  0.00     0.020 A 
ATOM     61  C   UNL A   1      48.493  28.026  29.921  1.00  0.00     0.020 A 
ATOM     62  C   UNL A   1      48.800  27.229  31.026  1.00  0.00     0.054 A 
BRANCH  62  63
ATOM     63  S   UNL A   1      50.422  26.426  31.148  1.00  0.00     0.124 S 
ATOM     64  O   UNL A   1      50.116  25.065  30.713  1.00  0.00    -0.237 OA
ATOM     65  O   UNL A   1      51.240  27.212  30.228  1.00  0.00    -0.237 OA
ATOM     66  O   UNL A   1      50.771  26.564  32.561  1.00  0.00    -0.744 OA
ENDBRANCH  62  63
ENDBRANCH  43  57
BRANCH  44  67
ATOM     67  C   UNL A   1      37.385  32.798  29.906  1.00  0.00    -0.014 A 
ATOM     68  C   UNL A   1      36.356  32.738  30.864  1.00  0.00     0.010 A 
ATOM     69  C   UNL A   1      37.160  33.506  28.711  1.00  0.00     0.010 A 
ATOM     70  C   UNL A   1      35.124  33.359  30.624  1.00  0.00     0.020 A 
ATOM     71  C   UNL A   1      35.944  34.156  28.483  1.00  0.00     0.020 A 
ATOM     72  C   UNL A   1      34.927  34.064  29.433  1.00  0.00     0.054 A 
BRANCH  72  73
ATOM     73  S   UNL A   1      33.342  34.902  29.152  1.00  0.00     0.124 S 
ATOM     74  O   UNL A   1      32.705  34.023  28.176  1.00  0.00    -0.237 OA
ATOM     75  O   UNL A   1      32.743  34.910  30.483  1.00  0.00    -0.237 OA
ATOM     76  O   UNL A   1      33.740  36.216  28.649  1.00  0.00    -0.744 OA
ENDBRANCH  72  73
ENDBRANCH  44  67
BRANCH  56  77
ATOM     77  C   UNL A   1      43.224  34.542  33.302  1.00  0.00    -0.014 A 
ATOM     78  C   UNL A   1      43.048  34.489  34.697  1.00  0.00     0.010 A 
ATOM     79  C   UNL A   1      43.815  35.685  32.731  1.00  0.00     0.010 A 
ATOM     80  C   UNL A   1      43.433  35.565  35.501  1.00  0.00     0.020 A 
ATOM     81  C   UNL A   1      44.224  36.752  33.535  1.00  0.00     0.020 A 
ATOM     82  C   UNL A   1      44.019  36.691  34.915  1.00  0.00     0.054 A 
BRANCH  82  83
ATOM     83  S   UNL A   1      44.558  38.054  35.986  1.00  0.00     0.124 S 
ATOM     84  O   UNL A   1      44.105  39.224  35.240  1.00  0.00    -0.237 OA
ATOM     85  O   UNL A   1      43.841  37.787  37.231  1.00  0.00    -0.237 OA
ATOM     86  O   UNL A   1      46.007  37.884  36.060  1.00  0.00    -0.744 OA
ENDBRANCH  82  83
ENDBRANCH  56  77
ENDBRANCH  30  31
ENDBRANCH  23  25
ENDBRANCH  22  23
ENDBRANCH   1  22
TORSDOF 16
ENDMDL
MODEL 2
REMARK VINA RESULT:     -10.2      3.821     12.280
REMARK SMILES Cc1cccc2sc(NC(=O)/C=C/C(=O)OCCOC(=O)c3ccc(-c4c5nc(c(-c6ccc(S(=O)(=O)[O-])cc6)c6ccc([nH]6)c(-c6ccc(S(=O)(=O)[O-])cc6)c6nc(c(-c7ccc(S(=O)(=O)[O-])cc7)c7ccc4[nH]7)C=C6)C=C5)cc3)nc12
REMARK SMILES IDX 18 1 17 2 16 3 14 4 15 5 13 6 12 7 10 8 9 9 11 11 8 12 1 13
REMARK SMILES IDX 2 14 3 15 83 16 4 17 6 18 82 19 5 20 7 21 19 22 20 23 21 24
REMARK SMILES IDX 22 25 23 26 81 27 24 28 80 29 25 30 26 31 27 32 74 33 28 34
REMARK SMILES IDX 79 35 73 36 75 37 29 38 78 39 72 40 71 41 30 43 60 44 41 45
REMARK SMILES IDX 59 46 42 47 45 48 58 49 76 50 43 51 44 52 57 54 77 55 46 56
REMARK SMILES IDX 31 57 32 58 40 59 33 60 39 61 34 62 35 63 36 64 37 65 38 66
REMARK SMILES IDX 61 67 62 68 70 69 63 70 69 71 64 72 65 73 66 74 67 75 68 76
REMARK SMILES IDX 47 77 48 78 56 79 49 80 55 81 50 82 51 83 52 84 53 85 54 86
REMARK H PARENT 9 10 75 42 45 53
REMARK Flexibility Score: inf
ROOT
ATOM      1  C   UNL A   1      35.363  31.673  29.198  1.00  0.00     0.275 C 
ENDROOT
BRANCH   1   2
ATOM      2  C   UNL A   1      34.560  32.037  27.946  1.00  0.00     0.275 C 
BRANCH   2   3
ATOM      3  O   UNL A   1      34.335  33.463  27.826  1.00  0.00    -0.459 OA
BRANCH   3   4
ATOM      4  C   UNL A   1      33.045  33.851  28.017  1.00  0.00     0.331 C 
ATOM      5  O   UNL A   1      32.103  33.566  27.309  1.00  0.00    -0.247 OA
BRANCH   4   6
ATOM      6  C   UNL A   1      32.847  34.699  29.221  1.00  0.00     0.099 C 
ATOM      7  C   UNL A   1      33.607  35.747  29.573  1.00  0.00     0.079 C 
BRANCH   7   8
ATOM      8  C   UNL A   1      33.540  36.283  30.962  1.00  0.00     0.250 C 
ATOM      9  N   UNL A   1      34.306  35.782  31.988  1.00  0.00    -0.298 N 
ATOM     10  H   UNL A   1      34.271  36.322  32.811  1.00  0.00     0.172 HD
ATOM     11  O   UNL A   1      32.802  37.248  31.166  1.00  0.00    -0.270 OA
BRANCH   9  12
ATOM     12  C   UNL A   1      35.112  34.668  32.084  1.00  0.00     0.190 A 
ATOM     13  C   UNL A   1      38.826  33.103  30.233  1.00  0.00     0.047 C 
ATOM     14  C   UNL A   1      38.173  32.830  31.555  1.00  0.00    -0.024 A 
ATOM     15  C   UNL A   1      38.824  31.952  32.455  1.00  0.00     0.006 A 
ATOM     16  C   UNL A   1      36.945  33.406  31.966  1.00  0.00     0.087 A 
ATOM     17  C   UNL A   1      38.269  31.605  33.682  1.00  0.00     0.002 A 
ATOM     18  C   UNL A   1      36.371  32.906  33.130  1.00  0.00     0.057 A 
ATOM     19  N   UNL A   1      36.203  34.453  31.375  1.00  0.00    -0.220 NA
ATOM     20  C   UNL A   1      37.002  32.040  34.022  1.00  0.00     0.021 A 
ATOM     21  S   UNL A   1      34.786  33.464  33.212  1.00  0.00    -0.097 S 
ENDBRANCH   9  12
ENDBRANCH   7   8
ENDBRANCH   4   6
ENDBRANCH   3   4
ENDBRANCH   2   3
ENDBRANCH   1   2
BRANCH   1  22
ATOM     22  O   UNL A   1      35.698  30.268  29.212  1.00  0.00    -0.458 OA
BRANCH  22  23
ATOM     23  C   UNL A   1      36.523  29.878  30.211  1.00  0.00     0.338 C 
ATOM     24  O   UNL A   1      36.219  29.688  31.380  1.00  0.00    -0.246 OA
BRANCH  23  25
ATOM     25  C   UNL A   1      37.846  29.512  29.672  1.00  0.00     0.060 A 
ATOM     26  C   UNL A   1      38.779  29.079  30.606  1.00  0.00     0.016 A 
ATOM     27  C   UNL A   1      38.224  29.670  28.336  1.00  0.00     0.016 A 
ATOM     28  C   UNL A   1      40.073  28.745  30.219  1.00  0.00     0.010 A 
ATOM     29  C   UNL A   1      39.545  29.366  27.947  1.00  0.00     0.010 A 
ATOM     30  C   UNL A   1      40.474  28.889  28.889  1.00  0.00    -0.014 A 
BRANCH  30  31
ATOM     31  C   UNL A   1      41.898  28.597  28.573  1.00  0.00     0.031 A 
ATOM     32  C   UNL A   1      42.278  27.236  28.057  1.00  0.00     0.074 A 
ATOM     33  C   UNL A   1      42.812  29.587  28.563  1.00  0.00     0.049 A 
ATOM     34  N   UNL A   1      43.443  26.803  27.648  1.00  0.00    -0.248 NA
ATOM     35  C   UNL A   1      41.199  26.239  27.977  1.00  0.00     0.031 C 
ATOM     36  C   UNL A   1      42.542  30.983  28.905  1.00  0.00     0.029 A 
ATOM     37  N   UNL A   1      44.134  29.585  28.185  1.00  0.00    -0.354 N 
ATOM     38  C   UNL A   1      43.248  25.473  27.297  1.00  0.00     0.074 A 
ATOM     39  C   UNL A   1      41.845  25.183  27.503  1.00  0.00     0.031 C 
ATOM     40  C   UNL A   1      43.644  31.713  28.657  1.00  0.00     0.029 A 
ATOM     41  C   UNL A   1      44.715  30.833  28.188  1.00  0.00     0.049 A 
ATOM     42  H   UNL A   1      44.621  28.766  27.935  1.00  0.00     0.167 HD
ATOM     43  C   UNL A   1      44.163  24.563  26.883  1.00  0.00     0.031 A 
ATOM     44  C   UNL A   1      45.963  31.223  27.854  1.00  0.00     0.031 A 
ATOM     45  C   UNL A   1      45.564  24.838  26.709  1.00  0.00     0.049 A 
ATOM     46  C   UNL A   1      46.978  30.179  27.456  1.00  0.00     0.074 A 
ATOM     47  C   UNL A   1      46.583  23.953  26.398  1.00  0.00     0.029 A 
ATOM     48  N   UNL A   1      46.147  26.089  26.832  1.00  0.00    -0.354 N 
ATOM     49  N   UNL A   1      46.802  28.901  27.224  1.00  0.00    -0.248 NA
ATOM     50  C   UNL A   1      48.373  30.628  27.314  1.00  0.00     0.031 C 
ATOM     51  C   UNL A   1      47.790  24.662  26.387  1.00  0.00     0.029 A 
ATOM     52  C   UNL A   1      47.514  25.997  26.629  1.00  0.00     0.049 A 
ATOM     53  H   UNL A   1      45.661  26.921  27.035  1.00  0.00     0.167 HD
ATOM     54  C   UNL A   1      48.063  28.392  26.926  1.00  0.00     0.074 A 
ATOM     55  C   UNL A   1      48.985  29.507  26.957  1.00  0.00     0.031 C 
ATOM     56  C   UNL A   1      48.427  27.110  26.674  1.00  0.00     0.031 A 
BRANCH  43  57
ATOM     57  C   UNL A   1      43.690  23.146  26.721  1.00  0.00    -0.014 A 
ATOM     58  C   UNL A   1      43.009  22.465  27.745  1.00  0.00     0.010 A 
ATOM     59  C   UNL A   1      43.936  22.487  25.501  1.00  0.00     0.010 A 
ATOM     60  C   UNL A   1      42.617  21.135  27.563  1.00  0.00     0.020 A 
ATOM     61  C   UNL A   1      43.525  21.168  25.308  1.00  0.00     0.020 A 
ATOM     62  C   UNL A   1      42.885  20.492  26.349  1.00  0.00     0.054 A 
BRANCH  62  63
ATOM     63  S   UNL A   1      42.373  18.765  26.135  1.00  0.00     0.124 S 
ATOM     64  O   UNL A   1      43.301  18.302  25.106  1.00  0.00    -0.237 OA
ATOM     65  O   UNL A   1      42.579  18.202  27.467  1.00  0.00    -0.237 OA
ATOM     66  O   UNL A   1      40.978  18.867  25.714  1.00  0.00    -0.744 OA
ENDBRANCH  62  63
ENDBRANCH  43  57
BRANCH  44  67
ATOM     67  C   UNL A   1      46.359  32.660  27.923  1.00  0.00    -0.014 A 
ATOM     68  C   UNL A   1      46.248  33.491  26.792  1.00  0.00     0.010 A 
ATOM     69  C   UNL A   1      46.888  33.199  29.110  1.00  0.00     0.010 A 
ATOM     70  C   UNL A   1      46.671  34.824  26.844  1.00  0.00     0.020 A 
ATOM     71  C   UNL A   1      47.279  34.538  29.176  1.00  0.00     0.020 A 
ATOM     72  C   UNL A   1      47.184  35.339  28.038  1.00  0.00     0.054 A 
BRANCH  72  73
ATOM     73  S   UNL A   1      47.689  37.081  28.106  1.00  0.00     0.124 S 
ATOM     74  O   UNL A   1      48.980  36.996  28.781  1.00  0.00    -0.237 OA
ATOM     75  O   UNL A   1      47.734  37.457  26.696  1.00  0.00    -0.237 OA
ATOM     76  O   UNL A   1      46.618  37.712  28.876  1.00  0.00    -0.744 OA
ENDBRANCH  72  73
ENDBRANCH  44  67
BRANCH  56  77
ATOM     77  C   UNL A   1      49.888  26.832  26.427  1.00  0.00    -0.014 A 
ATOM     78  C   UNL A   1      50.755  26.521  27.491  1.00  0.00     0.010 A 
ATOM     79  C   UNL A   1      50.387  26.812  25.111  1.00  0.00     0.010 A 
ATOM     80  C   UNL A   1      52.098  26.219  27.246  1.00  0.00     0.020 A 
ATOM     81  C   UNL A   1      51.724  26.487  24.861  1.00  0.00     0.020 A 
ATOM     82  C   UNL A   1      52.574  26.205  25.932  1.00  0.00     0.054 A 
BRANCH  82  83
ATOM     83  S   UNL A   1      54.308  25.760  25.636  1.00  0.00     0.124 S 
ATOM     84  O   UNL A   1      54.435  25.972  24.197  1.00  0.00    -0.237 OA
ATOM     85  O   UNL A   1      55.033  26.711  26.477  1.00  0.00    -0.237 OA
ATOM     86  O   UNL A   1      54.388  24.367  26.070  1.00  0.00    -0.744 OA
ENDBRANCH  82  83
ENDBRANCH  56  77
ENDBRANCH  30  31
ENDBRANCH  23  25
ENDBRANCH  22  23
ENDBRANCH   1  22
TORSDOF 16
ENDMDL
MODEL 3
REMARK VINA RESULT:     -10.0      3.713     10.647
REMARK SMILES Cc1cccc2sc(NC(=O)/C=C/C(=O)OCCOC(=O)c3ccc(-c4c5nc(c(-c6ccc(S(=O)(=O)[O-])cc6)c6ccc([nH]6)c(-c6ccc(S(=O)(=O)[O-])cc6)c6nc(c(-c7ccc(S(=O)(=O)[O-])cc7)c7ccc4[nH]7)C=C6)C=C5)cc3)nc12
REMARK SMILES IDX 18 1 17 2 16 3 14 4 15 5 13 6 12 7 10 8 9 9 11 11 8 12 1 13
REMARK SMILES IDX 2 14 3 15 83 16 4 17 6 18 82 19 5 20 7 21 19 22 20 23 21 24
REMARK SMILES IDX 22 25 23 26 81 27 24 28 80 29 25 30 26 31 27 32 74 33 28 34
REMARK SMILES IDX 79 35 73 36 75 37 29 38 78 39 72 40 71 41 30 43 60 44 41 45
REMARK SMILES IDX 59 46 42 47 45 48 58 49 76 50 43 51 44 52 57 54 77 55 46 56
REMARK SMILES IDX 31 57 32 58 40 59 33 60 39 61 34 62 35 63 36 64 37 65 38 66
REMARK SMILES IDX 61 67 62 68 70 69 63 70 69 71 64 72 65 73 66 74 67 75 68 76
REMARK SMILES IDX 47 77 48 78 56 79 49 80 55 81 50 82 51 83 52 84 53 85 54 86
REMARK H PARENT 9 10 75 42 45 53
REMARK Flexibility Score: inf
ROOT
ATOM      1  C   UNL A   1      33.847  28.412  26.242  1.00  0.00     0.275 C 
ENDROOT
BRANCH   1   2
ATOM      2  C   UNL A   1      32.706  28.925  25.358  1.00  0.00     0.275 C 
BRANCH   2   3
ATOM      3  O   UNL A   1      31.410  28.442  25.788  1.00  0.00    -0.459 OA
BRANCH   3   4
ATOM      4  C   UNL A   1      31.031  27.261  25.231  1.00  0.00     0.331 C 
ATOM      5  O   UNL A   1      30.589  27.112  24.111  1.00  0.00    -0.247 OA
BRANCH   4   6
ATOM      6  C   UNL A   1      31.201  26.091  26.130  1.00  0.00     0.099 C 
ATOM      7  C   UNL A   1      31.601  24.867  25.753  1.00  0.00     0.079 C 
BRANCH   7   8
ATOM      8  C   UNL A   1      31.386  23.702  26.657  1.00  0.00     0.250 C 
ATOM      9  N   UNL A   1      32.323  22.711  26.826  1.00  0.00    -0.298 N 
ATOM     10  H   UNL A   1      32.115  22.086  27.558  1.00  0.00     0.172 HD
ATOM     11  O   UNL A   1      30.341  23.672  27.310  1.00  0.00    -0.270 OA
BRANCH   9  12
ATOM     12  C   UNL A   1      33.500  22.426  26.166  1.00  0.00     0.190 A 
ATOM     13  C   UNL A   1      37.646  23.989  25.970  1.00  0.00     0.047 C 
ATOM     14  C   UNL A   1      37.068  22.638  25.669  1.00  0.00    -0.024 A 
ATOM     15  C   UNL A   1      37.954  21.601  25.286  1.00  0.00     0.006 A 
ATOM     16  C   UNL A   1      35.688  22.330  25.755  1.00  0.00     0.087 A 
ATOM     17  C   UNL A   1      37.502  20.331  24.944  1.00  0.00     0.002 A 
ATOM     18  C   UNL A   1      35.284  21.095  25.258  1.00  0.00     0.057 A 
ATOM     19  N   UNL A   1      34.630  23.090  26.302  1.00  0.00    -0.220 NA
ATOM     20  C   UNL A   1      36.147  20.068  24.875  1.00  0.00     0.021 A 
ATOM     21  S   UNL A   1      33.606  21.106  25.129  1.00  0.00    -0.097 S 
ENDBRANCH   9  12
ENDBRANCH   7   8
ENDBRANCH   4   6
ENDBRANCH   3   4
ENDBRANCH   2   3
ENDBRANCH   1   2
BRANCH   1  22
ATOM     22  O   UNL A   1      33.810  29.025  27.549  1.00  0.00    -0.458 OA
BRANCH  22  23
ATOM     23  C   UNL A   1      34.515  30.173  27.671  1.00  0.00     0.338 C 
ATOM     24  O   UNL A   1      34.086  31.313  27.559  1.00  0.00    -0.246 OA
BRANCH  23  25
ATOM     25  C   UNL A   1      35.878  29.890  28.160  1.00  0.00     0.060 A 
ATOM     26  C   UNL A   1      36.896  30.027  27.223  1.00  0.00     0.016 A 
ATOM     27  C   UNL A   1      36.173  29.411  29.439  1.00  0.00     0.016 A 
ATOM     28  C   UNL A   1      38.216  29.748  27.560  1.00  0.00     0.010 A 
ATOM     29  C   UNL A   1      37.506  29.093  29.771  1.00  0.00     0.010 A 
ATOM     30  C   UNL A   1      38.538  29.273  28.833  1.00  0.00    -0.014 A 
BRANCH  30  31
ATOM     31  C   UNL A   1      39.959  28.912  29.085  1.00  0.00     0.031 A 
ATOM     32  C   UNL A   1      40.790  29.771  29.998  1.00  0.00     0.074 A 
ATOM     33  C   UNL A   1      40.448  27.730  28.660  1.00  0.00     0.049 A 
ATOM     34  N   UNL A   1      42.018  29.589  30.412  1.00  0.00    -0.248 NA
ATOM     35  C   UNL A   1      40.146  30.984  30.525  1.00  0.00     0.031 C 
ATOM     36  C   UNL A   1      39.701  26.741  27.886  1.00  0.00     0.029 A 
ATOM     37  N   UNL A   1      41.667  27.132  28.880  1.00  0.00    -0.354 N 
ATOM     38  C   UNL A   1      42.309  30.682  31.218  1.00  0.00     0.074 A 
ATOM     39  C   UNL A   1      41.116  31.501  31.268  1.00  0.00     0.031 C 
ATOM     40  C   UNL A   1      40.452  25.633  27.755  1.00  0.00     0.029 A 
ATOM     41  C   UNL A   1      41.753  25.849  28.388  1.00  0.00     0.049 A 
ATOM     42  H   UNL A   1      42.410  27.580  29.347  1.00  0.00     0.167 HD
ATOM     43  C   UNL A   1      43.477  31.000  31.826  1.00  0.00     0.031 A 
ATOM     44  C   UNL A   1      42.762  24.954  28.439  1.00  0.00     0.031 A 
ATOM     45  C   UNL A   1      44.675  30.207  31.752  1.00  0.00     0.049 A 
ATOM     46  C   UNL A   1      44.073  25.358  29.069  1.00  0.00     0.074 A 
ATOM     47  C   UNL A   1      45.936  30.503  32.246  1.00  0.00     0.029 A 
ATOM     48  N   UNL A   1      44.766  28.965  31.147  1.00  0.00    -0.354 N 
ATOM     49  N   UNL A   1      44.366  26.442  29.745  1.00  0.00    -0.248 NA
ATOM     50  C   UNL A   1      45.202  24.428  28.906  1.00  0.00     0.031 C 
ATOM     51  C   UNL A   1      46.800  29.462  31.889  1.00  0.00     0.029 A 
ATOM     52  C   UNL A   1      46.066  28.491  31.230  1.00  0.00     0.049 A 
ATOM     53  H   UNL A   1      44.018  28.488  30.719  1.00  0.00     0.167 HD
ATOM     54  C   UNL A   1      45.715  26.333  30.071  1.00  0.00     0.074 A 
ATOM     55  C   UNL A   1      46.168  25.055  29.564  1.00  0.00     0.031 C 
ATOM     56  C   UNL A   1      46.512  27.223  30.711  1.00  0.00     0.031 A 
BRANCH  43  57
ATOM     57  C   UNL A   1      43.548  32.334  32.514  1.00  0.00    -0.014 A 
ATOM     58  C   UNL A   1      43.801  33.524  31.811  1.00  0.00     0.010 A 
ATOM     59  C   UNL A   1      43.348  32.387  33.907  1.00  0.00     0.010 A 
ATOM     60  C   UNL A   1      43.891  34.740  32.496  1.00  0.00     0.020 A 
ATOM     61  C   UNL A   1      43.415  33.601  34.591  1.00  0.00     0.020 A 
ATOM     62  C   UNL A   1      43.706  34.769  33.884  1.00  0.00     0.054 A 
BRANCH  62  63
ATOM     63  S   UNL A   1      43.833  36.354  34.755  1.00  0.00     0.124 S 
ATOM     64  O   UNL A   1      43.844  35.929  36.153  1.00  0.00    -0.237 OA
ATOM     65  O   UNL A   1      45.092  36.897  34.253  1.00  0.00    -0.237 OA
ATOM     66  O   UNL A   1      42.634  37.078  34.335  1.00  0.00    -0.744 OA
ENDBRANCH  62  63
ENDBRANCH  43  57
BRANCH  44  67
ATOM     67  C   UNL A   1      42.609  23.596  27.838  1.00  0.00    -0.014 A 
ATOM     68  C   UNL A   1      41.879  22.594  28.505  1.00  0.00     0.010 A 
ATOM     69  C   UNL A   1      43.226  23.284  26.613  1.00  0.00     0.010 A 
ATOM     70  C   UNL A   1      41.784  21.306  27.966  1.00  0.00     0.020 A 
ATOM     71  C   UNL A   1      43.104  22.009  26.055  1.00  0.00     0.020 A 
ATOM     72  C   UNL A   1      42.398  21.022  26.743  1.00  0.00     0.054 A 
BRANCH  72  73
ATOM     73  S   UNL A   1      42.230  19.361  26.032  1.00  0.00     0.124 S 
ATOM     74  O   UNL A   1      42.729  18.518  27.113  1.00  0.00    -0.237 OA
ATOM     75  O   UNL A   1      40.797  19.269  25.767  1.00  0.00    -0.237 OA
ATOM     76  O   UNL A   1      43.073  19.419  24.839  1.00  0.00    -0.744 OA
ENDBRANCH  72  73
ENDBRANCH  44  67
BRANCH  56  77
ATOM     77  C   UNL A   1      47.964  26.862  30.891  1.00  0.00    -0.014 A 
ATOM     78  C   UNL A   1      48.927  27.245  29.940  1.00  0.00     0.010 A 
ATOM     79  C   UNL A   1      48.384  26.192  32.056  1.00  0.00     0.010 A 
ATOM     80  C   UNL A   1      50.279  26.945  30.138  1.00  0.00     0.020 A 
ATOM     81  C   UNL A   1      49.737  25.913  32.269  1.00  0.00     0.020 A 
ATOM     82  C   UNL A   1      50.675  26.280  31.302  1.00  0.00     0.054 A 
BRANCH  82  83
ATOM     83  S   UNL A   1      52.440  25.948  31.561  1.00  0.00     0.124 S 
ATOM     84  O   UNL A   1      52.427  24.554  31.995  1.00  0.00    -0.237 OA
ATOM     85  O   UNL A   1      53.010  26.187  30.236  1.00  0.00    -0.237 OA
ATOM     86  O   UNL A   1      52.829  26.916  32.584  1.00  0.00    -0.744 OA
ENDBRANCH  82  83
ENDBRANCH  56  77
ENDBRANCH  30  31
ENDBRANCH  23  25
ENDBRANCH  22  23
ENDBRANCH   1  22
TORSDOF 16
ENDMDL
