MODEL 1
REMARK VINA RESULT:     -13.4      0.000      0.000
REMARK SMILES COc1ccc(-c2[nH]nc3nc(-c4ccc(C(F)(F)F)cc4)cc(C(=O)OCCOC(=O)c4ccc(-c5c6nc(c(-c7ccc(S(=O)(=O)[O-])cc7)c7ccc([nH]7)c(-c7ccc(S(=O)(=O)[O-])cc7)c7nc(c(-c8ccc(S(=O)(=O)[O-])cc8)c8ccc5[nH]8)C=C7)C=C6)cc4)c23)cc1
REMARK SMILES IDX 29 1 28 2 27 3 25 4 26 5 24 6 7 7 8 8 93 9 9 10 10 12 11 13
REMARK SMILES IDX 23 14 12 15 6 16 3 17 4 18 95 19 5 20 94 21 2 22 1 23 13 24
REMARK SMILES IDX 14 25 22 26 15 27 21 28 16 29 17 30 18 31 19 32 20 33 30 34
REMARK SMILES IDX 31 35 32 36 33 37 34 38 92 39 35 40 91 41 36 42 37 43 38 44
REMARK SMILES IDX 85 45 39 46 90 47 84 48 86 49 40 50 89 51 83 52 82 53 41 55
REMARK SMILES IDX 71 56 52 57 70 58 53 59 56 60 69 61 87 62 54 63 55 64 68 66
REMARK SMILES IDX 88 67 57 68 42 69 43 70 51 71 44 72 50 73 45 74 46 75 47 76
REMARK SMILES IDX 48 77 49 78 72 79 73 80 81 81 74 82 80 83 75 84 76 85 77 86
REMARK SMILES IDX 78 87 79 88 58 89 59 90 67 91 60 92 66 93 61 94 62 95 63 96
REMARK SMILES IDX 64 97 65 98
REMARK H PARENT 8 11 86 54 56 65
REMARK Flexibility Score: inf
ROOT
ATOM      1  C   UNL A   1      33.117  30.041  26.204  1.00  0.00     0.275 C 
ENDROOT
BRANCH   1   2
ATOM      2  C   UNL A   1      32.391  28.737  25.918  1.00  0.00     0.275 C 
BRANCH   2   3
ATOM      3  O   UNL A   1      33.370  27.694  25.824  1.00  0.00    -0.458 OA
BRANCH   3   4
ATOM      4  C   UNL A   1      32.955  26.429  26.083  1.00  0.00     0.339 C 
ATOM      5  O   UNL A   1      32.129  26.093  26.909  1.00  0.00    -0.246 OA
BRANCH   4   6
ATOM      6  C   UNL A   1      33.680  25.526  25.183  1.00  0.00     0.075 A 
ATOM      7  C   UNL A   1      32.139  25.265  23.179  1.00  0.00     0.075 A 
ATOM      8  N   UNL A   1      32.305  24.455  22.072  1.00  0.00    -0.275 N 
ATOM      9  C   UNL A   1      33.261  24.992  23.956  1.00  0.00     0.061 A 
ATOM     10  N   UNL A   1      33.400  23.682  22.080  1.00  0.00    -0.154 NA
ATOM     11  H   UNL A   1      31.661  24.447  21.327  1.00  0.00     0.190 HD
ATOM     12  C   UNL A   1      34.024  24.029  23.203  1.00  0.00     0.182 A 
ATOM     13  N   UNL A   1      35.223  23.540  23.619  1.00  0.00    -0.226 NA
ATOM     14  C   UNL A   1      34.939  25.029  25.562  1.00  0.00     0.045 A 
ATOM     15  C   UNL A   1      35.640  24.064  24.804  1.00  0.00     0.074 A 
BRANCH   7  16
ATOM     16  C   UNL A   1      31.045  26.245  23.204  1.00  0.00     0.001 A 
ATOM     17  C   UNL A   1      28.930  28.121  22.996  1.00  0.00     0.118 A 
ATOM     18  C   UNL A   1      28.767  26.941  23.724  1.00  0.00     0.047 A 
ATOM     19  C   UNL A   1      30.161  28.387  22.420  1.00  0.00     0.047 A 
ATOM     20  C   UNL A   1      29.813  26.003  23.822  1.00  0.00     0.014 A 
ATOM     21  C   UNL A   1      31.187  27.445  22.514  1.00  0.00     0.014 A 
BRANCH  17  22
ATOM     22  O   UNL A   1      27.873  28.987  22.956  1.00  0.00    -0.497 OA
ATOM     23  C   UNL A   1      28.121  30.191  22.228  1.00  0.00     0.278 C 
ENDBRANCH  17  22
ENDBRANCH   7  16
BRANCH  15  24
ATOM     24  C   UNL A   1      36.878  23.486  25.369  1.00  0.00     0.000 A 
ATOM     25  C   UNL A   1      37.329  22.201  25.037  1.00  0.00     0.011 A 
ATOM     26  C   UNL A   1      37.666  24.251  26.250  1.00  0.00     0.011 A 
ATOM     27  C   UNL A   1      38.542  21.712  25.546  1.00  0.00     0.014 A 
ATOM     28  C   UNL A   1      38.871  23.767  26.761  1.00  0.00     0.014 A 
ATOM     29  C   UNL A   1      39.327  22.492  26.408  1.00  0.00     0.056 A 
BRANCH  29  30
ATOM     30  C   UNL A   1      40.637  21.970  26.948  1.00  0.00     0.416 C 
ATOM     31  F   UNL A   1      41.476  22.963  27.349  1.00  0.00    -0.166 F 
ATOM     32  F   UNL A   1      40.476  21.154  28.026  1.00  0.00    -0.166 F 
ATOM     33  F   UNL A   1      41.344  21.238  26.038  1.00  0.00    -0.166 F 
ENDBRANCH  29  30
ENDBRANCH  15  24
ENDBRANCH   4   6
ENDBRANCH   3   4
ENDBRANCH   2   3
ENDBRANCH   1   2
BRANCH   1  34
ATOM     34  O   UNL A   1      33.659  30.012  27.521  1.00  0.00    -0.458 OA
BRANCH  34  35
ATOM     35  C   UNL A   1      34.350  31.088  27.958  1.00  0.00     0.338 C 
ATOM     36  O   UNL A   1      33.910  32.184  28.272  1.00  0.00    -0.246 OA
BRANCH  35  37
ATOM     37  C   UNL A   1      35.769  30.696  27.948  1.00  0.00     0.060 A 
ATOM     38  C   UNL A   1      36.153  29.397  27.594  1.00  0.00     0.016 A 
ATOM     39  C   UNL A   1      36.713  31.651  28.363  1.00  0.00     0.016 A 
ATOM     40  C   UNL A   1      37.470  29.019  27.804  1.00  0.00     0.010 A 
ATOM     41  C   UNL A   1      38.014  31.286  28.546  1.00  0.00     0.010 A 
ATOM     42  C   UNL A   1      38.352  29.953  28.355  1.00  0.00    -0.014 A 
BRANCH  42  43
ATOM     43  C   UNL A   1      39.669  29.566  28.808  1.00  0.00     0.031 A 
ATOM     44  C   UNL A   1      39.836  29.606  30.280  1.00  0.00     0.074 A 
ATOM     45  C   UNL A   1      40.520  28.993  27.929  1.00  0.00     0.049 A 
ATOM     46  N   UNL A   1      40.538  30.442  30.967  1.00  0.00    -0.248 NA
ATOM     47  C   UNL A   1      38.975  28.740  31.109  1.00  0.00     0.031 C 
ATOM     48  C   UNL A   1      40.269  28.626  26.526  1.00  0.00     0.029 A 
ATOM     49  N   UNL A   1      41.762  28.496  28.134  1.00  0.00    -0.354 N 
ATOM     50  C   UNL A   1      40.432  30.023  32.290  1.00  0.00     0.074 A 
ATOM     51  C   UNL A   1      39.285  29.155  32.339  1.00  0.00     0.031 C 
ATOM     52  C   UNL A   1      41.218  27.756  26.108  1.00  0.00     0.029 A 
ATOM     53  C   UNL A   1      42.218  27.620  27.153  1.00  0.00     0.049 A 
ATOM     54  H   UNL A   1      42.304  28.735  28.921  1.00  0.00     0.167 HD
ATOM     55  C   UNL A   1      41.478  30.164  33.153  1.00  0.00     0.031 A 
ATOM     56  C   UNL A   1      43.308  26.810  27.231  1.00  0.00     0.031 A 
ATOM     57  C   UNL A   1      42.477  31.051  32.608  1.00  0.00     0.049 A 
ATOM     58  C   UNL A   1      44.158  27.349  28.327  1.00  0.00     0.074 A 
ATOM     59  C   UNL A   1      42.491  32.366  32.189  1.00  0.00     0.029 A 
ATOM     60  N   UNL A   1      43.577  30.454  32.032  1.00  0.00    -0.354 N 
ATOM     61  N   UNL A   1      44.725  28.523  28.270  1.00  0.00    -0.248 NA
ATOM     62  C   UNL A   1      43.935  26.830  29.668  1.00  0.00     0.031 C 
ATOM     63  C   UNL A   1      43.305  32.366  31.018  1.00  0.00     0.029 A 
ATOM     64  C   UNL A   1      43.825  31.082  30.841  1.00  0.00     0.049 A 
ATOM     65  H   UNL A   1      44.095  29.707  32.411  1.00  0.00     0.167 HD
ATOM     66  C   UNL A   1      44.529  29.077  29.528  1.00  0.00     0.074 A 
ATOM     67  C   UNL A   1      44.102  27.955  30.371  1.00  0.00     0.031 C 
ATOM     68  C   UNL A   1      44.428  30.429  29.698  1.00  0.00     0.031 A 
BRANCH  55  69
ATOM     69  C   UNL A   1      41.831  29.152  34.223  1.00  0.00    -0.014 A 
ATOM     70  C   UNL A   1      42.255  27.873  33.802  1.00  0.00     0.010 A 
ATOM     71  C   UNL A   1      41.478  29.288  35.580  1.00  0.00     0.010 A 
ATOM     72  C   UNL A   1      42.197  26.767  34.658  1.00  0.00     0.020 A 
ATOM     73  C   UNL A   1      41.459  28.200  36.456  1.00  0.00     0.020 A 
ATOM     74  C   UNL A   1      41.776  26.938  35.975  1.00  0.00     0.054 A 
BRANCH  74  75
ATOM     75  S   UNL A   1      41.579  25.484  37.031  1.00  0.00     0.124 S 
ATOM     76  O   UNL A   1      41.483  24.411  36.047  1.00  0.00    -0.237 OA
ATOM     77  O   UNL A   1      42.806  25.514  37.823  1.00  0.00    -0.237 OA
ATOM     78  O   UNL A   1      40.355  25.767  37.776  1.00  0.00    -0.744 OA
ENDBRANCH  74  75
ENDBRANCH  55  69
BRANCH  56  79
ATOM     79  C   UNL A   1      43.459  25.425  26.699  1.00  0.00    -0.014 A 
ATOM     80  C   UNL A   1      43.028  25.075  25.403  1.00  0.00     0.010 A 
ATOM     81  C   UNL A   1      44.294  24.506  27.369  1.00  0.00     0.010 A 
ATOM     82  C   UNL A   1      43.458  23.883  24.785  1.00  0.00     0.020 A 
ATOM     83  C   UNL A   1      44.725  23.318  26.764  1.00  0.00     0.020 A 
ATOM     84  C   UNL A   1      44.324  23.020  25.465  1.00  0.00     0.054 A 
BRANCH  84  85
ATOM     85  S   UNL A   1      45.019  21.571  24.608  1.00  0.00     0.124 S 
ATOM     86  O   UNL A   1      46.450  21.715  24.859  1.00  0.00    -0.237 OA
ATOM     87  O   UNL A   1      44.367  20.454  25.285  1.00  0.00    -0.237 OA
ATOM     88  O   UNL A   1      44.612  21.768  23.217  1.00  0.00    -0.744 OA
ENDBRANCH  84  85
ENDBRANCH  56  79
BRANCH  68  89
ATOM     89  C   UNL A   1      44.792  31.334  28.543  1.00  0.00    -0.014 A 
ATOM     90  C   UNL A   1      43.930  31.641  27.470  1.00  0.00     0.010 A 
ATOM     91  C   UNL A   1      46.005  32.035  28.649  1.00  0.00     0.010 A 
ATOM     92  C   UNL A   1      44.290  32.609  26.518  1.00  0.00     0.020 A 
ATOM     93  C   UNL A   1      46.360  33.009  27.716  1.00  0.00     0.020 A 
ATOM     94  C   UNL A   1      45.508  33.285  26.647  1.00  0.00     0.054 A 
BRANCH  94  95
ATOM     95  S   UNL A   1      45.970  34.553  25.434  1.00  0.00     0.124 S 
ATOM     96  O   UNL A   1      45.146  34.204  24.281  1.00  0.00    -0.237 OA
ATOM     97  O   UNL A   1      45.611  35.797  26.111  1.00  0.00    -0.237 OA
ATOM     98  O   UNL A   1      47.407  34.352  25.249  1.00  0.00    -0.744 OA
ENDBRANCH  94  95
ENDBRANCH  68  89
ENDBRANCH  42  43
ENDBRANCH  35  37
ENDBRANCH  34  35
ENDBRANCH   1  34
TORSDOF 18
ENDMDL
MODEL 2
REMARK VINA RESULT:     -13.4      3.785      9.587
REMARK SMILES COc1ccc(-c2[nH]nc3nc(-c4ccc(C(F)(F)F)cc4)cc(C(=O)OCCOC(=O)c4ccc(-c5c6nc(c(-c7ccc(S(=O)(=O)[O-])cc7)c7ccc([nH]7)c(-c7ccc(S(=O)(=O)[O-])cc7)c7nc(c(-c8ccc(S(=O)(=O)[O-])cc8)c8ccc5[nH]8)C=C7)C=C6)cc4)c23)cc1
REMARK SMILES IDX 29 1 28 2 27 3 25 4 26 5 24 6 7 7 8 8 93 9 9 10 10 12 11 13
REMARK SMILES IDX 23 14 12 15 6 16 3 17 4 18 95 19 5 20 94 21 2 22 1 23 13 24
REMARK SMILES IDX 14 25 22 26 15 27 21 28 16 29 17 30 18 31 19 32 20 33 30 34
REMARK SMILES IDX 31 35 32 36 33 37 34 38 92 39 35 40 91 41 36 42 37 43 38 44
REMARK SMILES IDX 85 45 39 46 90 47 84 48 86 49 40 50 89 51 83 52 82 53 41 55
REMARK SMILES IDX 71 56 52 57 70 58 53 59 56 60 69 61 87 62 54 63 55 64 68 66
REMARK SMILES IDX 88 67 57 68 42 69 43 70 51 71 44 72 50 73 45 74 46 75 47 76
REMARK SMILES IDX 48 77 49 78 72 79 73 80 81 81 74 82 80 83 75 84 76 85 77 86
REMARK SMILES IDX 78 87 79 88 58 89 59 90 67 91 60 92 66 93 61 94 62 95 63 96
REMARK SMILES IDX 64 97 65 98
REMARK H PARENT 8 11 86 54 56 65
REMARK Flexibility Score: inf
ROOT
ATOM      1  C   UNL A   1      37.323  21.572  24.781  1.00  0.00     0.275 C 
ENDROOT
BRANCH   1   2
ATOM      2  C   UNL A   1      35.833  21.850  24.874  1.00  0.00     0.275 C 
BRANCH   2   3
ATOM      3  O   UNL A   1      35.629  23.256  24.686  1.00  0.00    -0.458 OA
BRANCH   3   4
ATOM      4  C   UNL A   1      34.513  23.637  24.015  1.00  0.00     0.339 C 
ATOM      5  O   UNL A   1      34.312  23.525  22.822  1.00  0.00    -0.246 OA
BRANCH   4   6
ATOM      6  C   UNL A   1      33.579  24.211  24.990  1.00  0.00     0.075 A 
ATOM      7  C   UNL A   1      31.845  22.386  25.348  1.00  0.00     0.075 A 
ATOM      8  N   UNL A   1      30.695  22.437  26.112  1.00  0.00    -0.275 N 
ATOM      9  C   UNL A   1      32.393  23.657  25.495  1.00  0.00     0.061 A 
ATOM     10  N   UNL A   1      30.447  23.613  26.705  1.00  0.00    -0.154 NA
ATOM     11  H   UNL A   1      30.098  21.661  26.213  1.00  0.00     0.190 HD
ATOM     12  C   UNL A   1      31.498  24.361  26.379  1.00  0.00     0.182 A 
ATOM     13  N   UNL A   1      31.717  25.636  26.798  1.00  0.00    -0.226 NA
ATOM     14  C   UNL A   1      33.792  25.512  25.476  1.00  0.00     0.045 A 
ATOM     15  C   UNL A   1      32.872  26.174  26.320  1.00  0.00     0.074 A 
BRANCH   7  16
ATOM     16  C   UNL A   1      32.276  21.107  24.768  1.00  0.00     0.001 A 
ATOM     17  C   UNL A   1      32.927  18.526  23.795  1.00  0.00     0.118 A 
ATOM     18  C   UNL A   1      32.517  19.534  22.921  1.00  0.00     0.047 A 
ATOM     19  C   UNL A   1      33.064  18.822  25.141  1.00  0.00     0.047 A 
ATOM     20  C   UNL A   1      32.183  20.814  23.403  1.00  0.00     0.014 A 
ATOM     21  C   UNL A   1      32.720  20.091  25.609  1.00  0.00     0.014 A 
BRANCH  17  22
ATOM     22  O   UNL A   1      33.244  17.312  23.252  1.00  0.00    -0.497 OA
ATOM     23  C   UNL A   1      34.054  16.482  24.087  1.00  0.00     0.278 C 
ENDBRANCH  17  22
ENDBRANCH   7  16
BRANCH  15  24
ATOM     24  C   UNL A   1      33.109  27.596  26.644  1.00  0.00     0.000 A 
ATOM     25  C   UNL A   1      32.062  28.508  26.840  1.00  0.00     0.011 A 
ATOM     26  C   UNL A   1      34.427  28.067  26.798  1.00  0.00     0.011 A 
ATOM     27  C   UNL A   1      32.326  29.836  27.207  1.00  0.00     0.014 A 
ATOM     28  C   UNL A   1      34.693  29.388  27.160  1.00  0.00     0.014 A 
ATOM     29  C   UNL A   1      33.644  30.288  27.376  1.00  0.00     0.056 A 
BRANCH  29  30
ATOM     30  C   UNL A   1      33.927  31.714  27.781  1.00  0.00     0.416 C 
ATOM     31  F   UNL A   1      35.099  32.185  27.272  1.00  0.00    -0.166 F 
ATOM     32  F   UNL A   1      32.963  32.582  27.368  1.00  0.00    -0.166 F 
ATOM     33  F   UNL A   1      34.020  31.886  29.132  1.00  0.00    -0.166 F 
ENDBRANCH  29  30
ENDBRANCH  15  24
ENDBRANCH   4   6
ENDBRANCH   3   4
ENDBRANCH   2   3
ENDBRANCH   1   2
BRANCH   1  34
ATOM     34  O   UNL A   1      38.051  22.643  25.374  1.00  0.00    -0.458 OA
BRANCH  34  35
ATOM     35  C   UNL A   1      39.192  22.356  26.041  1.00  0.00     0.338 C 
ATOM     36  O   UNL A   1      39.884  21.354  25.945  1.00  0.00    -0.246 OA
BRANCH  35  37
ATOM     37  C   UNL A   1      39.429  23.488  26.953  1.00  0.00     0.060 A 
ATOM     38  C   UNL A   1      38.507  24.536  27.051  1.00  0.00     0.016 A 
ATOM     39  C   UNL A   1      40.637  23.505  27.670  1.00  0.00     0.016 A 
ATOM     40  C   UNL A   1      38.873  25.672  27.757  1.00  0.00     0.010 A 
ATOM     41  C   UNL A   1      40.986  24.613  28.385  1.00  0.00     0.010 A 
ATOM     42  C   UNL A   1      40.143  25.714  28.340  1.00  0.00    -0.014 A 
BRANCH  42  43
ATOM     43  C   UNL A   1      40.675  26.939  28.893  1.00  0.00     0.031 A 
ATOM     44  C   UNL A   1      41.830  27.487  28.142  1.00  0.00     0.074 A 
ATOM     45  C   UNL A   1      39.969  27.587  29.845  1.00  0.00     0.049 A 
ATOM     46  N   UNL A   1      43.062  27.526  28.520  1.00  0.00    -0.248 NA
ATOM     47  C   UNL A   1      41.635  27.864  26.728  1.00  0.00     0.031 C 
ATOM     48  C   UNL A   1      38.642  27.248  30.382  1.00  0.00     0.029 A 
ATOM     49  N   UNL A   1      40.230  28.767  30.455  1.00  0.00    -0.354 N 
ATOM     50  C   UNL A   1      43.744  28.194  27.506  1.00  0.00     0.074 A 
ATOM     51  C   UNL A   1      42.884  28.147  26.353  1.00  0.00     0.031 C 
ATOM     52  C   UNL A   1      38.128  28.321  31.029  1.00  0.00     0.029 A 
ATOM     53  C   UNL A   1      39.138  29.362  31.081  1.00  0.00     0.049 A 
ATOM     54  H   UNL A   1      41.126  29.175  30.456  1.00  0.00     0.167 HD
ATOM     55  C   UNL A   1      44.803  29.004  27.794  1.00  0.00     0.031 A 
ATOM     56  C   UNL A   1      39.069  30.637  31.553  1.00  0.00     0.031 A 
ATOM     57  C   UNL A   1      45.263  28.787  29.145  1.00  0.00     0.049 A 
ATOM     58  C   UNL A   1      40.471  31.113  31.691  1.00  0.00     0.074 A 
ATOM     59  C   UNL A   1      45.748  27.703  29.848  1.00  0.00     0.029 A 
ATOM     60  N   UNL A   1      44.846  29.701  30.087  1.00  0.00    -0.354 N 
ATOM     61  N   UNL A   1      41.319  30.583  32.532  1.00  0.00    -0.248 NA
ATOM     62  C   UNL A   1      41.068  31.789  30.549  1.00  0.00     0.031 C 
ATOM     63  C   UNL A   1      45.160  27.817  31.142  1.00  0.00     0.029 A 
ATOM     64  C   UNL A   1      44.433  29.008  31.193  1.00  0.00     0.049 A 
ATOM     65  H   UNL A   1      44.847  30.680  29.984  1.00  0.00     0.167 HD
ATOM     66  C   UNL A   1      42.505  30.469  31.819  1.00  0.00     0.074 A 
ATOM     67  C   UNL A   1      42.311  31.299  30.626  1.00  0.00     0.031 C 
ATOM     68  C   UNL A   1      43.406  29.479  32.099  1.00  0.00     0.031 A 
BRANCH  55  69
ATOM     69  C   UNL A   1      45.096  30.300  27.067  1.00  0.00    -0.014 A 
ATOM     70  C   UNL A   1      46.449  30.647  26.865  1.00  0.00     0.010 A 
ATOM     71  C   UNL A   1      44.142  31.315  26.856  1.00  0.00     0.010 A 
ATOM     72  C   UNL A   1      46.832  31.967  26.602  1.00  0.00     0.020 A 
ATOM     73  C   UNL A   1      44.510  32.628  26.549  1.00  0.00     0.020 A 
ATOM     74  C   UNL A   1      45.857  32.953  26.470  1.00  0.00     0.054 A 
BRANCH  74  75
ATOM     75  S   UNL A   1      46.367  34.674  26.261  1.00  0.00     0.124 S 
ATOM     76  O   UNL A   1      47.172  34.601  25.046  1.00  0.00    -0.237 OA
ATOM     77  O   UNL A   1      45.085  35.360  26.135  1.00  0.00    -0.237 OA
ATOM     78  O   UNL A   1      47.105  34.962  27.489  1.00  0.00    -0.744 OA
ENDBRANCH  74  75
ENDBRANCH  55  69
BRANCH  56  79
ATOM     79  C   UNL A   1      37.901  31.563  31.516  1.00  0.00    -0.014 A 
ATOM     80  C   UNL A   1      36.581  31.091  31.372  1.00  0.00     0.010 A 
ATOM     81  C   UNL A   1      38.064  32.908  31.911  1.00  0.00     0.010 A 
ATOM     82  C   UNL A   1      35.473  31.913  31.665  1.00  0.00     0.020 A 
ATOM     83  C   UNL A   1      36.969  33.733  32.202  1.00  0.00     0.020 A 
ATOM     84  C   UNL A   1      35.677  33.227  32.100  1.00  0.00     0.054 A 
BRANCH  84  85
ATOM     85  S   UNL A   1      34.260  34.232  32.644  1.00  0.00     0.124 S 
ATOM     86  O   UNL A   1      33.434  33.255  33.347  1.00  0.00    -0.237 OA
ATOM     87  O   UNL A   1      34.890  35.248  33.482  1.00  0.00    -0.237 OA
ATOM     88  O   UNL A   1      33.694  34.734  31.392  1.00  0.00    -0.744 OA
ENDBRANCH  84  85
ENDBRANCH  56  79
BRANCH  68  89
ATOM     89  C   UNL A   1      43.222  28.668  33.361  1.00  0.00    -0.014 A 
ATOM     90  C   UNL A   1      43.687  29.058  34.634  1.00  0.00     0.010 A 
ATOM     91  C   UNL A   1      42.387  27.541  33.270  1.00  0.00     0.010 A 
ATOM     92  C   UNL A   1      43.342  28.321  35.779  1.00  0.00     0.020 A 
ATOM     93  C   UNL A   1      42.027  26.815  34.405  1.00  0.00     0.020 A 
ATOM     94  C   UNL A   1      42.515  27.200  35.655  1.00  0.00     0.054 A 
BRANCH  94  95
ATOM     95  S   UNL A   1      42.046  26.256  37.132  1.00  0.00     0.124 S 
ATOM     96  O   UNL A   1      42.020  24.883  36.637  1.00  0.00    -0.237 OA
ATOM     97  O   UNL A   1      43.122  26.567  38.070  1.00  0.00    -0.237 OA
ATOM     98  O   UNL A   1      40.741  26.806  37.497  1.00  0.00    -0.744 OA
ENDBRANCH  94  95
ENDBRANCH  68  89
ENDBRANCH  42  43
ENDBRANCH  35  37
ENDBRANCH  34  35
ENDBRANCH   1  34
TORSDOF 18
ENDMDL
MODEL 3
REMARK VINA RESULT:     -12.0      4.001      9.868
REMARK SMILES COc1ccc(-c2[nH]nc3nc(-c4ccc(C(F)(F)F)cc4)cc(C(=O)OCCOC(=O)c4ccc(-c5c6nc(c(-c7ccc(S(=O)(=O)[O-])cc7)c7ccc([nH]7)c(-c7ccc(S(=O)(=O)[O-])cc7)c7nc(c(-c8ccc(S(=O)(=O)[O-])cc8)c8ccc5[nH]8)C=C7)C=C6)cc4)c23)cc1
REMARK SMILES IDX 29 1 28 2 27 3 25 4 26 5 24 6 7 7 8 8 93 9 9 10 10 12 11 13
REMARK SMILES IDX 23 14 12 15 6 16 3 17 4 18 95 19 5 20 94 21 2 22 1 23 13 24
REMARK SMILES IDX 14 25 22 26 15 27 21 28 16 29 17 30 18 31 19 32 20 33 30 34
REMARK SMILES IDX 31 35 32 36 33 37 34 38 92 39 35 40 91 41 36 42 37 43 38 44
REMARK SMILES IDX 85 45 39 46 90 47 84 48 86 49 40 50 89 51 83 52 82 53 41 55
REMARK SMILES IDX 71 56 52 57 70 58 53 59 56 60 69 61 87 62 54 63 55 64 68 66
REMARK SMILES IDX 88 67 57 68 42 69 43 70 51 71 44 72 50 73 45 74 46 75 47 76
REMARK SMILES IDX 48 77 49 78 72 79 73 80 81 81 74 82 80 83 75 84 76 85 77 86
REMARK SMILES IDX 78 87 79 88 58 89 59 90 67 91 60 92 66 93 61 94 62 95 63 96
REMARK SMILES IDX 64 97 65 98
REMARK H PARENT 8 11 86 54 56 65
REMARK Flexibility Score: inf
ROOT
ATOM      1  C   UNL A   1      37.795  21.570  25.535  1.00  0.00     0.275 C 
ENDROOT
BRANCH   1   2
ATOM      2  C   UNL A   1      36.405  22.139  25.763  1.00  0.00     0.275 C 
BRANCH   2   3
ATOM      3  O   UNL A   1      35.507  21.044  25.990  1.00  0.00    -0.458 OA
BRANCH   3   4
ATOM      4  C   UNL A   1      34.343  21.318  26.628  1.00  0.00     0.339 C 
ATOM      5  O   UNL A   1      34.042  20.992  27.759  1.00  0.00    -0.246 OA
BRANCH   4   6
ATOM      6  C   UNL A   1      33.499  22.089  25.708  1.00  0.00     0.075 A 
ATOM      7  C   UNL A   1      32.844  20.419  23.907  1.00  0.00     0.075 A 
ATOM      8  N   UNL A   1      32.118  20.645  22.754  1.00  0.00    -0.275 N 
ATOM      9  C   UNL A   1      32.919  21.676  24.500  1.00  0.00     0.061 A 
ATOM     10  N   UNL A   1      31.747  21.916  22.544  1.00  0.00    -0.154 NA
ATOM     11  H   UNL A   1      31.888  19.921  22.128  1.00  0.00     0.190 HD
ATOM     12  C   UNL A   1      32.187  22.557  23.624  1.00  0.00     0.182 A 
ATOM     13  N   UNL A   1      31.999  23.878  23.886  1.00  0.00    -0.226 NA
ATOM     14  C   UNL A   1      33.250  23.448  25.965  1.00  0.00     0.045 A 
ATOM     15  C   UNL A   1      32.550  24.281  25.064  1.00  0.00     0.074 A 
BRANCH   7  16
ATOM     16  C   UNL A   1      33.181  19.042  24.295  1.00  0.00     0.001 A 
ATOM     17  C   UNL A   1      33.586  16.324  24.989  1.00  0.00     0.118 A 
ATOM     18  C   UNL A   1      34.344  16.923  23.982  1.00  0.00     0.047 A 
ATOM     19  C   UNL A   1      32.667  17.095  25.682  1.00  0.00     0.047 A 
ATOM     20  C   UNL A   1      34.139  18.270  23.628  1.00  0.00     0.014 A 
ATOM     21  C   UNL A   1      32.464  18.426  25.316  1.00  0.00     0.014 A 
BRANCH  17  22
ATOM     22  O   UNL A   1      33.850  15.015  25.283  1.00  0.00    -0.497 OA
ATOM     23  C   UNL A   1      32.712  14.261  25.705  1.00  0.00     0.278 C 
ENDBRANCH  17  22
ENDBRANCH   7  16
BRANCH  15  24
ATOM     24  C   UNL A   1      32.482  25.730  25.350  1.00  0.00     0.000 A 
ATOM     25  C   UNL A   1      33.506  26.617  24.989  1.00  0.00     0.011 A 
ATOM     26  C   UNL A   1      31.341  26.265  25.977  1.00  0.00     0.011 A 
ATOM     27  C   UNL A   1      33.377  27.995  25.222  1.00  0.00     0.014 A 
ATOM     28  C   UNL A   1      31.211  27.634  26.213  1.00  0.00     0.014 A 
ATOM     29  C   UNL A   1      32.226  28.518  25.831  1.00  0.00     0.056 A 
BRANCH  29  30
ATOM     30  C   UNL A   1      32.084  30.001  26.072  1.00  0.00     0.416 C 
ATOM     31  F   UNL A   1      31.220  30.596  25.204  1.00  0.00    -0.166 F 
ATOM     32  F   UNL A   1      31.623  30.291  27.320  1.00  0.00    -0.166 F 
ATOM     33  F   UNL A   1      33.258  30.685  25.947  1.00  0.00    -0.166 F 
ENDBRANCH  29  30
ENDBRANCH  15  24
ENDBRANCH   4   6
ENDBRANCH   3   4
ENDBRANCH   2   3
ENDBRANCH   1   2
BRANCH   1  34
ATOM     34  O   UNL A   1      38.735  22.634  25.408  1.00  0.00    -0.458 OA
BRANCH  34  35
ATOM     35  C   UNL A   1      39.929  22.516  26.029  1.00  0.00     0.338 C 
ATOM     36  O   UNL A   1      40.782  21.658  25.859  1.00  0.00    -0.246 OA
BRANCH  35  37
ATOM     37  C   UNL A   1      39.997  23.620  27.001  1.00  0.00     0.060 A 
ATOM     38  C   UNL A   1      39.049  24.650  26.984  1.00  0.00     0.016 A 
ATOM     39  C   UNL A   1      41.076  23.633  27.901  1.00  0.00     0.016 A 
ATOM     40  C   UNL A   1      39.275  25.767  27.773  1.00  0.00     0.010 A 
ATOM     41  C   UNL A   1      41.285  24.722  28.695  1.00  0.00     0.010 A 
ATOM     42  C   UNL A   1      40.437  25.810  28.550  1.00  0.00    -0.014 A 
BRANCH  42  43
ATOM     43  C   UNL A   1      40.849  27.025  29.216  1.00  0.00     0.031 A 
ATOM     44  C   UNL A   1      41.980  27.720  28.557  1.00  0.00     0.074 A 
ATOM     45  C   UNL A   1      40.062  27.538  30.187  1.00  0.00     0.049 A 
ATOM     46  N   UNL A   1      43.192  27.824  28.985  1.00  0.00    -0.248 NA
ATOM     47  C   UNL A   1      41.803  28.192  27.170  1.00  0.00     0.031 C 
ATOM     48  C   UNL A   1      38.749  27.054  30.644  1.00  0.00     0.029 A 
ATOM     49  N   UNL A   1      40.206  28.681  30.897  1.00  0.00    -0.354 N 
ATOM     50  C   UNL A   1      43.851  28.622  28.054  1.00  0.00     0.074 A 
ATOM     51  C   UNL A   1      43.037  28.601  26.868  1.00  0.00     0.031 C 
ATOM     52  C   UNL A   1      38.129  28.028  31.351  1.00  0.00     0.029 A 
ATOM     53  C   UNL A   1      39.050  29.138  31.523  1.00  0.00     0.049 A 
ATOM     54  H   UNL A   1      41.066  29.157  30.964  1.00  0.00     0.167 HD
ATOM     55  C   UNL A   1      44.831  29.486  28.445  1.00  0.00     0.031 A 
ATOM     56  C   UNL A   1      38.862  30.361  32.089  1.00  0.00     0.031 A 
ATOM     57  C   UNL A   1      45.262  29.198  29.792  1.00  0.00     0.049 A 
ATOM     58  C   UNL A   1      40.216  30.932  32.319  1.00  0.00     0.074 A 
ATOM     59  C   UNL A   1      45.810  28.103  30.428  1.00  0.00     0.029 A 
ATOM     60  N   UNL A   1      44.742  29.998  30.785  1.00  0.00    -0.354 N 
ATOM     61  N   UNL A   1      41.075  30.405  33.149  1.00  0.00    -0.248 NA
ATOM     62  C   UNL A   1      40.794  31.743  31.257  1.00  0.00     0.031 C 
ATOM     63  C   UNL A   1      45.171  28.066  31.703  1.00  0.00     0.029 A 
ATOM     64  C   UNL A   1      44.349  29.190  31.817  1.00  0.00     0.049 A 
ATOM     65  H   UNL A   1      44.667  30.979  30.758  1.00  0.00     0.167 HD
ATOM     66  C   UNL A   1      42.290  30.441  32.477  1.00  0.00     0.074 A 
ATOM     67  C   UNL A   1      42.069  31.346  31.345  1.00  0.00     0.031 C 
ATOM     68  C   UNL A   1      43.257  29.505  32.715  1.00  0.00     0.031 A 
BRANCH  55  69
ATOM     69  C   UNL A   1      45.043  30.855  27.833  1.00  0.00    -0.014 A 
ATOM     70  C   UNL A   1      44.030  31.821  28.019  1.00  0.00     0.010 A 
ATOM     71  C   UNL A   1      46.012  31.134  26.848  1.00  0.00     0.010 A 
ATOM     72  C   UNL A   1      43.918  32.932  27.176  1.00  0.00     0.020 A 
ATOM     73  C   UNL A   1      45.936  32.263  26.030  1.00  0.00     0.020 A 
ATOM     74  C   UNL A   1      44.862  33.131  26.171  1.00  0.00     0.054 A 
BRANCH  74  75
ATOM     75  S   UNL A   1      44.634  34.496  25.007  1.00  0.00     0.124 S 
ATOM     76  O   UNL A   1      45.777  35.348  25.320  1.00  0.00    -0.237 OA
ATOM     77  O   UNL A   1      44.686  33.810  23.719  1.00  0.00    -0.237 OA
ATOM     78  O   UNL A   1      43.327  35.037  25.369  1.00  0.00    -0.744 OA
ENDBRANCH  74  75
ENDBRANCH  55  69
BRANCH  56  79
ATOM     79  C   UNL A   1      37.625  31.194  32.078  1.00  0.00    -0.014 A 
ATOM     80  C   UNL A   1      37.075  31.724  33.262  1.00  0.00     0.010 A 
ATOM     81  C   UNL A   1      37.140  31.708  30.856  1.00  0.00     0.010 A 
ATOM     82  C   UNL A   1      36.121  32.762  33.226  1.00  0.00     0.020 A 
ATOM     83  C   UNL A   1      36.191  32.738  30.811  1.00  0.00     0.020 A 
ATOM     84  C   UNL A   1      35.700  33.278  31.996  1.00  0.00     0.054 A 
BRANCH  84  85
ATOM     85  S   UNL A   1      34.604  34.731  31.948  1.00  0.00     0.124 S 
ATOM     86  O   UNL A   1      33.358  34.202  32.494  1.00  0.00    -0.237 OA
ATOM     87  O   UNL A   1      35.308  35.692  32.794  1.00  0.00    -0.237 OA
ATOM     88  O   UNL A   1      34.559  35.081  30.529  1.00  0.00    -0.744 OA
ENDBRANCH  84  85
ENDBRANCH  56  79
BRANCH  68  89
ATOM     89  C   UNL A   1      43.098  28.583  33.902  1.00  0.00    -0.014 A 
ATOM     90  C   UNL A   1      43.538  28.883  35.208  1.00  0.00     0.010 A 
ATOM     91  C   UNL A   1      42.310  27.436  33.709  1.00  0.00     0.010 A 
ATOM     92  C   UNL A   1      43.215  28.038  36.283  1.00  0.00     0.020 A 
ATOM     93  C   UNL A   1      41.972  26.602  34.775  1.00  0.00     0.020 A 
ATOM     94  C   UNL A   1      42.435  26.899  36.057  1.00  0.00     0.054 A 
BRANCH  94  95
ATOM     95  S   UNL A   1      41.995  25.816  37.444  1.00  0.00     0.124 S 
ATOM     96  O   UNL A   1      42.870  26.293  38.510  1.00  0.00    -0.237 OA
ATOM     97  O   UNL A   1      40.571  26.088  37.630  1.00  0.00    -0.237 OA
ATOM     98  O   UNL A   1      42.299  24.474  36.949  1.00  0.00    -0.744 OA
ENDBRANCH  94  95
ENDBRANCH  68  89
ENDBRANCH  42  43
ENDBRANCH  35  37
ENDBRANCH  34  35
ENDBRANCH   1  34
TORSDOF 18
ENDMDL
