MODEL 1
REMARK VINA RESULT:     -10.8      0.000      0.000
REMARK SMILES CC[C@@H](C)N1C(=O)/C(=C/Nc2cccc(C(=O)OCCOC(=O)c3ccc(-c4c5nc(c(-c6ccc(S(=O)(=O)[O-])cc6)c6ccc([nH]6)c(-c6ccc(S(=O)(=O)[O-])cc6)c6nc(c(-c7ccc(S(=O)(=O)[O-])cc7)c7ccc4[nH]7)C=C6)C=C5)cc3)c2)C(=O)NC1=S
REMARK SMILES IDX 19 1 18 2 16 3 17 4 15 5 11 6 12 7 84 8 13 9 14 10 10 11
REMARK SMILES IDX 9 13 5 14 6 15 88 16 7 17 8 18 87 19 89 20 85 21 86 23 3 24
REMARK SMILES IDX 4 25 2 26 1 27 20 28 21 29 22 30 23 31 24 32 25 33 83 34
REMARK SMILES IDX 26 35 82 36 27 37 28 38 29 39 76 40 30 41 81 42 75 43 77 44
REMARK SMILES IDX 31 45 80 46 74 47 73 48 32 50 62 51 43 52 61 53 44 54 47 55
REMARK SMILES IDX 60 56 78 57 45 58 46 59 59 61 79 62 48 63 33 64 34 65 42 66
REMARK SMILES IDX 35 67 41 68 36 69 37 70 38 71 39 72 40 73 63 74 64 75 72 76
REMARK SMILES IDX 65 77 71 78 66 79 67 80 68 81 69 82 70 83 49 84 50 85 58 86
REMARK SMILES IDX 51 87 57 88 52 89 53 90 54 91 55 92 56 93
REMARK H PARENT 10 12 87 22 77 49 47 60
REMARK Flexibility Score: inf
ROOT
ATOM      1  C   UNL A   1      42.656  22.293  25.816  1.00  0.00     0.275 C 
ENDROOT
BRANCH   1   2
ATOM      2  O   UNL A   1      42.039  22.249  27.120  1.00  0.00    -0.458 OA
BRANCH   2   3
ATOM      3  C   UNL A   1      40.928  21.477  27.230  1.00  0.00     0.338 C 
ATOM      4  O   UNL A   1      40.866  20.365  27.731  1.00  0.00    -0.246 OA
BRANCH   3   5
ATOM      5  C   UNL A   1      39.729  22.210  26.747  1.00  0.00     0.062 A 
ATOM      6  C   UNL A   1      37.771  22.408  25.314  1.00  0.00     0.039 A 
ATOM      7  C   UNL A   1      37.579  23.711  25.793  1.00  0.00     0.026 A 
ATOM      8  C   UNL A   1      38.869  21.671  25.784  1.00  0.00     0.041 A 
ATOM      9  C   UNL A   1      38.412  24.241  26.777  1.00  0.00     0.003 A 
ATOM     10  C   UNL A   1      39.459  23.475  27.283  1.00  0.00     0.016 A 
BRANCH   6  11
ATOM     11  N   UNL A   1      36.801  21.856  24.461  1.00  0.00    -0.361 N 
ATOM     12  H   UNL A   1      36.862  20.888  24.291  1.00  0.00     0.166 HD
BRANCH  11  13
ATOM     13  C   UNL A   1      35.777  22.526  23.841  1.00  0.00     0.102 C 
ATOM     14  N   UNL A   1      32.562  23.646  24.180  1.00  0.00    -0.282 N 
ATOM     15  C   UNL A   1      33.552  23.249  23.279  1.00  0.00     0.267 C 
ATOM     16  C   UNL A   1      32.048  22.727  25.103  1.00  0.00     0.183 C 
ATOM     17  O   UNL A   1      33.711  23.681  22.143  1.00  0.00    -0.268 OA
ATOM     18  C   UNL A   1      34.465  22.248  23.848  1.00  0.00     0.121 C 
ATOM     19  N   UNL A   1      32.674  21.500  25.170  1.00  0.00    -0.298 N 
ATOM     20  S   UNL A   1      30.748  22.939  26.142  1.00  0.00    -0.040 S 
ATOM     21  C   UNL A   1      33.898  21.171  24.653  1.00  0.00     0.264 C 
ATOM     22  H   UNL A   1      32.188  20.784  25.641  1.00  0.00     0.172 HD
ATOM     23  O   UNL A   1      34.475  20.123  24.909  1.00  0.00    -0.269 OA
BRANCH  14  24
ATOM     24  C   UNL A   1      32.020  25.035  24.048  1.00  0.00     0.090 C 
ATOM     25  C   UNL A   1      31.269  25.240  22.727  1.00  0.00     0.031 C 
BRANCH  24  26
ATOM     26  C   UNL A   1      33.088  26.148  24.244  1.00  0.00     0.022 C 
ATOM     27  C   UNL A   1      33.870  26.043  25.544  1.00  0.00     0.006 C 
ENDBRANCH  24  26
ENDBRANCH  14  24
ENDBRANCH  11  13
ENDBRANCH   6  11
ENDBRANCH   3   5
ENDBRANCH   2   3
ENDBRANCH   1   2
BRANCH   1  28
ATOM     28  C   UNL A   1      43.016  23.726  25.424  1.00  0.00     0.275 C 
BRANCH  28  29
ATOM     29  O   UNL A   1      42.161  24.651  26.118  1.00  0.00    -0.458 OA
BRANCH  29  30
ATOM     30  C   UNL A   1      42.422  25.963  25.913  1.00  0.00     0.338 C 
ATOM     31  O   UNL A   1      42.578  26.533  24.848  1.00  0.00    -0.246 OA
BRANCH  30  32
ATOM     32  C   UNL A   1      42.412  26.659  27.207  1.00  0.00     0.060 A 
ATOM     33  C   UNL A   1      41.658  26.110  28.239  1.00  0.00     0.016 A 
ATOM     34  C   UNL A   1      43.019  27.902  27.367  1.00  0.00     0.016 A 
ATOM     35  C   UNL A   1      41.453  26.816  29.420  1.00  0.00     0.010 A 
ATOM     36  C   UNL A   1      42.861  28.591  28.578  1.00  0.00     0.010 A 
ATOM     37  C   UNL A   1      42.045  28.072  29.603  1.00  0.00    -0.014 A 
BRANCH  37  38
ATOM     38  C   UNL A   1      41.724  28.874  30.819  1.00  0.00     0.031 A 
ATOM     39  C   UNL A   1      40.525  29.789  30.818  1.00  0.00     0.074 A 
ATOM     40  C   UNL A   1      42.461  28.752  31.941  1.00  0.00     0.049 A 
ATOM     41  N   UNL A   1      40.137  30.646  31.728  1.00  0.00    -0.248 NA
ATOM     42  C   UNL A   1      39.653  29.739  29.633  1.00  0.00     0.031 C 
ATOM     43  C   UNL A   1      43.612  27.863  32.110  1.00  0.00     0.029 A 
ATOM     44  N   UNL A   1      42.341  29.371  33.162  1.00  0.00    -0.354 N 
ATOM     45  C   UNL A   1      39.012  31.275  31.205  1.00  0.00     0.074 A 
ATOM     46  C   UNL A   1      38.782  30.704  29.895  1.00  0.00     0.031 C 
ATOM     47  C   UNL A   1      44.067  27.965  33.370  1.00  0.00     0.029 A 
ATOM     48  C   UNL A   1      43.289  28.978  34.078  1.00  0.00     0.049 A 
ATOM     49  H   UNL A   1      41.641  30.034  33.363  1.00  0.00     0.167 HD
ATOM     50  C   UNL A   1      38.239  32.238  31.762  1.00  0.00     0.031 A 
ATOM     51  C   UNL A   1      43.527  29.400  35.335  1.00  0.00     0.031 A 
ATOM     52  C   UNL A   1      38.437  32.777  33.081  1.00  0.00     0.049 A 
ATOM     53  C   UNL A   1      42.671  30.487  35.925  1.00  0.00     0.074 A 
ATOM     54  C   UNL A   1      37.704  33.754  33.731  1.00  0.00     0.029 A 
ATOM     55  N   UNL A   1      39.430  32.372  33.960  1.00  0.00    -0.354 N 
ATOM     56  N   UNL A   1      41.645  31.108  35.392  1.00  0.00    -0.248 NA
ATOM     57  C   UNL A   1      43.010  30.936  37.282  1.00  0.00     0.031 C 
ATOM     58  C   UNL A   1      38.275  33.966  34.992  1.00  0.00     0.029 A 
ATOM     59  C   UNL A   1      39.333  33.086  35.143  1.00  0.00     0.049 A 
ATOM     60  H   UNL A   1      40.103  31.681  33.771  1.00  0.00     0.167 HD
ATOM     61  C   UNL A   1      41.211  32.014  36.353  1.00  0.00     0.074 A 
ATOM     62  C   UNL A   1      42.069  31.844  37.508  1.00  0.00     0.031 C 
ATOM     63  C   UNL A   1      40.195  32.909  36.283  1.00  0.00     0.031 A 
BRANCH  50  64
ATOM     64  C   UNL A   1      37.126  32.806  30.919  1.00  0.00    -0.014 A 
ATOM     65  C   UNL A   1      37.379  33.730  29.891  1.00  0.00     0.010 A 
ATOM     66  C   UNL A   1      35.804  32.383  31.149  1.00  0.00     0.010 A 
ATOM     67  C   UNL A   1      36.325  34.256  29.138  1.00  0.00     0.020 A 
ATOM     68  C   UNL A   1      34.750  32.886  30.383  1.00  0.00     0.020 A 
ATOM     69  C   UNL A   1      35.016  33.836  29.394  1.00  0.00     0.054 A 
BRANCH  69  70
ATOM     70  S   UNL A   1      33.664  34.525  28.399  1.00  0.00     0.124 S 
ATOM     71  O   UNL A   1      34.237  35.791  27.950  1.00  0.00    -0.237 OA
ATOM     72  O   UNL A   1      33.480  33.515  27.361  1.00  0.00    -0.237 OA
ATOM     73  O   UNL A   1      32.560  34.644  29.350  1.00  0.00    -0.744 OA
ENDBRANCH  69  70
ENDBRANCH  50  64
BRANCH  51  74
ATOM     74  C   UNL A   1      44.655  28.817  36.113  1.00  0.00    -0.014 A 
ATOM     75  C   UNL A   1      44.441  27.746  36.997  1.00  0.00     0.010 A 
ATOM     76  C   UNL A   1      45.958  29.331  35.963  1.00  0.00     0.010 A 
ATOM     77  C   UNL A   1      45.506  27.204  37.724  1.00  0.00     0.020 A 
ATOM     78  C   UNL A   1      47.029  28.772  36.666  1.00  0.00     0.020 A 
ATOM     79  C   UNL A   1      46.794  27.719  37.551  1.00  0.00     0.054 A 
BRANCH  79  80
ATOM     80  S   UNL A   1      48.174  26.962  38.454  1.00  0.00     0.124 S 
ATOM     81  O   UNL A   1      47.554  25.762  39.005  1.00  0.00    -0.237 OA
ATOM     82  O   UNL A   1      49.160  26.739  37.399  1.00  0.00    -0.237 OA
ATOM     83  O   UNL A   1      48.543  27.985  39.431  1.00  0.00    -0.744 OA
ENDBRANCH  79  80
ENDBRANCH  51  74
BRANCH  63  84
ATOM     84  C   UNL A   1      39.936  33.753  37.502  1.00  0.00    -0.014 A 
ATOM     85  C   UNL A   1      40.521  35.023  37.646  1.00  0.00     0.010 A 
ATOM     86  C   UNL A   1      39.064  33.282  38.500  1.00  0.00     0.010 A 
ATOM     87  C   UNL A   1      40.265  35.792  38.784  1.00  0.00     0.020 A 
ATOM     88  C   UNL A   1      38.787  34.058  39.628  1.00  0.00     0.020 A 
ATOM     89  C   UNL A   1      39.403  35.303  39.771  1.00  0.00     0.054 A 
BRANCH  89  90
ATOM     90  S   UNL A   1      39.063  36.331  41.226  1.00  0.00     0.124 S 
ATOM     91  O   UNL A   1      40.342  36.293  41.931  1.00  0.00    -0.237 OA
ATOM     92  O   UNL A   1      38.709  37.621  40.636  1.00  0.00    -0.237 OA
ATOM     93  O   UNL A   1      37.964  35.635  41.890  1.00  0.00    -0.744 OA
ENDBRANCH  89  90
ENDBRANCH  63  84
ENDBRANCH  37  38
ENDBRANCH  30  32
ENDBRANCH  29  30
ENDBRANCH  28  29
ENDBRANCH   1  28
TORSDOF 18
ENDMDL
MODEL 2
REMARK VINA RESULT:     -10.6      6.655     11.919
REMARK SMILES CC[C@@H](C)N1C(=O)/C(=C/Nc2cccc(C(=O)OCCOC(=O)c3ccc(-c4c5nc(c(-c6ccc(S(=O)(=O)[O-])cc6)c6ccc([nH]6)c(-c6ccc(S(=O)(=O)[O-])cc6)c6nc(c(-c7ccc(S(=O)(=O)[O-])cc7)c7ccc4[nH]7)C=C6)C=C5)cc3)c2)C(=O)NC1=S
REMARK SMILES IDX 19 1 18 2 16 3 17 4 15 5 11 6 12 7 84 8 13 9 14 10 10 11
REMARK SMILES IDX 9 13 5 14 6 15 88 16 7 17 8 18 87 19 89 20 85 21 86 23 3 24
REMARK SMILES IDX 4 25 2 26 1 27 20 28 21 29 22 30 23 31 24 32 25 33 83 34
REMARK SMILES IDX 26 35 82 36 27 37 28 38 29 39 76 40 30 41 81 42 75 43 77 44
REMARK SMILES IDX 31 45 80 46 74 47 73 48 32 50 62 51 43 52 61 53 44 54 47 55
REMARK SMILES IDX 60 56 78 57 45 58 46 59 59 61 79 62 48 63 33 64 34 65 42 66
REMARK SMILES IDX 35 67 41 68 36 69 37 70 38 71 39 72 40 73 63 74 64 75 72 76
REMARK SMILES IDX 65 77 71 78 66 79 67 80 68 81 69 82 70 83 49 84 50 85 58 86
REMARK SMILES IDX 51 87 57 88 52 89 53 90 54 91 55 92 56 93
REMARK H PARENT 10 12 87 22 77 49 47 60
REMARK Flexibility Score: inf
ROOT
ATOM      1  C   UNL A   1      34.379  29.336  26.920  1.00  0.00     0.275 C 
ENDROOT
BRANCH   1   2
ATOM      2  O   UNL A   1      33.321  29.880  26.102  1.00  0.00    -0.458 OA
BRANCH   2   3
ATOM      3  C   UNL A   1      32.100  29.306  26.247  1.00  0.00     0.338 C 
ATOM      4  O   UNL A   1      31.556  29.022  27.303  1.00  0.00    -0.246 OA
BRANCH   3   5
ATOM      5  C   UNL A   1      31.429  29.156  24.930  1.00  0.00     0.062 A 
ATOM      6  C   UNL A   1      31.076  27.983  22.825  1.00  0.00     0.039 A 
ATOM      7  C   UNL A   1      30.232  29.023  22.413  1.00  0.00     0.026 A 
ATOM      8  C   UNL A   1      31.690  28.072  24.085  1.00  0.00     0.041 A 
ATOM      9  C   UNL A   1      29.941  30.089  23.263  1.00  0.00     0.003 A 
ATOM     10  C   UNL A   1      30.506  30.132  24.535  1.00  0.00     0.016 A 
BRANCH   6  11
ATOM     11  N   UNL A   1      31.193  26.847  22.008  1.00  0.00    -0.361 N 
ATOM     12  H   UNL A   1      31.264  27.005  21.039  1.00  0.00     0.166 HD
BRANCH  11  13
ATOM     13  C   UNL A   1      31.220  25.539  22.422  1.00  0.00     0.102 C 
ATOM     14  N   UNL A   1      32.772  23.291  24.482  1.00  0.00    -0.282 N 
ATOM     15  C   UNL A   1      32.038  23.456  23.305  1.00  0.00     0.267 C 
ATOM     16  C   UNL A   1      34.047  23.859  24.595  1.00  0.00     0.183 C 
ATOM     17  O   UNL A   1      31.239  22.655  22.834  1.00  0.00    -0.268 OA
ATOM     18  C   UNL A   1      32.281  24.756  22.666  1.00  0.00     0.121 C 
ATOM     19  N   UNL A   1      34.447  24.695  23.573  1.00  0.00    -0.298 N 
ATOM     20  S   UNL A   1      35.158  23.639  25.832  1.00  0.00    -0.040 S 
ATOM     21  C   UNL A   1      33.651  25.257  22.611  1.00  0.00     0.264 C 
ATOM     22  H   UNL A   1      35.406  24.911  23.532  1.00  0.00     0.172 HD
ATOM     23  O   UNL A   1      34.036  26.134  21.851  1.00  0.00    -0.269 OA
BRANCH  14  24
ATOM     24  C   UNL A   1      32.188  22.418  25.548  1.00  0.00     0.090 C 
ATOM     25  C   UNL A   1      32.167  20.940  25.137  1.00  0.00     0.031 C 
BRANCH  24  26
ATOM     26  C   UNL A   1      30.780  22.867  26.028  1.00  0.00     0.022 C 
ATOM     27  C   UNL A   1      30.712  24.311  26.503  1.00  0.00     0.006 C 
ENDBRANCH  24  26
ENDBRANCH  14  24
ENDBRANCH  11  13
ENDBRANCH   6  11
ENDBRANCH   3   5
ENDBRANCH   2   3
ENDBRANCH   1   2
BRANCH   1  28
ATOM     28  C   UNL A   1      34.842  30.348  27.967  1.00  0.00     0.275 C 
BRANCH  28  29
ATOM     29  O   UNL A   1      36.278  30.372  28.023  1.00  0.00    -0.458 OA
BRANCH  29  30
ATOM     30  C   UNL A   1      36.842  29.645  29.015  1.00  0.00     0.338 C 
ATOM     31  O   UNL A   1      36.341  29.318  30.076  1.00  0.00    -0.246 OA
BRANCH  30  32
ATOM     32  C   UNL A   1      38.180  29.212  28.589  1.00  0.00     0.060 A 
ATOM     33  C   UNL A   1      39.003  28.610  29.536  1.00  0.00     0.016 A 
ATOM     34  C   UNL A   1      38.672  29.513  27.322  1.00  0.00     0.016 A 
ATOM     35  C   UNL A   1      40.341  28.354  29.250  1.00  0.00     0.010 A 
ATOM     36  C   UNL A   1      40.004  29.204  27.013  1.00  0.00     0.010 A 
ATOM     37  C   UNL A   1      40.863  28.655  27.986  1.00  0.00    -0.014 A 
BRANCH  37  38
ATOM     38  C   UNL A   1      42.322  28.490  27.727  1.00  0.00     0.031 A 
ATOM     39  C   UNL A   1      43.275  29.609  28.065  1.00  0.00     0.074 A 
ATOM     40  C   UNL A   1      42.811  27.330  27.243  1.00  0.00     0.049 A 
ATOM     41  N   UNL A   1      44.558  29.707  27.822  1.00  0.00    -0.248 NA
ATOM     42  C   UNL A   1      42.709  30.775  28.763  1.00  0.00     0.031 C 
ATOM     43  C   UNL A   1      42.019  26.141  26.926  1.00  0.00     0.029 A 
ATOM     44  N   UNL A   1      44.099  26.957  26.946  1.00  0.00    -0.354 N 
ATOM     45  C   UNL A   1      44.939  30.962  28.283  1.00  0.00     0.074 A 
ATOM     46  C   UNL A   1      43.751  31.593  28.818  1.00  0.00     0.031 C 
ATOM     47  C   UNL A   1      42.841  25.160  26.516  1.00  0.00     0.029 A 
ATOM     48  C   UNL A   1      44.208  25.670  26.472  1.00  0.00     0.049 A 
ATOM     49  H   UNL A   1      44.874  27.554  27.063  1.00  0.00     0.167 HD
ATOM     50  C   UNL A   1      46.164  31.540  28.266  1.00  0.00     0.031 A 
ATOM     51  C   UNL A   1      45.278  24.984  26.025  1.00  0.00     0.031 A 
ATOM     52  C   UNL A   1      47.357  30.901  27.776  1.00  0.00     0.049 A 
ATOM     53  C   UNL A   1      46.625  25.653  25.993  1.00  0.00     0.074 A 
ATOM     54  C   UNL A   1      48.644  31.406  27.719  1.00  0.00     0.029 A 
ATOM     55  N   UNL A   1      47.412  29.609  27.274  1.00  0.00    -0.354 N 
ATOM     56  N   UNL A   1      46.954  26.861  26.383  1.00  0.00    -0.248 NA
ATOM     57  C   UNL A   1      47.743  24.867  25.452  1.00  0.00     0.031 C 
ATOM     58  C   UNL A   1      49.473  30.432  27.150  1.00  0.00     0.029 A 
ATOM     59  C   UNL A   1      48.710  29.304  26.898  1.00  0.00     0.049 A 
ATOM     60  H   UNL A   1      46.645  29.000  27.197  1.00  0.00     0.167 HD
ATOM     61  C   UNL A   1      48.318  26.977  26.143  1.00  0.00     0.074 A 
ATOM     62  C   UNL A   1      48.758  25.709  25.597  1.00  0.00     0.031 C 
ATOM     63  C   UNL A   1      49.133  28.040  26.354  1.00  0.00     0.031 A 
BRANCH  50  64
ATOM     64  C   UNL A   1      46.267  32.961  28.756  1.00  0.00    -0.014 A 
ATOM     65  C   UNL A   1      46.056  34.053  27.896  1.00  0.00     0.010 A 
ATOM     66  C   UNL A   1      46.557  33.203  30.111  1.00  0.00     0.010 A 
ATOM     67  C   UNL A   1      46.178  35.362  28.373  1.00  0.00     0.020 A 
ATOM     68  C   UNL A   1      46.655  34.509  30.598  1.00  0.00     0.020 A 
ATOM     69  C   UNL A   1      46.484  35.581  29.721  1.00  0.00     0.054 A 
BRANCH  69  70
ATOM     70  S   UNL A   1      46.629  37.287  30.320  1.00  0.00     0.124 S 
ATOM     71  O   UNL A   1      45.454  37.916  29.721  1.00  0.00    -0.237 OA
ATOM     72  O   UNL A   1      46.585  37.125  31.770  1.00  0.00    -0.237 OA
ATOM     73  O   UNL A   1      47.914  37.734  29.785  1.00  0.00    -0.744 OA
ENDBRANCH  69  70
ENDBRANCH  50  64
BRANCH  51  74
ATOM     74  C   UNL A   1      45.111  23.588  25.533  1.00  0.00    -0.014 A 
ATOM     75  C   UNL A   1      45.037  23.315  24.156  1.00  0.00     0.010 A 
ATOM     76  C   UNL A   1      45.035  22.521  26.448  1.00  0.00     0.010 A 
ATOM     77  C   UNL A   1      44.880  22.001  23.703  1.00  0.00     0.020 A 
ATOM     78  C   UNL A   1      44.908  21.204  25.997  1.00  0.00     0.020 A 
ATOM     79  C   UNL A   1      44.819  20.954  24.626  1.00  0.00     0.054 A 
BRANCH  79  80
ATOM     80  S   UNL A   1      44.680  19.250  24.018  1.00  0.00     0.124 S 
ATOM     81  O   UNL A   1      44.571  19.450  22.577  1.00  0.00    -0.237 OA
ATOM     82  O   UNL A   1      45.927  18.644  24.481  1.00  0.00    -0.237 OA
ATOM     83  O   UNL A   1      43.475  18.751  24.677  1.00  0.00    -0.744 OA
ENDBRANCH  79  80
ENDBRANCH  51  74
BRANCH  63  84
ATOM     84  C   UNL A   1      50.591  27.867  26.020  1.00  0.00    -0.014 A 
ATOM     85  C   UNL A   1      51.077  28.127  24.727  1.00  0.00     0.010 A 
ATOM     86  C   UNL A   1      51.491  27.474  27.027  1.00  0.00     0.010 A 
ATOM     87  C   UNL A   1      52.435  27.963  24.438  1.00  0.00     0.020 A 
ATOM     88  C   UNL A   1      52.852  27.332  26.747  1.00  0.00     0.020 A 
ATOM     89  C   UNL A   1      53.314  27.562  25.450  1.00  0.00     0.054 A 
BRANCH  89  90
ATOM     90  S   UNL A   1      55.076  27.383  25.059  1.00  0.00     0.124 S 
ATOM     91  O   UNL A   1      55.329  28.570  24.247  1.00  0.00    -0.237 OA
ATOM     92  O   UNL A   1      55.702  27.381  26.380  1.00  0.00    -0.237 OA
ATOM     93  O   UNL A   1      55.144  26.112  24.343  1.00  0.00    -0.744 OA
ENDBRANCH  89  90
ENDBRANCH  63  84
ENDBRANCH  37  38
ENDBRANCH  30  32
ENDBRANCH  29  30
ENDBRANCH  28  29
ENDBRANCH   1  28
TORSDOF 18
ENDMDL
MODEL 3
REMARK VINA RESULT:     -10.6      1.235      2.025
REMARK SMILES CC[C@@H](C)N1C(=O)/C(=C/Nc2cccc(C(=O)OCCOC(=O)c3ccc(-c4c5nc(c(-c6ccc(S(=O)(=O)[O-])cc6)c6ccc([nH]6)c(-c6ccc(S(=O)(=O)[O-])cc6)c6nc(c(-c7ccc(S(=O)(=O)[O-])cc7)c7ccc4[nH]7)C=C6)C=C5)cc3)c2)C(=O)NC1=S
REMARK SMILES IDX 19 1 18 2 16 3 17 4 15 5 11 6 12 7 84 8 13 9 14 10 10 11
REMARK SMILES IDX 9 13 5 14 6 15 88 16 7 17 8 18 87 19 89 20 85 21 86 23 3 24
REMARK SMILES IDX 4 25 2 26 1 27 20 28 21 29 22 30 23 31 24 32 25 33 83 34
REMARK SMILES IDX 26 35 82 36 27 37 28 38 29 39 76 40 30 41 81 42 75 43 77 44
REMARK SMILES IDX 31 45 80 46 74 47 73 48 32 50 62 51 43 52 61 53 44 54 47 55
REMARK SMILES IDX 60 56 78 57 45 58 46 59 59 61 79 62 48 63 33 64 34 65 42 66
REMARK SMILES IDX 35 67 41 68 36 69 37 70 38 71 39 72 40 73 63 74 64 75 72 76
REMARK SMILES IDX 65 77 71 78 66 79 67 80 68 81 69 82 70 83 49 84 50 85 58 86
REMARK SMILES IDX 51 87 57 88 52 89 53 90 54 91 55 92 56 93
REMARK H PARENT 10 12 87 22 77 49 47 60
REMARK Flexibility Score: inf
ROOT
ATOM      1  C   UNL A   1      44.562  24.229  24.740  1.00  0.00     0.275 C 
ENDROOT
BRANCH   1   2
ATOM      2  O   UNL A   1      44.755  23.010  25.488  1.00  0.00    -0.458 OA
BRANCH   2   3
ATOM      3  C   UNL A   1      43.827  22.038  25.296  1.00  0.00     0.338 C 
ATOM      4  O   UNL A   1      43.935  21.071  24.558  1.00  0.00    -0.246 OA
BRANCH   3   5
ATOM      5  C   UNL A   1      42.665  22.234  26.200  1.00  0.00     0.062 A 
ATOM      6  C   UNL A   1      40.276  22.158  26.668  1.00  0.00     0.039 A 
ATOM      7  C   UNL A   1      40.522  22.767  27.906  1.00  0.00     0.026 A 
ATOM      8  C   UNL A   1      41.360  21.916  25.808  1.00  0.00     0.041 A 
ATOM      9  C   UNL A   1      41.823  23.057  28.316  1.00  0.00     0.003 A 
ATOM     10  C   UNL A   1      42.894  22.752  27.481  1.00  0.00     0.016 A 
BRANCH   6  11
ATOM     11  N   UNL A   1      38.973  21.721  26.380  1.00  0.00    -0.361 N 
ATOM     12  H   UNL A   1      38.618  20.991  26.936  1.00  0.00     0.166 HD
BRANCH  11  13
ATOM     13  C   UNL A   1      38.142  22.209  25.402  1.00  0.00     0.102 C 
ATOM     14  N   UNL A   1      34.957  22.150  24.158  1.00  0.00    -0.282 N 
ATOM     15  C   UNL A   1      36.303  22.366  23.859  1.00  0.00     0.267 C 
ATOM     16  C   UNL A   1      34.526  20.882  24.567  1.00  0.00     0.183 C 
ATOM     17  O   UNL A   1      36.743  23.153  23.029  1.00  0.00    -0.268 OA
ATOM     18  C   UNL A   1      37.203  21.561  24.697  1.00  0.00     0.121 C 
ATOM     19  N   UNL A   1      35.506  19.941  24.805  1.00  0.00    -0.298 N 
ATOM     20  S   UNL A   1      32.948  20.364  24.801  1.00  0.00    -0.040 S 
ATOM     21  C   UNL A   1      36.847  20.171  24.961  1.00  0.00     0.264 C 
ATOM     22  H   UNL A   1      35.210  19.004  24.869  1.00  0.00     0.172 HD
ATOM     23  O   UNL A   1      37.632  19.319  25.355  1.00  0.00    -0.269 OA
BRANCH  14  24
ATOM     24  C   UNL A   1      34.004  23.282  23.927  1.00  0.00     0.090 C 
ATOM     25  C   UNL A   1      33.599  23.405  22.453  1.00  0.00     0.031 C 
BRANCH  24  26
ATOM     26  C   UNL A   1      34.510  24.649  24.467  1.00  0.00     0.022 C 
ATOM     27  C   UNL A   1      34.532  24.752  25.985  1.00  0.00     0.006 C 
ENDBRANCH  24  26
ENDBRANCH  14  24
ENDBRANCH  11  13
ENDBRANCH   6  11
ENDBRANCH   3   5
ENDBRANCH   2   3
ENDBRANCH   1   2
BRANCH   1  28
ATOM     28  C   UNL A   1      44.638  25.454  25.651  1.00  0.00     0.275 C 
BRANCH  28  29
ATOM     29  O   UNL A   1      43.686  26.441  25.221  1.00  0.00    -0.458 OA
BRANCH  29  30
ATOM     30  C   UNL A   1      42.444  26.331  25.746  1.00  0.00     0.338 C 
ATOM     31  O   UNL A   1      41.485  25.748  25.274  1.00  0.00    -0.246 OA
BRANCH  30  32
ATOM     32  C   UNL A   1      42.424  26.976  27.066  1.00  0.00     0.060 A 
ATOM     33  C   UNL A   1      41.663  26.385  28.070  1.00  0.00     0.016 A 
ATOM     34  C   UNL A   1      43.028  28.212  27.281  1.00  0.00     0.016 A 
ATOM     35  C   UNL A   1      41.448  27.044  29.277  1.00  0.00     0.010 A 
ATOM     36  C   UNL A   1      42.861  28.852  28.517  1.00  0.00     0.010 A 
ATOM     37  C   UNL A   1      42.037  28.292  29.515  1.00  0.00    -0.014 A 
BRANCH  37  38
ATOM     38  C   UNL A   1      41.706  29.045  30.758  1.00  0.00     0.031 A 
ATOM     39  C   UNL A   1      40.474  29.913  30.804  1.00  0.00     0.074 A 
ATOM     40  C   UNL A   1      42.467  28.918  31.865  1.00  0.00     0.049 A 
ATOM     41  N   UNL A   1      40.068  30.727  31.746  1.00  0.00    -0.248 NA
ATOM     42  C   UNL A   1      39.585  29.865  29.632  1.00  0.00     0.031 C 
ATOM     43  C   UNL A   1      43.653  28.069  31.989  1.00  0.00     0.029 A 
ATOM     44  N   UNL A   1      42.343  29.495  33.106  1.00  0.00    -0.354 N 
ATOM     45  C   UNL A   1      38.912  31.327  31.259  1.00  0.00     0.074 A 
ATOM     46  C   UNL A   1      38.683  30.787  29.936  1.00  0.00     0.031 C 
ATOM     47  C   UNL A   1      44.124  28.152  33.244  1.00  0.00     0.029 A 
ATOM     48  C   UNL A   1      43.321  29.112  33.995  1.00  0.00     0.049 A 
ATOM     49  H   UNL A   1      41.622  30.125  33.338  1.00  0.00     0.167 HD
ATOM     50  C   UNL A   1      38.112  32.243  31.856  1.00  0.00     0.031 A 
ATOM     51  C   UNL A   1      43.563  29.506  35.260  1.00  0.00     0.031 A 
ATOM     52  C   UNL A   1      38.311  32.750  33.188  1.00  0.00     0.049 A 
ATOM     53  C   UNL A   1      42.676  30.541  35.896  1.00  0.00     0.074 A 
ATOM     54  C   UNL A   1      37.553  33.679  33.879  1.00  0.00     0.029 A 
ATOM     55  N   UNL A   1      39.334  32.357  34.039  1.00  0.00    -0.354 N 
ATOM     56  N   UNL A   1      41.619  31.138  35.397  1.00  0.00    -0.248 NA
ATOM     57  C   UNL A   1      43.020  30.963  37.261  1.00  0.00     0.031 C 
ATOM     58  C   UNL A   1      38.136  33.875  35.136  1.00  0.00     0.029 A 
ATOM     59  C   UNL A   1      39.230  33.032  35.244  1.00  0.00     0.049 A 
ATOM     60  H   UNL A   1      40.030  31.698  33.819  1.00  0.00     0.167 HD
ATOM     61  C   UNL A   1      41.167  31.998  36.392  1.00  0.00     0.074 A 
ATOM     62  C   UNL A   1      42.050  31.827  37.528  1.00  0.00     0.031 C 
ATOM     63  C   UNL A   1      40.117  32.854  36.365  1.00  0.00     0.031 A 
BRANCH  50  64
ATOM     64  C   UNL A   1      36.965  32.792  31.049  1.00  0.00    -0.014 A 
ATOM     65  C   UNL A   1      35.648  32.340  31.238  1.00  0.00     0.010 A 
ATOM     66  C   UNL A   1      37.213  33.801  30.099  1.00  0.00     0.010 A 
ATOM     67  C   UNL A   1      34.606  32.853  30.460  1.00  0.00     0.020 A 
ATOM     68  C   UNL A   1      36.171  34.335  29.337  1.00  0.00     0.020 A 
ATOM     69  C   UNL A   1      34.876  33.843  29.509  1.00  0.00     0.054 A 
BRANCH  69  70
ATOM     70  S   UNL A   1      33.507  34.501  28.517  1.00  0.00     0.124 S 
ATOM     71  O   UNL A   1      33.112  33.331  27.737  1.00  0.00    -0.237 OA
ATOM     72  O   UNL A   1      32.550  34.932  29.532  1.00  0.00    -0.237 OA
ATOM     73  O   UNL A   1      34.123  35.581  27.749  1.00  0.00    -0.744 OA
ENDBRANCH  69  70
ENDBRANCH  50  64
BRANCH  51  74
ATOM     74  C   UNL A   1      44.725  28.944  36.002  1.00  0.00    -0.014 A 
ATOM     75  C   UNL A   1      44.585  27.787  36.789  1.00  0.00     0.010 A 
ATOM     76  C   UNL A   1      45.986  29.564  35.916  1.00  0.00     0.010 A 
ATOM     77  C   UNL A   1      45.682  27.266  37.483  1.00  0.00     0.020 A 
ATOM     78  C   UNL A   1      47.090  29.029  36.585  1.00  0.00     0.020 A 
ATOM     79  C   UNL A   1      46.928  27.888  37.374  1.00  0.00     0.054 A 
BRANCH  79  80
ATOM     80  S   UNL A   1      48.354  27.162  38.230  1.00  0.00     0.124 S 
ATOM     81  O   UNL A   1      49.054  26.493  37.138  1.00  0.00    -0.237 OA
ATOM     82  O   UNL A   1      49.023  28.336  38.786  1.00  0.00    -0.237 OA
ATOM     83  O   UNL A   1      47.743  26.279  39.220  1.00  0.00    -0.744 OA
ENDBRANCH  79  80
ENDBRANCH  51  74
BRANCH  63  84
ATOM     84  C   UNL A   1      39.846  33.651  37.613  1.00  0.00    -0.014 A 
ATOM     85  C   UNL A   1      39.059  33.128  38.655  1.00  0.00     0.010 A 
ATOM     86  C   UNL A   1      40.417  34.928  37.759  1.00  0.00     0.010 A 
ATOM     87  C   UNL A   1      38.822  33.883  39.806  1.00  0.00     0.020 A 
ATOM     88  C   UNL A   1      40.201  35.676  38.919  1.00  0.00     0.020 A 
ATOM     89  C   UNL A   1      39.391  35.155  39.929  1.00  0.00     0.054 A 
BRANCH  89  90
ATOM     90  S   UNL A   1      39.093  36.105  41.445  1.00  0.00     0.124 S 
ATOM     91  O   UNL A   1      37.841  35.527  41.926  1.00  0.00    -0.237 OA
ATOM     92  O   UNL A   1      40.273  35.806  42.253  1.00  0.00    -0.237 OA
ATOM     93  O   UNL A   1      39.001  37.485  40.975  1.00  0.00    -0.744 OA
ENDBRANCH  89  90
ENDBRANCH  63  84
ENDBRANCH  37  38
ENDBRANCH  30  32
ENDBRANCH  29  30
ENDBRANCH  28  29
ENDBRANCH   1  28
TORSDOF 18
ENDMDL
