MODEL 1
REMARK VINA RESULT:     -11.0      0.000      0.000
REMARK SMILES C[C@H]([C@@H]1CCCO1)n1c(SCC(=O)OCCOC(=O)c2ccc(-c3c4nc(c(-c5ccc(S(=O)(=O)[O-])cc5)c5ccc([nH]5)c(-c5ccc(S(=O)(=O)[O-])cc5)c5nc(c(-c6ccc(S(=O)(=O)[O-])cc6)c6ccc3[nH]6)C=C5)C=C4)cc2)nc2cnccc21
REMARK SMILES IDX 15 1 14 2 12 3 13 4 11 5 10 6 9 7 8 8 86 9 80 10 81 11 85 12
REMARK SMILES IDX 82 13 84 14 83 15 2 16 1 17 3 18 4 19 7 20 5 21 6 22 16 23
REMARK SMILES IDX 17 24 18 25 19 26 20 27 21 28 79 29 22 30 78 31 23 32 24 33
REMARK SMILES IDX 25 34 72 35 26 36 77 37 71 38 73 39 27 40 76 41 70 42 69 43
REMARK SMILES IDX 28 45 58 46 39 47 57 48 40 49 43 50 56 51 74 52 41 53 42 54
REMARK SMILES IDX 55 56 75 57 44 58 29 59 30 60 38 61 31 62 37 63 32 64 33 65
REMARK SMILES IDX 34 66 35 67 36 68 59 69 60 70 68 71 61 72 67 73 62 74 63 75
REMARK SMILES IDX 64 76 65 77 66 78 45 79 46 80 54 81 47 82 53 83 48 84 49 85
REMARK SMILES IDX 50 86 51 87 52 88
REMARK H PARENT 73 44 43 55
REMARK Flexibility Score: inf
ROOT
ATOM      1  C   UNL A   1      40.331  21.810  27.020  1.00  0.00     0.274 C 
ENDROOT
BRANCH   1   2
ATOM      2  O   UNL A   1      39.161  22.140  26.230  1.00  0.00    -0.461 OA
BRANCH   2   3
ATOM      3  C   UNL A   1      38.657  23.408  26.309  1.00  0.00     0.316 C 
ATOM      4  O   UNL A   1      39.214  24.328  26.898  1.00  0.00    -0.251 OA
BRANCH   3   5
ATOM      5  C   UNL A   1      37.370  23.624  25.495  1.00  0.00     0.200 C 
BRANCH   5   6
ATOM      6  S   UNL A   1      36.597  22.102  24.931  1.00  0.00    -0.076 SA
BRANCH   6   7
ATOM      7  C   UNL A   1      35.186  22.385  23.920  1.00  0.00     0.170 A 
ATOM      8  N   UNL A   1      33.859  22.137  24.241  1.00  0.00    -0.313 N 
ATOM      9  C   UNL A   1      33.212  23.368  24.162  1.00  0.00     0.072 A 
ATOM     10  N   UNL A   1      35.246  23.471  23.164  1.00  0.00    -0.221 NA
ATOM     11  C   UNL A   1      34.086  24.160  23.427  1.00  0.00     0.108 A 
ATOM     12  C   UNL A   1      31.999  23.861  24.650  1.00  0.00     0.049 A 
ATOM     13  C   UNL A   1      33.720  25.480  23.143  1.00  0.00     0.141 A 
ATOM     14  C   UNL A   1      31.746  25.193  24.354  1.00  0.00     0.113 A 
ATOM     15  N   UNL A   1      32.554  25.994  23.620  1.00  0.00    -0.262 NA
BRANCH   8  16
ATOM     16  C   UNL A   1      33.170  20.939  24.698  1.00  0.00     0.116 C 
ATOM     17  C   UNL A   1      33.243  20.796  26.187  1.00  0.00     0.034 C 
BRANCH  16  18
ATOM     18  C   UNL A   1      33.481  19.601  24.010  1.00  0.00     0.141 C 
ATOM     19  C   UNL A   1      32.386  18.864  23.270  1.00  0.00     0.036 C 
ATOM     20  O   UNL A   1      34.074  18.644  24.901  1.00  0.00    -0.376 OA
ATOM     21  C   UNL A   1      33.050  17.522  23.068  1.00  0.00     0.031 C 
ATOM     22  C   UNL A   1      33.791  17.332  24.378  1.00  0.00     0.160 C 
ENDBRANCH  16  18
ENDBRANCH   8  16
ENDBRANCH   6   7
ENDBRANCH   5   6
ENDBRANCH   3   5
ENDBRANCH   2   3
ENDBRANCH   1   2
BRANCH   1  23
ATOM     23  C   UNL A   1      41.590  21.734  26.124  1.00  0.00     0.275 C 
BRANCH  23  24
ATOM     24  O   UNL A   1      42.311  22.977  26.260  1.00  0.00    -0.458 OA
BRANCH  24  25
ATOM     25  C   UNL A   1      43.577  22.982  26.751  1.00  0.00     0.338 C 
ATOM     26  O   UNL A   1      44.496  22.252  26.418  1.00  0.00    -0.246 OA
BRANCH  25  27
ATOM     27  C   UNL A   1      43.717  24.274  27.484  1.00  0.00     0.060 A 
ATOM     28  C   UNL A   1      43.092  24.438  28.728  1.00  0.00     0.016 A 
ATOM     29  C   UNL A   1      44.069  25.393  26.730  1.00  0.00     0.016 A 
ATOM     30  C   UNL A   1      42.551  25.677  29.074  1.00  0.00     0.010 A 
ATOM     31  C   UNL A   1      43.533  26.629  27.091  1.00  0.00     0.010 A 
ATOM     32  C   UNL A   1      42.658  26.752  28.192  1.00  0.00    -0.014 A 
BRANCH  32  33
ATOM     33  C   UNL A   1      41.978  28.027  28.476  1.00  0.00     0.031 A 
ATOM     34  C   UNL A   1      42.789  29.226  28.188  1.00  0.00     0.074 A 
ATOM     35  C   UNL A   1      40.720  28.293  28.901  1.00  0.00     0.049 A 
ATOM     36  N   UNL A   1      43.664  29.742  28.981  1.00  0.00    -0.248 NA
ATOM     37  C   UNL A   1      42.739  29.827  26.852  1.00  0.00     0.031 C 
ATOM     38  C   UNL A   1      39.526  27.448  28.973  1.00  0.00     0.029 A 
ATOM     39  N   UNL A   1      40.259  29.503  29.354  1.00  0.00    -0.354 N 
ATOM     40  C   UNL A   1      44.172  30.841  28.313  1.00  0.00     0.074 A 
ATOM     41  C   UNL A   1      43.732  30.713  26.944  1.00  0.00     0.031 C 
ATOM     42  C   UNL A   1      38.446  28.215  29.288  1.00  0.00     0.029 A 
ATOM     43  C   UNL A   1      38.898  29.558  29.618  1.00  0.00     0.049 A 
ATOM     44  H   UNL A   1      40.852  30.278  29.483  1.00  0.00     0.167 HD
ATOM     45  C   UNL A   1      44.748  31.879  28.976  1.00  0.00     0.031 A 
ATOM     46  C   UNL A   1      38.227  30.628  30.119  1.00  0.00     0.031 A 
ATOM     47  C   UNL A   1      44.834  31.629  30.395  1.00  0.00     0.049 A 
ATOM     48  C   UNL A   1      39.196  31.440  30.893  1.00  0.00     0.074 A 
ATOM     49  C   UNL A   1      45.486  30.715  31.196  1.00  0.00     0.029 A 
ATOM     50  N   UNL A   1      43.824  32.167  31.162  1.00  0.00    -0.354 N 
ATOM     51  N   UNL A   1      39.769  31.028  31.988  1.00  0.00    -0.248 NA
ATOM     52  C   UNL A   1      39.767  32.646  30.312  1.00  0.00     0.031 C 
ATOM     53  C   UNL A   1      44.594  30.454  32.279  1.00  0.00     0.029 A 
ATOM     54  C   UNL A   1      43.452  31.240  32.106  1.00  0.00     0.049 A 
ATOM     55  H   UNL A   1      43.435  33.065  31.053  1.00  0.00     0.167 HD
ATOM     56  C   UNL A   1      41.002  31.653  32.002  1.00  0.00     0.074 A 
ATOM     57  C   UNL A   1      40.877  32.746  31.047  1.00  0.00     0.031 C 
ATOM     58  C   UNL A   1      42.087  31.053  32.573  1.00  0.00     0.031 A 
BRANCH  45  59
ATOM     59  C   UNL A   1      44.940  33.252  28.400  1.00  0.00    -0.014 A 
ATOM     60  C   UNL A   1      43.876  34.139  28.144  1.00  0.00     0.010 A 
ATOM     61  C   UNL A   1      46.246  33.762  28.271  1.00  0.00     0.010 A 
ATOM     62  C   UNL A   1      44.093  35.449  27.720  1.00  0.00     0.020 A 
ATOM     63  C   UNL A   1      46.476  35.092  27.897  1.00  0.00     0.020 A 
ATOM     64  C   UNL A   1      45.395  35.923  27.608  1.00  0.00     0.054 A 
BRANCH  64  65
ATOM     65  S   UNL A   1      45.631  37.660  27.167  1.00  0.00     0.124 S 
ATOM     66  O   UNL A   1      44.267  38.078  26.857  1.00  0.00    -0.237 OA
ATOM     67  O   UNL A   1      46.198  38.218  28.392  1.00  0.00    -0.237 OA
ATOM     68  O   UNL A   1      46.545  37.602  26.029  1.00  0.00    -0.744 OA
ENDBRANCH  64  65
ENDBRANCH  45  59
BRANCH  46  69
ATOM     69  C   UNL A   1      36.876  31.164  29.824  1.00  0.00    -0.014 A 
ATOM     70  C   UNL A   1      36.513  31.404  28.486  1.00  0.00     0.010 A 
ATOM     71  C   UNL A   1      36.114  31.786  30.837  1.00  0.00     0.010 A 
ATOM     72  C   UNL A   1      35.493  32.312  28.167  1.00  0.00     0.020 A 
ATOM     73  C   UNL A   1      35.090  32.695  30.524  1.00  0.00     0.020 A 
ATOM     74  C   UNL A   1      34.816  32.984  29.188  1.00  0.00     0.054 A 
BRANCH  74  75
ATOM     75  S   UNL A   1      33.652  34.305  28.733  1.00  0.00     0.124 S 
ATOM     76  O   UNL A   1      32.746  33.608  27.824  1.00  0.00    -0.237 OA
ATOM     77  O   UNL A   1      33.079  34.678  30.025  1.00  0.00    -0.237 OA
ATOM     78  O   UNL A   1      34.499  35.320  28.114  1.00  0.00    -0.744 OA
ENDBRANCH  74  75
ENDBRANCH  46  69
BRANCH  58  79
ATOM     79  C   UNL A   1      41.850  29.918  33.551  1.00  0.00    -0.014 A 
ATOM     80  C   UNL A   1      42.037  30.183  34.921  1.00  0.00     0.010 A 
ATOM     81  C   UNL A   1      41.597  28.587  33.161  1.00  0.00     0.010 A 
ATOM     82  C   UNL A   1      42.013  29.154  35.867  1.00  0.00     0.020 A 
ATOM     83  C   UNL A   1      41.542  27.554  34.108  1.00  0.00     0.020 A 
ATOM     84  C   UNL A   1      41.781  27.842  35.452  1.00  0.00     0.054 A 
BRANCH  84  85
ATOM     85  S   UNL A   1      41.830  26.522  36.695  1.00  0.00     0.124 S 
ATOM     86  O   UNL A   1      42.134  25.345  35.883  1.00  0.00    -0.237 OA
ATOM     87  O   UNL A   1      42.902  26.957  37.590  1.00  0.00    -0.237 OA
ATOM     88  O   UNL A   1      40.492  26.539  37.282  1.00  0.00    -0.744 OA
ENDBRANCH  84  85
ENDBRANCH  58  79
ENDBRANCH  32  33
ENDBRANCH  25  27
ENDBRANCH  24  25
ENDBRANCH  23  24
ENDBRANCH   1  23
TORSDOF 18
ENDMDL
MODEL 2
REMARK VINA RESULT:     -10.9      1.745      3.179
REMARK SMILES C[C@H]([C@@H]1CCCO1)n1c(SCC(=O)OCCOC(=O)c2ccc(-c3c4nc(c(-c5ccc(S(=O)(=O)[O-])cc5)c5ccc([nH]5)c(-c5ccc(S(=O)(=O)[O-])cc5)c5nc(c(-c6ccc(S(=O)(=O)[O-])cc6)c6ccc3[nH]6)C=C5)C=C4)cc2)nc2cnccc21
REMARK SMILES IDX 15 1 14 2 12 3 13 4 11 5 10 6 9 7 8 8 86 9 80 10 81 11 85 12
REMARK SMILES IDX 82 13 84 14 83 15 2 16 1 17 3 18 4 19 7 20 5 21 6 22 16 23
REMARK SMILES IDX 17 24 18 25 19 26 20 27 21 28 79 29 22 30 78 31 23 32 24 33
REMARK SMILES IDX 25 34 72 35 26 36 77 37 71 38 73 39 27 40 76 41 70 42 69 43
REMARK SMILES IDX 28 45 58 46 39 47 57 48 40 49 43 50 56 51 74 52 41 53 42 54
REMARK SMILES IDX 55 56 75 57 44 58 29 59 30 60 38 61 31 62 37 63 32 64 33 65
REMARK SMILES IDX 34 66 35 67 36 68 59 69 60 70 68 71 61 72 67 73 62 74 63 75
REMARK SMILES IDX 64 76 65 77 66 78 45 79 46 80 54 81 47 82 53 83 48 84 49 85
REMARK SMILES IDX 50 86 51 87 52 88
REMARK H PARENT 73 44 43 55
REMARK Flexibility Score: inf
ROOT
ATOM      1  C   UNL A   1      39.395  20.758  26.038  1.00  0.00     0.274 C 
ENDROOT
BRANCH   1   2
ATOM      2  O   UNL A   1      38.687  20.016  25.012  1.00  0.00    -0.461 OA
BRANCH   2   3
ATOM      3  C   UNL A   1      37.348  20.235  24.857  1.00  0.00     0.316 C 
ATOM      4  O   UNL A   1      36.496  19.359  24.965  1.00  0.00    -0.251 OA
BRANCH   3   5
ATOM      5  C   UNL A   1      36.974  21.710  24.641  1.00  0.00     0.200 C 
BRANCH   5   6
ATOM      6  S   UNL A   1      35.984  22.416  25.965  1.00  0.00    -0.076 SA
BRANCH   6   7
ATOM      7  C   UNL A   1      34.269  22.057  25.803  1.00  0.00     0.170 A 
ATOM      8  N   UNL A   1      33.472  22.247  24.682  1.00  0.00    -0.313 N 
ATOM      9  C   UNL A   1      32.986  20.987  24.343  1.00  0.00     0.072 A 
ATOM     10  N   UNL A   1      33.861  20.967  26.435  1.00  0.00    -0.221 NA
ATOM     11  C   UNL A   1      33.192  20.228  25.489  1.00  0.00     0.108 A 
ATOM     12  C   UNL A   1      32.417  20.444  23.188  1.00  0.00     0.049 A 
ATOM     13  C   UNL A   1      32.785  18.890  25.491  1.00  0.00     0.141 A 
ATOM     14  C   UNL A   1      32.087  19.099  23.273  1.00  0.00     0.113 A 
ATOM     15  N   UNL A   1      32.245  18.328  24.375  1.00  0.00    -0.262 NA
BRANCH   8  16
ATOM     16  C   UNL A   1      33.206  23.418  23.859  1.00  0.00     0.116 C 
ATOM     17  C   UNL A   1      34.440  23.886  23.153  1.00  0.00     0.034 C 
BRANCH  16  18
ATOM     18  C   UNL A   1      32.455  24.604  24.483  1.00  0.00     0.141 C 
ATOM     19  C   UNL A   1      33.198  25.583  25.366  1.00  0.00     0.036 C 
ATOM     20  O   UNL A   1      31.296  24.197  25.226  1.00  0.00    -0.376 OA
ATOM     21  C   UNL A   1      32.037  26.331  25.979  1.00  0.00     0.031 C 
ATOM     22  C   UNL A   1      31.025  25.222  26.201  1.00  0.00     0.160 C 
ENDBRANCH  16  18
ENDBRANCH   8  16
ENDBRANCH   6   7
ENDBRANCH   5   6
ENDBRANCH   3   5
ENDBRANCH   2   3
ENDBRANCH   1   2
BRANCH   1  23
ATOM     23  C   UNL A   1      40.843  20.232  26.188  1.00  0.00     0.275 C 
BRANCH  23  24
ATOM     24  O   UNL A   1      41.551  21.120  27.080  1.00  0.00    -0.458 OA
BRANCH  24  25
ATOM     25  C   UNL A   1      41.953  22.343  26.648  1.00  0.00     0.338 C 
ATOM     26  O   UNL A   1      42.324  22.638  25.525  1.00  0.00    -0.246 OA
BRANCH  25  27
ATOM     27  C   UNL A   1      41.496  23.306  27.692  1.00  0.00     0.060 A 
ATOM     28  C   UNL A   1      40.243  23.923  27.569  1.00  0.00     0.016 A 
ATOM     29  C   UNL A   1      42.483  23.890  28.488  1.00  0.00     0.016 A 
ATOM     30  C   UNL A   1      40.078  25.247  27.979  1.00  0.00     0.010 A 
ATOM     31  C   UNL A   1      42.303  25.210  28.902  1.00  0.00     0.010 A 
ATOM     32  C   UNL A   1      41.153  25.941  28.533  1.00  0.00    -0.014 A 
BRANCH  32  33
ATOM     33  C   UNL A   1      41.040  27.376  28.846  1.00  0.00     0.031 A 
ATOM     34  C   UNL A   1      42.171  28.193  28.364  1.00  0.00     0.074 A 
ATOM     35  C   UNL A   1      40.054  28.084  29.445  1.00  0.00     0.049 A 
ATOM     36  N   UNL A   1      43.293  28.349  28.980  1.00  0.00    -0.248 NA
ATOM     37  C   UNL A   1      42.120  28.775  27.020  1.00  0.00     0.031 C 
ATOM     38  C   UNL A   1      38.665  27.737  29.752  1.00  0.00     0.029 A 
ATOM     39  N   UNL A   1      40.147  29.377  29.894  1.00  0.00    -0.354 N 
ATOM     40  C   UNL A   1      44.046  29.186  28.177  1.00  0.00     0.074 A 
ATOM     41  C   UNL A   1      43.368  29.233  26.903  1.00  0.00     0.031 C 
ATOM     42  C   UNL A   1      38.006  28.847  30.188  1.00  0.00     0.029 A 
ATOM     43  C   UNL A   1      38.964  29.929  30.364  1.00  0.00     0.049 A 
ATOM     44  H   UNL A   1      40.993  29.880  29.882  1.00  0.00     0.167 HD
ATOM     45  C   UNL A   1      45.062  29.938  28.680  1.00  0.00     0.031 A 
ATOM     46  C   UNL A   1      38.820  31.169  30.900  1.00  0.00     0.031 A 
ATOM     47  C   UNL A   1      45.286  29.669  30.080  1.00  0.00     0.049 A 
ATOM     48  C   UNL A   1      40.134  31.565  31.465  1.00  0.00     0.074 A 
ATOM     49  C   UNL A   1      45.686  28.576  30.821  1.00  0.00     0.029 A 
ATOM     50  N   UNL A   1      44.685  30.538  30.962  1.00  0.00    -0.354 N 
ATOM     51  N   UNL A   1      40.691  30.968  32.479  1.00  0.00    -0.248 NA
ATOM     52  C   UNL A   1      40.997  32.478  30.732  1.00  0.00     0.031 C 
ATOM     53  C   UNL A   1      44.955  28.658  32.044  1.00  0.00     0.029 A 
ATOM     54  C   UNL A   1      44.164  29.810  32.005  1.00  0.00     0.049 A 
ATOM     55  H   UNL A   1      44.636  31.516  30.863  1.00  0.00     0.167 HD
ATOM     56  C   UNL A   1      42.051  31.095  32.262  1.00  0.00     0.074 A 
ATOM     57  C   UNL A   1      42.174  32.160  31.277  1.00  0.00     0.031 C 
ATOM     58  C   UNL A   1      42.923  30.136  32.690  1.00  0.00     0.031 A 
BRANCH  45  59
ATOM     59  C   UNL A   1      45.640  31.146  28.002  1.00  0.00    -0.014 A 
ATOM     60  C   UNL A   1      45.210  32.461  28.266  1.00  0.00     0.010 A 
ATOM     61  C   UNL A   1      46.785  30.994  27.196  1.00  0.00     0.010 A 
ATOM     62  C   UNL A   1      45.845  33.570  27.709  1.00  0.00     0.020 A 
ATOM     63  C   UNL A   1      47.462  32.104  26.675  1.00  0.00     0.020 A 
ATOM     64  C   UNL A   1      46.976  33.386  26.923  1.00  0.00     0.054 A 
BRANCH  64  65
ATOM     65  S   UNL A   1      47.836  34.855  26.315  1.00  0.00     0.124 S 
ATOM     66  O   UNL A   1      47.771  34.663  24.869  1.00  0.00    -0.237 OA
ATOM     67  O   UNL A   1      47.012  35.939  26.845  1.00  0.00    -0.237 OA
ATOM     68  O   UNL A   1      49.166  34.741  26.905  1.00  0.00    -0.744 OA
ENDBRANCH  64  65
ENDBRANCH  45  59
BRANCH  46  69
ATOM     69  C   UNL A   1      37.727  32.165  30.789  1.00  0.00    -0.014 A 
ATOM     70  C   UNL A   1      36.419  31.787  31.144  1.00  0.00     0.010 A 
ATOM     71  C   UNL A   1      37.889  33.321  29.995  1.00  0.00     0.010 A 
ATOM     72  C   UNL A   1      35.308  32.477  30.640  1.00  0.00     0.020 A 
ATOM     73  C   UNL A   1      36.779  34.018  29.489  1.00  0.00     0.020 A 
ATOM     74  C   UNL A   1      35.494  33.563  29.781  1.00  0.00     0.054 A 
BRANCH  74  75
ATOM     75  S   UNL A   1      34.034  34.297  28.983  1.00  0.00     0.124 S 
ATOM     76  O   UNL A   1      34.625  35.403  28.233  1.00  0.00    -0.237 OA
ATOM     77  O   UNL A   1      33.527  33.191  28.175  1.00  0.00    -0.237 OA
ATOM     78  O   UNL A   1      33.183  34.687  30.104  1.00  0.00    -0.744 OA
ENDBRANCH  74  75
ENDBRANCH  46  69
BRANCH  58  79
ATOM     79  C   UNL A   1      42.457  29.165  33.758  1.00  0.00    -0.014 A 
ATOM     80  C   UNL A   1      42.867  29.401  35.084  1.00  0.00     0.010 A 
ATOM     81  C   UNL A   1      41.764  27.969  33.481  1.00  0.00     0.010 A 
ATOM     82  C   UNL A   1      42.632  28.463  36.093  1.00  0.00     0.020 A 
ATOM     83  C   UNL A   1      41.497  27.036  34.494  1.00  0.00     0.020 A 
ATOM     84  C   UNL A   1      41.962  27.277  35.788  1.00  0.00     0.054 A 
BRANCH  84  85
ATOM     85  S   UNL A   1      41.738  26.048  37.104  1.00  0.00     0.124 S 
ATOM     86  O   UNL A   1      42.799  26.407  38.043  1.00  0.00    -0.237 OA
ATOM     87  O   UNL A   1      40.377  26.314  37.569  1.00  0.00    -0.237 OA
ATOM     88  O   UNL A   1      41.919  24.767  36.426  1.00  0.00    -0.744 OA
ENDBRANCH  84  85
ENDBRANCH  58  79
ENDBRANCH  32  33
ENDBRANCH  25  27
ENDBRANCH  24  25
ENDBRANCH  23  24
ENDBRANCH   1  23
TORSDOF 18
ENDMDL
MODEL 3
REMARK VINA RESULT:     -10.8      1.234      2.718
REMARK SMILES C[C@H]([C@@H]1CCCO1)n1c(SCC(=O)OCCOC(=O)c2ccc(-c3c4nc(c(-c5ccc(S(=O)(=O)[O-])cc5)c5ccc([nH]5)c(-c5ccc(S(=O)(=O)[O-])cc5)c5nc(c(-c6ccc(S(=O)(=O)[O-])cc6)c6ccc3[nH]6)C=C5)C=C4)cc2)nc2cnccc21
REMARK SMILES IDX 15 1 14 2 12 3 13 4 11 5 10 6 9 7 8 8 86 9 80 10 81 11 85 12
REMARK SMILES IDX 82 13 84 14 83 15 2 16 1 17 3 18 4 19 7 20 5 21 6 22 16 23
REMARK SMILES IDX 17 24 18 25 19 26 20 27 21 28 79 29 22 30 78 31 23 32 24 33
REMARK SMILES IDX 25 34 72 35 26 36 77 37 71 38 73 39 27 40 76 41 70 42 69 43
REMARK SMILES IDX 28 45 58 46 39 47 57 48 40 49 43 50 56 51 74 52 41 53 42 54
REMARK SMILES IDX 55 56 75 57 44 58 29 59 30 60 38 61 31 62 37 63 32 64 33 65
REMARK SMILES IDX 34 66 35 67 36 68 59 69 60 70 68 71 61 72 67 73 62 74 63 75
REMARK SMILES IDX 64 76 65 77 66 78 45 79 46 80 54 81 47 82 53 83 48 84 49 85
REMARK SMILES IDX 50 86 51 87 52 88
REMARK H PARENT 73 44 43 55
REMARK Flexibility Score: inf
ROOT
ATOM      1  C   UNL A   1      39.619  22.281  26.504  1.00  0.00     0.274 C 
ENDROOT
BRANCH   1   2
ATOM      2  O   UNL A   1      38.654  21.684  25.601  1.00  0.00    -0.461 OA
BRANCH   2   3
ATOM      3  C   UNL A   1      37.468  22.332  25.395  1.00  0.00     0.316 C 
ATOM      4  O   UNL A   1      37.370  23.545  25.249  1.00  0.00    -0.251 OA
BRANCH   3   5
ATOM      5  C   UNL A   1      36.258  21.394  25.248  1.00  0.00     0.200 C 
BRANCH   5   6
ATOM      6  S   UNL A   1      34.851  21.851  26.269  1.00  0.00    -0.076 SA
BRANCH   6   7
ATOM      7  C   UNL A   1      33.376  21.006  25.819  1.00  0.00     0.170 A 
ATOM      8  N   UNL A   1      32.702  21.078  24.608  1.00  0.00    -0.313 N 
ATOM      9  C   UNL A   1      32.691  19.781  24.101  1.00  0.00     0.072 A 
ATOM     10  N   UNL A   1      33.267  19.775  26.295  1.00  0.00    -0.221 NA
ATOM     11  C   UNL A   1      32.989  18.988  25.202  1.00  0.00     0.108 A 
ATOM     12  C   UNL A   1      32.470  19.235  22.834  1.00  0.00     0.049 A 
ATOM     13  C   UNL A   1      33.037  17.600  25.038  1.00  0.00     0.141 A 
ATOM     14  C   UNL A   1      32.582  17.855  22.762  1.00  0.00     0.113 A 
ATOM     15  N   UNL A   1      32.845  17.040  23.812  1.00  0.00    -0.262 NA
BRANCH   8  16
ATOM     16  C   UNL A   1      32.175  22.202  23.848  1.00  0.00     0.116 C 
ATOM     17  C   UNL A   1      33.230  22.829  22.990  1.00  0.00     0.034 C 
BRANCH  16  18
ATOM     18  C   UNL A   1      31.366  23.279  24.586  1.00  0.00     0.141 C 
ATOM     19  C   UNL A   1      32.075  24.479  25.175  1.00  0.00     0.036 C 
ATOM     20  O   UNL A   1      30.555  22.738  25.639  1.00  0.00    -0.376 OA
ATOM     21  C   UNL A   1      30.974  25.047  26.040  1.00  0.00     0.031 C 
ATOM     22  C   UNL A   1      30.323  23.793  26.593  1.00  0.00     0.160 C 
ENDBRANCH  16  18
ENDBRANCH   8  16
ENDBRANCH   6   7
ENDBRANCH   5   6
ENDBRANCH   3   5
ENDBRANCH   2   3
ENDBRANCH   1   2
BRANCH   1  23
ATOM     23  C   UNL A   1      41.040  21.734  26.220  1.00  0.00     0.275 C 
BRANCH  23  24
ATOM     24  O   UNL A   1      41.944  22.857  26.144  1.00  0.00    -0.458 OA
BRANCH  24  25
ATOM     25  C   UNL A   1      43.197  22.761  26.657  1.00  0.00     0.338 C 
ATOM     26  O   UNL A   1      44.045  21.933  26.371  1.00  0.00    -0.246 OA
BRANCH  25  27
ATOM     27  C   UNL A   1      43.451  24.063  27.340  1.00  0.00     0.060 A 
ATOM     28  C   UNL A   1      43.046  24.241  28.670  1.00  0.00     0.016 A 
ATOM     29  C   UNL A   1      43.661  25.174  26.522  1.00  0.00     0.016 A 
ATOM     30  C   UNL A   1      42.563  25.482  29.087  1.00  0.00     0.010 A 
ATOM     31  C   UNL A   1      43.186  26.412  26.953  1.00  0.00     0.010 A 
ATOM     32  C   UNL A   1      42.511  26.546  28.186  1.00  0.00    -0.014 A 
BRANCH  32  33
ATOM     33  C   UNL A   1      41.880  27.822  28.566  1.00  0.00     0.031 A 
ATOM     34  C   UNL A   1      42.744  29.005  28.384  1.00  0.00     0.074 A 
ATOM     35  C   UNL A   1      40.628  28.105  28.998  1.00  0.00     0.049 A 
ATOM     36  N   UNL A   1      43.629  29.417  29.225  1.00  0.00    -0.248 NA
ATOM     37  C   UNL A   1      42.736  29.713  27.100  1.00  0.00     0.031 C 
ATOM     38  C   UNL A   1      39.400  27.308  28.990  1.00  0.00     0.029 A 
ATOM     39  N   UNL A   1      40.212  29.293  29.544  1.00  0.00    -0.354 N 
ATOM     40  C   UNL A   1      44.191  30.544  28.652  1.00  0.00     0.074 A 
ATOM     41  C   UNL A   1      43.764  30.546  27.274  1.00  0.00     0.031 C 
ATOM     42  C   UNL A   1      38.348  28.093  29.356  1.00  0.00     0.029 A 
ATOM     43  C   UNL A   1      38.852  29.385  29.799  1.00  0.00     0.049 A 
ATOM     44  H   UNL A   1      40.835  30.030  29.740  1.00  0.00     0.167 HD
ATOM     45  C   UNL A   1      44.800  31.501  29.403  1.00  0.00     0.031 A 
ATOM     46  C   UNL A   1      38.219  30.438  30.377  1.00  0.00     0.031 A 
ATOM     47  C   UNL A   1      44.857  31.134  30.798  1.00  0.00     0.049 A 
ATOM     48  C   UNL A   1      39.211  31.144  31.225  1.00  0.00     0.074 A 
ATOM     49  C   UNL A   1      45.460  30.131  31.529  1.00  0.00     0.029 A 
ATOM     50  N   UNL A   1      43.861  31.650  31.596  1.00  0.00    -0.354 N 
ATOM     51  N   UNL A   1      39.751  30.621  32.288  1.00  0.00    -0.248 NA
ATOM     52  C   UNL A   1      39.838  32.367  30.749  1.00  0.00     0.031 C 
ATOM     53  C   UNL A   1      44.544  29.822  32.579  1.00  0.00     0.029 A 
ATOM     54  C   UNL A   1      43.438  30.667  32.458  1.00  0.00     0.049 A 
ATOM     55  H   UNL A   1      43.510  32.569  31.556  1.00  0.00     0.167 HD
ATOM     56  C   UNL A   1      41.009  31.190  32.364  1.00  0.00     0.074 A 
ATOM     57  C   UNL A   1      40.942  32.360  31.500  1.00  0.00     0.031 C 
ATOM     58  C   UNL A   1      42.061  30.501  32.895  1.00  0.00     0.031 A 
BRANCH  45  59
ATOM     59  C   UNL A   1      45.056  32.906  28.942  1.00  0.00    -0.014 A 
ATOM     60  C   UNL A   1      46.330  33.507  28.961  1.00  0.00     0.010 A 
ATOM     61  C   UNL A   1      44.024  33.610  28.293  1.00  0.00     0.010 A 
ATOM     62  C   UNL A   1      46.558  34.771  28.419  1.00  0.00     0.020 A 
ATOM     63  C   UNL A   1      44.254  34.857  27.698  1.00  0.00     0.020 A 
ATOM     64  C   UNL A   1      45.519  35.436  27.779  1.00  0.00     0.054 A 
BRANCH  64  65
ATOM     65  S   UNL A   1      45.884  37.020  26.989  1.00  0.00     0.124 S 
ATOM     66  O   UNL A   1      46.514  36.595  25.742  1.00  0.00    -0.237 OA
ATOM     67  O   UNL A   1      44.557  37.614  26.854  1.00  0.00    -0.237 OA
ATOM     68  O   UNL A   1      46.767  37.683  27.945  1.00  0.00    -0.744 OA
ENDBRANCH  64  65
ENDBRANCH  45  59
BRANCH  46  69
ATOM     69  C   UNL A   1      36.895  31.053  30.114  1.00  0.00    -0.014 A 
ATOM     70  C   UNL A   1      36.487  31.254  28.782  1.00  0.00     0.010 A 
ATOM     71  C   UNL A   1      36.225  31.773  31.126  1.00  0.00     0.010 A 
ATOM     72  C   UNL A   1      35.518  32.215  28.462  1.00  0.00     0.020 A 
ATOM     73  C   UNL A   1      35.251  32.736  30.812  1.00  0.00     0.020 A 
ATOM     74  C   UNL A   1      34.936  32.980  29.476  1.00  0.00     0.054 A 
BRANCH  74  75
ATOM     75  S   UNL A   1      33.844  34.356  29.005  1.00  0.00     0.124 S 
ATOM     76  O   UNL A   1      32.978  33.726  28.011  1.00  0.00    -0.237 OA
ATOM     77  O   UNL A   1      33.201  34.695  30.272  1.00  0.00    -0.237 OA
ATOM     78  O   UNL A   1      34.760  35.366  28.484  1.00  0.00    -0.744 OA
ENDBRANCH  74  75
ENDBRANCH  46  69
BRANCH  58  79
ATOM     79  C   UNL A   1      41.764  29.302  33.776  1.00  0.00    -0.014 A 
ATOM     80  C   UNL A   1      41.719  29.506  35.168  1.00  0.00     0.010 A 
ATOM     81  C   UNL A   1      41.676  27.979  33.295  1.00  0.00     0.010 A 
ATOM     82  C   UNL A   1      41.629  28.429  36.055  1.00  0.00     0.020 A 
ATOM     83  C   UNL A   1      41.555  26.896  34.178  1.00  0.00     0.020 A 
ATOM     84  C   UNL A   1      41.564  27.127  35.554  1.00  0.00     0.054 A 
BRANCH  84  85
ATOM     85  S   UNL A   1      41.523  25.749  36.733  1.00  0.00     0.124 S 
ATOM     86  O   UNL A   1      42.851  25.823  37.339  1.00  0.00    -0.237 OA
ATOM     87  O   UNL A   1      40.413  26.110  37.616  1.00  0.00    -0.237 OA
ATOM     88  O   UNL A   1      41.289  24.575  35.896  1.00  0.00    -0.744 OA
ENDBRANCH  84  85
ENDBRANCH  58  79
ENDBRANCH  32  33
ENDBRANCH  25  27
ENDBRANCH  24  25
ENDBRANCH  23  24
ENDBRANCH   1  23
TORSDOF 18
ENDMDL
