MODEL 1
REMARK VINA RESULT:     -10.0      0.000      0.000
REMARK SMILES CC(C)C[C@H](NC(=O)[C@H]1C=C[C@H]([NH3+])C1)C(=O)OCCOC(=O)c1ccc(-c2c3nc(c(-c4ccc(S(=O)(=O)[O-])cc4)c4ccc([nH]4)c(-c4ccc(S(=O)(=O)[O-])cc4)c4nc(c(-c5ccc(S(=O)(=O)[O-])cc5)c5ccc2[nH]5)C=C4)C=C3)cc1
REMARK SMILES IDX 18 1 17 2 15 3 16 4 5 5 4 6 2 7 1 8 3 9 6 10 7 11 8 13 9 14
REMARK SMILES IDX 10 15 14 16 11 17 12 18 13 19 19 23 20 24 21 25 22 26 23 27
REMARK SMILES IDX 24 28 82 29 25 30 81 31 26 32 27 33 28 34 75 35 29 36 80 37
REMARK SMILES IDX 74 38 76 39 30 40 79 41 73 42 72 43 31 45 61 46 42 47 60 48
REMARK SMILES IDX 43 49 46 50 59 51 77 52 44 53 45 54 58 56 78 57 47 58 32 59
REMARK SMILES IDX 33 60 41 61 34 62 40 63 35 64 36 65 37 66 38 67 39 68 62 69
REMARK SMILES IDX 63 70 71 71 64 72 70 73 65 74 66 75 67 76 68 77 69 78 48 79
REMARK SMILES IDX 49 80 57 81 50 82 56 83 51 84 52 85 53 86 54 87 55 88
REMARK H PARENT 6 12 13 20 13 21 13 22 76 44 46 55
REMARK Flexibility Score: inf
ROOT
ATOM      1  C   UNL A   1      31.821  29.146  25.929  1.00  0.00     0.274 C 
ENDROOT
BRANCH   1   2
ATOM      2  O   UNL A   1      31.465  27.911  25.282  1.00  0.00    -0.461 OA
BRANCH   2   3
ATOM      3  C   UNL A   1      31.215  26.848  26.101  1.00  0.00     0.328 C 
ATOM      4  O   UNL A   1      31.074  26.926  27.316  1.00  0.00    -0.250 OA
BRANCH   3   5
ATOM      5  C   UNL A   1      31.198  25.512  25.332  1.00  0.00     0.192 C 
BRANCH   5   6
ATOM      6  C   UNL A   1      31.091  25.811  23.826  1.00  0.00     0.040 C 
BRANCH   6   7
ATOM      7  C   UNL A   1      32.208  25.265  22.913  1.00  0.00    -0.015 C 
ATOM      8  C   UNL A   1      32.189  25.921  21.529  1.00  0.00     0.007 C 
ATOM      9  C   UNL A   1      33.575  25.548  23.553  1.00  0.00     0.007 C 
ENDBRANCH   6   7
ENDBRANCH   5   6
BRANCH   5  10
ATOM     10  N   UNL A   1      30.299  24.532  25.973  1.00  0.00    -0.342 N 
ATOM     11  C   UNL A   1      30.514  23.396  26.699  1.00  0.00     0.227 C 
ATOM     12  H   UNL A   1      29.345  24.743  25.853  1.00  0.00     0.164 HD
ATOM     13  O   UNL A   1      29.684  23.081  27.554  1.00  0.00    -0.274 OA
BRANCH  11  14
ATOM     14  C   UNL A   1      31.684  22.498  26.341  1.00  0.00     0.107 C 
ATOM     15  C   UNL A   1      31.852  22.151  24.889  1.00  0.00    -0.012 C 
ATOM     16  C   UNL A   1      33.057  23.122  26.627  1.00  0.00     0.087 C 
ATOM     17  C   UNL A   1      33.150  21.962  24.606  1.00  0.00     0.033 C 
ATOM     18  C   UNL A   1      34.022  22.288  25.778  1.00  0.00     0.205 C 
BRANCH  18  19
ATOM     19  N   UNL A   1      34.421  21.071  26.471  1.00  0.00    -0.352 N 
ATOM     20  H   UNL A   1      33.593  20.594  26.825  1.00  0.00     0.345 HD
ATOM     21  H   UNL A   1      35.036  21.309  27.249  1.00  0.00     0.345 HD
ATOM     22  H   UNL A   1      34.915  20.458  25.822  1.00  0.00     0.345 HD
ENDBRANCH  18  19
ENDBRANCH  11  14
ENDBRANCH   5  10
ENDBRANCH   3   5
ENDBRANCH   2   3
ENDBRANCH   1   2
BRANCH   1  23
ATOM     23  C   UNL A   1      33.315  29.449  25.776  1.00  0.00     0.275 C 
BRANCH  23  24
ATOM     24  O   UNL A   1      34.058  29.154  26.972  1.00  0.00    -0.458 OA
BRANCH  24  25
ATOM     25  C   UNL A   1      34.553  30.230  27.629  1.00  0.00     0.338 C 
ATOM     26  O   UNL A   1      33.950  31.248  27.928  1.00  0.00    -0.246 OA
BRANCH  25  27
ATOM     27  C   UNL A   1      35.918  29.938  28.097  1.00  0.00     0.060 A 
ATOM     28  C   UNL A   1      36.969  30.061  27.181  1.00  0.00     0.016 A 
ATOM     29  C   UNL A   1      36.159  29.502  29.400  1.00  0.00     0.016 A 
ATOM     30  C   UNL A   1      38.269  29.743  27.559  1.00  0.00     0.010 A 
ATOM     31  C   UNL A   1      37.463  29.179  29.778  1.00  0.00     0.010 A 
ATOM     32  C   UNL A   1      38.521  29.286  28.856  1.00  0.00    -0.014 A 
BRANCH  32  33
ATOM     33  C   UNL A   1      39.880  28.858  29.248  1.00  0.00     0.031 A 
ATOM     34  C   UNL A   1      40.804  29.848  29.893  1.00  0.00     0.074 A 
ATOM     35  C   UNL A   1      40.292  27.605  28.988  1.00  0.00     0.049 A 
ATOM     36  N   UNL A   1      42.081  29.740  30.149  1.00  0.00    -0.248 NA
ATOM     37  C   UNL A   1      40.208  31.133  30.292  1.00  0.00     0.031 C 
ATOM     38  C   UNL A   1      39.464  26.547  28.409  1.00  0.00     0.029 A 
ATOM     39  N   UNL A   1      41.523  27.022  29.151  1.00  0.00    -0.354 N 
ATOM     40  C   UNL A   1      42.455  30.959  30.701  1.00  0.00     0.074 A 
ATOM     41  C   UNL A   1      41.269  31.788  30.744  1.00  0.00     0.031 C 
ATOM     42  C   UNL A   1      40.220  25.449  28.238  1.00  0.00     0.029 A 
ATOM     43  C   UNL A   1      41.591  25.747  28.644  1.00  0.00     0.049 A 
ATOM     44  H   UNL A   1      42.281  27.471  29.589  1.00  0.00     0.167 HD
ATOM     45  C   UNL A   1      43.681  31.351  31.120  1.00  0.00     0.031 A 
ATOM     46  C   UNL A   1      42.649  24.930  28.474  1.00  0.00     0.031 A 
ATOM     47  C   UNL A   1      44.850  30.516  31.068  1.00  0.00     0.049 A 
ATOM     48  C   UNL A   1      44.011  25.398  28.903  1.00  0.00     0.074 A 
ATOM     49  C   UNL A   1      46.137  30.807  31.486  1.00  0.00     0.029 A 
ATOM     50  N   UNL A   1      44.877  29.227  30.555  1.00  0.00    -0.354 N 
ATOM     51  N   UNL A   1      44.355  26.550  29.429  1.00  0.00    -0.248 NA
ATOM     52  C   UNL A   1      45.126  24.461  28.715  1.00  0.00     0.031 C 
ATOM     53  C   UNL A   1      46.951  29.710  31.182  1.00  0.00     0.029 A 
ATOM     54  C   UNL A   1      46.162  28.716  30.623  1.00  0.00     0.049 A 
ATOM     55  H   UNL A   1      44.097  28.746  30.196  1.00  0.00     0.167 HD
ATOM     56  C   UNL A   1      45.725  26.471  29.652  1.00  0.00     0.074 A 
ATOM     57  C   UNL A   1      46.144  25.155  29.211  1.00  0.00     0.031 C 
ATOM     58  C   UNL A   1      46.558  27.403  30.178  1.00  0.00     0.031 A 
BRANCH  45  59
ATOM     59  C   UNL A   1      43.819  32.768  31.608  1.00  0.00    -0.014 A 
ATOM     60  C   UNL A   1      43.707  33.092  32.972  1.00  0.00     0.010 A 
ATOM     61  C   UNL A   1      44.053  33.796  30.677  1.00  0.00     0.010 A 
ATOM     62  C   UNL A   1      43.767  34.424  33.389  1.00  0.00     0.020 A 
ATOM     63  C   UNL A   1      44.139  35.127  31.093  1.00  0.00     0.020 A 
ATOM     64  C   UNL A   1      43.970  35.435  32.443  1.00  0.00     0.054 A 
BRANCH  64  65
ATOM     65  S   UNL A   1      44.022  37.160  33.002  1.00  0.00     0.124 S 
ATOM     66  O   UNL A   1      43.944  37.887  31.737  1.00  0.00    -0.237 OA
ATOM     67  O   UNL A   1      42.843  37.260  33.856  1.00  0.00    -0.237 OA
ATOM     68  O   UNL A   1      45.303  37.260  33.698  1.00  0.00    -0.744 OA
ENDBRANCH  64  65
ENDBRANCH  45  59
BRANCH  46  69
ATOM     69  C   UNL A   1      42.445  23.609  27.824  1.00  0.00    -0.014 A 
ATOM     70  C   UNL A   1      42.813  23.403  26.485  1.00  0.00     0.010 A 
ATOM     71  C   UNL A   1      41.950  22.525  28.575  1.00  0.00     0.010 A 
ATOM     72  C   UNL A   1      42.700  22.134  25.910  1.00  0.00     0.020 A 
ATOM     73  C   UNL A   1      41.858  21.251  28.010  1.00  0.00     0.020 A 
ATOM     74  C   UNL A   1      42.233  21.063  26.679  1.00  0.00     0.054 A 
BRANCH  74  75
ATOM     75  S   UNL A   1      42.196  19.403  25.945  1.00  0.00     0.124 S 
ATOM     76  O   UNL A   1      40.772  19.219  25.682  1.00  0.00    -0.237 OA
ATOM     77  O   UNL A   1      43.043  19.560  24.765  1.00  0.00    -0.237 OA
ATOM     78  O   UNL A   1      42.755  18.554  26.994  1.00  0.00    -0.744 OA
ENDBRANCH  74  75
ENDBRANCH  46  69
BRANCH  58  79
ATOM     79  C   UNL A   1      48.006  27.030  30.339  1.00  0.00    -0.014 A 
ATOM     80  C   UNL A   1      48.951  27.345  29.349  1.00  0.00     0.010 A 
ATOM     81  C   UNL A   1      48.437  26.439  31.541  1.00  0.00     0.010 A 
ATOM     82  C   UNL A   1      50.305  27.068  29.555  1.00  0.00     0.020 A 
ATOM     83  C   UNL A   1      49.792  26.180  31.759  1.00  0.00     0.020 A 
ATOM     84  C   UNL A   1      50.718  26.490  30.760  1.00  0.00     0.054 A 
BRANCH  84  85
ATOM     85  S   UNL A   1      52.489  26.211  31.037  1.00  0.00     0.124 S 
ATOM     86  O   UNL A   1      52.483  24.982  31.827  1.00  0.00    -0.237 OA
ATOM     87  O   UNL A   1      53.012  26.084  29.679  1.00  0.00    -0.237 OA
ATOM     88  O   UNL A   1      52.920  27.409  31.754  1.00  0.00    -0.744 OA
ENDBRANCH  84  85
ENDBRANCH  58  79
ENDBRANCH  32  33
ENDBRANCH  25  27
ENDBRANCH  24  25
ENDBRANCH  23  24
ENDBRANCH   1  23
TORSDOF 19
ENDMDL
MODEL 2
REMARK VINA RESULT:      -9.4      2.654      3.461
REMARK SMILES CC(C)C[C@H](NC(=O)[C@H]1C=C[C@H]([NH3+])C1)C(=O)OCCOC(=O)c1ccc(-c2c3nc(c(-c4ccc(S(=O)(=O)[O-])cc4)c4ccc([nH]4)c(-c4ccc(S(=O)(=O)[O-])cc4)c4nc(c(-c5ccc(S(=O)(=O)[O-])cc5)c5ccc2[nH]5)C=C4)C=C3)cc1
REMARK SMILES IDX 18 1 17 2 15 3 16 4 5 5 4 6 2 7 1 8 3 9 6 10 7 11 8 13 9 14
REMARK SMILES IDX 10 15 14 16 11 17 12 18 13 19 19 23 20 24 21 25 22 26 23 27
REMARK SMILES IDX 24 28 82 29 25 30 81 31 26 32 27 33 28 34 75 35 29 36 80 37
REMARK SMILES IDX 74 38 76 39 30 40 79 41 73 42 72 43 31 45 61 46 42 47 60 48
REMARK SMILES IDX 43 49 46 50 59 51 77 52 44 53 45 54 58 56 78 57 47 58 32 59
REMARK SMILES IDX 33 60 41 61 34 62 40 63 35 64 36 65 37 66 38 67 39 68 62 69
REMARK SMILES IDX 63 70 71 71 64 72 70 73 65 74 66 75 67 76 68 77 69 78 48 79
REMARK SMILES IDX 49 80 57 81 50 82 56 83 51 84 52 85 53 86 54 87 55 88
REMARK H PARENT 6 12 13 20 13 21 13 22 76 44 46 55
REMARK Flexibility Score: inf
ROOT
ATOM      1  C   UNL A   1      33.259  30.415  27.262  1.00  0.00     0.274 C 
ENDROOT
BRANCH   1   2
ATOM      2  O   UNL A   1      33.207  30.015  25.881  1.00  0.00    -0.461 OA
BRANCH   2   3
ATOM      3  C   UNL A   1      31.964  29.891  25.332  1.00  0.00     0.328 C 
ATOM      4  O   UNL A   1      31.080  30.736  25.416  1.00  0.00    -0.250 OA
BRANCH   3   5
ATOM      5  C   UNL A   1      31.765  28.525  24.645  1.00  0.00     0.192 C 
BRANCH   5   6
ATOM      6  C   UNL A   1      31.177  28.760  23.242  1.00  0.00     0.040 C 
BRANCH   6   7
ATOM      7  C   UNL A   1      29.694  29.176  23.154  1.00  0.00    -0.015 C 
ATOM      8  C   UNL A   1      29.405  30.011  21.903  1.00  0.00     0.007 C 
ATOM      9  C   UNL A   1      28.814  27.918  23.098  1.00  0.00     0.007 C 
ENDBRANCH   6   7
ENDBRANCH   5   6
BRANCH   5  10
ATOM     10  N   UNL A   1      31.156  27.543  25.564  1.00  0.00    -0.342 N 
ATOM     11  C   UNL A   1      31.453  26.249  25.885  1.00  0.00     0.227 C 
ATOM     12  H   UNL A   1      30.375  27.894  26.048  1.00  0.00     0.164 HD
ATOM     13  O   UNL A   1      31.176  25.848  27.017  1.00  0.00    -0.274 OA
BRANCH  11  14
ATOM     14  C   UNL A   1      31.984  25.321  24.808  1.00  0.00     0.107 C 
ATOM     15  C   UNL A   1      32.500  23.984  25.260  1.00  0.00    -0.012 C 
ATOM     16  C   UNL A   1      30.919  24.868  23.799  1.00  0.00     0.087 C 
ATOM     17  C   UNL A   1      32.315  23.067  24.298  1.00  0.00     0.033 C 
ATOM     18  C   UNL A   1      31.538  23.626  23.148  1.00  0.00     0.205 C 
BRANCH  18  19
ATOM     19  N   UNL A   1      32.431  23.989  22.056  1.00  0.00    -0.352 N 
ATOM     20  H   UNL A   1      32.605  23.171  21.474  1.00  0.00     0.345 HD
ATOM     21  H   UNL A   1      33.313  24.329  22.437  1.00  0.00     0.345 HD
ATOM     22  H   UNL A   1      31.998  24.721  21.493  1.00  0.00     0.345 HD
ENDBRANCH  18  19
ENDBRANCH  11  14
ENDBRANCH   5  10
ENDBRANCH   3   5
ENDBRANCH   2   3
ENDBRANCH   1   2
BRANCH   1  23
ATOM     23  C   UNL A   1      34.647  30.940  27.643  1.00  0.00     0.275 C 
BRANCH  23  24
ATOM     24  O   UNL A   1      35.389  29.998  28.437  1.00  0.00    -0.458 OA
BRANCH  24  25
ATOM     25  C   UNL A   1      36.249  30.542  29.331  1.00  0.00     0.338 C 
ATOM     26  O   UNL A   1      35.970  31.285  30.259  1.00  0.00    -0.246 OA
BRANCH  25  27
ATOM     27  C   UNL A   1      37.593  29.975  29.133  1.00  0.00     0.060 A 
ATOM     28  C   UNL A   1      38.325  29.602  30.266  1.00  0.00     0.016 A 
ATOM     29  C   UNL A   1      38.148  29.855  27.858  1.00  0.00     0.016 A 
ATOM     30  C   UNL A   1      39.620  29.113  30.134  1.00  0.00     0.010 A 
ATOM     31  C   UNL A   1      39.449  29.369  27.727  1.00  0.00     0.010 A 
ATOM     32  C   UNL A   1      40.194  29.008  28.864  1.00  0.00    -0.014 A 
BRANCH  32  33
ATOM     33  C   UNL A   1      41.600  28.576  28.712  1.00  0.00     0.031 A 
ATOM     34  C   UNL A   1      42.694  29.600  28.786  1.00  0.00     0.074 A 
ATOM     35  C   UNL A   1      41.886  27.285  28.469  1.00  0.00     0.049 A 
ATOM     36  N   UNL A   1      43.963  29.473  28.504  1.00  0.00    -0.248 NA
ATOM     37  C   UNL A   1      42.299  30.948  29.226  1.00  0.00     0.031 C 
ATOM     38  C   UNL A   1      40.908  26.198  28.424  1.00  0.00     0.029 A 
ATOM     39  N   UNL A   1      43.081  26.678  28.183  1.00  0.00    -0.354 N 
ATOM     40  C   UNL A   1      44.515  30.735  28.692  1.00  0.00     0.074 A 
ATOM     41  C   UNL A   1      43.441  31.610  29.113  1.00  0.00     0.031 C 
ATOM     42  C   UNL A   1      41.540  25.059  28.099  1.00  0.00     0.029 A 
ATOM     43  C   UNL A   1      42.952  25.348  27.861  1.00  0.00     0.049 A 
ATOM     44  H   UNL A   1      43.947  27.146  28.208  1.00  0.00     0.167 HD
ATOM     45  C   UNL A   1      45.799  31.126  28.514  1.00  0.00     0.031 A 
ATOM     46  C   UNL A   1      43.856  24.475  27.377  1.00  0.00     0.031 A 
ATOM     47  C   UNL A   1      46.853  30.245  28.091  1.00  0.00     0.049 A 
ATOM     48  C   UNL A   1      45.266  24.937  27.142  1.00  0.00     0.074 A 
ATOM     49  C   UNL A   1      48.193  30.533  27.900  1.00  0.00     0.029 A 
ATOM     50  N   UNL A   1      46.684  28.902  27.783  1.00  0.00    -0.354 N 
ATOM     51  N   UNL A   1      45.781  26.130  27.326  1.00  0.00    -0.248 NA
ATOM     52  C   UNL A   1      46.218  23.940  26.633  1.00  0.00     0.031 C 
ATOM     53  C   UNL A   1      48.824  29.375  27.431  1.00  0.00     0.029 A 
ATOM     54  C   UNL A   1      47.889  28.353  27.380  1.00  0.00     0.049 A 
ATOM     55  H   UNL A   1      45.832  28.412  27.842  1.00  0.00     0.167 HD
ATOM     56  C   UNL A   1      47.121  26.024  26.973  1.00  0.00     0.074 A 
ATOM     57  C   UNL A   1      47.339  24.648  26.571  1.00  0.00     0.031 C 
ATOM     58  C   UNL A   1      48.084  26.980  26.984  1.00  0.00     0.031 A 
BRANCH  45  59
ATOM     59  C   UNL A   1      46.106  32.585  28.715  1.00  0.00    -0.014 A 
ATOM     60  C   UNL A   1      46.547  33.081  29.955  1.00  0.00     0.010 A 
ATOM     61  C   UNL A   1      45.936  33.478  27.641  1.00  0.00     0.010 A 
ATOM     62  C   UNL A   1      46.756  34.451  30.133  1.00  0.00     0.020 A 
ATOM     63  C   UNL A   1      46.168  34.846  27.809  1.00  0.00     0.020 A 
ATOM     64  C   UNL A   1      46.552  35.327  29.061  1.00  0.00     0.054 A 
BRANCH  64  65
ATOM     65  S   UNL A   1      46.805  37.104  29.321  1.00  0.00     0.124 S 
ATOM     66  O   UNL A   1      45.624  37.672  28.675  1.00  0.00    -0.237 OA
ATOM     67  O   UNL A   1      46.841  37.218  30.776  1.00  0.00    -0.237 OA
ATOM     68  O   UNL A   1      48.073  37.374  28.647  1.00  0.00    -0.744 OA
ENDBRANCH  64  65
ENDBRANCH  45  59
BRANCH  46  69
ATOM     69  C   UNL A   1      43.421  23.093  27.044  1.00  0.00    -0.014 A 
ATOM     70  C   UNL A   1      43.585  22.581  25.747  1.00  0.00     0.010 A 
ATOM     71  C   UNL A   1      42.908  22.256  28.053  1.00  0.00     0.010 A 
ATOM     72  C   UNL A   1      43.255  21.252  25.466  1.00  0.00     0.020 A 
ATOM     73  C   UNL A   1      42.599  20.921  27.782  1.00  0.00     0.020 A 
ATOM     74  C   UNL A   1      42.773  20.427  26.488  1.00  0.00     0.054 A 
BRANCH  74  75
ATOM     75  S   UNL A   1      42.452  18.677  26.127  1.00  0.00     0.124 S 
ATOM     76  O   UNL A   1      42.734  18.045  27.412  1.00  0.00    -0.237 OA
ATOM     77  O   UNL A   1      41.049  18.690  25.722  1.00  0.00    -0.237 OA
ATOM     78  O   UNL A   1      43.399  18.371  25.056  1.00  0.00    -0.744 OA
ENDBRANCH  74  75
ENDBRANCH  46  69
BRANCH  58  79
ATOM     79  C   UNL A   1      49.474  26.571  26.580  1.00  0.00    -0.014 A 
ATOM     80  C   UNL A   1      49.923  26.734  25.259  1.00  0.00     0.010 A 
ATOM     81  C   UNL A   1      50.369  26.105  27.560  1.00  0.00     0.010 A 
ATOM     82  C   UNL A   1      51.245  26.430  24.922  1.00  0.00     0.020 A 
ATOM     83  C   UNL A   1      51.696  25.821  27.232  1.00  0.00     0.020 A 
ATOM     84  C   UNL A   1      52.124  25.978  25.912  1.00  0.00     0.054 A 
BRANCH  84  85
ATOM     85  S   UNL A   1      53.855  25.664  25.469  1.00  0.00     0.124 S 
ATOM     86  O   UNL A   1      53.758  24.404  24.737  1.00  0.00    -0.237 OA
ATOM     87  O   UNL A   1      54.199  26.834  24.665  1.00  0.00    -0.237 OA
ATOM     88  O   UNL A   1      54.534  25.583  26.760  1.00  0.00    -0.744 OA
ENDBRANCH  84  85
ENDBRANCH  58  79
ENDBRANCH  32  33
ENDBRANCH  25  27
ENDBRANCH  24  25
ENDBRANCH  23  24
ENDBRANCH   1  23
TORSDOF 19
ENDMDL
MODEL 3
REMARK VINA RESULT:      -9.3      3.133      4.516
REMARK SMILES CC(C)C[C@H](NC(=O)[C@H]1C=C[C@H]([NH3+])C1)C(=O)OCCOC(=O)c1ccc(-c2c3nc(c(-c4ccc(S(=O)(=O)[O-])cc4)c4ccc([nH]4)c(-c4ccc(S(=O)(=O)[O-])cc4)c4nc(c(-c5ccc(S(=O)(=O)[O-])cc5)c5ccc2[nH]5)C=C4)C=C3)cc1
REMARK SMILES IDX 18 1 17 2 15 3 16 4 5 5 4 6 2 7 1 8 3 9 6 10 7 11 8 13 9 14
REMARK SMILES IDX 10 15 14 16 11 17 12 18 13 19 19 23 20 24 21 25 22 26 23 27
REMARK SMILES IDX 24 28 82 29 25 30 81 31 26 32 27 33 28 34 75 35 29 36 80 37
REMARK SMILES IDX 74 38 76 39 30 40 79 41 73 42 72 43 31 45 61 46 42 47 60 48
REMARK SMILES IDX 43 49 46 50 59 51 77 52 44 53 45 54 58 56 78 57 47 58 32 59
REMARK SMILES IDX 33 60 41 61 34 62 40 63 35 64 36 65 37 66 38 67 39 68 62 69
REMARK SMILES IDX 63 70 71 71 64 72 70 73 65 74 66 75 67 76 68 77 69 78 48 79
REMARK SMILES IDX 49 80 57 81 50 82 56 83 51 84 52 85 53 86 54 87 55 88
REMARK H PARENT 6 12 13 20 13 21 13 22 76 44 46 55
REMARK Flexibility Score: inf
ROOT
ATOM      1  C   UNL A   1      33.303  30.566  27.508  1.00  0.00     0.274 C 
ENDROOT
BRANCH   1   2
ATOM      2  O   UNL A   1      32.831  29.906  26.319  1.00  0.00    -0.461 OA
BRANCH   2   3
ATOM      3  C   UNL A   1      32.795  28.543  26.357  1.00  0.00     0.328 C 
ATOM      4  O   UNL A   1      33.637  27.840  26.905  1.00  0.00    -0.250 OA
BRANCH   3   5
ATOM      5  C   UNL A   1      31.602  27.970  25.566  1.00  0.00     0.192 C 
BRANCH   5   6
ATOM      6  C   UNL A   1      31.045  26.753  26.325  1.00  0.00     0.040 C 
BRANCH   6   7
ATOM      7  C   UNL A   1      31.297  25.359  25.715  1.00  0.00    -0.015 C 
ATOM      8  C   UNL A   1      32.612  24.747  26.205  1.00  0.00     0.007 C 
ATOM      9  C   UNL A   1      30.155  24.413  26.116  1.00  0.00     0.007 C 
ENDBRANCH   6   7
ENDBRANCH   5   6
BRANCH   5  10
ATOM     10  N   UNL A   1      31.902  27.887  24.123  1.00  0.00    -0.342 N 
ATOM     11  C   UNL A   1      31.611  28.689  23.056  1.00  0.00     0.227 C 
ATOM     12  H   UNL A   1      32.422  27.088  23.878  1.00  0.00     0.164 HD
ATOM     13  O   UNL A   1      32.398  28.711  22.108  1.00  0.00    -0.274 OA
BRANCH  11  14
ATOM     14  C   UNL A   1      30.278  29.414  23.015  1.00  0.00     0.107 C 
ATOM     15  C   UNL A   1      29.959  30.174  21.759  1.00  0.00    -0.012 C 
ATOM     16  C   UNL A   1      29.061  28.481  23.079  1.00  0.00     0.087 C 
ATOM     17  C   UNL A   1      28.633  30.193  21.554  1.00  0.00     0.033 C 
ATOM     18  C   UNL A   1      27.910  29.345  22.553  1.00  0.00     0.205 C 
BRANCH  18  19
ATOM     19  N   UNL A   1      27.342  30.171  23.609  1.00  0.00    -0.352 N 
ATOM     20  H   UNL A   1      26.325  30.147  23.549  1.00  0.00     0.345 HD
ATOM     21  H   UNL A   1      27.667  31.132  23.501  1.00  0.00     0.345 HD
ATOM     22  H   UNL A   1      27.638  29.812  24.516  1.00  0.00     0.345 HD
ENDBRANCH  18  19
ENDBRANCH  11  14
ENDBRANCH   5  10
ENDBRANCH   3   5
ENDBRANCH   2   3
ENDBRANCH   1   2
BRANCH   1  23
ATOM     23  C   UNL A   1      34.819  30.781  27.467  1.00  0.00     0.275 C 
BRANCH  23  24
ATOM     24  O   UNL A   1      35.503  30.055  28.504  1.00  0.00    -0.458 OA
BRANCH  24  25
ATOM     25  C   UNL A   1      36.429  30.763  29.193  1.00  0.00     0.338 C 
ATOM     26  O   UNL A   1      36.222  31.671  29.982  1.00  0.00    -0.246 OA
BRANCH  25  27
ATOM     27  C   UNL A   1      37.760  30.167  28.986  1.00  0.00     0.060 A 
ATOM     28  C   UNL A   1      38.594  30.011  30.099  1.00  0.00     0.016 A 
ATOM     29  C   UNL A   1      38.204  29.813  27.711  1.00  0.00     0.016 A 
ATOM     30  C   UNL A   1      39.880  29.505  29.946  1.00  0.00     0.010 A 
ATOM     31  C   UNL A   1      39.497  29.311  27.557  1.00  0.00     0.010 A 
ATOM     32  C   UNL A   1      40.343  29.166  28.672  1.00  0.00    -0.014 A 
BRANCH  32  33
ATOM     33  C   UNL A   1      41.738  28.713  28.479  1.00  0.00     0.031 A 
ATOM     34  C   UNL A   1      42.845  29.725  28.486  1.00  0.00     0.074 A 
ATOM     35  C   UNL A   1      41.999  27.413  28.258  1.00  0.00     0.049 A 
ATOM     36  N   UNL A   1      44.101  29.575  28.160  1.00  0.00    -0.248 NA
ATOM     37  C   UNL A   1      42.482  31.088  28.906  1.00  0.00     0.031 C 
ATOM     38  C   UNL A   1      41.007  26.338  28.278  1.00  0.00     0.029 A 
ATOM     39  N   UNL A   1      43.176  26.784  27.944  1.00  0.00    -0.354 N 
ATOM     40  C   UNL A   1      44.674  30.834  28.295  1.00  0.00     0.074 A 
ATOM     41  C   UNL A   1      43.627  31.733  28.733  1.00  0.00     0.031 C 
ATOM     42  C   UNL A   1      41.613  25.183  27.958  1.00  0.00     0.029 A 
ATOM     43  C   UNL A   1      43.019  25.448  27.661  1.00  0.00     0.049 A 
ATOM     44  H   UNL A   1      44.047  27.242  27.924  1.00  0.00     0.167 HD
ATOM     45  C   UNL A   1      45.955  31.204  28.059  1.00  0.00     0.031 A 
ATOM     46  C   UNL A   1      43.894  24.552  27.166  1.00  0.00     0.031 A 
ATOM     47  C   UNL A   1      46.983  30.299  27.620  1.00  0.00     0.049 A 
ATOM     48  C   UNL A   1      45.300  24.990  26.867  1.00  0.00     0.074 A 
ATOM     49  C   UNL A   1      48.318  30.565  27.373  1.00  0.00     0.029 A 
ATOM     50  N   UNL A   1      46.786  28.952  27.353  1.00  0.00    -0.354 N 
ATOM     51  N   UNL A   1      45.835  26.180  27.001  1.00  0.00    -0.248 NA
ATOM     52  C   UNL A   1      46.219  23.968  26.348  1.00  0.00     0.031 C 
ATOM     53  C   UNL A   1      48.917  29.388  26.910  1.00  0.00     0.029 A 
ATOM     54  C   UNL A   1      47.969  28.377  26.920  1.00  0.00     0.049 A 
ATOM     55  H   UNL A   1      45.932  28.474  27.457  1.00  0.00     0.167 HD
ATOM     56  C   UNL A   1      47.159  26.049  26.601  1.00  0.00     0.074 A 
ATOM     57  C   UNL A   1      47.346  24.661  26.226  1.00  0.00     0.031 C 
ATOM     58  C   UNL A   1      48.133  26.992  26.552  1.00  0.00     0.031 A 
BRANCH  45  59
ATOM     59  C   UNL A   1      46.287  32.663  28.212  1.00  0.00    -0.014 A 
ATOM     60  C   UNL A   1      46.098  33.576  27.159  1.00  0.00     0.010 A 
ATOM     61  C   UNL A   1      46.813  33.125  29.433  1.00  0.00     0.010 A 
ATOM     62  C   UNL A   1      46.482  34.912  27.305  1.00  0.00     0.020 A 
ATOM     63  C   UNL A   1      47.175  34.465  29.591  1.00  0.00     0.020 A 
ATOM     64  C   UNL A   1      47.031  35.345  28.517  1.00  0.00     0.054 A 
BRANCH  64  65
ATOM     65  S   UNL A   1      47.545  37.077  28.677  1.00  0.00     0.124 S 
ATOM     66  O   UNL A   1      46.268  37.779  28.572  1.00  0.00    -0.237 OA
ATOM     67  O   UNL A   1      48.172  37.108  29.996  1.00  0.00    -0.237 OA
ATOM     68  O   UNL A   1      48.457  37.272  27.553  1.00  0.00    -0.744 OA
ENDBRANCH  64  65
ENDBRANCH  45  59
BRANCH  46  69
ATOM     69  C   UNL A   1      43.430  23.168  26.885  1.00  0.00    -0.014 A 
ATOM     70  C   UNL A   1      43.539  22.622  25.596  1.00  0.00     0.010 A 
ATOM     71  C   UNL A   1      42.947  22.362  27.934  1.00  0.00     0.010 A 
ATOM     72  C   UNL A   1      43.182  21.290  25.362  1.00  0.00     0.020 A 
ATOM     73  C   UNL A   1      42.612  21.025  27.708  1.00  0.00     0.020 A 
ATOM     74  C   UNL A   1      42.731  20.496  26.421  1.00  0.00     0.054 A 
BRANCH  74  75
ATOM     75  S   UNL A   1      42.376  18.743  26.117  1.00  0.00     0.124 S 
ATOM     76  O   UNL A   1      40.970  18.780  25.727  1.00  0.00    -0.237 OA
ATOM     77  O   UNL A   1      43.320  18.409  25.053  1.00  0.00    -0.237 OA
ATOM     78  O   UNL A   1      42.653  18.110  27.405  1.00  0.00    -0.744 OA
ENDBRANCH  74  75
ENDBRANCH  46  69
BRANCH  58  79
ATOM     79  C   UNL A   1      49.501  26.556  26.107  1.00  0.00    -0.014 A 
ATOM     80  C   UNL A   1      49.935  26.761  24.786  1.00  0.00     0.010 A 
ATOM     81  C   UNL A   1      50.396  26.019  27.051  1.00  0.00     0.010 A 
ATOM     82  C   UNL A   1      51.241  26.428  24.415  1.00  0.00     0.020 A 
ATOM     83  C   UNL A   1      51.707  25.706  26.688  1.00  0.00     0.020 A 
ATOM     84  C   UNL A   1      52.120  25.905  25.369  1.00  0.00     0.054 A 
BRANCH  84  85
ATOM     85  S   UNL A   1      53.832  25.554  24.884  1.00  0.00     0.124 S 
ATOM     86  O   UNL A   1      53.888  24.099  24.997  1.00  0.00    -0.237 OA
ATOM     87  O   UNL A   1      53.896  26.082  23.523  1.00  0.00    -0.237 OA
ATOM     88  O   UNL A   1      54.628  26.287  25.866  1.00  0.00    -0.744 OA
ENDBRANCH  84  85
ENDBRANCH  58  79
ENDBRANCH  32  33
ENDBRANCH  25  27
ENDBRANCH  24  25
ENDBRANCH  23  24
ENDBRANCH   1  23
TORSDOF 19
ENDMDL
