MODEL 1
REMARK VINA RESULT:     -10.3      0.000      0.000
REMARK SMILES CC(C)C[C@H](NC(=O)[C@@H](NC(=O)[C@H](C)NC(=O)CNC(=O)OCc1ccccc1)C(C)C)C(=O)OCCOC(=O)c1ccc(-c2c3nc(c(-c4ccc(S(=O)(=O)[O-])cc4)c4ccc([nH]4)c(-c4ccc(S(=O)(=O)[O-])cc4)c4nc(c(-c5ccc(S(=O)(=O)[O-])cc5)c5ccc2[nH]5)C=C4)C=C3)cc1
REMARK SMILES IDX 5 1 4 2 2 3 1 4 3 5 33 6 34 7 35 8 36 9 37 10 38 11 39 12
REMARK SMILES IDX 40 13 41 14 42 15 100 16 43 17 99 18 44 19 45 20 46 21 93 22
REMARK SMILES IDX 47 23 98 24 92 25 94 26 48 27 97 28 91 29 90 30 49 32 79 33
REMARK SMILES IDX 60 34 78 35 61 36 64 37 77 38 95 39 62 40 63 41 76 43 96 44
REMARK SMILES IDX 65 45 50 46 51 47 59 48 52 49 58 50 53 51 54 52 55 53 56 54
REMARK SMILES IDX 57 55 80 56 81 57 89 58 82 59 88 60 83 61 84 62 85 63 86 64
REMARK SMILES IDX 87 65 66 66 67 67 75 68 68 69 74 70 69 71 70 72 71 73 72 74
REMARK SMILES IDX 73 75 6 76 7 77 8 79 9 80 10 81 11 82 12 84 13 85 14 86
REMARK SMILES IDX 15 87 16 88 17 90 18 91 19 92 20 93 21 95 22 96 23 97 24 98
REMARK SMILES IDX 25 99 29 100 26 101 28 102 27 103 30 104 31 105 32 106
REMARK H PARENT 94 31 64 42 6 78 10 83 15 89 19 94
REMARK Flexibility Score: inf
ROOT
ATOM      1  C   UNL A   1      32.099  29.578  25.220  1.00  0.00     0.192 C 
ENDROOT
BRANCH   1   2
ATOM      2  C   UNL A   1      30.920  28.896  24.460  1.00  0.00     0.040 C 
BRANCH   2   3
ATOM      3  C   UNL A   1      30.425  29.694  23.251  1.00  0.00    -0.015 C 
ATOM      4  C   UNL A   1      30.043  28.668  22.244  1.00  0.00     0.007 C 
ATOM      5  C   UNL A   1      29.211  30.602  23.428  1.00  0.00     0.007 C 
ENDBRANCH   2   3
ENDBRANCH   1   2
BRANCH   1   6
ATOM      6  C   UNL A   1      31.903  30.678  26.305  1.00  0.00     0.328 C 
ATOM      7  O   UNL A   1      31.267  31.711  26.167  1.00  0.00    -0.250 OA
BRANCH   6   8
ATOM      8  O   UNL A   1      32.670  30.376  27.396  1.00  0.00    -0.461 OA
BRANCH   8   9
ATOM      9  C   UNL A   1      33.894  31.078  27.702  1.00  0.00     0.274 C 
BRANCH   9  10
ATOM     10  C   UNL A   1      34.915  30.057  28.217  1.00  0.00     0.275 C 
BRANCH  10  11
ATOM     11  O   UNL A   1      36.036  30.754  28.761  1.00  0.00    -0.458 OA
BRANCH  11  12
ATOM     12  C   UNL A   1      36.547  30.185  29.880  1.00  0.00     0.338 C 
ATOM     13  O   UNL A   1      35.961  29.604  30.764  1.00  0.00    -0.246 OA
BRANCH  12  14
ATOM     14  C   UNL A   1      37.999  30.121  29.669  1.00  0.00     0.060 A 
ATOM     15  C   UNL A   1      38.464  30.026  28.352  1.00  0.00     0.016 A 
ATOM     16  C   UNL A   1      38.876  30.174  30.749  1.00  0.00     0.016 A 
ATOM     17  C   UNL A   1      39.816  29.896  28.101  1.00  0.00     0.010 A 
ATOM     18  C   UNL A   1      40.231  30.038  30.504  1.00  0.00     0.010 A 
ATOM     19  C   UNL A   1      40.682  29.835  29.188  1.00  0.00    -0.014 A 
BRANCH  19  20
ATOM     20  C   UNL A   1      42.018  29.263  29.014  1.00  0.00     0.031 A 
ATOM     21  C   UNL A   1      43.162  30.228  29.013  1.00  0.00     0.074 A 
ATOM     22  C   UNL A   1      42.162  27.952  28.794  1.00  0.00     0.049 A 
ATOM     23  N   UNL A   1      44.380  30.063  28.587  1.00  0.00    -0.248 NA
ATOM     24  C   UNL A   1      42.877  31.581  29.531  1.00  0.00     0.031 C 
ATOM     25  C   UNL A   1      41.096  26.954  28.872  1.00  0.00     0.029 A 
ATOM     26  N   UNL A   1      43.268  27.250  28.411  1.00  0.00    -0.354 N 
ATOM     27  C   UNL A   1      44.991  31.302  28.733  1.00  0.00     0.074 A 
ATOM     28  C   UNL A   1      44.011  32.213  29.274  1.00  0.00     0.031 C 
ATOM     29  C   UNL A   1      41.594  25.764  28.497  1.00  0.00     0.029 A 
ATOM     30  C   UNL A   1      42.984  25.945  28.095  1.00  0.00     0.049 A 
ATOM     31  H   UNL A   1      44.171  27.637  28.367  1.00  0.00     0.167 HD
ATOM     32  C   UNL A   1      46.262  31.639  28.419  1.00  0.00     0.031 A 
ATOM     33  C   UNL A   1      43.759  25.031  27.486  1.00  0.00     0.031 A 
ATOM     34  C   UNL A   1      47.190  30.696  27.861  1.00  0.00     0.049 A 
ATOM     35  C   UNL A   1      45.150  25.441  27.082  1.00  0.00     0.074 A 
ATOM     36  C   UNL A   1      48.510  30.889  27.504  1.00  0.00     0.029 A 
ATOM     37  N   UNL A   1      46.880  29.372  27.574  1.00  0.00    -0.354 N 
ATOM     38  N   UNL A   1      45.733  26.613  27.205  1.00  0.00    -0.248 NA
ATOM     39  C   UNL A   1      45.989  24.408  26.467  1.00  0.00     0.031 C 
ATOM     40  C   UNL A   1      48.980  29.695  26.946  1.00  0.00     0.029 A 
ATOM     41  C   UNL A   1      47.978  28.736  27.027  1.00  0.00     0.049 A 
ATOM     42  H   UNL A   1      46.007  28.948  27.737  1.00  0.00     0.167 HD
ATOM     43  C   UNL A   1      47.024  26.448  26.720  1.00  0.00     0.074 A 
ATOM     44  C   UNL A   1      47.132  25.062  26.303  1.00  0.00     0.031 C 
ATOM     45  C   UNL A   1      48.036  27.349  26.635  1.00  0.00     0.031 A 
BRANCH  32  46
ATOM     46  C   UNL A   1      46.672  33.073  28.614  1.00  0.00    -0.014 A 
ATOM     47  C   UNL A   1      47.238  33.522  29.823  1.00  0.00     0.010 A 
ATOM     48  C   UNL A   1      46.476  33.997  27.571  1.00  0.00     0.010 A 
ATOM     49  C   UNL A   1      47.556  34.871  29.999  1.00  0.00     0.020 A 
ATOM     50  C   UNL A   1      46.824  35.342  27.732  1.00  0.00     0.020 A 
ATOM     51  C   UNL A   1      47.345  35.774  28.952  1.00  0.00     0.054 A 
BRANCH  51  52
ATOM     52  S   UNL A   1      47.781  37.516  29.205  1.00  0.00     0.124 S 
ATOM     53  O   UNL A   1      48.524  37.461  30.462  1.00  0.00    -0.237 OA
ATOM     54  O   UNL A   1      48.576  37.821  28.019  1.00  0.00    -0.237 OA
ATOM     55  O   UNL A   1      46.488  38.191  29.275  1.00  0.00    -0.744 OA
ENDBRANCH  51  52
ENDBRANCH  32  46
BRANCH  33  56
ATOM     56  C   UNL A   1      43.221  23.673  27.220  1.00  0.00    -0.014 A 
ATOM     57  C   UNL A   1      42.672  23.366  25.965  1.00  0.00     0.010 A 
ATOM     58  C   UNL A   1      43.312  22.660  28.194  1.00  0.00     0.010 A 
ATOM     59  C   UNL A   1      42.214  22.075  25.690  1.00  0.00     0.020 A 
ATOM     60  C   UNL A   1      42.882  21.361  27.913  1.00  0.00     0.020 A 
ATOM     61  C   UNL A   1      42.328  21.079  26.664  1.00  0.00     0.054 A 
BRANCH  61  62
ATOM     62  S   UNL A   1      41.781  19.399  26.255  1.00  0.00     0.124 S 
ATOM     63  O   UNL A   1      40.353  19.591  26.025  1.00  0.00    -0.237 OA
ATOM     64  O   UNL A   1      42.577  19.090  25.069  1.00  0.00    -0.237 OA
ATOM     65  O   UNL A   1      42.124  18.625  27.445  1.00  0.00    -0.744 OA
ENDBRANCH  61  62
ENDBRANCH  33  56
BRANCH  45  66
ATOM     66  C   UNL A   1      49.361  26.846  26.134  1.00  0.00    -0.014 A 
ATOM     67  C   UNL A   1      49.776  27.058  24.809  1.00  0.00     0.010 A 
ATOM     68  C   UNL A   1      50.237  26.222  27.043  1.00  0.00     0.010 A 
ATOM     69  C   UNL A   1      51.040  26.631  24.394  1.00  0.00     0.020 A 
ATOM     70  C   UNL A   1      51.512  25.826  26.641  1.00  0.00     0.020 A 
ATOM     71  C   UNL A   1      51.901  26.023  25.315  1.00  0.00     0.054 A 
BRANCH  71  72
ATOM     72  S   UNL A   1      53.557  25.537  24.766  1.00  0.00     0.124 S 
ATOM     73  O   UNL A   1      53.563  24.104  25.051  1.00  0.00    -0.237 OA
ATOM     74  O   UNL A   1      53.543  25.897  23.351  1.00  0.00    -0.237 OA
ATOM     75  O   UNL A   1      54.449  26.340  25.600  1.00  0.00    -0.744 OA
ENDBRANCH  71  72
ENDBRANCH  45  66
ENDBRANCH  19  20
ENDBRANCH  12  14
ENDBRANCH  11  12
ENDBRANCH  10  11
ENDBRANCH   9  10
ENDBRANCH   8   9
ENDBRANCH   6   8
ENDBRANCH   1   6
BRANCH   1  76
ATOM     76  N   UNL A   1      33.182  28.662  25.566  1.00  0.00    -0.341 N 
ATOM     77  C   UNL A   1      33.636  27.485  25.088  1.00  0.00     0.243 C 
ATOM     78  H   UNL A   1      33.707  28.981  26.335  1.00  0.00     0.164 HD
ATOM     79  O   UNL A   1      34.697  27.124  25.629  1.00  0.00    -0.273 OA
BRANCH  77  80
ATOM     80  C   UNL A   1      33.053  26.569  23.915  1.00  0.00     0.174 C 
BRANCH  80  81
ATOM     81  N   UNL A   1      31.734  25.831  23.926  1.00  0.00    -0.342 N 
ATOM     82  C   UNL A   1      30.545  25.590  24.531  1.00  0.00     0.242 C 
ATOM     83  H   UNL A   1      31.741  25.264  23.122  1.00  0.00     0.164 HD
ATOM     84  O   UNL A   1      29.765  25.027  23.736  1.00  0.00    -0.273 OA
BRANCH  82  85
ATOM     85  C   UNL A   1      30.046  25.811  26.015  1.00  0.00     0.168 C 
ATOM     86  C   UNL A   1      31.251  26.320  26.834  1.00  0.00     0.041 C 
BRANCH  85  87
ATOM     87  N   UNL A   1      29.509  24.623  26.688  1.00  0.00    -0.343 N 
ATOM     88  C   UNL A   1      30.025  23.381  26.942  1.00  0.00     0.240 C 
ATOM     89  H   UNL A   1      28.592  24.743  27.025  1.00  0.00     0.164 HD
ATOM     90  O   UNL A   1      29.280  22.619  27.577  1.00  0.00    -0.273 OA
BRANCH  88  91
ATOM     91  C   UNL A   1      31.493  22.941  26.679  1.00  0.00     0.219 C 
BRANCH  91  92
ATOM     92  N   UNL A   1      31.656  21.703  25.962  1.00  0.00    -0.312 N 
ATOM     93  C   UNL A   1      32.157  21.467  24.719  1.00  0.00     0.407 C 
ATOM     94  H   UNL A   1      31.359  20.900  26.448  1.00  0.00     0.167 HD
ATOM     95  O   UNL A   1      32.089  20.334  24.258  1.00  0.00    -0.225 OA
BRANCH  93  96
ATOM     96  O   UNL A   1      32.700  22.541  24.099  1.00  0.00    -0.445 OA
BRANCH  96  97
ATOM     97  C   UNL A   1      33.928  22.271  23.386  1.00  0.00     0.270 C 
BRANCH  97  98
ATOM     98  C   UNL A   1      35.139  22.632  24.215  1.00  0.00    -0.011 A 
ATOM     99  C   UNL A   1      36.315  21.871  24.146  1.00  0.00     0.007 A 
ATOM    100  C   UNL A   1      35.099  23.720  25.099  1.00  0.00     0.007 A 
ATOM    101  C   UNL A   1      37.432  22.219  24.912  1.00  0.00     0.000 A 
ATOM    102  C   UNL A   1      36.217  24.076  25.852  1.00  0.00     0.000 A 
ATOM    103  C   UNL A   1      37.387  23.330  25.752  1.00  0.00     0.000 A 
ENDBRANCH  97  98
ENDBRANCH  96  97
ENDBRANCH  93  96
ENDBRANCH  91  92
ENDBRANCH  88  91
ENDBRANCH  85  87
ENDBRANCH  82  85
ENDBRANCH  80  81
BRANCH  80 104
ATOM    104  C   UNL A   1      33.588  26.871  22.485  1.00  0.00     0.015 C 
ATOM    105  C   UNL A   1      32.742  26.282  21.350  1.00  0.00     0.010 C 
ATOM    106  C   UNL A   1      33.728  28.382  22.258  1.00  0.00     0.010 C 
ENDBRANCH  80 104
ENDBRANCH  77  80
ENDBRANCH   1  76
TORSDOF 27
ENDMDL
MODEL 2
REMARK VINA RESULT:      -9.7      4.671      5.937
REMARK SMILES CC(C)C[C@H](NC(=O)[C@@H](NC(=O)[C@H](C)NC(=O)CNC(=O)OCc1ccccc1)C(C)C)C(=O)OCCOC(=O)c1ccc(-c2c3nc(c(-c4ccc(S(=O)(=O)[O-])cc4)c4ccc([nH]4)c(-c4ccc(S(=O)(=O)[O-])cc4)c4nc(c(-c5ccc(S(=O)(=O)[O-])cc5)c5ccc2[nH]5)C=C4)C=C3)cc1
REMARK SMILES IDX 5 1 4 2 2 3 1 4 3 5 33 6 34 7 35 8 36 9 37 10 38 11 39 12
REMARK SMILES IDX 40 13 41 14 42 15 100 16 43 17 99 18 44 19 45 20 46 21 93 22
REMARK SMILES IDX 47 23 98 24 92 25 94 26 48 27 97 28 91 29 90 30 49 32 79 33
REMARK SMILES IDX 60 34 78 35 61 36 64 37 77 38 95 39 62 40 63 41 76 43 96 44
REMARK SMILES IDX 65 45 50 46 51 47 59 48 52 49 58 50 53 51 54 52 55 53 56 54
REMARK SMILES IDX 57 55 80 56 81 57 89 58 82 59 88 60 83 61 84 62 85 63 86 64
REMARK SMILES IDX 87 65 66 66 67 67 75 68 68 69 74 70 69 71 70 72 71 73 72 74
REMARK SMILES IDX 73 75 6 76 7 77 8 79 9 80 10 81 11 82 12 84 13 85 14 86
REMARK SMILES IDX 15 87 16 88 17 90 18 91 19 92 20 93 21 95 22 96 23 97 24 98
REMARK SMILES IDX 25 99 29 100 26 101 28 102 27 103 30 104 31 105 32 106
REMARK H PARENT 94 31 64 42 6 78 10 83 15 89 19 94
REMARK Flexibility Score: inf
ROOT
ATOM      1  C   UNL A   1      31.683  28.544  24.935  1.00  0.00     0.192 C 
ENDROOT
BRANCH   1   2
ATOM      2  C   UNL A   1      30.443  27.597  24.915  1.00  0.00     0.040 C 
BRANCH   2   3
ATOM      3  C   UNL A   1      29.881  27.348  23.513  1.00  0.00    -0.015 C 
ATOM      4  C   UNL A   1      28.618  26.594  23.734  1.00  0.00     0.007 C 
ATOM      5  C   UNL A   1      29.523  28.554  22.650  1.00  0.00     0.007 C 
ENDBRANCH   2   3
ENDBRANCH   1   2
BRANCH   1   6
ATOM      6  C   UNL A   1      31.619  30.036  25.374  1.00  0.00     0.328 C 
ATOM      7  O   UNL A   1      30.708  30.813  25.132  1.00  0.00    -0.250 OA
BRANCH   6   8
ATOM      8  O   UNL A   1      32.805  30.386  25.957  1.00  0.00    -0.461 OA
BRANCH   8   9
ATOM      9  C   UNL A   1      32.945  30.573  27.381  1.00  0.00     0.274 C 
BRANCH   9  10
ATOM     10  C   UNL A   1      33.239  32.055  27.643  1.00  0.00     0.275 C 
BRANCH  10  11
ATOM     11  O   UNL A   1      34.636  32.215  27.892  1.00  0.00    -0.458 OA
BRANCH  11  12
ATOM     12  C   UNL A   1      34.948  32.364  29.203  1.00  0.00     0.338 C 
ATOM     13  O   UNL A   1      34.259  32.806  30.094  1.00  0.00    -0.246 OA
BRANCH  12  14
ATOM     14  C   UNL A   1      36.176  31.589  29.413  1.00  0.00     0.060 A 
ATOM     15  C   UNL A   1      36.051  30.294  29.932  1.00  0.00     0.016 A 
ATOM     16  C   UNL A   1      37.419  32.124  29.084  1.00  0.00     0.016 A 
ATOM     17  C   UNL A   1      37.178  29.546  30.210  1.00  0.00     0.010 A 
ATOM     18  C   UNL A   1      38.552  31.382  29.365  1.00  0.00     0.010 A 
ATOM     19  C   UNL A   1      38.423  30.128  29.986  1.00  0.00    -0.014 A 
BRANCH  19  20
ATOM     20  C   UNL A   1      39.603  29.584  30.661  1.00  0.00     0.031 A 
ATOM     21  C   UNL A   1      40.015  30.260  31.931  1.00  0.00     0.074 A 
ATOM     22  C   UNL A   1      40.294  28.585  30.102  1.00  0.00     0.049 A 
ATOM     23  N   UNL A   1      41.152  30.206  32.563  1.00  0.00    -0.248 NA
ATOM     24  C   UNL A   1      39.017  31.152  32.552  1.00  0.00     0.031 C 
ATOM     25  C   UNL A   1      39.890  27.831  28.915  1.00  0.00     0.029 A 
ATOM     26  N   UNL A   1      41.511  28.071  30.443  1.00  0.00    -0.354 N 
ATOM     27  C   UNL A   1      41.026  31.096  33.622  1.00  0.00     0.074 A 
ATOM     28  C   UNL A   1      39.711  31.686  33.544  1.00  0.00     0.031 C 
ATOM     29  C   UNL A   1      40.875  26.975  28.595  1.00  0.00     0.029 A 
ATOM     30  C   UNL A   1      41.988  27.178  29.516  1.00  0.00     0.049 A 
ATOM     31  H   UNL A   1      41.995  28.314  31.265  1.00  0.00     0.167 HD
ATOM     32  C   UNL A   1      41.948  31.397  34.563  1.00  0.00     0.031 A 
ATOM     33  C   UNL A   1      43.217  26.645  29.405  1.00  0.00     0.031 A 
ATOM     34  C   UNL A   1      43.251  30.794  34.580  1.00  0.00     0.049 A 
ATOM     35  C   UNL A   1      44.253  27.041  30.422  1.00  0.00     0.074 A 
ATOM     36  C   UNL A   1      44.284  30.992  35.475  1.00  0.00     0.029 A 
ATOM     37  N   UNL A   1      43.698  29.873  33.640  1.00  0.00    -0.354 N 
ATOM     38  N   UNL A   1      44.147  27.890  31.419  1.00  0.00    -0.248 NA
ATOM     39  C   UNL A   1      45.568  26.404  30.304  1.00  0.00     0.031 C 
ATOM     40  C   UNL A   1      45.376  30.233  35.041  1.00  0.00     0.029 A 
ATOM     41  C   UNL A   1      44.999  29.503  33.921  1.00  0.00     0.049 A 
ATOM     42  H   UNL A   1      43.165  29.533  32.885  1.00  0.00     0.167 HD
ATOM     43  C   UNL A   1      45.370  27.859  32.077  1.00  0.00     0.074 A 
ATOM     44  C   UNL A   1      46.198  26.906  31.359  1.00  0.00     0.031 C 
ATOM     45  C   UNL A   1      45.777  28.541  33.178  1.00  0.00     0.031 A 
BRANCH  32  46
ATOM     46  C   UNL A   1      41.591  32.448  35.579  1.00  0.00    -0.014 A 
ATOM     47  C   UNL A   1      41.804  33.817  35.332  1.00  0.00     0.010 A 
ATOM     48  C   UNL A   1      41.042  32.057  36.814  1.00  0.00     0.010 A 
ATOM     49  C   UNL A   1      41.518  34.768  36.315  1.00  0.00     0.020 A 
ATOM     50  C   UNL A   1      40.724  33.008  37.788  1.00  0.00     0.020 A 
ATOM     51  C   UNL A   1      40.981  34.357  37.539  1.00  0.00     0.054 A 
BRANCH  51  52
ATOM     52  S   UNL A   1      40.607  35.615  38.791  1.00  0.00     0.124 S 
ATOM     53  O   UNL A   1      40.882  36.853  38.065  1.00  0.00    -0.237 OA
ATOM     54  O   UNL A   1      39.200  35.361  39.086  1.00  0.00    -0.237 OA
ATOM     55  O   UNL A   1      41.534  35.311  39.877  1.00  0.00    -0.744 OA
ENDBRANCH  51  52
ENDBRANCH  32  46
BRANCH  33  56
ATOM     56  C   UNL A   1      43.513  25.711  28.288  1.00  0.00    -0.014 A 
ATOM     57  C   UNL A   1      43.757  26.209  26.999  1.00  0.00     0.010 A 
ATOM     58  C   UNL A   1      43.616  24.326  28.520  1.00  0.00     0.010 A 
ATOM     59  C   UNL A   1      44.090  25.339  25.958  1.00  0.00     0.020 A 
ATOM     60  C   UNL A   1      43.978  23.457  27.487  1.00  0.00     0.020 A 
ATOM     61  C   UNL A   1      44.205  23.969  26.209  1.00  0.00     0.054 A 
BRANCH  61  62
ATOM     62  S   UNL A   1      44.698  22.875  24.850  1.00  0.00     0.124 S 
ATOM     63  O   UNL A   1      45.632  23.715  24.106  1.00  0.00    -0.237 OA
ATOM     64  O   UNL A   1      45.293  21.744  25.559  1.00  0.00    -0.237 OA
ATOM     65  O   UNL A   1      43.440  22.582  24.169  1.00  0.00    -0.744 OA
ENDBRANCH  61  62
ENDBRANCH  33  56
BRANCH  45  66
ATOM     66  C   UNL A   1      47.148  28.231  33.709  1.00  0.00    -0.014 A 
ATOM     67  C   UNL A   1      48.273  28.983  33.330  1.00  0.00     0.010 A 
ATOM     68  C   UNL A   1      47.289  27.214  34.673  1.00  0.00     0.010 A 
ATOM     69  C   UNL A   1      49.522  28.706  33.890  1.00  0.00     0.020 A 
ATOM     70  C   UNL A   1      48.527  26.959  35.260  1.00  0.00     0.020 A 
ATOM     71  C   UNL A   1      49.639  27.699  34.855  1.00  0.00     0.054 A 
BRANCH  71  72
ATOM     72  S   UNL A   1      51.258  27.405  35.612  1.00  0.00     0.124 S 
ATOM     73  O   UNL A   1      51.776  28.763  35.759  1.00  0.00    -0.237 OA
ATOM     74  O   UNL A   1      50.909  26.725  36.857  1.00  0.00    -0.237 OA
ATOM     75  O   UNL A   1      51.955  26.577  34.630  1.00  0.00    -0.744 OA
ENDBRANCH  71  72
ENDBRANCH  45  66
ENDBRANCH  19  20
ENDBRANCH  12  14
ENDBRANCH  11  12
ENDBRANCH  10  11
ENDBRANCH   9  10
ENDBRANCH   8   9
ENDBRANCH   6   8
ENDBRANCH   1   6
BRANCH   1  76
ATOM     76  N   UNL A   1      32.908  27.897  25.391  1.00  0.00    -0.341 N 
ATOM     77  C   UNL A   1      33.591  26.783  25.054  1.00  0.00     0.243 C 
ATOM     78  H   UNL A   1      33.342  28.393  26.122  1.00  0.00     0.164 HD
ATOM     79  O   UNL A   1      34.685  26.694  25.640  1.00  0.00    -0.273 OA
BRANCH  77  80
ATOM     80  C   UNL A   1      33.225  25.647  23.989  1.00  0.00     0.174 C 
BRANCH  80  81
ATOM     81  N   UNL A   1      32.114  24.630  24.110  1.00  0.00    -0.342 N 
ATOM     82  C   UNL A   1      31.488  23.679  24.846  1.00  0.00     0.242 C 
ATOM     83  H   UNL A   1      31.614  24.682  23.264  1.00  0.00     0.164 HD
ATOM     84  O   UNL A   1      30.356  23.449  24.375  1.00  0.00    -0.273 OA
BRANCH  82  85
ATOM     85  C   UNL A   1      31.963  22.804  26.074  1.00  0.00     0.168 C 
ATOM     86  C   UNL A   1      33.471  23.071  26.274  1.00  0.00     0.041 C 
BRANCH  85  87
ATOM     87  N   UNL A   1      31.775  21.355  25.932  1.00  0.00    -0.343 N 
ATOM     88  C   UNL A   1      32.386  20.405  25.158  1.00  0.00     0.240 C 
ATOM     89  H   UNL A   1      31.065  20.993  26.510  1.00  0.00     0.164 HD
ATOM     90  O   UNL A   1      31.979  19.246  25.325  1.00  0.00    -0.273 OA
BRANCH  88  91
ATOM     91  C   UNL A   1      33.640  20.636  24.268  1.00  0.00     0.219 C 
BRANCH  91  92
ATOM     92  N   UNL A   1      34.756  19.762  24.523  1.00  0.00    -0.312 N 
ATOM     93  C   UNL A   1      36.003  20.043  24.990  1.00  0.00     0.407 C 
ATOM     94  H   UNL A   1      34.592  18.811  24.328  1.00  0.00     0.167 HD
ATOM     95  O   UNL A   1      36.842  19.150  25.015  1.00  0.00    -0.225 OA
BRANCH  93  96
ATOM     96  O   UNL A   1      36.196  21.319  25.396  1.00  0.00    -0.445 OA
BRANCH  96  97
ATOM     97  C   UNL A   1      37.260  22.017  24.710  1.00  0.00     0.270 C 
BRANCH  97  98
ATOM     98  C   UNL A   1      38.251  22.609  25.686  1.00  0.00    -0.011 A 
ATOM     99  C   UNL A   1      39.335  21.855  26.162  1.00  0.00     0.007 A 
ATOM    100  C   UNL A   1      38.086  23.917  26.164  1.00  0.00     0.007 A 
ATOM    101  C   UNL A   1      40.249  22.416  27.059  1.00  0.00     0.000 A 
ATOM    102  C   UNL A   1      39.006  24.481  27.047  1.00  0.00     0.000 A 
ATOM    103  C   UNL A   1      40.092  23.732  27.489  1.00  0.00     0.000 A 
ENDBRANCH  97  98
ENDBRANCH  96  97
ENDBRANCH  93  96
ENDBRANCH  91  92
ENDBRANCH  88  91
ENDBRANCH  85  87
ENDBRANCH  82  85
ENDBRANCH  80  81
BRANCH  80 104
ATOM    104  C   UNL A   1      33.662  25.924  22.522  1.00  0.00     0.015 C 
ATOM    105  C   UNL A   1      32.742  25.314  21.456  1.00  0.00     0.010 C 
ATOM    106  C   UNL A   1      33.783  27.431  22.258  1.00  0.00     0.010 C 
ENDBRANCH  80 104
ENDBRANCH  77  80
ENDBRANCH   1  76
TORSDOF 27
ENDMDL
MODEL 3
REMARK VINA RESULT:      -9.6      2.611      9.361
REMARK SMILES CC(C)C[C@H](NC(=O)[C@@H](NC(=O)[C@H](C)NC(=O)CNC(=O)OCc1ccccc1)C(C)C)C(=O)OCCOC(=O)c1ccc(-c2c3nc(c(-c4ccc(S(=O)(=O)[O-])cc4)c4ccc([nH]4)c(-c4ccc(S(=O)(=O)[O-])cc4)c4nc(c(-c5ccc(S(=O)(=O)[O-])cc5)c5ccc2[nH]5)C=C4)C=C3)cc1
REMARK SMILES IDX 5 1 4 2 2 3 1 4 3 5 33 6 34 7 35 8 36 9 37 10 38 11 39 12
REMARK SMILES IDX 40 13 41 14 42 15 100 16 43 17 99 18 44 19 45 20 46 21 93 22
REMARK SMILES IDX 47 23 98 24 92 25 94 26 48 27 97 28 91 29 90 30 49 32 79 33
REMARK SMILES IDX 60 34 78 35 61 36 64 37 77 38 95 39 62 40 63 41 76 43 96 44
REMARK SMILES IDX 65 45 50 46 51 47 59 48 52 49 58 50 53 51 54 52 55 53 56 54
REMARK SMILES IDX 57 55 80 56 81 57 89 58 82 59 88 60 83 61 84 62 85 63 86 64
REMARK SMILES IDX 87 65 66 66 67 67 75 68 68 69 74 70 69 71 70 72 71 73 72 74
REMARK SMILES IDX 73 75 6 76 7 77 8 79 9 80 10 81 11 82 12 84 13 85 14 86
REMARK SMILES IDX 15 87 16 88 17 90 18 91 19 92 20 93 21 95 22 96 23 97 24 98
REMARK SMILES IDX 25 99 29 100 26 101 28 102 27 103 30 104 31 105 32 106
REMARK H PARENT 94 31 64 42 6 78 10 83 15 89 19 94
REMARK Flexibility Score: inf
ROOT
ATOM      1  C   UNL A   1      34.576  20.824  24.759  1.00  0.00     0.192 C 
ENDROOT
BRANCH   1   2
ATOM      2  C   UNL A   1      33.436  19.865  24.297  1.00  0.00     0.040 C 
BRANCH   2   3
ATOM      3  C   UNL A   1      33.706  18.391  24.614  1.00  0.00    -0.015 C 
ATOM      4  C   UNL A   1      32.589  17.981  25.506  1.00  0.00     0.007 C 
ATOM      5  C   UNL A   1      33.730  17.393  23.460  1.00  0.00     0.007 C 
ENDBRANCH   2   3
ENDBRANCH   1   2
BRANCH   1   6
ATOM      6  C   UNL A   1      36.041  20.362  25.012  1.00  0.00     0.328 C 
ATOM      7  O   UNL A   1      36.511  19.278  24.702  1.00  0.00    -0.250 OA
BRANCH   6   8
ATOM      8  O   UNL A   1      36.689  21.305  25.760  1.00  0.00    -0.461 OA
BRANCH   8   9
ATOM      9  C   UNL A   1      37.903  21.947  25.318  1.00  0.00     0.274 C 
BRANCH   9  10
ATOM     10  C   UNL A   1      39.088  21.250  25.999  1.00  0.00     0.275 C 
BRANCH  10  11
ATOM     11  O   UNL A   1      40.205  22.139  26.013  1.00  0.00    -0.458 OA
BRANCH  11  12
ATOM     12  C   UNL A   1      40.938  22.084  27.152  1.00  0.00     0.338 C 
ATOM     13  O   UNL A   1      41.556  21.147  27.604  1.00  0.00    -0.246 OA
BRANCH  12  14
ATOM     14  C   UNL A   1      41.114  23.476  27.583  1.00  0.00     0.060 A 
ATOM     15  C   UNL A   1      40.378  24.464  26.918  1.00  0.00     0.016 A 
ATOM     16  C   UNL A   1      41.973  23.790  28.634  1.00  0.00     0.016 A 
ATOM     17  C   UNL A   1      40.555  25.795  27.240  1.00  0.00     0.010 A 
ATOM     18  C   UNL A   1      42.158  25.122  28.957  1.00  0.00     0.010 A 
ATOM     19  C   UNL A   1      41.497  26.115  28.213  1.00  0.00    -0.014 A 
BRANCH  19  20
ATOM     20  C   UNL A   1      42.037  27.474  28.273  1.00  0.00     0.031 A 
ATOM     21  C   UNL A   1      43.497  27.625  27.979  1.00  0.00     0.074 A 
ATOM     22  C   UNL A   1      41.253  28.492  28.647  1.00  0.00     0.049 A 
ATOM     23  N   UNL A   1      44.294  28.619  28.247  1.00  0.00    -0.248 NA
ATOM     24  C   UNL A   1      44.156  26.477  27.327  1.00  0.00     0.031 C 
ATOM     25  C   UNL A   1      39.808  28.419  28.859  1.00  0.00     0.029 A 
ATOM     26  N   UNL A   1      41.586  29.777  28.962  1.00  0.00    -0.354 N 
ATOM     27  C   UNL A   1      45.555  28.196  27.848  1.00  0.00     0.074 A 
ATOM     28  C   UNL A   1      45.423  26.854  27.332  1.00  0.00     0.031 C 
ATOM     29  C   UNL A   1      39.381  29.606  29.318  1.00  0.00     0.029 A 
ATOM     30  C   UNL A   1      40.534  30.483  29.490  1.00  0.00     0.049 A 
ATOM     31  H   UNL A   1      42.483  30.157  28.824  1.00  0.00     0.167 HD
ATOM     32  C   UNL A   1      46.720  28.876  27.929  1.00  0.00     0.031 A 
ATOM     33  C   UNL A   1      40.537  31.679  30.102  1.00  0.00     0.031 A 
ATOM     34  C   UNL A   1      46.796  30.203  28.473  1.00  0.00     0.049 A 
ATOM     35  C   UNL A   1      41.853  32.396  30.245  1.00  0.00     0.074 A 
ATOM     36  C   UNL A   1      47.901  31.020  28.610  1.00  0.00     0.029 A 
ATOM     37  N   UNL A   1      45.707  30.903  28.980  1.00  0.00    -0.354 N 
ATOM     38  N   UNL A   1      43.052  31.999  29.882  1.00  0.00    -0.248 NA
ATOM     39  C   UNL A   1      41.816  33.722  30.870  1.00  0.00     0.031 C 
ATOM     40  C   UNL A   1      47.488  32.191  29.253  1.00  0.00     0.029 A 
ATOM     41  C   UNL A   1      46.114  32.138  29.447  1.00  0.00     0.049 A 
ATOM     42  H   UNL A   1      44.781  30.569  29.002  1.00  0.00     0.167 HD
ATOM     43  C   UNL A   1      43.910  33.045  30.196  1.00  0.00     0.074 A 
ATOM     44  C   UNL A   1      43.088  34.090  30.780  1.00  0.00     0.031 C 
ATOM     45  C   UNL A   1      45.252  33.147  30.013  1.00  0.00     0.031 A 
BRANCH  32  46
ATOM     46  C   UNL A   1      47.972  28.172  27.483  1.00  0.00    -0.014 A 
ATOM     47  C   UNL A   1      48.836  27.547  28.403  1.00  0.00     0.010 A 
ATOM     48  C   UNL A   1      48.301  28.145  26.115  1.00  0.00     0.010 A 
ATOM     49  C   UNL A   1      50.023  26.951  27.969  1.00  0.00     0.020 A 
ATOM     50  C   UNL A   1      49.471  27.521  25.673  1.00  0.00     0.020 A 
ATOM     51  C   UNL A   1      50.334  26.943  26.606  1.00  0.00     0.054 A 
BRANCH  51  52
ATOM     52  S   UNL A   1      51.874  26.150  26.070  1.00  0.00     0.124 S 
ATOM     53  O   UNL A   1      51.606  24.743  26.362  1.00  0.00    -0.237 OA
ATOM     54  O   UNL A   1      51.934  26.496  24.653  1.00  0.00    -0.237 OA
ATOM     55  O   UNL A   1      52.897  26.774  26.905  1.00  0.00    -0.744 OA
ENDBRANCH  51  52
ENDBRANCH  32  46
BRANCH  33  56
ATOM     56  C   UNL A   1      39.265  32.239  30.626  1.00  0.00    -0.014 A 
ATOM     57  C   UNL A   1      38.800  31.864  31.896  1.00  0.00     0.010 A 
ATOM     58  C   UNL A   1      38.544  33.197  29.887  1.00  0.00     0.010 A 
ATOM     59  C   UNL A   1      37.633  32.428  32.416  1.00  0.00     0.020 A 
ATOM     60  C   UNL A   1      37.392  33.785  30.417  1.00  0.00     0.020 A 
ATOM     61  C   UNL A   1      36.940  33.391  31.676  1.00  0.00     0.054 A 
BRANCH  61  62
ATOM     62  S   UNL A   1      35.462  34.149  32.405  1.00  0.00     0.124 S 
ATOM     63  O   UNL A   1      34.928  33.058  33.214  1.00  0.00    -0.237 OA
ATOM     64  O   UNL A   1      36.023  35.273  33.151  1.00  0.00    -0.237 OA
ATOM     65  O   UNL A   1      34.657  34.520  31.245  1.00  0.00    -0.744 OA
ENDBRANCH  61  62
ENDBRANCH  33  56
BRANCH  45  66
ATOM     66  C   UNL A   1      45.898  34.452  30.385  1.00  0.00    -0.014 A 
ATOM     67  C   UNL A   1      45.801  35.584  29.558  1.00  0.00     0.010 A 
ATOM     68  C   UNL A   1      46.544  34.559  31.631  1.00  0.00     0.010 A 
ATOM     69  C   UNL A   1      46.362  36.797  29.963  1.00  0.00     0.020 A 
ATOM     70  C   UNL A   1      47.075  35.777  32.053  1.00  0.00     0.020 A 
ATOM     71  C   UNL A   1      46.990  36.886  31.210  1.00  0.00     0.054 A 
BRANCH  71  72
ATOM     72  S   UNL A   1      47.652  38.488  31.738  1.00  0.00     0.124 S 
ATOM     73  O   UNL A   1      48.982  38.122  32.219  1.00  0.00    -0.237 OA
ATOM     74  O   UNL A   1      47.622  39.268  30.504  1.00  0.00    -0.237 OA
ATOM     75  O   UNL A   1      46.716  38.927  32.771  1.00  0.00    -0.744 OA
ENDBRANCH  71  72
ENDBRANCH  45  66
ENDBRANCH  19  20
ENDBRANCH  12  14
ENDBRANCH  11  12
ENDBRANCH  10  11
ENDBRANCH   9  10
ENDBRANCH   8   9
ENDBRANCH   6   8
ENDBRANCH   1   6
BRANCH   1  76
ATOM     76  N   UNL A   1      34.523  22.142  24.134  1.00  0.00    -0.341 N 
ATOM     77  C   UNL A   1      33.938  23.322  24.426  1.00  0.00     0.243 C 
ATOM     78  H   UNL A   1      35.040  22.178  23.298  1.00  0.00     0.164 HD
ATOM     79  O   UNL A   1      34.285  24.234  23.654  1.00  0.00    -0.273 OA
BRANCH  77  80
ATOM     80  C   UNL A   1      32.954  23.702  25.628  1.00  0.00     0.174 C 
BRANCH  80  81
ATOM     81  N   UNL A   1      32.048  24.909  25.696  1.00  0.00    -0.342 N 
ATOM     82  C   UNL A   1      30.979  25.585  25.208  1.00  0.00     0.242 C 
ATOM     83  H   UNL A   1      32.392  25.458  26.437  1.00  0.00     0.164 HD
ATOM     84  O   UNL A   1      30.605  26.448  26.030  1.00  0.00    -0.273 OA
BRANCH  82  85
ATOM     85  C   UNL A   1      30.229  25.524  23.818  1.00  0.00     0.168 C 
ATOM     86  C   UNL A   1      31.308  25.528  22.713  1.00  0.00     0.041 C 
BRANCH  85  87
ATOM     87  N   UNL A   1      29.301  26.628  23.548  1.00  0.00    -0.343 N 
ATOM     88  C   UNL A   1      29.461  27.986  23.472  1.00  0.00     0.240 C 
ATOM     89  H   UNL A   1      28.375  26.333  23.390  1.00  0.00     0.164 HD
ATOM     90  O   UNL A   1      28.436  28.623  23.188  1.00  0.00    -0.273 OA
BRANCH  88  91
ATOM     91  C   UNL A   1      30.820  28.738  23.515  1.00  0.00     0.219 C 
BRANCH  91  92
ATOM     92  N   UNL A   1      30.800  30.030  24.152  1.00  0.00    -0.312 N 
ATOM     93  C   UNL A   1      31.244  30.410  25.380  1.00  0.00     0.407 C 
ATOM     94  H   UNL A   1      30.403  30.752  23.613  1.00  0.00     0.167 HD
ATOM     95  O   UNL A   1      31.013  31.550  25.767  1.00  0.00    -0.225 OA
BRANCH  93  96
ATOM     96  O   UNL A   1      31.918  29.463  26.072  1.00  0.00    -0.445 OA
BRANCH  96  97
ATOM     97  C   UNL A   1      33.329  29.382  25.768  1.00  0.00     0.270 C 
BRANCH  97  98
ATOM     98  C   UNL A   1      34.171  29.918  26.902  1.00  0.00    -0.011 A 
ATOM     99  C   UNL A   1      35.266  29.193  27.396  1.00  0.00     0.007 A 
ATOM    100  C   UNL A   1      33.852  31.141  27.511  1.00  0.00     0.007 A 
ATOM    101  C   UNL A   1      36.042  29.703  28.441  1.00  0.00     0.000 A 
ATOM    102  C   UNL A   1      34.634  31.656  28.544  1.00  0.00     0.000 A 
ATOM    103  C   UNL A   1      35.734  30.940  29.004  1.00  0.00     0.000 A 
ENDBRANCH  97  98
ENDBRANCH  96  97
ENDBRANCH  93  96
ENDBRANCH  91  92
ENDBRANCH  88  91
ENDBRANCH  85  87
ENDBRANCH  82  85
ENDBRANCH  80  81
BRANCH  80 104
ATOM    104  C   UNL A   1      32.491  22.520  26.528  1.00  0.00     0.015 C 
ATOM    105  C   UNL A   1      33.292  22.355  27.826  1.00  0.00     0.010 C 
ATOM    106  C   UNL A   1      31.004  22.649  26.883  1.00  0.00     0.010 C 
ENDBRANCH  80 104
ENDBRANCH  77  80
ENDBRANCH   1  76
TORSDOF 27
ENDMDL
