MODEL 1
REMARK VINA RESULT:     -10.6      0.000      0.000
REMARK SMILES CC1(C)C(C(=O)Nc2ccc(CC(=O)OCCOC(=O)c3ccc(-c4c5nc(c(-c6ccc(S(=O)(=O)[O-])cc6)c6ccc([nH]6)c(-c6ccc(S(=O)(=O)[O-])cc6)c6nc(c(-c7ccc(S(=O)(=O)[O-])cc7)c7ccc4[nH]7)C=C6)C=C5)cc3)cc2)C1(C)C
REMARK SMILES IDX 16 1 15 2 13 3 14 4 12 5 11 6 8 7 9 8 82 9 10 10 81 11 7 12
REMARK SMILES IDX 5 13 6 14 4 16 1 17 2 18 3 19 83 20 84 21 85 22 17 23 18 24
REMARK SMILES IDX 19 25 20 26 21 27 22 28 80 29 23 30 79 31 24 32 25 33 26 34
REMARK SMILES IDX 73 35 27 36 78 37 72 38 74 39 28 40 77 41 71 42 70 43 29 45
REMARK SMILES IDX 59 46 40 47 58 48 41 49 44 50 57 51 75 52 42 53 43 54 56 56
REMARK SMILES IDX 76 57 45 58 30 59 31 60 39 61 32 62 38 63 33 64 34 65 35 66
REMARK SMILES IDX 36 67 37 68 60 69 61 70 69 71 62 72 68 73 63 74 64 75 65 76
REMARK SMILES IDX 66 77 67 78 46 79 47 80 55 81 48 82 54 83 49 84 50 85 51 86
REMARK SMILES IDX 52 87 53 88
REMARK H PARENT 7 15 74 44 44 55
REMARK Flexibility Score: inf
ROOT
ATOM      1  C   UNL A   1      31.778  29.676  26.883  1.00  0.00     0.274 C 
ENDROOT
BRANCH   1   2
ATOM      2  O   UNL A   1      31.775  28.726  25.808  1.00  0.00    -0.462 OA
BRANCH   2   3
ATOM      3  C   UNL A   1      31.547  29.245  24.576  1.00  0.00     0.310 C 
ATOM      4  O   UNL A   1      30.545  29.877  24.254  1.00  0.00    -0.252 OA
BRANCH   3   5
ATOM      5  C   UNL A   1      32.635  28.929  23.595  1.00  0.00     0.158 C 
BRANCH   5   6
ATOM      6  C   UNL A   1      32.619  27.563  22.953  1.00  0.00    -0.037 A 
ATOM      7  C   UNL A   1      32.363  24.833  22.468  1.00  0.00     0.041 A 
ATOM      8  C   UNL A   1      31.344  25.696  22.068  1.00  0.00     0.026 A 
ATOM      9  C   UNL A   1      33.601  25.357  22.848  1.00  0.00     0.026 A 
ATOM     10  C   UNL A   1      31.465  27.063  22.332  1.00  0.00     0.006 A 
ATOM     11  C   UNL A   1      33.726  26.722  23.101  1.00  0.00     0.006 A 
BRANCH   7  12
ATOM     12  N   UNL A   1      32.016  23.491  22.749  1.00  0.00    -0.326 N 
ATOM     13  C   UNL A   1      32.715  22.779  23.700  1.00  0.00     0.228 C 
ATOM     14  O   UNL A   1      33.771  22.199  23.468  1.00  0.00    -0.274 OA
ATOM     15  H   UNL A   1      31.273  23.065  22.264  1.00  0.00     0.169 HD
BRANCH  13  16
ATOM     16  C   UNL A   1      32.097  22.635  25.060  1.00  0.00     0.091 C 
ATOM     17  C   UNL A   1      33.170  22.207  27.377  1.00  0.00     0.012 C 
ATOM     18  C   UNL A   1      32.850  23.215  26.288  1.00  0.00    -0.017 C 
ATOM     19  C   UNL A   1      33.983  24.209  26.128  1.00  0.00     0.012 C 
ATOM     20  C   UNL A   1      31.393  23.633  25.970  1.00  0.00    -0.017 C 
ATOM     21  C   UNL A   1      30.285  23.090  26.855  1.00  0.00     0.012 C 
ATOM     22  C   UNL A   1      31.037  25.026  25.509  1.00  0.00     0.012 C 
ENDBRANCH  13  16
ENDBRANCH   7  12
ENDBRANCH   5   6
ENDBRANCH   3   5
ENDBRANCH   2   3
ENDBRANCH   1   2
BRANCH   1  23
ATOM     23  C   UNL A   1      33.059  30.504  26.834  1.00  0.00     0.275 C 
BRANCH  23  24
ATOM     24  O   UNL A   1      34.110  29.834  27.557  1.00  0.00    -0.458 OA
BRANCH  24  25
ATOM     25  C   UNL A   1      34.790  30.594  28.447  1.00  0.00     0.338 C 
ATOM     26  O   UNL A   1      34.393  31.578  29.042  1.00  0.00    -0.246 OA
BRANCH  25  27
ATOM     27  C   UNL A   1      36.164  30.084  28.585  1.00  0.00     0.060 A 
ATOM     28  C   UNL A   1      36.662  29.695  29.831  1.00  0.00     0.016 A 
ATOM     29  C   UNL A   1      36.994  30.099  27.465  1.00  0.00     0.016 A 
ATOM     30  C   UNL A   1      38.012  29.363  29.967  1.00  0.00     0.010 A 
ATOM     31  C   UNL A   1      38.326  29.703  27.592  1.00  0.00     0.010 A 
ATOM     32  C   UNL A   1      38.855  29.353  28.847  1.00  0.00    -0.014 A 
BRANCH  32  33
ATOM     33  C   UNL A   1      40.293  28.990  28.957  1.00  0.00     0.031 A 
ATOM     34  C   UNL A   1      41.310  30.042  29.308  1.00  0.00     0.074 A 
ATOM     35  C   UNL A   1      40.695  27.734  28.681  1.00  0.00     0.049 A 
ATOM     36  N   UNL A   1      42.615  29.983  29.249  1.00  0.00    -0.248 NA
ATOM     37  C   UNL A   1      40.787  31.337  29.776  1.00  0.00     0.031 C 
ATOM     38  C   UNL A   1      39.813  26.609  28.366  1.00  0.00     0.029 A 
ATOM     39  N   UNL A   1      41.957  27.200  28.602  1.00  0.00    -0.354 N 
ATOM     40  C   UNL A   1      43.070  31.240  29.629  1.00  0.00     0.074 A 
ATOM     41  C   UNL A   1      41.901  32.044  29.914  1.00  0.00     0.031 C 
ATOM     42  C   UNL A   1      40.559  25.519  28.129  1.00  0.00     0.029 A 
ATOM     43  C   UNL A   1      41.971  25.883  28.207  1.00  0.00     0.049 A 
ATOM     44  H   UNL A   1      42.773  27.710  28.808  1.00  0.00     0.167 HD
ATOM     45  C   UNL A   1      44.346  31.686  29.725  1.00  0.00     0.031 A 
ATOM     46  C   UNL A   1      42.999  25.069  27.897  1.00  0.00     0.031 A 
ATOM     47  C   UNL A   1      45.507  30.880  29.453  1.00  0.00     0.049 A 
ATOM     48  C   UNL A   1      44.404  25.600  27.958  1.00  0.00     0.074 A 
ATOM     49  C   UNL A   1      46.842  31.237  29.537  1.00  0.00     0.029 A 
ATOM     50  N   UNL A   1      45.473  29.555  29.046  1.00  0.00    -0.354 N 
ATOM     51  N   UNL A   1      44.816  26.797  28.299  1.00  0.00    -0.248 NA
ATOM     52  C   UNL A   1      45.481  24.672  27.583  1.00  0.00     0.031 C 
ATOM     53  C   UNL A   1      47.614  30.138  29.145  1.00  0.00     0.029 A 
ATOM     54  C   UNL A   1      46.761  29.083  28.862  1.00  0.00     0.049 A 
ATOM     55  H   UNL A   1      44.653  29.027  28.910  1.00  0.00     0.167 HD
ATOM     56  C   UNL A   1      46.203  26.760  28.202  1.00  0.00     0.074 A 
ATOM     57  C   UNL A   1      46.558  25.420  27.779  1.00  0.00     0.031 C 
ATOM     58  C   UNL A   1      47.099  27.746  28.445  1.00  0.00     0.031 A 
BRANCH  45  59
ATOM     59  C   UNL A   1      44.554  33.128  30.104  1.00  0.00    -0.014 A 
ATOM     60  C   UNL A   1      44.726  33.514  31.444  1.00  0.00     0.010 A 
ATOM     61  C   UNL A   1      44.615  34.107  29.095  1.00  0.00     0.010 A 
ATOM     62  C   UNL A   1      44.916  34.859  31.773  1.00  0.00     0.020 A 
ATOM     63  C   UNL A   1      44.828  35.451  29.418  1.00  0.00     0.020 A 
ATOM     64  C   UNL A   1      44.959  35.820  30.758  1.00  0.00     0.054 A 
BRANCH  64  65
ATOM     65  S   UNL A   1      45.217  37.559  31.210  1.00  0.00     0.124 S 
ATOM     66  O   UNL A   1      46.229  37.972  30.241  1.00  0.00    -0.237 OA
ATOM     67  O   UNL A   1      43.890  38.141  31.018  1.00  0.00    -0.237 OA
ATOM     68  O   UNL A   1      45.670  37.493  32.596  1.00  0.00    -0.744 OA
ENDBRANCH  64  65
ENDBRANCH  45  59
BRANCH  46  69
ATOM     69  C   UNL A   1      42.729  23.671  27.465  1.00  0.00    -0.014 A 
ATOM     70  C   UNL A   1      42.632  23.356  26.099  1.00  0.00     0.010 A 
ATOM     71  C   UNL A   1      42.593  22.645  28.418  1.00  0.00     0.010 A 
ATOM     72  C   UNL A   1      42.394  22.040  25.693  1.00  0.00     0.020 A 
ATOM     73  C   UNL A   1      42.381  21.323  28.015  1.00  0.00     0.020 A 
ATOM     74  C   UNL A   1      42.273  21.031  26.654  1.00  0.00     0.054 A 
BRANCH  74  75
ATOM     75  S   UNL A   1      42.029  19.319  26.104  1.00  0.00     0.124 S 
ATOM     76  O   UNL A   1      40.612  19.312  25.755  1.00  0.00    -0.237 OA
ATOM     77  O   UNL A   1      42.958  19.210  24.981  1.00  0.00    -0.237 OA
ATOM     78  O   UNL A   1      42.390  18.530  27.279  1.00  0.00    -0.744 OA
ENDBRANCH  74  75
ENDBRANCH  46  69
BRANCH  58  79
ATOM     79  C   UNL A   1      48.558  27.408  28.301  1.00  0.00    -0.014 A 
ATOM     80  C   UNL A   1      49.242  27.634  27.095  1.00  0.00     0.010 A 
ATOM     81  C   UNL A   1      49.266  26.917  29.413  1.00  0.00     0.010 A 
ATOM     82  C   UNL A   1      50.608  27.357  26.997  1.00  0.00     0.020 A 
ATOM     83  C   UNL A   1      50.636  26.659  29.326  1.00  0.00     0.020 A 
ATOM     84  C   UNL A   1      51.297  26.871  28.114  1.00  0.00     0.054 A 
BRANCH  84  85
ATOM     85  S   UNL A   1      53.081  26.574  27.982  1.00  0.00     0.124 S 
ATOM     86  O   UNL A   1      53.133  25.429  27.077  1.00  0.00    -0.237 OA
ATOM     87  O   UNL A   1      53.579  27.833  27.432  1.00  0.00    -0.237 OA
ATOM     88  O   UNL A   1      53.488  26.300  29.359  1.00  0.00    -0.744 OA
ENDBRANCH  84  85
ENDBRANCH  58  79
ENDBRANCH  32  33
ENDBRANCH  25  27
ENDBRANCH  24  25
ENDBRANCH  23  24
ENDBRANCH   1  23
TORSDOF 17
ENDMDL
MODEL 2
REMARK VINA RESULT:     -10.6      2.185      3.172
REMARK SMILES CC1(C)C(C(=O)Nc2ccc(CC(=O)OCCOC(=O)c3ccc(-c4c5nc(c(-c6ccc(S(=O)(=O)[O-])cc6)c6ccc([nH]6)c(-c6ccc(S(=O)(=O)[O-])cc6)c6nc(c(-c7ccc(S(=O)(=O)[O-])cc7)c7ccc4[nH]7)C=C6)C=C5)cc3)cc2)C1(C)C
REMARK SMILES IDX 16 1 15 2 13 3 14 4 12 5 11 6 8 7 9 8 82 9 10 10 81 11 7 12
REMARK SMILES IDX 5 13 6 14 4 16 1 17 2 18 3 19 83 20 84 21 85 22 17 23 18 24
REMARK SMILES IDX 19 25 20 26 21 27 22 28 80 29 23 30 79 31 24 32 25 33 26 34
REMARK SMILES IDX 73 35 27 36 78 37 72 38 74 39 28 40 77 41 71 42 70 43 29 45
REMARK SMILES IDX 59 46 40 47 58 48 41 49 44 50 57 51 75 52 42 53 43 54 56 56
REMARK SMILES IDX 76 57 45 58 30 59 31 60 39 61 32 62 38 63 33 64 34 65 35 66
REMARK SMILES IDX 36 67 37 68 60 69 61 70 69 71 62 72 68 73 63 74 64 75 65 76
REMARK SMILES IDX 66 77 67 78 46 79 47 80 55 81 48 82 54 83 49 84 50 85 51 86
REMARK SMILES IDX 52 87 53 88
REMARK H PARENT 7 15 74 44 44 55
REMARK Flexibility Score: inf
ROOT
ATOM      1  C   UNL A   1      34.253  30.640  27.668  1.00  0.00     0.274 C 
ENDROOT
BRANCH   1   2
ATOM      2  O   UNL A   1      33.923  29.254  27.492  1.00  0.00    -0.462 OA
BRANCH   2   3
ATOM      3  C   UNL A   1      32.626  29.002  27.185  1.00  0.00     0.310 C 
ATOM      4  O   UNL A   1      31.971  28.061  27.621  1.00  0.00    -0.252 OA
BRANCH   3   5
ATOM      5  C   UNL A   1      32.058  29.974  26.196  1.00  0.00     0.158 C 
BRANCH   5   6
ATOM      6  C   UNL A   1      31.896  29.503  24.771  1.00  0.00    -0.037 A 
ATOM      7  C   UNL A   1      31.593  27.951  22.480  1.00  0.00     0.041 A 
ATOM      8  C   UNL A   1      30.475  28.571  23.037  1.00  0.00     0.026 A 
ATOM      9  C   UNL A   1      32.871  28.327  22.898  1.00  0.00     0.026 A 
ATOM     10  C   UNL A   1      30.627  29.333  24.199  1.00  0.00     0.006 A 
ATOM     11  C   UNL A   1      33.023  29.095  24.051  1.00  0.00     0.006 A 
BRANCH   7  12
ATOM     12  N   UNL A   1      31.384  26.770  21.730  1.00  0.00    -0.326 N 
ATOM     13  C   UNL A   1      32.353  25.790  21.695  1.00  0.00     0.228 C 
ATOM     14  O   UNL A   1      33.310  25.815  20.927  1.00  0.00    -0.274 OA
ATOM     15  H   UNL A   1      30.543  26.647  21.232  1.00  0.00     0.169 HD
BRANCH  13  16
ATOM     16  C   UNL A   1      32.168  24.592  22.579  1.00  0.00     0.091 C 
ATOM     17  C   UNL A   1      33.860  22.815  23.407  1.00  0.00     0.012 C 
ATOM     18  C   UNL A   1      33.300  24.216  23.573  1.00  0.00    -0.017 C 
ATOM     19  C   UNL A   1      34.401  25.195  23.929  1.00  0.00     0.012 C 
ATOM     20  C   UNL A   1      31.850  24.460  24.062  1.00  0.00    -0.017 C 
ATOM     21  C   UNL A   1      31.027  23.255  24.482  1.00  0.00     0.012 C 
ATOM     22  C   UNL A   1      31.476  25.651  24.912  1.00  0.00     0.012 C 
ENDBRANCH  13  16
ENDBRANCH   7  12
ENDBRANCH   5   6
ENDBRANCH   3   5
ENDBRANCH   2   3
ENDBRANCH   1   2
BRANCH   1  23
ATOM     23  C   UNL A   1      35.768  30.817  27.632  1.00  0.00     0.275 C 
BRANCH  23  24
ATOM     24  O   UNL A   1      36.419  29.536  27.724  1.00  0.00    -0.458 OA
BRANCH  24  25
ATOM     25  C   UNL A   1      37.013  29.261  28.908  1.00  0.00     0.338 C 
ATOM     26  O   UNL A   1      36.516  29.302  30.019  1.00  0.00    -0.246 OA
BRANCH  25  27
ATOM     27  C   UNL A   1      38.430  28.927  28.686  1.00  0.00     0.060 A 
ATOM     28  C   UNL A   1      39.194  28.337  29.695  1.00  0.00     0.016 A 
ATOM     29  C   UNL A   1      39.022  29.311  27.484  1.00  0.00     0.016 A 
ATOM     30  C   UNL A   1      40.569  28.171  29.520  1.00  0.00     0.010 A 
ATOM     31  C   UNL A   1      40.384  29.084  27.286  1.00  0.00     0.010 A 
ATOM     32  C   UNL A   1      41.177  28.534  28.309  1.00  0.00    -0.014 A 
BRANCH  32  33
ATOM     33  C   UNL A   1      42.636  28.357  28.086  1.00  0.00     0.031 A 
ATOM     34  C   UNL A   1      43.578  29.507  28.318  1.00  0.00     0.074 A 
ATOM     35  C   UNL A   1      43.110  27.186  27.616  1.00  0.00     0.049 A 
ATOM     36  N   UNL A   1      44.838  29.625  27.986  1.00  0.00    -0.248 NA
ATOM     37  C   UNL A   1      43.024  30.686  29.005  1.00  0.00     0.031 C 
ATOM     38  C   UNL A   1      42.316  25.979  27.383  1.00  0.00     0.029 A 
ATOM     39  N   UNL A   1      44.379  26.830  27.227  1.00  0.00    -0.354 N 
ATOM     40  C   UNL A   1      45.217  30.903  28.382  1.00  0.00     0.074 A 
ATOM     41  C   UNL A   1      44.053  31.523  28.977  1.00  0.00     0.031 C 
ATOM     42  C   UNL A   1      43.113  25.015  26.896  1.00  0.00     0.029 A 
ATOM     43  C   UNL A   1      44.457  25.557  26.716  1.00  0.00     0.049 A 
ATOM     44  H   UNL A   1      45.156  27.428  27.309  1.00  0.00     0.167 HD
ATOM     45  C   UNL A   1      46.424  31.505  28.255  1.00  0.00     0.031 A 
ATOM     46  C   UNL A   1      45.480  24.908  26.125  1.00  0.00     0.031 A 
ATOM     47  C   UNL A   1      47.583  30.879  27.675  1.00  0.00     0.049 A 
ATOM     48  C   UNL A   1      46.795  25.615  25.946  1.00  0.00     0.074 A 
ATOM     49  C   UNL A   1      48.855  31.403  27.516  1.00  0.00     0.029 A 
ATOM     50  N   UNL A   1      47.614  29.592  27.160  1.00  0.00    -0.354 N 
ATOM     51  N   UNL A   1      47.132  26.829  26.306  1.00  0.00    -0.248 NA
ATOM     52  C   UNL A   1      47.865  24.865  25.271  1.00  0.00     0.031 C 
ATOM     53  C   UNL A   1      49.645  30.445  26.871  1.00  0.00     0.029 A 
ATOM     54  C   UNL A   1      48.877  29.309  26.671  1.00  0.00     0.049 A 
ATOM     55  H   UNL A   1      46.850  28.972  27.146  1.00  0.00     0.167 HD
ATOM     56  C   UNL A   1      48.459  26.982  25.923  1.00  0.00     0.074 A 
ATOM     57  C   UNL A   1      48.866  25.734  25.311  1.00  0.00     0.031 C 
ATOM     58  C   UNL A   1      49.268  28.060  26.069  1.00  0.00     0.031 A 
BRANCH  45  59
ATOM     59  C   UNL A   1      46.543  32.933  28.718  1.00  0.00    -0.014 A 
ATOM     60  C   UNL A   1      46.252  34.006  27.859  1.00  0.00     0.010 A 
ATOM     61  C   UNL A   1      46.914  33.200  30.049  1.00  0.00     0.010 A 
ATOM     62  C   UNL A   1      46.371  35.324  28.310  1.00  0.00     0.020 A 
ATOM     63  C   UNL A   1      47.011  34.516  30.511  1.00  0.00     0.020 A 
ATOM     64  C   UNL A   1      46.756  35.570  29.632  1.00  0.00     0.054 A 
BRANCH  64  65
ATOM     65  S   UNL A   1      46.893  37.290  30.197  1.00  0.00     0.124 S 
ATOM     66  O   UNL A   1      48.286  37.598  29.881  1.00  0.00    -0.237 OA
ATOM     67  O   UNL A   1      45.897  37.977  29.379  1.00  0.00    -0.237 OA
ATOM     68  O   UNL A   1      46.580  37.212  31.621  1.00  0.00    -0.744 OA
ENDBRANCH  64  65
ENDBRANCH  45  59
BRANCH  46  69
ATOM     69  C   UNL A   1      45.285  23.520  25.627  1.00  0.00    -0.014 A 
ATOM     70  C   UNL A   1      45.296  22.436  26.520  1.00  0.00     0.010 A 
ATOM     71  C   UNL A   1      45.064  23.279  24.258  1.00  0.00     0.010 A 
ATOM     72  C   UNL A   1      45.097  21.134  26.053  1.00  0.00     0.020 A 
ATOM     73  C   UNL A   1      44.839  21.982  23.791  1.00  0.00     0.020 A 
ATOM     74  C   UNL A   1      44.867  20.915  24.692  1.00  0.00     0.054 A 
BRANCH  74  75
ATOM     75  S   UNL A   1      44.546  19.224  24.116  1.00  0.00     0.124 S 
ATOM     76  O   UNL A   1      44.498  19.402  22.668  1.00  0.00    -0.237 OA
ATOM     77  O   UNL A   1      45.701  18.490  24.625  1.00  0.00    -0.237 OA
ATOM     78  O   UNL A   1      43.274  18.885  24.749  1.00  0.00    -0.744 OA
ENDBRANCH  74  75
ENDBRANCH  46  69
BRANCH  58  79
ATOM     79  C   UNL A   1      50.690  27.927  25.596  1.00  0.00    -0.014 A 
ATOM     80  C   UNL A   1      51.035  28.156  24.254  1.00  0.00     0.010 A 
ATOM     81  C   UNL A   1      51.702  27.633  26.527  1.00  0.00     0.010 A 
ATOM     82  C   UNL A   1      52.369  28.074  23.846  1.00  0.00     0.020 A 
ATOM     83  C   UNL A   1      53.040  27.571  26.127  1.00  0.00     0.020 A 
ATOM     84  C   UNL A   1      53.363  27.782  24.786  1.00  0.00     0.054 A 
BRANCH  84  85
ATOM     85  S   UNL A   1      55.095  27.739  24.245  1.00  0.00     0.124 S 
ATOM     86  O   UNL A   1      55.780  27.297  25.457  1.00  0.00    -0.237 OA
ATOM     87  O   UNL A   1      55.067  26.774  23.149  1.00  0.00    -0.237 OA
ATOM     88  O   UNL A   1      55.365  29.119  23.845  1.00  0.00    -0.744 OA
ENDBRANCH  84  85
ENDBRANCH  58  79
ENDBRANCH  32  33
ENDBRANCH  25  27
ENDBRANCH  24  25
ENDBRANCH  23  24
ENDBRANCH   1  23
TORSDOF 17
ENDMDL
MODEL 3
REMARK VINA RESULT:     -10.5      1.580      2.152
REMARK SMILES CC1(C)C(C(=O)Nc2ccc(CC(=O)OCCOC(=O)c3ccc(-c4c5nc(c(-c6ccc(S(=O)(=O)[O-])cc6)c6ccc([nH]6)c(-c6ccc(S(=O)(=O)[O-])cc6)c6nc(c(-c7ccc(S(=O)(=O)[O-])cc7)c7ccc4[nH]7)C=C6)C=C5)cc3)cc2)C1(C)C
REMARK SMILES IDX 16 1 15 2 13 3 14 4 12 5 11 6 8 7 9 8 82 9 10 10 81 11 7 12
REMARK SMILES IDX 5 13 6 14 4 16 1 17 2 18 3 19 83 20 84 21 85 22 17 23 18 24
REMARK SMILES IDX 19 25 20 26 21 27 22 28 80 29 23 30 79 31 24 32 25 33 26 34
REMARK SMILES IDX 73 35 27 36 78 37 72 38 74 39 28 40 77 41 71 42 70 43 29 45
REMARK SMILES IDX 59 46 40 47 58 48 41 49 44 50 57 51 75 52 42 53 43 54 56 56
REMARK SMILES IDX 76 57 45 58 30 59 31 60 39 61 32 62 38 63 33 64 34 65 35 66
REMARK SMILES IDX 36 67 37 68 60 69 61 70 69 71 62 72 68 73 63 74 64 75 65 76
REMARK SMILES IDX 66 77 67 78 46 79 47 80 55 81 48 82 54 83 49 84 50 85 51 86
REMARK SMILES IDX 52 87 53 88
REMARK H PARENT 7 15 74 44 44 55
REMARK Flexibility Score: inf
ROOT
ATOM      1  C   UNL A   1      33.431  29.093  27.163  1.00  0.00     0.274 C 
ENDROOT
BRANCH   1   2
ATOM      2  O   UNL A   1      32.724  29.627  26.034  1.00  0.00    -0.462 OA
BRANCH   2   3
ATOM      3  C   UNL A   1      31.746  28.832  25.534  1.00  0.00     0.310 C 
ATOM      4  O   UNL A   1      31.113  28.003  26.182  1.00  0.00    -0.252 OA
BRANCH   3   5
ATOM      5  C   UNL A   1      31.530  29.021  24.063  1.00  0.00     0.158 C 
BRANCH   5   6
ATOM      6  C   UNL A   1      32.025  27.932  23.141  1.00  0.00    -0.037 A 
ATOM      7  C   UNL A   1      32.735  25.480  22.029  1.00  0.00     0.041 A 
ATOM      8  C   UNL A   1      31.524  26.069  21.667  1.00  0.00     0.026 A 
ATOM      9  C   UNL A   1      33.690  26.233  22.715  1.00  0.00     0.026 A 
ATOM     10  C   UNL A   1      31.161  27.290  22.242  1.00  0.00     0.006 A 
ATOM     11  C   UNL A   1      33.332  27.455  23.281  1.00  0.00     0.006 A 
BRANCH   7  12
ATOM     12  N   UNL A   1      32.832  24.072  21.946  1.00  0.00    -0.326 N 
ATOM     13  C   UNL A   1      33.715  23.388  22.754  1.00  0.00     0.228 C 
ATOM     14  O   UNL A   1      34.903  23.240  22.483  1.00  0.00    -0.274 OA
ATOM     15  H   UNL A   1      32.267  23.578  21.308  1.00  0.00     0.169 HD
BRANCH  13  16
ATOM     16  C   UNL A   1      33.166  22.717  23.978  1.00  0.00     0.091 C 
ATOM     17  C   UNL A   1      34.302  22.067  26.212  1.00  0.00     0.012 C 
ATOM     18  C   UNL A   1      33.681  23.168  25.372  1.00  0.00    -0.017 C 
ATOM     19  C   UNL A   1      34.432  24.471  25.557  1.00  0.00     0.012 C 
ATOM     20  C   UNL A   1      32.170  23.178  25.033  1.00  0.00    -0.017 C 
ATOM     21  C   UNL A   1      31.290  22.111  25.660  1.00  0.00     0.012 C 
ATOM     22  C   UNL A   1      31.385  24.461  24.889  1.00  0.00     0.012 C 
ENDBRANCH  13  16
ENDBRANCH   7  12
ENDBRANCH   5   6
ENDBRANCH   3   5
ENDBRANCH   2   3
ENDBRANCH   1   2
BRANCH   1  23
ATOM     23  C   UNL A   1      34.383  30.148  27.720  1.00  0.00     0.275 C 
BRANCH  23  24
ATOM     24  O   UNL A   1      35.475  29.515  28.412  1.00  0.00    -0.458 OA
BRANCH  24  25
ATOM     25  C   UNL A   1      36.232  30.326  29.186  1.00  0.00     0.338 C 
ATOM     26  O   UNL A   1      35.853  31.216  29.926  1.00  0.00    -0.246 OA
BRANCH  25  27
ATOM     27  C   UNL A   1      37.657  30.016  28.984  1.00  0.00     0.060 A 
ATOM     28  C   UNL A   1      38.158  29.747  27.709  1.00  0.00     0.016 A 
ATOM     29  C   UNL A   1      38.474  29.890  30.107  1.00  0.00     0.016 A 
ATOM     30  C   UNL A   1      39.474  29.304  27.558  1.00  0.00     0.010 A 
ATOM     31  C   UNL A   1      39.807  29.510  29.945  1.00  0.00     0.010 A 
ATOM     32  C   UNL A   1      40.315  29.192  28.673  1.00  0.00    -0.014 A 
BRANCH  32  33
ATOM     33  C   UNL A   1      41.725  28.737  28.544  1.00  0.00     0.031 A 
ATOM     34  C   UNL A   1      42.849  29.734  28.635  1.00  0.00     0.074 A 
ATOM     35  C   UNL A   1      41.996  27.443  28.283  1.00  0.00     0.049 A 
ATOM     36  N   UNL A   1      44.114  29.583  28.344  1.00  0.00    -0.248 NA
ATOM     37  C   UNL A   1      42.497  31.085  29.105  1.00  0.00     0.031 C 
ATOM     38  C   UNL A   1      41.008  26.366  28.207  1.00  0.00     0.029 A 
ATOM     39  N   UNL A   1      43.189  26.820  28.011  1.00  0.00    -0.354 N 
ATOM     40  C   UNL A   1      44.704  30.825  28.553  1.00  0.00     0.074 A 
ATOM     41  C   UNL A   1      43.656  31.720  28.992  1.00  0.00     0.031 C 
ATOM     42  C   UNL A   1      41.633  25.216  27.911  1.00  0.00     0.029 A 
ATOM     43  C   UNL A   1      43.053  25.486  27.707  1.00  0.00     0.049 A 
ATOM     44  H   UNL A   1      44.057  27.284  28.032  1.00  0.00     0.167 HD
ATOM     45  C   UNL A   1      45.999  31.186  28.386  1.00  0.00     0.031 A 
ATOM     46  C   UNL A   1      43.958  24.588  27.270  1.00  0.00     0.031 A 
ATOM     47  C   UNL A   1      47.040  30.289  27.962  1.00  0.00     0.049 A 
ATOM     48  C   UNL A   1      45.378  25.024  27.040  1.00  0.00     0.074 A 
ATOM     49  C   UNL A   1      48.387  30.557  27.779  1.00  0.00     0.029 A 
ATOM     50  N   UNL A   1      46.856  28.949  27.656  1.00  0.00    -0.354 N 
ATOM     51  N   UNL A   1      45.915  26.206  27.222  1.00  0.00    -0.248 NA
ATOM     52  C   UNL A   1      46.312  24.006  26.538  1.00  0.00     0.031 C 
ATOM     53  C   UNL A   1      49.009  29.389  27.326  1.00  0.00     0.029 A 
ATOM     54  C   UNL A   1      48.058  28.381  27.272  1.00  0.00     0.049 A 
ATOM     55  H   UNL A   1      45.996  28.472  27.705  1.00  0.00     0.167 HD
ATOM     56  C   UNL A   1      47.255  26.069  26.878  1.00  0.00     0.074 A 
ATOM     57  C   UNL A   1      47.448  24.688  26.486  1.00  0.00     0.031 C 
ATOM     58  C   UNL A   1      48.236  27.004  26.889  1.00  0.00     0.031 A 
BRANCH  45  59
ATOM     59  C   UNL A   1      46.356  32.629  28.627  1.00  0.00    -0.014 A 
ATOM     60  C   UNL A   1      46.819  33.069  29.878  1.00  0.00     0.010 A 
ATOM     61  C   UNL A   1      46.262  33.551  27.568  1.00  0.00     0.010 A 
ATOM     62  C   UNL A   1      47.143  34.414  30.079  1.00  0.00     0.020 A 
ATOM     63  C   UNL A   1      46.607  34.892  27.757  1.00  0.00     0.020 A 
ATOM     64  C   UNL A   1      47.028  35.318  29.019  1.00  0.00     0.054 A 
BRANCH  64  65
ATOM     65  S   UNL A   1      47.464  37.057  29.301  1.00  0.00     0.124 S 
ATOM     66  O   UNL A   1      46.529  37.748  28.417  1.00  0.00    -0.237 OA
ATOM     67  O   UNL A   1      47.214  37.223  30.731  1.00  0.00    -0.237 OA
ATOM     68  O   UNL A   1      48.868  37.131  28.905  1.00  0.00    -0.744 OA
ENDBRANCH  64  65
ENDBRANCH  45  59
BRANCH  46  69
ATOM     69  C   UNL A   1      43.533  23.191  26.986  1.00  0.00    -0.014 A 
ATOM     70  C   UNL A   1      43.756  22.624  25.720  1.00  0.00     0.010 A 
ATOM     71  C   UNL A   1      42.925  22.414  27.989  1.00  0.00     0.010 A 
ATOM     72  C   UNL A   1      43.370  21.306  25.459  1.00  0.00     0.020 A 
ATOM     73  C   UNL A   1      42.561  21.088  27.740  1.00  0.00     0.020 A 
ATOM     74  C   UNL A   1      42.778  20.545  26.472  1.00  0.00     0.054 A 
BRANCH  74  75
ATOM     75  S   UNL A   1      42.344  18.816  26.132  1.00  0.00     0.124 S 
ATOM     76  O   UNL A   1      43.278  18.475  25.063  1.00  0.00    -0.237 OA
ATOM     77  O   UNL A   1      42.589  18.168  27.417  1.00  0.00    -0.237 OA
ATOM     78  O   UNL A   1      40.940  18.889  25.737  1.00  0.00    -0.744 OA
ENDBRANCH  74  75
ENDBRANCH  46  69
BRANCH  58  79
ATOM     79  C   UNL A   1      49.621  26.559  26.506  1.00  0.00    -0.014 A 
ATOM     80  C   UNL A   1      50.455  25.901  27.426  1.00  0.00     0.010 A 
ATOM     81  C   UNL A   1      50.065  26.745  25.184  1.00  0.00     0.010 A 
ATOM     82  C   UNL A   1      51.720  25.454  27.034  1.00  0.00     0.020 A 
ATOM     83  C   UNL A   1      51.320  26.280  24.784  1.00  0.00     0.020 A 
ATOM     84  C   UNL A   1      52.144  25.646  25.715  1.00  0.00     0.054 A 
BRANCH  84  85
ATOM     85  S   UNL A   1      53.765  25.005  25.214  1.00  0.00     0.124 S 
ATOM     86  O   UNL A   1      53.906  25.553  23.868  1.00  0.00    -0.237 OA
ATOM     87  O   UNL A   1      54.661  25.569  26.220  1.00  0.00    -0.237 OA
ATOM     88  O   UNL A   1      53.598  23.554  25.282  1.00  0.00    -0.744 OA
ENDBRANCH  84  85
ENDBRANCH  58  79
ENDBRANCH  32  33
ENDBRANCH  25  27
ENDBRANCH  24  25
ENDBRANCH  23  24
ENDBRANCH   1  23
TORSDOF 17
ENDMDL
