MODEL 1
REMARK VINA RESULT:     -10.8      0.000      0.000
REMARK SMILES CCn1nc(C(C)C)cc1C(=O)N[C@@H](CC(N)=O)C(=O)OCCOC(=O)c1ccc(-c2c3nc(c(-c4ccc(S(=O)(=O)[O-])cc4)c4ccc([nH]4)c(-c4ccc(S(=O)(=O)[O-])cc4)c4nc(c(-c5ccc(S(=O)(=O)[O-])cc5)c5ccc2[nH]5)C=C4)C=C3)cc1
REMARK SMILES IDX 22 1 21 2 19 3 20 4 14 5 13 6 11 7 12 8 10 10 3 11 4 12 5 13
REMARK SMILES IDX 9 14 2 15 1 16 6 17 7 18 8 19 15 20 16 21 17 22 18 23 23 26
REMARK SMILES IDX 24 27 25 28 26 29 27 30 28 31 86 32 29 33 85 34 30 35 31 36
REMARK SMILES IDX 32 37 79 38 33 39 84 40 78 41 80 42 34 43 83 44 77 45 76 46
REMARK SMILES IDX 35 48 65 49 46 50 64 51 47 52 50 53 63 54 81 55 48 56 49 57
REMARK SMILES IDX 62 59 82 60 51 61 36 62 37 63 45 64 38 65 44 66 39 67 40 68
REMARK SMILES IDX 41 69 42 70 43 71 66 72 67 73 75 74 68 75 74 76 69 77 70 78
REMARK SMILES IDX 71 79 72 80 73 81 52 82 53 83 61 84 54 85 60 86 55 87 56 88
REMARK SMILES IDX 57 89 58 90 59 91
REMARK H PARENT 13 9 17 24 17 25 80 47 50 58
REMARK Flexibility Score: inf
ROOT
ATOM      1  C   UNL A   1      35.856  22.664  25.966  1.00  0.00     0.274 C 
ENDROOT
BRANCH   1   2
ATOM      2  O   UNL A   1      35.113  22.479  24.745  1.00  0.00    -0.461 OA
BRANCH   2   3
ATOM      3  C   UNL A   1      33.874  21.947  24.895  1.00  0.00     0.329 C 
ATOM      4  O   UNL A   1      33.628  20.742  24.840  1.00  0.00    -0.250 OA
BRANCH   3   5
ATOM      5  C   UNL A   1      32.744  22.987  24.958  1.00  0.00     0.201 C 
BRANCH   5   6
ATOM      6  N   UNL A   1      32.455  23.838  23.803  1.00  0.00    -0.337 N 
ATOM      7  C   UNL A   1      32.104  25.168  23.687  1.00  0.00     0.270 C 
ATOM      8  O   UNL A   1      31.831  25.553  22.550  1.00  0.00    -0.268 OA
ATOM      9  H   UNL A   1      32.525  23.372  22.939  1.00  0.00     0.164 HD
BRANCH   7  10
ATOM     10  C   UNL A   1      32.088  26.074  24.827  1.00  0.00     0.126 A 
ATOM     11  N   UNL A   1      30.925  26.495  25.467  1.00  0.00    -0.260 N 
ATOM     12  N   UNL A   1      31.140  27.462  26.386  1.00  0.00    -0.177 NA
ATOM     13  C   UNL A   1      32.460  27.623  26.408  1.00  0.00     0.066 A 
ATOM     14  C   UNL A   1      33.091  26.698  25.552  1.00  0.00     0.059 A 
BRANCH  11  15
ATOM     15  C   UNL A   1      29.568  25.997  25.270  1.00  0.00     0.142 C 
ATOM     16  C   UNL A   1      28.866  26.474  23.999  1.00  0.00     0.029 C 
ENDBRANCH  11  15
BRANCH  13  17
ATOM     17  C   UNL A   1      33.113  28.674  27.260  1.00  0.00     0.034 C 
ATOM     18  C   UNL A   1      34.621  28.779  27.012  1.00  0.00     0.014 C 
ATOM     19  C   UNL A   1      32.441  30.036  27.097  1.00  0.00     0.014 C 
ENDBRANCH  13  17
ENDBRANCH   7  10
ENDBRANCH   5   6
BRANCH   5  20
ATOM     20  C   UNL A   1      31.477  22.236  25.376  1.00  0.00     0.136 C 
BRANCH  20  21
ATOM     21  C   UNL A   1      30.871  22.871  26.611  1.00  0.00     0.220 C 
ATOM     22  N   UNL A   1      29.567  22.554  26.857  1.00  0.00    -0.370 N 
ATOM     23  O   UNL A   1      31.466  23.667  27.328  1.00  0.00    -0.275 OA
ATOM     24  H   UNL A   1      29.098  21.914  26.275  1.00  0.00     0.159 HD
ATOM     25  H   UNL A   1      29.095  22.966  27.617  1.00  0.00     0.159 HD
ENDBRANCH  20  21
ENDBRANCH   5  20
ENDBRANCH   3   5
ENDBRANCH   2   3
ENDBRANCH   1   2
BRANCH   1  26
ATOM     26  C   UNL A   1      37.328  22.339  25.753  1.00  0.00     0.275 C 
BRANCH  26  27
ATOM     27  O   UNL A   1      38.171  23.261  26.447  1.00  0.00    -0.458 OA
BRANCH  27  28
ATOM     28  C   UNL A   1      39.459  22.851  26.531  1.00  0.00     0.338 C 
ATOM     29  O   UNL A   1      39.859  21.701  26.570  1.00  0.00    -0.246 OA
BRANCH  28  30
ATOM     30  C   UNL A   1      40.348  23.983  26.779  1.00  0.00     0.060 A 
ATOM     31  C   UNL A   1      41.245  23.845  27.845  1.00  0.00     0.016 A 
ATOM     32  C   UNL A   1      40.028  25.228  26.226  1.00  0.00     0.016 A 
ATOM     33  C   UNL A   1      41.665  24.979  28.500  1.00  0.00     0.010 A 
ATOM     34  C   UNL A   1      40.439  26.358  26.888  1.00  0.00     0.010 A 
ATOM     35  C   UNL A   1      41.174  26.212  28.066  1.00  0.00    -0.014 A 
BRANCH  35  36
ATOM     36  C   UNL A   1      41.429  27.367  28.898  1.00  0.00     0.031 A 
ATOM     37  C   UNL A   1      42.634  28.143  28.534  1.00  0.00     0.074 A 
ATOM     38  C   UNL A   1      40.536  27.767  29.822  1.00  0.00     0.049 A 
ATOM     39  N   UNL A   1      43.649  28.450  29.272  1.00  0.00    -0.248 NA
ATOM     40  C   UNL A   1      42.765  28.541  27.124  1.00  0.00     0.031 C 
ATOM     41  C   UNL A   1      39.173  27.263  30.031  1.00  0.00     0.029 A 
ATOM     42  N   UNL A   1      40.610  28.827  30.667  1.00  0.00    -0.354 N 
ATOM     43  C   UNL A   1      44.479  29.220  28.465  1.00  0.00     0.074 A 
ATOM     44  C   UNL A   1      43.961  29.123  27.124  1.00  0.00     0.031 C 
ATOM     45  C   UNL A   1      38.476  28.176  30.743  1.00  0.00     0.029 A 
ATOM     46  C   UNL A   1      39.376  29.247  31.139  1.00  0.00     0.049 A 
ATOM     47  H   UNL A   1      41.458  29.257  30.920  1.00  0.00     0.167 HD
ATOM     48  C   UNL A   1      45.425  30.055  28.973  1.00  0.00     0.031 A 
ATOM     49  C   UNL A   1      39.103  30.448  31.706  1.00  0.00     0.031 A 
ATOM     50  C   UNL A   1      45.729  29.769  30.346  1.00  0.00     0.049 A 
ATOM     51  C   UNL A   1      40.393  31.044  32.138  1.00  0.00     0.074 A 
ATOM     52  C   UNL A   1      46.260  28.682  31.010  1.00  0.00     0.029 A 
ATOM     53  N   UNL A   1      45.137  30.552  31.308  1.00  0.00    -0.354 N 
ATOM     54  N   UNL A   1      41.141  30.547  33.084  1.00  0.00    -0.248 NA
ATOM     55  C   UNL A   1      41.073  31.955  31.228  1.00  0.00     0.031 C 
ATOM     56  C   UNL A   1      45.570  28.634  32.255  1.00  0.00     0.029 A 
ATOM     57  C   UNL A   1      44.683  29.712  32.295  1.00  0.00     0.049 A 
ATOM     58  H   UNL A   1      45.053  31.532  31.293  1.00  0.00     0.167 HD
ATOM     59  C   UNL A   1      42.446  30.748  32.658  1.00  0.00     0.074 A 
ATOM     60  C   UNL A   1      42.343  31.713  31.567  1.00  0.00     0.031 C 
ATOM     61  C   UNL A   1      43.457  29.911  33.041  1.00  0.00     0.031 A 
BRANCH  48  62
ATOM     62  C   UNL A   1      45.811  31.345  28.303  1.00  0.00    -0.014 A 
ATOM     63  C   UNL A   1      44.896  32.412  28.275  1.00  0.00     0.010 A 
ATOM     64  C   UNL A   1      46.950  31.449  27.474  1.00  0.00     0.010 A 
ATOM     65  C   UNL A   1      45.086  33.505  27.417  1.00  0.00     0.020 A 
ATOM     66  C   UNL A   1      47.174  32.553  26.652  1.00  0.00     0.020 A 
ATOM     67  C   UNL A   1      46.218  33.557  26.600  1.00  0.00     0.054 A 
BRANCH  67  68
ATOM     68  S   UNL A   1      46.393  34.901  25.401  1.00  0.00     0.124 S 
ATOM     69  O   UNL A   1      45.428  34.513  24.377  1.00  0.00    -0.237 OA
ATOM     70  O   UNL A   1      46.041  36.074  26.195  1.00  0.00    -0.237 OA
ATOM     71  O   UNL A   1      47.796  34.822  25.002  1.00  0.00    -0.744 OA
ENDBRANCH  67  68
ENDBRANCH  48  62
BRANCH  49  72
ATOM     72  C   UNL A   1      37.855  31.235  31.547  1.00  0.00    -0.014 A 
ATOM     73  C   UNL A   1      36.689  30.901  32.257  1.00  0.00     0.010 A 
ATOM     74  C   UNL A   1      37.884  32.479  30.880  1.00  0.00     0.010 A 
ATOM     75  C   UNL A   1      35.610  31.799  32.332  1.00  0.00     0.020 A 
ATOM     76  C   UNL A   1      36.811  33.372  30.941  1.00  0.00     0.020 A 
ATOM     77  C   UNL A   1      35.685  33.037  31.686  1.00  0.00     0.054 A 
BRANCH  77  78
ATOM     78  S   UNL A   1      34.360  34.256  31.924  1.00  0.00     0.124 S 
ATOM     79  O   UNL A   1      35.093  35.418  32.417  1.00  0.00    -0.237 OA
ATOM     80  O   UNL A   1      33.800  34.382  30.581  1.00  0.00    -0.237 OA
ATOM     81  O   UNL A   1      33.478  33.619  32.902  1.00  0.00    -0.744 OA
ENDBRANCH  77  78
ENDBRANCH  49  72
BRANCH  61  82
ATOM     82  C   UNL A   1      43.181  28.918  34.149  1.00  0.00    -0.014 A 
ATOM     83  C   UNL A   1      43.246  29.253  35.516  1.00  0.00     0.010 A 
ATOM     84  C   UNL A   1      42.677  27.653  33.795  1.00  0.00     0.010 A 
ATOM     85  C   UNL A   1      42.840  28.340  36.502  1.00  0.00     0.020 A 
ATOM     86  C   UNL A   1      42.255  26.746  34.771  1.00  0.00     0.020 A 
ATOM     87  C   UNL A   1      42.345  27.091  36.121  1.00  0.00     0.054 A 
BRANCH  87  88
ATOM     88  S   UNL A   1      41.761  25.939  37.397  1.00  0.00     0.124 S 
ATOM     89  O   UNL A   1      41.711  24.669  36.678  1.00  0.00    -0.237 OA
ATOM     90  O   UNL A   1      42.793  26.041  38.426  1.00  0.00    -0.237 OA
ATOM     91  O   UNL A   1      40.458  26.481  37.784  1.00  0.00    -0.744 OA
ENDBRANCH  87  88
ENDBRANCH  61  82
ENDBRANCH  35  36
ENDBRANCH  28  30
ENDBRANCH  27  28
ENDBRANCH  26  27
ENDBRANCH   1  26
TORSDOF 20
ENDMDL
MODEL 2
REMARK VINA RESULT:     -10.7      1.873      3.755
REMARK SMILES CCn1nc(C(C)C)cc1C(=O)N[C@@H](CC(N)=O)C(=O)OCCOC(=O)c1ccc(-c2c3nc(c(-c4ccc(S(=O)(=O)[O-])cc4)c4ccc([nH]4)c(-c4ccc(S(=O)(=O)[O-])cc4)c4nc(c(-c5ccc(S(=O)(=O)[O-])cc5)c5ccc2[nH]5)C=C4)C=C3)cc1
REMARK SMILES IDX 22 1 21 2 19 3 20 4 14 5 13 6 11 7 12 8 10 10 3 11 4 12 5 13
REMARK SMILES IDX 9 14 2 15 1 16 6 17 7 18 8 19 15 20 16 21 17 22 18 23 23 26
REMARK SMILES IDX 24 27 25 28 26 29 27 30 28 31 86 32 29 33 85 34 30 35 31 36
REMARK SMILES IDX 32 37 79 38 33 39 84 40 78 41 80 42 34 43 83 44 77 45 76 46
REMARK SMILES IDX 35 48 65 49 46 50 64 51 47 52 50 53 63 54 81 55 48 56 49 57
REMARK SMILES IDX 62 59 82 60 51 61 36 62 37 63 45 64 38 65 44 66 39 67 40 68
REMARK SMILES IDX 41 69 42 70 43 71 66 72 67 73 75 74 68 75 74 76 69 77 70 78
REMARK SMILES IDX 71 79 72 80 73 81 52 82 53 83 61 84 54 85 60 86 55 87 56 88
REMARK SMILES IDX 57 89 58 90 59 91
REMARK H PARENT 13 9 17 24 17 25 80 47 50 58
REMARK Flexibility Score: inf
ROOT
ATOM      1  C   UNL A   1      36.333  21.606  25.506  1.00  0.00     0.274 C 
ENDROOT
BRANCH   1   2
ATOM      2  O   UNL A   1      35.935  22.921  25.938  1.00  0.00    -0.461 OA
BRANCH   2   3
ATOM      3  C   UNL A   1      34.731  22.987  26.562  1.00  0.00     0.329 C 
ATOM      4  O   UNL A   1      34.500  22.504  27.671  1.00  0.00    -0.250 OA
BRANCH   3   5
ATOM      5  C   UNL A   1      33.601  23.559  25.693  1.00  0.00     0.201 C 
BRANCH   5   6
ATOM      6  N   UNL A   1      32.217  23.126  25.896  1.00  0.00    -0.337 N 
ATOM      7  C   UNL A   1      31.541  21.971  25.558  1.00  0.00     0.270 C 
ATOM      8  O   UNL A   1      30.333  21.970  25.794  1.00  0.00    -0.268 OA
ATOM      9  H   UNL A   1      31.660  23.786  26.367  1.00  0.00     0.164 HD
BRANCH   7  10
ATOM     10  C   UNL A   1      32.212  20.812  24.988  1.00  0.00     0.126 A 
ATOM     11  N   UNL A   1      32.303  20.563  23.620  1.00  0.00    -0.260 N 
ATOM     12  N   UNL A   1      32.819  19.347  23.331  1.00  0.00    -0.177 NA
ATOM     13  C   UNL A   1      33.141  18.825  24.510  1.00  0.00     0.066 A 
ATOM     14  C   UNL A   1      32.898  19.746  25.549  1.00  0.00     0.059 A 
BRANCH  11  15
ATOM     15  C   UNL A   1      31.942  21.455  22.524  1.00  0.00     0.142 C 
ATOM     16  C   UNL A   1      32.862  22.659  22.323  1.00  0.00     0.029 C 
ENDBRANCH  11  15
BRANCH  13  17
ATOM     17  C   UNL A   1      33.686  17.431  24.634  1.00  0.00     0.034 C 
ATOM     18  C   UNL A   1      32.771  16.511  25.448  1.00  0.00     0.014 C 
ATOM     19  C   UNL A   1      33.996  16.818  23.269  1.00  0.00     0.014 C 
ENDBRANCH  13  17
ENDBRANCH   7  10
ENDBRANCH   5   6
BRANCH   5  20
ATOM     20  C   UNL A   1      33.686  25.084  25.806  1.00  0.00     0.136 C 
BRANCH  20  21
ATOM     21  C   UNL A   1      32.708  25.739  24.853  1.00  0.00     0.220 C 
ATOM     22  N   UNL A   1      33.245  26.220  23.695  1.00  0.00    -0.370 N 
ATOM     23  O   UNL A   1      31.518  25.897  25.102  1.00  0.00    -0.275 OA
ATOM     24  H   UNL A   1      34.202  26.089  23.505  1.00  0.00     0.159 HD
ATOM     25  H   UNL A   1      32.677  26.699  23.050  1.00  0.00     0.159 HD
ENDBRANCH  20  21
ENDBRANCH   5  20
ENDBRANCH   3   5
ENDBRANCH   2   3
ENDBRANCH   1   2
BRANCH   1  26
ATOM     26  C   UNL A   1      37.850  21.480  25.499  1.00  0.00     0.275 C 
BRANCH  26  27
ATOM     27  O   UNL A   1      38.456  22.408  26.402  1.00  0.00    -0.458 OA
BRANCH  27  28
ATOM     28  C   UNL A   1      39.726  22.079  26.737  1.00  0.00     0.338 C 
ATOM     29  O   UNL A   1      40.119  21.001  27.142  1.00  0.00    -0.246 OA
BRANCH  28  30
ATOM     30  C   UNL A   1      40.581  23.264  26.748  1.00  0.00     0.060 A 
ATOM     31  C   UNL A   1      41.658  23.242  27.642  1.00  0.00     0.016 A 
ATOM     32  C   UNL A   1      40.100  24.450  26.183  1.00  0.00     0.016 A 
ATOM     33  C   UNL A   1      42.123  24.438  28.138  1.00  0.00     0.010 A 
ATOM     34  C   UNL A   1      40.558  25.642  26.687  1.00  0.00     0.010 A 
ATOM     35  C   UNL A   1      41.497  25.613  27.721  1.00  0.00    -0.014 A 
BRANCH  35  36
ATOM     36  C   UNL A   1      41.830  26.837  28.418  1.00  0.00     0.031 A 
ATOM     37  C   UNL A   1      43.160  27.396  28.092  1.00  0.00     0.074 A 
ATOM     38  C   UNL A   1      40.919  27.473  29.176  1.00  0.00     0.049 A 
ATOM     39  N   UNL A   1      44.133  27.678  28.893  1.00  0.00    -0.248 NA
ATOM     40  C   UNL A   1      43.475  27.567  26.666  1.00  0.00     0.031 C 
ATOM     41  C   UNL A   1      39.486  27.177  29.297  1.00  0.00     0.029 A 
ATOM     42  N   UNL A   1      41.059  28.627  29.878  1.00  0.00    -0.354 N 
ATOM     43  C   UNL A   1      45.133  28.215  28.089  1.00  0.00     0.074 A 
ATOM     44  C   UNL A   1      44.734  27.991  26.724  1.00  0.00     0.031 C 
ATOM     45  C   UNL A   1      38.858  28.262  29.801  1.00  0.00     0.029 A 
ATOM     46  C   UNL A   1      39.856  29.260  30.151  1.00  0.00     0.049 A 
ATOM     47  H   UNL A   1      41.931  28.980  30.166  1.00  0.00     0.167 HD
ATOM     48  C   UNL A   1      46.134  28.991  28.586  1.00  0.00     0.031 A 
ATOM     49  C   UNL A   1      39.700  30.554  30.523  1.00  0.00     0.031 A 
ATOM     50  C   UNL A   1      46.267  28.870  30.010  1.00  0.00     0.049 A 
ATOM     51  C   UNL A   1      41.014  31.041  31.014  1.00  0.00     0.074 A 
ATOM     52  C   UNL A   1      46.578  27.833  30.866  1.00  0.00     0.029 A 
ATOM     53  N   UNL A   1      45.701  29.851  30.789  1.00  0.00    -0.354 N 
ATOM     54  N   UNL A   1      41.594  30.598  32.094  1.00  0.00    -0.248 NA
ATOM     55  C   UNL A   1      41.895  31.720  30.075  1.00  0.00     0.031 C 
ATOM     56  C   UNL A   1      45.775  28.051  32.022  1.00  0.00     0.029 A 
ATOM     57  C   UNL A   1      45.045  29.225  31.821  1.00  0.00     0.049 A 
ATOM     58  H   UNL A   1      45.755  30.822  30.637  1.00  0.00     0.167 HD
ATOM     59  C   UNL A   1      42.949  30.571  31.794  1.00  0.00     0.074 A 
ATOM     60  C   UNL A   1      43.083  31.375  30.582  1.00  0.00     0.031 C 
ATOM     61  C   UNL A   1      43.794  29.680  32.393  1.00  0.00     0.031 A 
BRANCH  48  62
ATOM     62  C   UNL A   1      46.756  30.113  27.801  1.00  0.00    -0.014 A 
ATOM     63  C   UNL A   1      48.156  30.235  27.758  1.00  0.00     0.010 A 
ATOM     64  C   UNL A   1      45.997  31.203  27.319  1.00  0.00     0.010 A 
ATOM     65  C   UNL A   1      48.765  31.414  27.304  1.00  0.00     0.020 A 
ATOM     66  C   UNL A   1      46.592  32.360  26.820  1.00  0.00     0.020 A 
ATOM     67  C   UNL A   1      47.974  32.474  26.853  1.00  0.00     0.054 A 
BRANCH  67  68
ATOM     68  S   UNL A   1      48.757  34.039  26.393  1.00  0.00     0.124 S 
ATOM     69  O   UNL A   1      48.589  34.825  27.611  1.00  0.00    -0.237 OA
ATOM     70  O   UNL A   1      50.123  33.626  26.086  1.00  0.00    -0.237 OA
ATOM     71  O   UNL A   1      47.974  34.488  25.244  1.00  0.00    -0.744 OA
ENDBRANCH  67  68
ENDBRANCH  48  62
BRANCH  49  72
ATOM     72  C   UNL A   1      38.593  31.459  30.124  1.00  0.00    -0.014 A 
ATOM     73  C   UNL A   1      37.987  31.353  28.861  1.00  0.00     0.010 A 
ATOM     74  C   UNL A   1      37.960  32.271  31.091  1.00  0.00     0.010 A 
ATOM     75  C   UNL A   1      36.768  32.001  28.591  1.00  0.00     0.020 A 
ATOM     76  C   UNL A   1      36.755  32.926  30.826  1.00  0.00     0.020 A 
ATOM     77  C   UNL A   1      36.152  32.770  29.583  1.00  0.00     0.054 A 
BRANCH  77  78
ATOM     78  S   UNL A   1      34.501  33.465  29.283  1.00  0.00     0.124 S 
ATOM     79  O   UNL A   1      34.809  34.694  28.557  1.00  0.00    -0.237 OA
ATOM     80  O   UNL A   1      33.851  32.415  28.505  1.00  0.00    -0.237 OA
ATOM     81  O   UNL A   1      33.959  33.659  30.628  1.00  0.00    -0.744 OA
ENDBRANCH  77  78
ENDBRANCH  49  72
BRANCH  61  82
ATOM     82  C   UNL A   1      43.282  28.899  33.584  1.00  0.00    -0.014 A 
ATOM     83  C   UNL A   1      42.424  27.787  33.462  1.00  0.00     0.010 A 
ATOM     84  C   UNL A   1      43.817  29.193  34.850  1.00  0.00     0.010 A 
ATOM     85  C   UNL A   1      42.094  27.006  34.581  1.00  0.00     0.020 A 
ATOM     86  C   UNL A   1      43.507  28.409  35.965  1.00  0.00     0.020 A 
ATOM     87  C   UNL A   1      42.640  27.324  35.827  1.00  0.00     0.054 A 
BRANCH  87  88
ATOM     88  S   UNL A   1      42.260  26.272  37.257  1.00  0.00     0.124 S 
ATOM     89  O   UNL A   1      43.286  26.665  38.220  1.00  0.00    -0.237 OA
ATOM     90  O   UNL A   1      40.895  26.661  37.596  1.00  0.00    -0.237 OA
ATOM     91  O   UNL A   1      42.395  24.912  36.734  1.00  0.00    -0.744 OA
ENDBRANCH  87  88
ENDBRANCH  61  82
ENDBRANCH  35  36
ENDBRANCH  28  30
ENDBRANCH  27  28
ENDBRANCH  26  27
ENDBRANCH   1  26
TORSDOF 20
ENDMDL
MODEL 3
REMARK VINA RESULT:     -10.3      2.775      7.552
REMARK SMILES CCn1nc(C(C)C)cc1C(=O)N[C@@H](CC(N)=O)C(=O)OCCOC(=O)c1ccc(-c2c3nc(c(-c4ccc(S(=O)(=O)[O-])cc4)c4ccc([nH]4)c(-c4ccc(S(=O)(=O)[O-])cc4)c4nc(c(-c5ccc(S(=O)(=O)[O-])cc5)c5ccc2[nH]5)C=C4)C=C3)cc1
REMARK SMILES IDX 22 1 21 2 19 3 20 4 14 5 13 6 11 7 12 8 10 10 3 11 4 12 5 13
REMARK SMILES IDX 9 14 2 15 1 16 6 17 7 18 8 19 15 20 16 21 17 22 18 23 23 26
REMARK SMILES IDX 24 27 25 28 26 29 27 30 28 31 86 32 29 33 85 34 30 35 31 36
REMARK SMILES IDX 32 37 79 38 33 39 84 40 78 41 80 42 34 43 83 44 77 45 76 46
REMARK SMILES IDX 35 48 65 49 46 50 64 51 47 52 50 53 63 54 81 55 48 56 49 57
REMARK SMILES IDX 62 59 82 60 51 61 36 62 37 63 45 64 38 65 44 66 39 67 40 68
REMARK SMILES IDX 41 69 42 70 43 71 66 72 67 73 75 74 68 75 74 76 69 77 70 78
REMARK SMILES IDX 71 79 72 80 73 81 52 82 53 83 61 84 54 85 60 86 55 87 56 88
REMARK SMILES IDX 57 89 58 90 59 91
REMARK H PARENT 13 9 17 24 17 25 80 47 50 58
REMARK Flexibility Score: inf
ROOT
ATOM      1  C   UNL A   1      37.161  21.841  24.159  1.00  0.00     0.274 C 
ENDROOT
BRANCH   1   2
ATOM      2  O   UNL A   1      35.722  21.874  24.226  1.00  0.00    -0.461 OA
BRANCH   2   3
ATOM      3  C   UNL A   1      35.182  23.086  24.509  1.00  0.00     0.329 C 
ATOM      4  O   UNL A   1      35.823  24.137  24.545  1.00  0.00    -0.250 OA
BRANCH   3   5
ATOM      5  C   UNL A   1      33.718  23.033  24.971  1.00  0.00     0.201 C 
BRANCH   5   6
ATOM      6  N   UNL A   1      32.634  23.337  24.035  1.00  0.00    -0.337 N 
ATOM      7  C   UNL A   1      31.889  24.476  23.807  1.00  0.00     0.270 C 
ATOM      8  O   UNL A   1      30.969  24.362  22.996  1.00  0.00    -0.268 OA
ATOM      9  H   UNL A   1      32.389  22.582  23.453  1.00  0.00     0.164 HD
BRANCH   7  10
ATOM     10  C   UNL A   1      32.185  25.746  24.455  1.00  0.00     0.126 A 
ATOM     11  N   UNL A   1      32.895  26.780  23.849  1.00  0.00    -0.260 N 
ATOM     12  N   UNL A   1      33.195  27.790  24.694  1.00  0.00    -0.177 NA
ATOM     13  C   UNL A   1      32.612  27.459  25.842  1.00  0.00     0.066 A 
ATOM     14  C   UNL A   1      31.874  26.266  25.702  1.00  0.00     0.059 A 
BRANCH  11  15
ATOM     15  C   UNL A   1      33.300  26.884  22.451  1.00  0.00     0.142 C 
ATOM     16  C   UNL A   1      34.122  28.122  22.093  1.00  0.00     0.029 C 
ENDBRANCH  11  15
BRANCH  13  17
ATOM     17  C   UNL A   1      32.768  28.296  27.079  1.00  0.00     0.034 C 
ATOM     18  C   UNL A   1      33.295  29.703  26.774  1.00  0.00     0.014 C 
ATOM     19  C   UNL A   1      31.473  28.366  27.886  1.00  0.00     0.014 C 
ENDBRANCH  13  17
ENDBRANCH   7  10
ENDBRANCH   5   6
BRANCH   5  20
ATOM     20  C   UNL A   1      33.498  21.646  25.581  1.00  0.00     0.136 C 
BRANCH  20  21
ATOM     21  C   UNL A   1      33.514  21.727  27.094  1.00  0.00     0.220 C 
ATOM     22  N   UNL A   1      32.353  22.143  27.675  1.00  0.00    -0.370 N 
ATOM     23  O   UNL A   1      34.507  21.498  27.776  1.00  0.00    -0.275 OA
ATOM     24  H   UNL A   1      31.561  22.324  27.118  1.00  0.00     0.159 HD
ATOM     25  H   UNL A   1      32.305  22.262  28.651  1.00  0.00     0.159 HD
ENDBRANCH  20  21
ENDBRANCH   5  20
ENDBRANCH   3   5
ENDBRANCH   2   3
ENDBRANCH   1   2
BRANCH   1  26
ATOM     26  C   UNL A   1      37.704  20.614  24.878  1.00  0.00     0.275 C 
BRANCH  26  27
ATOM     27  O   UNL A   1      38.592  20.979  25.937  1.00  0.00    -0.458 OA
BRANCH  27  28
ATOM     28  C   UNL A   1      39.765  20.303  25.910  1.00  0.00     0.338 C 
ATOM     29  O   UNL A   1      39.933  19.143  25.581  1.00  0.00    -0.246 OA
BRANCH  28  30
ATOM     30  C   UNL A   1      40.828  21.088  26.532  1.00  0.00     0.060 A 
ATOM     31  C   UNL A   1      40.832  21.128  27.932  1.00  0.00     0.016 A 
ATOM     32  C   UNL A   1      41.524  22.020  25.755  1.00  0.00     0.016 A 
ATOM     33  C   UNL A   1      41.362  22.233  28.555  1.00  0.00     0.010 A 
ATOM     34  C   UNL A   1      42.044  23.127  26.378  1.00  0.00     0.010 A 
ATOM     35  C   UNL A   1      41.874  23.258  27.758  1.00  0.00    -0.014 A 
BRANCH  35  36
ATOM     36  C   UNL A   1      42.211  24.508  28.405  1.00  0.00     0.031 A 
ATOM     37  C   UNL A   1      41.253  25.610  28.167  1.00  0.00     0.074 A 
ATOM     38  C   UNL A   1      43.236  24.585  29.273  1.00  0.00     0.049 A 
ATOM     39  N   UNL A   1      41.481  26.783  27.679  1.00  0.00    -0.248 NA
ATOM     40  C   UNL A   1      39.833  25.319  28.417  1.00  0.00     0.031 C 
ATOM     41  C   UNL A   1      44.033  23.481  29.822  1.00  0.00     0.029 A 
ATOM     42  N   UNL A   1      43.673  25.663  29.973  1.00  0.00    -0.354 N 
ATOM     43  C   UNL A   1      40.257  27.443  27.707  1.00  0.00     0.074 A 
ATOM     44  C   UNL A   1      39.260  26.456  28.033  1.00  0.00     0.031 C 
ATOM     45  C   UNL A   1      44.658  23.910  30.941  1.00  0.00     0.029 A 
ATOM     46  C   UNL A   1      44.405  25.332  31.103  1.00  0.00     0.049 A 
ATOM     47  H   UNL A   1      43.488  26.592  29.703  1.00  0.00     0.167 HD
ATOM     48  C   UNL A   1      40.155  28.799  27.660  1.00  0.00     0.031 A 
ATOM     49  C   UNL A   1      44.674  26.151  32.149  1.00  0.00     0.031 A 
ATOM     50  C   UNL A   1      41.361  29.425  27.197  1.00  0.00     0.049 A 
ATOM     51  C   UNL A   1      44.451  27.547  31.696  1.00  0.00     0.074 A 
ATOM     52  C   UNL A   1      42.076  29.387  26.017  1.00  0.00     0.029 A 
ATOM     53  N   UNL A   1      42.209  29.951  28.141  1.00  0.00    -0.354 N 
ATOM     54  N   UNL A   1      45.180  28.141  30.792  1.00  0.00    -0.248 NA
ATOM     55  C   UNL A   1      43.148  28.152  31.932  1.00  0.00     0.031 C 
ATOM     56  C   UNL A   1      43.443  29.460  26.409  1.00  0.00     0.029 A 
ATOM     57  C   UNL A   1      43.484  29.571  27.800  1.00  0.00     0.049 A 
ATOM     58  H   UNL A   1      41.952  30.498  28.918  1.00  0.00     0.167 HD
ATOM     59  C   UNL A   1      44.292  28.924  30.067  1.00  0.00     0.074 A 
ATOM     60  C   UNL A   1      43.082  28.975  30.881  1.00  0.00     0.031 C 
ATOM     61  C   UNL A   1      44.521  29.229  28.754  1.00  0.00     0.031 A 
BRANCH  48  62
ATOM     62  C   UNL A   1      39.062  29.554  28.366  1.00  0.00    -0.014 A 
ATOM     63  C   UNL A   1      37.795  29.660  27.767  1.00  0.00     0.010 A 
ATOM     64  C   UNL A   1      39.321  30.383  29.480  1.00  0.00     0.010 A 
ATOM     65  C   UNL A   1      36.853  30.591  28.228  1.00  0.00     0.020 A 
ATOM     66  C   UNL A   1      38.376  31.278  29.977  1.00  0.00     0.020 A 
ATOM     67  C   UNL A   1      37.159  31.404  29.322  1.00  0.00     0.054 A 
BRANCH  67  68
ATOM     68  S   UNL A   1      35.995  32.692  29.831  1.00  0.00     0.124 S 
ATOM     69  O   UNL A   1      36.765  33.906  29.577  1.00  0.00    -0.237 OA
ATOM     70  O   UNL A   1      34.862  32.459  28.940  1.00  0.00    -0.237 OA
ATOM     71  O   UNL A   1      35.746  32.390  31.239  1.00  0.00    -0.744 OA
ENDBRANCH  67  68
ENDBRANCH  48  62
BRANCH  49  72
ATOM     72  C   UNL A   1      44.743  25.760  33.579  1.00  0.00    -0.014 A 
ATOM     73  C   UNL A   1      45.953  25.816  34.291  1.00  0.00     0.010 A 
ATOM     74  C   UNL A   1      43.555  25.569  34.318  1.00  0.00     0.010 A 
ATOM     75  C   UNL A   1      45.968  25.728  35.694  1.00  0.00     0.020 A 
ATOM     76  C   UNL A   1      43.563  25.470  35.712  1.00  0.00     0.020 A 
ATOM     77  C   UNL A   1      44.769  25.572  36.397  1.00  0.00     0.054 A 
BRANCH  77  78
ATOM     78  S   UNL A   1      44.779  25.627  38.212  1.00  0.00     0.124 S 
ATOM     79  O   UNL A   1      45.961  26.436  38.492  1.00  0.00    -0.237 OA
ATOM     80  O   UNL A   1      43.495  26.253  38.517  1.00  0.00    -0.237 OA
ATOM     81  O   UNL A   1      44.885  24.220  38.598  1.00  0.00    -0.744 OA
ENDBRANCH  77  78
ENDBRANCH  49  72
BRANCH  61  82
ATOM     82  C   UNL A   1      45.885  28.923  28.176  1.00  0.00    -0.014 A 
ATOM     83  C   UNL A   1      46.255  27.644  27.714  1.00  0.00     0.010 A 
ATOM     84  C   UNL A   1      46.760  29.997  27.936  1.00  0.00     0.010 A 
ATOM     85  C   UNL A   1      47.477  27.442  27.053  1.00  0.00     0.020 A 
ATOM     86  C   UNL A   1      47.970  29.807  27.262  1.00  0.00     0.020 A 
ATOM     87  C   UNL A   1      48.326  28.528  26.831  1.00  0.00     0.054 A 
BRANCH  87  88
ATOM     88  S   UNL A   1      49.874  28.273  25.917  1.00  0.00     0.124 S 
ATOM     89  O   UNL A   1      50.477  27.146  26.625  1.00  0.00    -0.237 OA
ATOM     90  O   UNL A   1      49.411  27.991  24.561  1.00  0.00    -0.237 OA
ATOM     91  O   UNL A   1      50.581  29.545  26.068  1.00  0.00    -0.744 OA
ENDBRANCH  87  88
ENDBRANCH  61  82
ENDBRANCH  35  36
ENDBRANCH  28  30
ENDBRANCH  27  28
ENDBRANCH  26  27
ENDBRANCH   1  26
TORSDOF 20
ENDMDL
