MODEL 1
REMARK VINA RESULT:     -11.4      0.000      0.000
REMARK SMILES O=C(CCC(=O)N1N=C(c2ccc(F)cc2)C[C@@H]1c1ccc2nccnc2c1)OCCOC(=O)c1ccc(-c2c3nc(c(-c4ccc(S(=O)(=O)[O-])cc4)c4ccc([nH]4)c(-c4ccc(S(=O)(=O)[O-])cc4)c4nc(c(-c5ccc(S(=O)(=O)[O-])cc5)c5ccc2[nH]5)C=C4)C=C3)cc1
REMARK SMILES IDX 30 1 29 2 2 3 1 4 3 5 4 6 5 7 6 8 7 9 8 10 18 11 9 12 17 13
REMARK SMILES IDX 19 14 20 15 28 16 21 17 27 18 22 19 26 20 23 21 25 22 24 23
REMARK SMILES IDX 10 24 11 25 16 26 12 27 15 28 13 29 14 30 31 31 32 32 33 33
REMARK SMILES IDX 34 34 35 35 36 36 94 37 37 38 93 39 38 40 39 41 40 42 87 43
REMARK SMILES IDX 41 44 92 45 86 46 88 47 42 48 91 49 85 50 84 51 43 53 73 54
REMARK SMILES IDX 54 55 72 56 55 57 58 58 71 59 89 60 56 61 57 62 70 64 90 65
REMARK SMILES IDX 59 66 44 67 45 68 53 69 46 70 52 71 47 72 48 73 49 74 50 75
REMARK SMILES IDX 51 76 74 77 75 78 83 79 76 80 82 81 77 82 78 83 79 84 80 85
REMARK SMILES IDX 81 86 60 87 61 88 69 89 62 90 68 91 63 92 64 93 65 94 66 95
REMARK SMILES IDX 67 96
REMARK H PARENT 88 52 58 63
REMARK Flexibility Score: inf
ROOT
ATOM      1  C   UNL A   1      32.489  29.318  27.207  1.00  0.00     0.274 C 
ENDROOT
BRANCH   1   2
ATOM      2  O   UNL A   1      33.094  28.019  26.982  1.00  0.00    -0.462 OA
BRANCH   2   3
ATOM      3  C   UNL A   1      32.511  26.834  26.740  1.00  0.00     0.306 C 
ATOM      4  O   UNL A   1      31.316  26.624  26.931  1.00  0.00    -0.252 OA
BRANCH   3   5
ATOM      5  C   UNL A   1      33.331  25.861  26.020  1.00  0.00     0.132 C 
BRANCH   5   6
ATOM      6  C   UNL A   1      32.598  24.547  26.112  1.00  0.00     0.114 C 
BRANCH   6   7
ATOM      7  C   UNL A   1      33.262  23.273  26.666  1.00  0.00     0.243 C 
ATOM      8  O   UNL A   1      32.719  22.895  27.728  1.00  0.00    -0.273 OA
BRANCH   7   9
ATOM      9  N   UNL A   1      34.288  22.483  26.112  1.00  0.00    -0.225 N 
ATOM     10  N   UNL A   1      33.922  21.155  26.199  1.00  0.00    -0.174 NA
ATOM     11  C   UNL A   1      35.486  22.588  25.132  1.00  0.00     0.147 C 
ATOM     12  C   UNL A   1      34.468  20.507  25.233  1.00  0.00     0.071 C 
ATOM     13  C   UNL A   1      35.453  21.235  24.392  1.00  0.00     0.091 C 
BRANCH  11  14
ATOM     14  C   UNL A   1      36.969  22.721  25.603  1.00  0.00    -0.021 A 
ATOM     15  C   UNL A   1      37.361  23.944  26.182  1.00  0.00     0.008 A 
ATOM     16  C   UNL A   1      37.983  21.749  25.495  1.00  0.00     0.036 A 
ATOM     17  C   UNL A   1      38.627  24.117  26.765  1.00  0.00     0.031 A 
ATOM     18  C   UNL A   1      39.223  21.864  26.174  1.00  0.00     0.089 A 
ATOM     19  C   UNL A   1      39.526  23.072  26.851  1.00  0.00     0.089 A 
ATOM     20  N   UNL A   1      40.052  20.797  26.306  1.00  0.00    -0.253 NA
ATOM     21  N   UNL A   1      40.606  23.206  27.657  1.00  0.00    -0.253 NA
ATOM     22  C   UNL A   1      41.024  20.899  27.250  1.00  0.00     0.132 A 
ATOM     23  C   UNL A   1      41.294  22.077  27.914  1.00  0.00     0.132 A 
ENDBRANCH  11  14
BRANCH  12  24
ATOM     24  C   UNL A   1      34.015  19.153  24.940  1.00  0.00    -0.002 A 
ATOM     25  C   UNL A   1      34.886  18.209  24.410  1.00  0.00     0.013 A 
ATOM     26  C   UNL A   1      32.723  18.808  25.365  1.00  0.00     0.013 A 
ATOM     27  C   UNL A   1      34.451  16.888  24.311  1.00  0.00     0.040 A 
ATOM     28  C   UNL A   1      32.292  17.492  25.248  1.00  0.00     0.040 A 
ATOM     29  C   UNL A   1      33.163  16.543  24.728  1.00  0.00     0.123 A 
ATOM     30  F   UNL A   1      32.767  15.266  24.647  1.00  0.00    -0.207 F 
ENDBRANCH  12  24
ENDBRANCH   7   9
ENDBRANCH   6   7
ENDBRANCH   5   6
ENDBRANCH   3   5
ENDBRANCH   2   3
ENDBRANCH   1   2
BRANCH   1  31
ATOM     31  C   UNL A   1      33.525  30.373  26.876  1.00  0.00     0.275 C 
BRANCH  31  32
ATOM     32  O   UNL A   1      34.701  30.159  27.654  1.00  0.00    -0.458 OA
BRANCH  32  33
ATOM     33  C   UNL A   1      35.565  31.195  27.840  1.00  0.00     0.338 C 
ATOM     34  O   UNL A   1      35.496  32.355  27.549  1.00  0.00    -0.246 OA
BRANCH  33  35
ATOM     35  C   UNL A   1      36.577  30.663  28.729  1.00  0.00     0.060 A 
ATOM     36  C   UNL A   1      36.285  29.570  29.558  1.00  0.00     0.016 A 
ATOM     37  C   UNL A   1      37.850  31.191  28.575  1.00  0.00     0.016 A 
ATOM     38  C   UNL A   1      37.327  28.921  30.189  1.00  0.00     0.010 A 
ATOM     39  C   UNL A   1      38.881  30.546  29.191  1.00  0.00     0.010 A 
ATOM     40  C   UNL A   1      38.614  29.418  29.989  1.00  0.00    -0.014 A 
BRANCH  40  41
ATOM     41  C   UNL A   1      39.768  28.910  30.717  1.00  0.00     0.031 A 
ATOM     42  C   UNL A   1      40.156  29.694  31.919  1.00  0.00     0.074 A 
ATOM     43  C   UNL A   1      40.545  28.014  30.099  1.00  0.00     0.049 A 
ATOM     44  N   UNL A   1      41.318  29.788  32.492  1.00  0.00    -0.248 NA
ATOM     45  C   UNL A   1      39.107  30.562  32.492  1.00  0.00     0.031 C 
ATOM     46  C   UNL A   1      40.186  27.269  28.888  1.00  0.00     0.029 A 
ATOM     47  N   UNL A   1      41.835  27.653  30.356  1.00  0.00    -0.354 N 
ATOM     48  C   UNL A   1      41.156  30.759  33.469  1.00  0.00     0.074 A 
ATOM     49  C   UNL A   1      39.800  31.250  33.384  1.00  0.00     0.031 C 
ATOM     50  C   UNL A   1      41.256  26.568  28.480  1.00  0.00     0.029 A 
ATOM     51  C   UNL A   1      42.374  26.870  29.367  1.00  0.00     0.049 A 
ATOM     52  H   UNL A   1      42.326  27.925  31.165  1.00  0.00     0.167 HD
ATOM     53  C   UNL A   1      42.085  31.201  34.343  1.00  0.00     0.031 A 
ATOM     54  C   UNL A   1      43.652  26.499  29.181  1.00  0.00     0.031 A 
ATOM     55  C   UNL A   1      43.432  30.704  34.336  1.00  0.00     0.049 A 
ATOM     56  C   UNL A   1      44.670  26.985  30.174  1.00  0.00     0.074 A 
ATOM     57  C   UNL A   1      44.467  31.002  35.195  1.00  0.00     0.029 A 
ATOM     58  N   UNL A   1      43.927  29.807  33.393  1.00  0.00    -0.354 N 
ATOM     59  N   UNL A   1      44.509  27.838  31.161  1.00  0.00    -0.248 NA
ATOM     60  C   UNL A   1      46.028  26.452  30.047  1.00  0.00     0.031 C 
ATOM     61  C   UNL A   1      45.606  30.331  34.736  1.00  0.00     0.029 A 
ATOM     62  C   UNL A   1      45.262  29.554  33.636  1.00  0.00     0.049 A 
ATOM     63  H   UNL A   1      43.402  29.411  32.660  1.00  0.00     0.167 HD
ATOM     64  C   UNL A   1      45.739  27.919  31.800  1.00  0.00     0.074 A 
ATOM     65  C   UNL A   1      46.631  27.026  31.080  1.00  0.00     0.031 C 
ATOM     66  C   UNL A   1      46.101  28.649  32.885  1.00  0.00     0.031 A 
BRANCH  53  67
ATOM     67  C   UNL A   1      41.666  32.279  35.303  1.00  0.00    -0.014 A 
ATOM     68  C   UNL A   1      41.258  31.974  36.617  1.00  0.00     0.010 A 
ATOM     69  C   UNL A   1      41.634  33.617  34.875  1.00  0.00     0.010 A 
ATOM     70  C   UNL A   1      40.762  32.973  37.456  1.00  0.00     0.020 A 
ATOM     71  C   UNL A   1      41.175  34.627  35.725  1.00  0.00     0.020 A 
ATOM     72  C   UNL A   1      40.718  34.294  37.002  1.00  0.00     0.054 A 
BRANCH  72  73
ATOM     73  S   UNL A   1      40.059  35.570  38.108  1.00  0.00     0.124 S 
ATOM     74  O   UNL A   1      39.935  36.715  37.208  1.00  0.00    -0.237 OA
ATOM     75  O   UNL A   1      38.798  34.985  38.556  1.00  0.00    -0.237 OA
ATOM     76  O   UNL A   1      41.085  35.697  39.140  1.00  0.00    -0.744 OA
ENDBRANCH  72  73
ENDBRANCH  53  67
BRANCH  54  77
ATOM     77  C   UNL A   1      43.995  25.619  28.036  1.00  0.00    -0.014 A 
ATOM     78  C   UNL A   1      44.309  26.182  26.787  1.00  0.00     0.010 A 
ATOM     79  C   UNL A   1      44.122  24.227  28.210  1.00  0.00     0.010 A 
ATOM     80  C   UNL A   1      44.748  25.373  25.736  1.00  0.00     0.020 A 
ATOM     81  C   UNL A   1      44.586  23.418  27.169  1.00  0.00     0.020 A 
ATOM     82  C   UNL A   1      44.895  23.997  25.936  1.00  0.00     0.054 A 
BRANCH  82  83
ATOM     83  S   UNL A   1      45.562  22.989  24.583  1.00  0.00     0.124 S 
ATOM     84  O   UNL A   1      46.182  21.883  25.305  1.00  0.00    -0.237 OA
ATOM     85  O   UNL A   1      44.360  22.655  23.822  1.00  0.00    -0.237 OA
ATOM     86  O   UNL A   1      46.487  23.893  23.904  1.00  0.00    -0.744 OA
ENDBRANCH  82  83
ENDBRANCH  54  77
BRANCH  66  87
ATOM     87  C   UNL A   1      47.504  28.470  33.392  1.00  0.00    -0.014 A 
ATOM     88  C   UNL A   1      48.539  29.340  33.012  1.00  0.00     0.010 A 
ATOM     89  C   UNL A   1      47.754  27.474  34.355  1.00  0.00     0.010 A 
ATOM     90  C   UNL A   1      49.807  29.208  33.579  1.00  0.00     0.020 A 
ATOM     91  C   UNL A   1      49.010  27.362  34.948  1.00  0.00     0.020 A 
ATOM     92  C   UNL A   1      50.031  28.225  34.550  1.00  0.00     0.054 A 
BRANCH  92  93
ATOM     93  S   UNL A   1      51.662  28.132  35.333  1.00  0.00     0.124 S 
ATOM     94  O   UNL A   1      52.045  26.747  35.073  1.00  0.00    -0.237 OA
ATOM     95  O   UNL A   1      52.423  29.144  34.602  1.00  0.00    -0.237 OA
ATOM     96  O   UNL A   1      51.395  28.453  36.733  1.00  0.00    -0.744 OA
ENDBRANCH  92  93
ENDBRANCH  66  87
ENDBRANCH  40  41
ENDBRANCH  33  35
ENDBRANCH  32  33
ENDBRANCH  31  32
ENDBRANCH   1  31
TORSDOF 19
ENDMDL
MODEL 2
REMARK VINA RESULT:     -11.4      4.661      5.769
REMARK SMILES O=C(CCC(=O)N1N=C(c2ccc(F)cc2)C[C@@H]1c1ccc2nccnc2c1)OCCOC(=O)c1ccc(-c2c3nc(c(-c4ccc(S(=O)(=O)[O-])cc4)c4ccc([nH]4)c(-c4ccc(S(=O)(=O)[O-])cc4)c4nc(c(-c5ccc(S(=O)(=O)[O-])cc5)c5ccc2[nH]5)C=C4)C=C3)cc1
REMARK SMILES IDX 30 1 29 2 2 3 1 4 3 5 4 6 5 7 6 8 7 9 8 10 18 11 9 12 17 13
REMARK SMILES IDX 19 14 20 15 28 16 21 17 27 18 22 19 26 20 23 21 25 22 24 23
REMARK SMILES IDX 10 24 11 25 16 26 12 27 15 28 13 29 14 30 31 31 32 32 33 33
REMARK SMILES IDX 34 34 35 35 36 36 94 37 37 38 93 39 38 40 39 41 40 42 87 43
REMARK SMILES IDX 41 44 92 45 86 46 88 47 42 48 91 49 85 50 84 51 43 53 73 54
REMARK SMILES IDX 54 55 72 56 55 57 58 58 71 59 89 60 56 61 57 62 70 64 90 65
REMARK SMILES IDX 59 66 44 67 45 68 53 69 46 70 52 71 47 72 48 73 49 74 50 75
REMARK SMILES IDX 51 76 74 77 75 78 83 79 76 80 82 81 77 82 78 83 79 84 80 85
REMARK SMILES IDX 81 86 60 87 61 88 69 89 62 90 68 91 63 92 64 93 65 94 66 95
REMARK SMILES IDX 67 96
REMARK H PARENT 88 52 58 63
REMARK Flexibility Score: inf
ROOT
ATOM      1  C   UNL A   1      34.755  28.997  26.143  1.00  0.00     0.274 C 
ENDROOT
BRANCH   1   2
ATOM      2  O   UNL A   1      33.888  27.847  26.321  1.00  0.00    -0.462 OA
BRANCH   2   3
ATOM      3  C   UNL A   1      33.529  26.903  25.437  1.00  0.00     0.306 C 
ATOM      4  O   UNL A   1      32.869  27.143  24.430  1.00  0.00    -0.252 OA
BRANCH   3   5
ATOM      5  C   UNL A   1      34.157  25.594  25.619  1.00  0.00     0.132 C 
BRANCH   5   6
ATOM      6  C   UNL A   1      33.100  24.704  26.220  1.00  0.00     0.114 C 
BRANCH   6   7
ATOM      7  C   UNL A   1      33.316  23.191  26.418  1.00  0.00     0.243 C 
ATOM      8  O   UNL A   1      32.375  22.672  27.060  1.00  0.00    -0.273 OA
BRANCH   7   9
ATOM      9  N   UNL A   1      34.337  22.359  25.920  1.00  0.00    -0.225 N 
ATOM     10  N   UNL A   1      33.935  21.044  26.037  1.00  0.00    -0.174 NA
ATOM     11  C   UNL A   1      35.567  22.402  24.976  1.00  0.00     0.147 C 
ATOM     12  C   UNL A   1      34.493  20.352  25.110  1.00  0.00     0.071 C 
ATOM     13  C   UNL A   1      35.521  21.028  24.277  1.00  0.00     0.091 C 
BRANCH  11  14
ATOM     14  C   UNL A   1      37.038  22.514  25.487  1.00  0.00    -0.021 A 
ATOM     15  C   UNL A   1      37.420  23.718  26.111  1.00  0.00     0.008 A 
ATOM     16  C   UNL A   1      38.049  21.540  25.377  1.00  0.00     0.036 A 
ATOM     17  C   UNL A   1      38.672  23.867  26.730  1.00  0.00     0.031 A 
ATOM     18  C   UNL A   1      39.272  21.629  26.090  1.00  0.00     0.089 A 
ATOM     19  C   UNL A   1      39.563  22.815  26.809  1.00  0.00     0.089 A 
ATOM     20  N   UNL A   1      40.092  20.554  26.212  1.00  0.00    -0.253 NA
ATOM     21  N   UNL A   1      40.623  22.920  27.645  1.00  0.00    -0.253 NA
ATOM     22  C   UNL A   1      41.041  20.623  27.183  1.00  0.00     0.132 A 
ATOM     23  C   UNL A   1      41.300  21.781  27.887  1.00  0.00     0.132 A 
ENDBRANCH  11  14
BRANCH  12  24
ATOM     24  C   UNL A   1      34.014  19.001  24.846  1.00  0.00    -0.002 A 
ATOM     25  C   UNL A   1      34.864  18.032  24.325  1.00  0.00     0.013 A 
ATOM     26  C   UNL A   1      32.720  18.685  25.289  1.00  0.00     0.013 A 
ATOM     27  C   UNL A   1      34.406  16.717  24.255  1.00  0.00     0.040 A 
ATOM     28  C   UNL A   1      32.266  17.376  25.200  1.00  0.00     0.040 A 
ATOM     29  C   UNL A   1      33.116  16.402  24.689  1.00  0.00     0.123 A 
ATOM     30  F   UNL A   1      32.698  15.131  24.635  1.00  0.00    -0.207 F 
ENDBRANCH  12  24
ENDBRANCH   7   9
ENDBRANCH   6   7
ENDBRANCH   5   6
ENDBRANCH   3   5
ENDBRANCH   2   3
ENDBRANCH   1   2
BRANCH   1  31
ATOM     31  C   UNL A   1      35.195  29.460  27.517  1.00  0.00     0.275 C 
BRANCH  31  32
ATOM     32  O   UNL A   1      36.599  29.265  27.668  1.00  0.00    -0.458 OA
BRANCH  32  33
ATOM     33  C   UNL A   1      37.143  29.331  28.916  1.00  0.00     0.338 C 
ATOM     34  O   UNL A   1      36.645  29.456  29.998  1.00  0.00    -0.246 OA
BRANCH  33  35
ATOM     35  C   UNL A   1      38.531  28.964  28.722  1.00  0.00     0.060 A 
ATOM     36  C   UNL A   1      39.143  29.149  27.473  1.00  0.00     0.016 A 
ATOM     37  C   UNL A   1      39.218  28.590  29.867  1.00  0.00     0.016 A 
ATOM     38  C   UNL A   1      40.516  29.044  27.388  1.00  0.00     0.010 A 
ATOM     39  C   UNL A   1      40.576  28.495  29.785  1.00  0.00     0.010 A 
ATOM     40  C   UNL A   1      41.213  28.724  28.552  1.00  0.00    -0.014 A 
BRANCH  40  41
ATOM     41  C   UNL A   1      42.642  28.442  28.553  1.00  0.00     0.031 A 
ATOM     42  C   UNL A   1      43.523  29.630  28.705  1.00  0.00     0.074 A 
ATOM     43  C   UNL A   1      43.037  27.241  28.115  1.00  0.00     0.049 A 
ATOM     44  N   UNL A   1      44.752  29.790  28.316  1.00  0.00    -0.248 NA
ATOM     45  C   UNL A   1      42.895  30.831  29.293  1.00  0.00     0.031 C 
ATOM     46  C   UNL A   1      42.166  26.078  27.922  1.00  0.00     0.029 A 
ATOM     47  N   UNL A   1      44.260  26.837  27.665  1.00  0.00    -0.354 N 
ATOM     48  C   UNL A   1      45.036  31.123  28.570  1.00  0.00     0.074 A 
ATOM     49  C   UNL A   1      43.842  31.735  29.109  1.00  0.00     0.031 C 
ATOM     50  C   UNL A   1      42.879  25.097  27.345  1.00  0.00     0.029 A 
ATOM     51  C   UNL A   1      44.225  25.595  27.082  1.00  0.00     0.049 A 
ATOM     52  H   UNL A   1      45.078  27.378  27.749  1.00  0.00     0.167 HD
ATOM     53  C   UNL A   1      46.202  31.767  28.348  1.00  0.00     0.031 A 
ATOM     54  C   UNL A   1      45.173  24.969  26.364  1.00  0.00     0.031 A 
ATOM     55  C   UNL A   1      47.333  31.108  27.760  1.00  0.00     0.049 A 
ATOM     56  C   UNL A   1      46.471  25.693  26.142  1.00  0.00     0.074 A 
ATOM     57  C   UNL A   1      48.599  31.602  27.532  1.00  0.00     0.029 A 
ATOM     58  N   UNL A   1      47.314  29.797  27.288  1.00  0.00    -0.354 N 
ATOM     59  N   UNL A   1      46.783  26.930  26.459  1.00  0.00    -0.248 NA
ATOM     60  C   UNL A   1      47.545  24.943  25.488  1.00  0.00     0.031 C 
ATOM     61  C   UNL A   1      49.329  30.611  26.868  1.00  0.00     0.029 A 
ATOM     62  C   UNL A   1      48.543  29.471  26.751  1.00  0.00     0.049 A 
ATOM     63  H   UNL A   1      46.538  29.193  27.333  1.00  0.00     0.167 HD
ATOM     64  C   UNL A   1      48.107  27.099  26.076  1.00  0.00     0.074 A 
ATOM     65  C   UNL A   1      48.529  25.832  25.502  1.00  0.00     0.031 C 
ATOM     66  C   UNL A   1      48.907  28.188  26.195  1.00  0.00     0.031 A 
BRANCH  53  67
ATOM     67  C   UNL A   1      46.256  33.228  28.698  1.00  0.00    -0.014 A 
ATOM     68  C   UNL A   1      45.928  34.220  27.753  1.00  0.00     0.010 A 
ATOM     69  C   UNL A   1      46.685  33.622  29.977  1.00  0.00     0.010 A 
ATOM     70  C   UNL A   1      46.096  35.573  28.057  1.00  0.00     0.020 A 
ATOM     71  C   UNL A   1      46.817  34.975  30.298  1.00  0.00     0.020 A 
ATOM     72  C   UNL A   1      46.546  35.941  29.328  1.00  0.00     0.054 A 
BRANCH  72  73
ATOM     73  S   UNL A   1      46.765  37.704  29.692  1.00  0.00     0.124 S 
ATOM     74  O   UNL A   1      48.150  37.926  29.282  1.00  0.00    -0.237 OA
ATOM     75  O   UNL A   1      45.752  38.333  28.848  1.00  0.00    -0.237 OA
ATOM     76  O   UNL A   1      46.519  37.794  31.129  1.00  0.00    -0.744 OA
ENDBRANCH  72  73
ENDBRANCH  53  67
BRANCH  54  77
ATOM     77  C   UNL A   1      44.910  23.601  25.849  1.00  0.00    -0.014 A 
ATOM     78  C   UNL A   1      44.568  23.413  24.499  1.00  0.00     0.010 A 
ATOM     79  C   UNL A   1      45.111  22.473  26.667  1.00  0.00     0.010 A 
ATOM     80  C   UNL A   1      44.435  22.125  23.975  1.00  0.00     0.020 A 
ATOM     81  C   UNL A   1      45.005  21.183  26.140  1.00  0.00     0.020 A 
ATOM     82  C   UNL A   1      44.666  21.017  24.795  1.00  0.00     0.054 A 
BRANCH  82  83
ATOM     83  S   UNL A   1      44.583  19.360  24.061  1.00  0.00     0.124 S 
ATOM     84  O   UNL A   1      43.361  18.826  24.653  1.00  0.00    -0.237 OA
ATOM     85  O   UNL A   1      44.519  19.655  22.632  1.00  0.00    -0.237 OA
ATOM     86  O   UNL A   1      45.823  18.726  24.503  1.00  0.00    -0.744 OA
ENDBRANCH  82  83
ENDBRANCH  54  77
BRANCH  66  87
ATOM     87  C   UNL A   1      50.334  28.040  25.747  1.00  0.00    -0.014 A 
ATOM     88  C   UNL A   1      51.353  27.692  26.649  1.00  0.00     0.010 A 
ATOM     89  C   UNL A   1      50.628  28.146  24.375  1.00  0.00     0.010 A 
ATOM     90  C   UNL A   1      52.649  27.464  26.184  1.00  0.00     0.020 A 
ATOM     91  C   UNL A   1      51.913  27.886  23.904  1.00  0.00     0.020 A 
ATOM     92  C   UNL A   1      52.918  27.553  24.813  1.00  0.00     0.054 A 
BRANCH  92  93
ATOM     93  S   UNL A   1      54.588  27.167  24.228  1.00  0.00     0.124 S 
ATOM     94  O   UNL A   1      54.333  26.706  22.865  1.00  0.00    -0.237 OA
ATOM     95  O   UNL A   1      55.270  28.455  24.340  1.00  0.00    -0.237 OA
ATOM     96  O   UNL A   1      55.054  26.139  25.156  1.00  0.00    -0.744 OA
ENDBRANCH  92  93
ENDBRANCH  66  87
ENDBRANCH  40  41
ENDBRANCH  33  35
ENDBRANCH  32  33
ENDBRANCH  31  32
ENDBRANCH   1  31
TORSDOF 19
ENDMDL
MODEL 3
REMARK VINA RESULT:     -11.3      4.044      6.618
REMARK SMILES O=C(CCC(=O)N1N=C(c2ccc(F)cc2)C[C@@H]1c1ccc2nccnc2c1)OCCOC(=O)c1ccc(-c2c3nc(c(-c4ccc(S(=O)(=O)[O-])cc4)c4ccc([nH]4)c(-c4ccc(S(=O)(=O)[O-])cc4)c4nc(c(-c5ccc(S(=O)(=O)[O-])cc5)c5ccc2[nH]5)C=C4)C=C3)cc1
REMARK SMILES IDX 30 1 29 2 2 3 1 4 3 5 4 6 5 7 6 8 7 9 8 10 18 11 9 12 17 13
REMARK SMILES IDX 19 14 20 15 28 16 21 17 27 18 22 19 26 20 23 21 25 22 24 23
REMARK SMILES IDX 10 24 11 25 16 26 12 27 15 28 13 29 14 30 31 31 32 32 33 33
REMARK SMILES IDX 34 34 35 35 36 36 94 37 37 38 93 39 38 40 39 41 40 42 87 43
REMARK SMILES IDX 41 44 92 45 86 46 88 47 42 48 91 49 85 50 84 51 43 53 73 54
REMARK SMILES IDX 54 55 72 56 55 57 58 58 71 59 89 60 56 61 57 62 70 64 90 65
REMARK SMILES IDX 59 66 44 67 45 68 53 69 46 70 52 71 47 72 48 73 49 74 50 75
REMARK SMILES IDX 51 76 74 77 75 78 83 79 76 80 82 81 77 82 78 83 79 84 80 85
REMARK SMILES IDX 81 86 60 87 61 88 69 89 62 90 68 91 63 92 64 93 65 94 66 95
REMARK SMILES IDX 67 96
REMARK H PARENT 88 52 58 63
REMARK Flexibility Score: inf
ROOT
ATOM      1  C   UNL A   1      34.020  35.534  28.417  1.00  0.00     0.274 C 
ENDROOT
BRANCH   1   2
ATOM      2  O   UNL A   1      34.029  34.112  28.704  1.00  0.00    -0.462 OA
BRANCH   2   3
ATOM      3  C   UNL A   1      33.425  33.105  28.055  1.00  0.00     0.306 C 
ATOM      4  O   UNL A   1      32.392  33.249  27.407  1.00  0.00    -0.252 OA
BRANCH   3   5
ATOM      5  C   UNL A   1      34.187  31.859  27.971  1.00  0.00     0.132 C 
BRANCH   5   6
ATOM      6  C   UNL A   1      33.280  30.859  27.300  1.00  0.00     0.114 C 
BRANCH   6   7
ATOM      7  C   UNL A   1      33.821  29.595  26.606  1.00  0.00     0.243 C 
ATOM      8  O   UNL A   1      34.877  29.191  27.144  1.00  0.00    -0.273 OA
BRANCH   7   9
ATOM      9  N   UNL A   1      33.262  28.837  25.560  1.00  0.00    -0.225 N 
ATOM     10  N   UNL A   1      31.971  29.270  25.338  1.00  0.00    -0.174 NA
ATOM     11  C   UNL A   1      33.688  27.960  24.353  1.00  0.00     0.147 C 
ATOM     12  C   UNL A   1      31.671  29.075  24.105  1.00  0.00     0.071 C 
ATOM     13  C   UNL A   1      32.641  28.313  23.277  1.00  0.00     0.091 C 
BRANCH  11  14
ATOM     14  C   UNL A   1      33.685  26.399  24.383  1.00  0.00    -0.021 A 
ATOM     15  C   UNL A   1      33.582  25.724  23.151  1.00  0.00     0.008 A 
ATOM     16  C   UNL A   1      33.755  25.574  25.522  1.00  0.00     0.036 A 
ATOM     17  C   UNL A   1      33.713  24.329  23.056  1.00  0.00     0.031 A 
ATOM     18  C   UNL A   1      34.001  24.180  25.438  1.00  0.00     0.089 A 
ATOM     19  C   UNL A   1      34.012  23.560  24.164  1.00  0.00     0.089 A 
ATOM     20  N   UNL A   1      34.365  23.465  26.533  1.00  0.00    -0.253 NA
ATOM     21  N   UNL A   1      34.398  22.275  23.980  1.00  0.00    -0.253 NA
ATOM     22  C   UNL A   1      34.913  22.242  26.303  1.00  0.00     0.132 A 
ATOM     23  C   UNL A   1      34.932  21.660  25.053  1.00  0.00     0.132 A 
ENDBRANCH  11  14
BRANCH  12  24
ATOM     24  C   UNL A   1      30.474  29.702  23.557  1.00  0.00    -0.002 A 
ATOM     25  C   UNL A   1      29.858  30.760  24.215  1.00  0.00     0.013 A 
ATOM     26  C   UNL A   1      30.075  29.300  22.273  1.00  0.00     0.013 A 
ATOM     27  C   UNL A   1      28.825  31.433  23.566  1.00  0.00     0.040 A 
ATOM     28  C   UNL A   1      29.033  29.966  21.640  1.00  0.00     0.040 A 
ATOM     29  C   UNL A   1      28.422  31.032  22.290  1.00  0.00     0.123 A 
ATOM     30  F   UNL A   1      27.442  31.701  21.670  1.00  0.00    -0.207 F 
ENDBRANCH  12  24
ENDBRANCH   7   9
ENDBRANCH   6   7
ENDBRANCH   5   6
ENDBRANCH   3   5
ENDBRANCH   2   3
ENDBRANCH   1   2
BRANCH   1  31
ATOM     31  C   UNL A   1      33.054  36.194  29.380  1.00  0.00     0.275 C 
BRANCH  31  32
ATOM     32  O   UNL A   1      32.819  35.335  30.494  1.00  0.00    -0.458 OA
BRANCH  32  33
ATOM     33  C   UNL A   1      33.200  35.748  31.736  1.00  0.00     0.338 C 
ATOM     34  O   UNL A   1      32.736  36.557  32.486  1.00  0.00    -0.246 OA
BRANCH  33  35
ATOM     35  C   UNL A   1      34.221  34.799  32.131  1.00  0.00     0.060 A 
ATOM     36  C   UNL A   1      35.556  34.997  31.750  1.00  0.00     0.016 A 
ATOM     37  C   UNL A   1      33.813  33.815  33.019  1.00  0.00     0.016 A 
ATOM     38  C   UNL A   1      36.536  34.237  32.355  1.00  0.00     0.010 A 
ATOM     39  C   UNL A   1      34.781  33.068  33.623  1.00  0.00     0.010 A 
ATOM     40  C   UNL A   1      36.131  33.285  33.290  1.00  0.00    -0.014 A 
BRANCH  40  41
ATOM     41  C   UNL A   1      37.057  32.329  33.879  1.00  0.00     0.031 A 
ATOM     42  C   UNL A   1      37.739  32.786  35.119  1.00  0.00     0.074 A 
ATOM     43  C   UNL A   1      37.445  31.295  33.124  1.00  0.00     0.049 A 
ATOM     44  N   UNL A   1      38.879  32.405  35.612  1.00  0.00    -0.248 NA
ATOM     45  C   UNL A   1      37.085  33.892  35.847  1.00  0.00     0.031 C 
ATOM     46  C   UNL A   1      36.803  30.864  31.879  1.00  0.00     0.029 A 
ATOM     47  N   UNL A   1      38.533  30.482  33.251  1.00  0.00    -0.354 N 
ATOM     48  C   UNL A   1      39.105  33.253  36.685  1.00  0.00     0.074 A 
ATOM     49  C   UNL A   1      38.007  34.191  36.747  1.00  0.00     0.031 C 
ATOM     50  C   UNL A   1      37.542  29.887  31.328  1.00  0.00     0.029 A 
ATOM     51  C   UNL A   1      38.726  29.679  32.155  1.00  0.00     0.049 A 
ATOM     52  H   UNL A   1      39.116  30.472  34.044  1.00  0.00     0.167 HD
ATOM     53  C   UNL A   1      40.160  33.242  37.527  1.00  0.00     0.031 A 
ATOM     54  C   UNL A   1      39.783  28.911  31.842  1.00  0.00     0.031 A 
ATOM     55  C   UNL A   1      41.244  32.313  37.373  1.00  0.00     0.049 A 
ATOM     56  C   UNL A   1      40.941  28.896  32.800  1.00  0.00     0.074 A 
ATOM     57  C   UNL A   1      42.348  32.133  38.178  1.00  0.00     0.029 A 
ATOM     58  N   UNL A   1      41.357  31.414  36.316  1.00  0.00    -0.354 N 
ATOM     59  N   UNL A   1      41.127  29.634  33.872  1.00  0.00    -0.248 NA
ATOM     60  C   UNL A   1      42.018  27.944  32.523  1.00  0.00     0.031 C 
ATOM     61  C   UNL A   1      43.159  31.165  37.577  1.00  0.00     0.029 A 
ATOM     62  C   UNL A   1      42.524  30.687  36.436  1.00  0.00     0.049 A 
ATOM     63  H   UNL A   1      40.700  31.312  35.590  1.00  0.00     0.167 HD
ATOM     64  C   UNL A   1      42.328  29.210  34.423  1.00  0.00     0.074 A 
ATOM     65  C   UNL A   1      42.821  28.151  33.559  1.00  0.00     0.031 C 
ATOM     66  C   UNL A   1      42.963  29.639  35.543  1.00  0.00     0.031 A 
BRANCH  53  67
ATOM     67  C   UNL A   1      40.183  34.281  38.612  1.00  0.00    -0.014 A 
ATOM     68  C   UNL A   1      39.437  34.121  39.797  1.00  0.00     0.010 A 
ATOM     69  C   UNL A   1      40.925  35.461  38.430  1.00  0.00     0.010 A 
ATOM     70  C   UNL A   1      39.378  35.148  40.742  1.00  0.00     0.020 A 
ATOM     71  C   UNL A   1      40.900  36.475  39.391  1.00  0.00     0.020 A 
ATOM     72  C   UNL A   1      40.105  36.322  40.529  1.00  0.00     0.054 A 
BRANCH  72  73
ATOM     73  S   UNL A   1      40.002  37.642  41.767  1.00  0.00     0.124 S 
ATOM     74  O   UNL A   1      39.044  38.558  41.151  1.00  0.00    -0.237 OA
ATOM     75  O   UNL A   1      39.520  36.933  42.951  1.00  0.00    -0.237 OA
ATOM     76  O   UNL A   1      41.371  38.141  41.858  1.00  0.00    -0.744 OA
ENDBRANCH  72  73
ENDBRANCH  53  67
BRANCH  54  77
ATOM     77  C   UNL A   1      39.752  28.103  30.597  1.00  0.00    -0.014 A 
ATOM     78  C   UNL A   1      40.605  28.428  29.528  1.00  0.00     0.010 A 
ATOM     79  C   UNL A   1      38.959  26.942  30.512  1.00  0.00     0.010 A 
ATOM     80  C   UNL A   1      40.671  27.606  28.400  1.00  0.00     0.020 A 
ATOM     81  C   UNL A   1      39.042  26.104  29.396  1.00  0.00     0.020 A 
ATOM     82  C   UNL A   1      39.897  26.443  28.345  1.00  0.00     0.054 A 
BRANCH  82  83
ATOM     83  S   UNL A   1      40.079  25.347  26.911  1.00  0.00     0.124 S 
ATOM     84  O   UNL A   1      40.561  26.265  25.885  1.00  0.00    -0.237 OA
ATOM     85  O   UNL A   1      41.049  24.365  27.390  1.00  0.00    -0.237 OA
ATOM     86  O   UNL A   1      38.729  24.826  26.704  1.00  0.00    -0.744 OA
ENDBRANCH  82  83
ENDBRANCH  54  77
BRANCH  66  87
ATOM     87  C   UNL A   1      44.229  28.928  35.927  1.00  0.00    -0.014 A 
ATOM     88  C   UNL A   1      44.208  27.773  36.727  1.00  0.00     0.010 A 
ATOM     89  C   UNL A   1      45.447  29.369  35.377  1.00  0.00     0.010 A 
ATOM     90  C   UNL A   1      45.392  27.079  36.982  1.00  0.00     0.020 A 
ATOM     91  C   UNL A   1      46.624  28.658  35.602  1.00  0.00     0.020 A 
ATOM     92  C   UNL A   1      46.590  27.520  36.409  1.00  0.00     0.054 A 
BRANCH  92  93
ATOM     93  S   UNL A   1      48.095  26.551  36.685  1.00  0.00     0.124 S 
ATOM     94  O   UNL A   1      48.426  26.112  35.332  1.00  0.00    -0.237 OA
ATOM     95  O   UNL A   1      49.005  27.534  37.269  1.00  0.00    -0.237 OA
ATOM     96  O   UNL A   1      47.664  25.491  37.595  1.00  0.00    -0.744 OA
ENDBRANCH  92  93
ENDBRANCH  66  87
ENDBRANCH  40  41
ENDBRANCH  33  35
ENDBRANCH  32  33
ENDBRANCH  31  32
ENDBRANCH   1  31
TORSDOF 19
ENDMDL
