MODEL 1
REMARK VINA RESULT:     -13.7      0.000      0.000
REMARK SMILES O=C(OCCOC(=O)[C@@]1(CCc2ccccc2)CCC[N@H+](Cc2cccnc2)C1)c1ccc(-c2c3nc(c(-c4ccc(S(=O)(=O)[O-])cc4)c4ccc([nH]4)c(-c4ccc(S(=O)(=O)[O-])cc4)c4nc(c(-c5ccc(S(=O)(=O)[O-])cc5)c5ccc2[nH]5)C=C4)C=C3)cc1
REMARK SMILES IDX 4 1 3 2 2 3 1 4 30 5 31 6 89 7 32 8 88 9 33 10 34 11 35 12
REMARK SMILES IDX 82 13 36 14 87 15 81 16 83 17 37 18 86 19 80 20 79 21 38 23
REMARK SMILES IDX 68 24 49 25 67 26 50 27 53 28 66 29 84 30 51 31 52 32 65 34
REMARK SMILES IDX 85 35 54 36 39 37 40 38 48 39 41 40 47 41 42 42 43 43 44 44
REMARK SMILES IDX 45 45 46 46 69 47 70 48 78 49 71 50 77 51 72 52 73 53 74 54
REMARK SMILES IDX 75 55 76 56 55 57 56 58 64 59 57 60 63 61 58 62 59 63 60 64
REMARK SMILES IDX 61 65 62 66 5 67 6 68 7 69 8 70 9 71 18 72 29 73 19 74 21 75
REMARK SMILES IDX 20 76 10 78 11 79 12 80 13 81 17 82 14 83 16 84 15 85 22 86
REMARK SMILES IDX 23 87 24 88 28 89 25 90 27 91 26 92
REMARK H PARENT 83 22 53 33 21 77
REMARK Flexibility Score: inf
ROOT
ATOM      1  C   UNL A   1      32.943  27.957  27.408  1.00  0.00     0.275 C 
ENDROOT
BRANCH   1   2
ATOM      2  O   UNL A   1      33.390  29.681  26.885  1.00  0.00    -0.458 OA
BRANCH   2   3
ATOM      3  C   UNL A   1      34.289  31.055  27.898  1.00  0.00     0.338 C 
ATOM      4  O   UNL A   1      33.797  32.053  28.480  1.00  0.00    -0.246 OA
BRANCH   3   5
ATOM      5  C   UNL A   1      35.891  30.969  28.264  1.00  0.00     0.060 A 
ATOM      6  C   UNL A   1      37.316  30.573  27.036  1.00  0.00     0.016 A 
ATOM      7  C   UNL A   1      36.004  30.235  29.897  1.00  0.00     0.016 A 
ATOM      8  C   UNL A   1      38.643  29.547  27.468  1.00  0.00     0.010 A 
ATOM      9  C   UNL A   1      37.462  29.269  30.262  1.00  0.00     0.010 A 
ATOM     10  C   UNL A   1      38.743  28.964  29.078  1.00  0.00    -0.014 A 
BRANCH  10  11
ATOM     11  C   UNL A   1      40.187  28.691  29.464  1.00  0.00     0.031 A 
ATOM     12  C   UNL A   1      40.744  27.348  29.178  1.00  0.00     0.074 A 
ATOM     13  C   UNL A   1      41.024  29.653  29.960  1.00  0.00     0.049 A 
ATOM     14  N   UNL A   1      41.986  26.960  29.272  1.00  0.00    -0.248 NA
ATOM     15  C   UNL A   1      39.815  26.345  28.646  1.00  0.00     0.031 C 
ATOM     16  C   UNL A   1      40.718  31.073  30.133  1.00  0.00     0.029 A 
ATOM     17  N   UNL A   1      42.336  29.620  30.400  1.00  0.00    -0.354 N 
ATOM     18  C   UNL A   1      42.005  25.687  28.738  1.00  0.00     0.074 A 
ATOM     19  C   UNL A   1      40.638  25.336  28.408  1.00  0.00     0.031 C 
ATOM     20  C   UNL A   1      41.724  31.748  30.688  1.00  0.00     0.029 A 
ATOM     21  C   UNL A   1      42.806  30.828  30.901  1.00  0.00     0.049 A 
ATOM     22  H   UNL A   1      42.891  28.808  30.362  1.00  0.00     0.167 HD
ATOM     23  C   UNL A   1      43.079  24.902  28.502  1.00  0.00     0.031 A 
ATOM     24  C   UNL A   1      43.976  31.220  31.439  1.00  0.00     0.031 A 
ATOM     25  C   UNL A   1      44.418  25.225  28.904  1.00  0.00     0.049 A 
ATOM     26  C   UNL A   1      45.094  30.240  31.378  1.00  0.00     0.074 A 
ATOM     27  C   UNL A   1      45.555  24.449  28.792  1.00  0.00     0.029 A 
ATOM     28  N   UNL A   1      44.797  26.407  29.529  1.00  0.00    -0.354 N 
ATOM     29  N   UNL A   1      45.083  29.046  30.839  1.00  0.00    -0.248 NA
ATOM     30  C   UNL A   1      46.385  30.660  31.927  1.00  0.00     0.031 C 
ATOM     31  C   UNL A   1      46.607  25.131  29.412  1.00  0.00     0.029 A 
ATOM     32  C   UNL A   1      46.143  26.362  29.849  1.00  0.00     0.049 A 
ATOM     33  H   UNL A   1      44.197  27.165  29.715  1.00  0.00     0.167 HD
ATOM     34  C   UNL A   1      46.381  28.585  30.939  1.00  0.00     0.074 A 
ATOM     35  C   UNL A   1      47.149  29.631  31.590  1.00  0.00     0.031 C 
ATOM     36  C   UNL A   1      46.886  27.407  30.510  1.00  0.00     0.031 A 
BRANCH  23  37
ATOM     37  C   UNL A   1      42.780  23.596  27.835  1.00  0.00    -0.014 A 
ATOM     38  C   UNL A   1      42.511  22.443  28.597  1.00  0.00     0.010 A 
ATOM     39  C   UNL A   1      42.889  23.497  26.440  1.00  0.00     0.010 A 
ATOM     40  C   UNL A   1      42.429  21.197  27.976  1.00  0.00     0.020 A 
ATOM     41  C   UNL A   1      42.780  22.256  25.813  1.00  0.00     0.020 A 
ATOM     42  C   UNL A   1      42.580  21.111  26.589  1.00  0.00     0.054 A 
BRANCH  42  43
ATOM     43  S   UNL A   1      42.527  19.476  25.810  1.00  0.00     0.124 S 
ATOM     44  O   UNL A   1      43.584  19.588  24.808  1.00  0.00    -0.237 OA
ATOM     45  O   UNL A   1      42.813  18.581  26.928  1.00  0.00    -0.237 OA
ATOM     46  O   UNL A   1      41.169  19.390  25.278  1.00  0.00    -0.744 OA
ENDBRANCH  42  43
ENDBRANCH  23  37
BRANCH  24  47
ATOM     47  C   UNL A   1      44.160  32.590  32.023  1.00  0.00    -0.014 A 
ATOM     48  C   UNL A   1      43.879  32.865  33.373  1.00  0.00     0.010 A 
ATOM     49  C   UNL A   1      44.601  33.650  31.203  1.00  0.00     0.010 A 
ATOM     50  C   UNL A   1      43.990  34.169  33.880  1.00  0.00     0.020 A 
ATOM     51  C   UNL A   1      44.733  34.951  31.709  1.00  0.00     0.020 A 
ATOM     52  C   UNL A   1      44.411  35.206  33.042  1.00  0.00     0.054 A 
BRANCH  52  53
ATOM     53  S   UNL A   1      44.542  36.888  33.722  1.00  0.00     0.124 S 
ATOM     54  O   UNL A   1      43.411  36.936  34.642  1.00  0.00    -0.237 OA
ATOM     55  O   UNL A   1      45.864  36.871  34.344  1.00  0.00    -0.237 OA
ATOM     56  O   UNL A   1      44.426  37.745  32.543  1.00  0.00    -0.744 OA
ENDBRANCH  52  53
ENDBRANCH  24  47
BRANCH  36  57
ATOM     57  C   UNL A   1      48.354  27.192  30.721  1.00  0.00    -0.014 A 
ATOM     58  C   UNL A   1      48.839  26.608  31.903  1.00  0.00     0.010 A 
ATOM     59  C   UNL A   1      49.250  27.525  29.689  1.00  0.00     0.010 A 
ATOM     60  C   UNL A   1      50.204  26.369  32.055  1.00  0.00     0.020 A 
ATOM     61  C   UNL A   1      50.611  27.257  29.825  1.00  0.00     0.020 A 
ATOM     62  C   UNL A   1      51.079  26.686  31.010  1.00  0.00     0.054 A 
BRANCH  62  63
ATOM     63  S   UNL A   1      52.834  26.281  31.197  1.00  0.00     0.124 S 
ATOM     64  O   UNL A   1      52.776  24.938  31.767  1.00  0.00    -0.237 OA
ATOM     65  O   UNL A   1      53.329  26.365  29.826  1.00  0.00    -0.237 OA
ATOM     66  O   UNL A   1      53.333  27.319  32.098  1.00  0.00    -0.744 OA
ENDBRANCH  62  63
ENDBRANCH  36  57
ENDBRANCH  10  11
ENDBRANCH   3   5
ENDBRANCH   2   3
ENDBRANCH   1   2
BRANCH   1  67
ATOM     67  C   UNL A   1      31.148  27.352  27.088  1.00  0.00     0.274 C 
BRANCH  67  68
ATOM     68  O   UNL A   1      30.733  25.726  26.515  1.00  0.00    -0.461 OA
BRANCH  68  69
ATOM     69  C   UNL A   1      31.209  24.351  26.699  1.00  0.00     0.317 C 
ATOM     70  O   UNL A   1      30.496  23.518  27.261  1.00  0.00    -0.251 OA
BRANCH  69  71
ATOM     71  C   UNL A   1      32.884  23.910  26.196  1.00  0.00     0.117 C 
ATOM     72  C   UNL A   1      33.273  23.039  27.444  1.00  0.00     0.030 C 
ATOM     73  C   UNL A   1      32.982  22.839  24.977  1.00  0.00     0.281 C 
ATOM     74  C   UNL A   1      33.894  21.638  27.280  1.00  0.00     0.063 C 
ATOM     75  N   UNL A   1      34.285  22.114  24.864  1.00  0.00    -0.330 N 
ATOM     76  C   UNL A   1      34.613  21.277  25.994  1.00  0.00     0.262 C 
ATOM     77  H   UNL A   1      33.877  21.688  24.032  1.00  0.00     0.348 HD
BRANCH  71  78
ATOM     78  C   UNL A   1      34.176  25.130  25.485  1.00  0.00     0.029 C 
BRANCH  78  79
ATOM     79  C   UNL A   1      33.876  26.710  23.978  1.00  0.00     0.037 C 
BRANCH  79  80
ATOM     80  C   UNL A   1      32.349  26.743  22.817  1.00  0.00    -0.048 A 
ATOM     81  C   UNL A   1      31.068  25.546  23.108  1.00  0.00     0.004 A 
ATOM     82  C   UNL A   1      31.797  28.473  22.844  1.00  0.00     0.004 A 
ATOM     83  C   UNL A   1      29.363  26.006  23.416  1.00  0.00     0.000 A 
ATOM     84  C   UNL A   1      30.062  28.974  23.417  1.00  0.00     0.000 A 
ATOM     85  C   UNL A   1      28.850  27.698  23.597  1.00  0.00     0.000 A 
ENDBRANCH  79  80
ENDBRANCH  78  79
ENDBRANCH  71  78
BRANCH  75  86
ATOM     86  C   UNL A   1      35.487  22.514  24.106  1.00  0.00     0.300 C 
BRANCH  86  87
ATOM     87  C   UNL A   1      36.741  22.613  24.927  1.00  0.00     0.025 A 
ATOM     88  C   UNL A   1      37.052  23.771  25.638  1.00  0.00     0.013 A 
ATOM     89  C   UNL A   1      37.612  21.532  25.043  1.00  0.00     0.120 A 
ATOM     90  C   UNL A   1      38.232  23.831  26.369  1.00  0.00     0.021 A 
ATOM     91  N   UNL A   1      38.766  21.559  25.750  1.00  0.00    -0.264 NA
ATOM     92  C   UNL A   1      39.056  22.716  26.379  1.00  0.00     0.111 A 
ENDBRANCH  86  87
ENDBRANCH  75  86
ENDBRANCH  69  71
ENDBRANCH  68  69
ENDBRANCH  67  68
ENDBRANCH   1  67
TORSDOF 19
ENDMDL
MODEL 2
REMARK VINA RESULT:     -13.6      5.013     10.115
REMARK SMILES O=C(OCCOC(=O)[C@@]1(CCc2ccccc2)CCC[N@H+](Cc2cccnc2)C1)c1ccc(-c2c3nc(c(-c4ccc(S(=O)(=O)[O-])cc4)c4ccc([nH]4)c(-c4ccc(S(=O)(=O)[O-])cc4)c4nc(c(-c5ccc(S(=O)(=O)[O-])cc5)c5ccc2[nH]5)C=C4)C=C3)cc1
REMARK SMILES IDX 4 1 3 2 2 3 1 4 30 5 31 6 89 7 32 8 88 9 33 10 34 11 35 12
REMARK SMILES IDX 82 13 36 14 87 15 81 16 83 17 37 18 86 19 80 20 79 21 38 23
REMARK SMILES IDX 68 24 49 25 67 26 50 27 53 28 66 29 84 30 51 31 52 32 65 34
REMARK SMILES IDX 85 35 54 36 39 37 40 38 48 39 41 40 47 41 42 42 43 43 44 44
REMARK SMILES IDX 45 45 46 46 69 47 70 48 78 49 71 50 77 51 72 52 73 53 74 54
REMARK SMILES IDX 75 55 76 56 55 57 56 58 64 59 57 60 63 61 58 62 59 63 60 64
REMARK SMILES IDX 61 65 62 66 5 67 6 68 7 69 8 70 9 71 18 72 29 73 19 74 21 75
REMARK SMILES IDX 20 76 10 78 11 79 12 80 13 81 17 82 14 83 16 84 15 85 22 86
REMARK SMILES IDX 23 87 24 88 28 89 25 90 27 91 26 92
REMARK H PARENT 83 22 53 33 21 77
REMARK Flexibility Score: inf
ROOT
ATOM      1  C   UNL A   1      39.611  22.242  26.162  1.00  0.00     0.275 C 
ENDROOT
BRANCH   1   2
ATOM      2  O   UNL A   1      41.023  23.439  26.302  1.00  0.00    -0.458 OA
BRANCH   2   3
ATOM      3  C   UNL A   1      40.969  25.330  26.681  1.00  0.00     0.338 C 
ATOM      4  O   UNL A   1      40.850  26.290  25.880  1.00  0.00    -0.246 OA
BRANCH   3   5
ATOM      5  C   UNL A   1      40.914  25.916  28.218  1.00  0.00     0.060 A 
ATOM      6  C   UNL A   1      39.340  26.100  29.306  1.00  0.00     0.016 A 
ATOM      7  C   UNL A   1      42.115  27.247  28.301  1.00  0.00     0.016 A 
ATOM      8  C   UNL A   1      39.075  27.486  30.311  1.00  0.00     0.010 A 
ATOM      9  C   UNL A   1      41.781  28.582  29.440  1.00  0.00     0.010 A 
ATOM     10  C   UNL A   1      40.310  28.670  30.425  1.00  0.00    -0.014 A 
BRANCH  10  11
ATOM     11  C   UNL A   1      40.243  29.395  31.758  1.00  0.00     0.031 A 
ATOM     12  C   UNL A   1      41.272  29.080  32.777  1.00  0.00     0.074 A 
ATOM     13  C   UNL A   1      39.349  30.398  32.021  1.00  0.00     0.049 A 
ATOM     14  N   UNL A   1      41.495  29.696  33.905  1.00  0.00    -0.248 NA
ATOM     15  C   UNL A   1      42.212  28.001  32.457  1.00  0.00     0.031 C 
ATOM     16  C   UNL A   1      38.387  30.977  31.084  1.00  0.00     0.029 A 
ATOM     17  N   UNL A   1      39.093  31.155  33.150  1.00  0.00    -0.354 N 
ATOM     18  C   UNL A   1      42.653  29.129  34.399  1.00  0.00     0.074 A 
ATOM     19  C   UNL A   1      43.031  28.061  33.495  1.00  0.00     0.031 C 
ATOM     20  C   UNL A   1      37.617  31.905  31.653  1.00  0.00     0.029 A 
ATOM     21  C   UNL A   1      38.031  32.042  33.020  1.00  0.00     0.049 A 
ATOM     22  H   UNL A   1      39.618  31.071  33.978  1.00  0.00     0.167 HD
ATOM     23  C   UNL A   1      43.361  29.502  35.487  1.00  0.00     0.031 A 
ATOM     24  C   UNL A   1      37.446  32.922  33.855  1.00  0.00     0.031 A 
ATOM     25  C   UNL A   1      42.938  30.508  36.419  1.00  0.00     0.049 A 
ATOM     26  C   UNL A   1      38.123  33.145  35.161  1.00  0.00     0.074 A 
ATOM     27  C   UNL A   1      43.544  30.888  37.601  1.00  0.00     0.029 A 
ATOM     28  N   UNL A   1      41.783  31.271  36.294  1.00  0.00    -0.354 N 
ATOM     29  N   UNL A   1      39.238  32.606  35.588  1.00  0.00    -0.248 NA
ATOM     30  C   UNL A   1      37.520  34.123  36.069  1.00  0.00     0.031 C 
ATOM     31  C   UNL A   1      42.719  31.829  38.227  1.00  0.00     0.029 A 
ATOM     32  C   UNL A   1      41.635  32.088  37.402  1.00  0.00     0.049 A 
ATOM     33  H   UNL A   1      41.163  31.237  35.530  1.00  0.00     0.167 HD
ATOM     34  C   UNL A   1      39.502  33.216  36.799  1.00  0.00     0.074 A 
ATOM     35  C   UNL A   1      38.428  34.164  37.034  1.00  0.00     0.031 C 
ATOM     36  C   UNL A   1      40.552  33.015  37.626  1.00  0.00     0.031 A 
BRANCH  23  37
ATOM     37  C   UNL A   1      44.626  28.736  35.718  1.00  0.00    -0.014 A 
ATOM     38  C   UNL A   1      45.833  29.139  35.117  1.00  0.00     0.010 A 
ATOM     39  C   UNL A   1      44.578  27.536  36.444  1.00  0.00     0.010 A 
ATOM     40  C   UNL A   1      46.956  28.313  35.178  1.00  0.00     0.020 A 
ATOM     41  C   UNL A   1      45.706  26.722  36.530  1.00  0.00     0.020 A 
ATOM     42  C   UNL A   1      46.879  27.103  35.872  1.00  0.00     0.054 A 
BRANCH  42  43
ATOM     43  S   UNL A   1      48.331  26.019  35.889  1.00  0.00     0.124 S 
ATOM     44  O   UNL A   1      47.944  24.986  34.932  1.00  0.00    -0.237 OA
ATOM     45  O   UNL A   1      49.401  26.913  35.453  1.00  0.00    -0.237 OA
ATOM     46  O   UNL A   1      48.418  25.580  37.280  1.00  0.00    -0.744 OA
ENDBRANCH  42  43
ENDBRANCH  23  37
BRANCH  24  47
ATOM     47  C   UNL A   1      36.206  33.674  33.470  1.00  0.00    -0.014 A 
ATOM     48  C   UNL A   1      34.923  33.119  33.626  1.00  0.00     0.010 A 
ATOM     49  C   UNL A   1      36.312  34.964  32.911  1.00  0.00     0.010 A 
ATOM     50  C   UNL A   1      33.782  33.813  33.193  1.00  0.00     0.020 A 
ATOM     51  C   UNL A   1      35.174  35.670  32.495  1.00  0.00     0.020 A 
ATOM     52  C   UNL A   1      33.916  35.083  32.624  1.00  0.00     0.054 A 
BRANCH  52  53
ATOM     53  S   UNL A   1      32.422  35.958  32.068  1.00  0.00     0.124 S 
ATOM     54  O   UNL A   1      31.361  35.047  32.480  1.00  0.00    -0.237 OA
ATOM     55  O   UNL A   1      32.502  37.214  32.809  1.00  0.00    -0.237 OA
ATOM     56  O   UNL A   1      32.615  36.081  30.624  1.00  0.00    -0.744 OA
ENDBRANCH  52  53
ENDBRANCH  24  47
BRANCH  36  57
ATOM     57  C   UNL A   1      40.597  33.855  38.865  1.00  0.00    -0.014 A 
ATOM     58  C   UNL A   1      41.319  35.060  38.898  1.00  0.00     0.010 A 
ATOM     59  C   UNL A   1      39.851  33.457  39.989  1.00  0.00     0.010 A 
ATOM     60  C   UNL A   1      41.302  35.852  40.046  1.00  0.00     0.020 A 
ATOM     61  C   UNL A   1      39.806  34.263  41.125  1.00  0.00     0.020 A 
ATOM     62  C   UNL A   1      40.538  35.452  41.147  1.00  0.00     0.054 A 
BRANCH  62  63
ATOM     63  S   UNL A   1      40.461  36.545  42.590  1.00  0.00     0.124 S 
ATOM     64  O   UNL A   1      41.617  36.103  43.366  1.00  0.00    -0.237 OA
ATOM     65  O   UNL A   1      40.572  37.872  41.992  1.00  0.00    -0.237 OA
ATOM     66  O   UNL A   1      39.159  36.241  43.183  1.00  0.00    -0.744 OA
ENDBRANCH  62  63
ENDBRANCH  36  57
ENDBRANCH  10  11
ENDBRANCH   3   5
ENDBRANCH   2   3
ENDBRANCH   1   2
BRANCH   1  67
ATOM     67  C   UNL A   1      37.828  22.955  26.080  1.00  0.00     0.274 C 
BRANCH  67  68
ATOM     68  O   UNL A   1      37.113  23.681  24.629  1.00  0.00    -0.461 OA
BRANCH  68  69
ATOM     69  C   UNL A   1      36.147  23.312  23.588  1.00  0.00     0.317 C 
ATOM     70  O   UNL A   1      36.536  22.825  22.526  1.00  0.00    -0.251 OA
BRANCH  69  71
ATOM     71  C   UNL A   1      34.396  23.672  23.827  1.00  0.00     0.117 C 
ATOM     72  C   UNL A   1      34.263  23.176  25.310  1.00  0.00     0.030 C 
ATOM     73  C   UNL A   1      34.023  25.250  23.949  1.00  0.00     0.281 C 
ATOM     74  C   UNL A   1      33.596  24.052  26.390  1.00  0.00     0.063 C 
ATOM     75  N   UNL A   1      32.712  25.550  24.604  1.00  0.00    -0.330 N 
ATOM     76  C   UNL A   1      32.615  25.134  25.984  1.00  0.00     0.262 C 
ATOM     77  H   UNL A   1      32.928  26.524  24.392  1.00  0.00     0.348 HD
BRANCH  71  78
ATOM     78  C   UNL A   1      33.005  23.241  22.584  1.00  0.00     0.029 C 
BRANCH  78  79
ATOM     79  C   UNL A   1      32.201  21.254  22.071  1.00  0.00     0.037 C 
BRANCH  79  80
ATOM     80  C   UNL A   1      32.208  19.793  23.314  1.00  0.00    -0.048 A 
ATOM     81  C   UNL A   1      32.360  18.150  22.653  1.00  0.00     0.004 A 
ATOM     82  C   UNL A   1      33.475  20.243  24.535  1.00  0.00     0.004 A 
ATOM     83  C   UNL A   1      33.667  17.025  23.141  1.00  0.00     0.000 A 
ATOM     84  C   UNL A   1      34.995  19.162  24.864  1.00  0.00     0.000 A 
ATOM     85  C   UNL A   1      34.995  17.516  24.215  1.00  0.00     0.000 A 
ENDBRANCH  79  80
ENDBRANCH  78  79
ENDBRANCH  71  78
BRANCH  75  86
ATOM     86  C   UNL A   1      31.385  25.674  23.970  1.00  0.00     0.300 C 
BRANCH  86  87
ATOM     87  C   UNL A   1      30.961  27.083  23.673  1.00  0.00     0.025 A 
ATOM     88  C   UNL A   1      31.260  28.128  24.545  1.00  0.00     0.013 A 
ATOM     89  C   UNL A   1      30.298  27.400  22.490  1.00  0.00     0.120 A 
ATOM     90  C   UNL A   1      30.832  29.416  24.244  1.00  0.00     0.021 A 
ATOM     91  N   UNL A   1      29.873  28.644  22.167  1.00  0.00    -0.264 NA
ATOM     92  C   UNL A   1      30.134  29.617  23.064  1.00  0.00     0.111 A 
ENDBRANCH  86  87
ENDBRANCH  75  86
ENDBRANCH  69  71
ENDBRANCH  68  69
ENDBRANCH  67  68
ENDBRANCH   1  67
TORSDOF 19
ENDMDL
MODEL 3
REMARK VINA RESULT:     -13.6      3.842      8.948
REMARK SMILES O=C(OCCOC(=O)[C@@]1(CCc2ccccc2)CCC[N@H+](Cc2cccnc2)C1)c1ccc(-c2c3nc(c(-c4ccc(S(=O)(=O)[O-])cc4)c4ccc([nH]4)c(-c4ccc(S(=O)(=O)[O-])cc4)c4nc(c(-c5ccc(S(=O)(=O)[O-])cc5)c5ccc2[nH]5)C=C4)C=C3)cc1
REMARK SMILES IDX 4 1 3 2 2 3 1 4 30 5 31 6 89 7 32 8 88 9 33 10 34 11 35 12
REMARK SMILES IDX 82 13 36 14 87 15 81 16 83 17 37 18 86 19 80 20 79 21 38 23
REMARK SMILES IDX 68 24 49 25 67 26 50 27 53 28 66 29 84 30 51 31 52 32 65 34
REMARK SMILES IDX 85 35 54 36 39 37 40 38 48 39 41 40 47 41 42 42 43 43 44 44
REMARK SMILES IDX 45 45 46 46 69 47 70 48 78 49 71 50 77 51 72 52 73 53 74 54
REMARK SMILES IDX 75 55 76 56 55 57 56 58 64 59 57 60 63 61 58 62 59 63 60 64
REMARK SMILES IDX 61 65 62 66 5 67 6 68 7 69 8 70 9 71 18 72 29 73 19 74 21 75
REMARK SMILES IDX 20 76 10 78 11 79 12 80 13 81 17 82 14 83 16 84 15 85 22 86
REMARK SMILES IDX 23 87 24 88 28 89 25 90 27 91 26 92
REMARK H PARENT 83 22 53 33 21 77
REMARK Flexibility Score: inf
ROOT
ATOM      1  C   UNL A   1      32.405  29.973  25.521  1.00  0.00     0.275 C 
ENDROOT
BRANCH   1   2
ATOM      2  O   UNL A   1      32.464  31.074  27.014  1.00  0.00    -0.458 OA
BRANCH   2   3
ATOM      3  C   UNL A   1      33.848  32.307  27.551  1.00  0.00     0.338 C 
ATOM      4  O   UNL A   1      33.942  33.536  27.315  1.00  0.00    -0.246 OA
BRANCH   3   5
ATOM      5  C   UNL A   1      35.056  31.875  28.582  1.00  0.00     0.060 A 
ATOM      6  C   UNL A   1      36.738  32.781  28.803  1.00  0.00     0.016 A 
ATOM      7  C   UNL A   1      35.095  30.081  28.602  1.00  0.00     0.016 A 
ATOM      8  C   UNL A   1      38.227  31.918  28.997  1.00  0.00     0.010 A 
ATOM      9  C   UNL A   1      36.673  29.299  28.900  1.00  0.00     0.010 A 
ATOM     10  C   UNL A   1      38.180  30.207  29.112  1.00  0.00    -0.014 A 
BRANCH  10  11
ATOM     11  C   UNL A   1      39.360  29.687  29.914  1.00  0.00     0.031 A 
ATOM     12  C   UNL A   1      39.550  30.202  31.291  1.00  0.00     0.074 A 
ATOM     13  C   UNL A   1      40.187  28.691  29.470  1.00  0.00     0.049 A 
ATOM     14  N   UNL A   1      40.384  29.774  32.197  1.00  0.00    -0.248 NA
ATOM     15  C   UNL A   1      38.643  31.268  31.730  1.00  0.00     0.031 C 
ATOM     16  C   UNL A   1      40.049  27.930  28.229  1.00  0.00     0.029 A 
ATOM     17  N   UNL A   1      41.317  28.099  30.007  1.00  0.00    -0.354 N 
ATOM     18  C   UNL A   1      40.053  30.466  33.345  1.00  0.00     0.074 A 
ATOM     19  C   UNL A   1      39.005  31.405  32.996  1.00  0.00     0.031 C 
ATOM     20  C   UNL A   1      41.043  27.061  28.050  1.00  0.00     0.029 A 
ATOM     21  C   UNL A   1      41.915  27.151  29.187  1.00  0.00     0.049 A 
ATOM     22  H   UNL A   1      41.669  28.332  30.896  1.00  0.00     0.167 HD
ATOM     23  C   UNL A   1      40.549  30.296  34.590  1.00  0.00     0.031 A 
ATOM     24  C   UNL A   1      43.011  26.377  29.305  1.00  0.00     0.031 A 
ATOM     25  C   UNL A   1      41.640  29.420  34.910  1.00  0.00     0.049 A 
ATOM     26  C   UNL A   1      43.687  26.385  30.630  1.00  0.00     0.074 A 
ATOM     27  C   UNL A   1      42.273  29.252  36.127  1.00  0.00     0.029 A 
ATOM     28  N   UNL A   1      42.285  28.590  34.002  1.00  0.00    -0.354 N 
ATOM     29  N   UNL A   1      43.329  27.038  31.708  1.00  0.00    -0.248 NA
ATOM     30  C   UNL A   1      44.862  25.525  30.788  1.00  0.00     0.031 C 
ATOM     31  C   UNL A   1      43.346  28.375  35.939  1.00  0.00     0.029 A 
ATOM     32  C   UNL A   1      43.340  27.941  34.622  1.00  0.00     0.049 A 
ATOM     33  H   UNL A   1      42.030  28.479  33.058  1.00  0.00     0.167 HD
ATOM     34  C   UNL A   1      44.206  26.630  32.694  1.00  0.00     0.074 A 
ATOM     35  C   UNL A   1      45.111  25.675  32.082  1.00  0.00     0.031 C 
ATOM     36  C   UNL A   1      44.239  27.005  33.992  1.00  0.00     0.031 A 
BRANCH  23  37
ATOM     37  C   UNL A   1      39.925  31.151  35.648  1.00  0.00    -0.014 A 
ATOM     38  C   UNL A   1      40.655  32.188  36.259  1.00  0.00     0.010 A 
ATOM     39  C   UNL A   1      38.641  30.835  36.117  1.00  0.00     0.010 A 
ATOM     40  C   UNL A   1      40.136  32.846  37.374  1.00  0.00     0.020 A 
ATOM     41  C   UNL A   1      38.108  31.511  37.214  1.00  0.00     0.020 A 
ATOM     42  C   UNL A   1      38.872  32.492  37.852  1.00  0.00     0.054 A 
BRANCH  42  43
ATOM     43  S   UNL A   1      38.242  33.320  39.336  1.00  0.00     0.124 S 
ATOM     44  O   UNL A   1      36.815  33.016  39.264  1.00  0.00    -0.237 OA
ATOM     45  O   UNL A   1      38.974  32.653  40.408  1.00  0.00    -0.237 OA
ATOM     46  O   UNL A   1      38.592  34.723  39.123  1.00  0.00    -0.744 OA
ENDBRANCH  42  43
ENDBRANCH  23  37
BRANCH  24  47
ATOM     47  C   UNL A   1      43.496  25.514  28.177  1.00  0.00    -0.014 A 
ATOM     48  C   UNL A   1      44.275  26.033  27.127  1.00  0.00     0.010 A 
ATOM     49  C   UNL A   1      43.148  24.148  28.138  1.00  0.00     0.010 A 
ATOM     50  C   UNL A   1      44.657  25.223  26.047  1.00  0.00     0.020 A 
ATOM     51  C   UNL A   1      43.544  23.329  27.071  1.00  0.00     0.020 A 
ATOM     52  C   UNL A   1      44.284  23.876  26.023  1.00  0.00     0.054 A 
BRANCH  52  53
ATOM     53  S   UNL A   1      44.788  22.849  24.609  1.00  0.00     0.124 S 
ATOM     54  O   UNL A   1      45.321  21.661  25.267  1.00  0.00    -0.237 OA
ATOM     55  O   UNL A   1      43.529  22.665  23.892  1.00  0.00    -0.237 OA
ATOM     56  O   UNL A   1      45.775  23.678  23.918  1.00  0.00    -0.744 OA
ENDBRANCH  52  53
ENDBRANCH  24  47
BRANCH  36  57
ATOM     57  C   UNL A   1      45.289  26.363  34.847  1.00  0.00    -0.014 A 
ATOM     58  C   UNL A   1      44.983  25.266  35.669  1.00  0.00     0.010 A 
ATOM     59  C   UNL A   1      46.613  26.831  34.772  1.00  0.00     0.010 A 
ATOM     60  C   UNL A   1      45.988  24.650  36.414  1.00  0.00     0.020 A 
ATOM     61  C   UNL A   1      47.625  26.197  35.491  1.00  0.00     0.020 A 
ATOM     62  C   UNL A   1      47.303  25.115  36.312  1.00  0.00     0.054 A 
BRANCH  62  63
ATOM     63  S   UNL A   1      48.603  24.240  37.221  1.00  0.00     0.124 S 
ATOM     64  O   UNL A   1      49.810  24.698  36.537  1.00  0.00    -0.237 OA
ATOM     65  O   UNL A   1      48.426  24.731  38.584  1.00  0.00    -0.237 OA
ATOM     66  O   UNL A   1      48.273  22.830  37.024  1.00  0.00    -0.744 OA
ENDBRANCH  62  63
ENDBRANCH  36  57
ENDBRANCH  10  11
ENDBRANCH   3   5
ENDBRANCH   2   3
ENDBRANCH   1   2
BRANCH   1  67
ATOM     67  C   UNL A   1      33.763  28.626  25.339  1.00  0.00     0.274 C 
BRANCH  67  68
ATOM     68  O   UNL A   1      34.155  27.809  23.814  1.00  0.00    -0.461 OA
BRANCH  68  69
ATOM     69  C   UNL A   1      33.754  26.596  23.093  1.00  0.00     0.317 C 
ATOM     70  O   UNL A   1      33.829  26.552  21.865  1.00  0.00    -0.251 OA
BRANCH  69  71
ATOM     71  C   UNL A   1      33.050  25.207  24.003  1.00  0.00     0.117 C 
ATOM     72  C   UNL A   1      31.532  25.520  23.755  1.00  0.00     0.030 C 
ATOM     73  C   UNL A   1      33.228  23.754  23.296  1.00  0.00     0.281 C 
ATOM     74  C   UNL A   1      30.561  24.432  23.255  1.00  0.00     0.063 C 
ATOM     75  N   UNL A   1      32.277  22.696  23.757  1.00  0.00    -0.330 N 
ATOM     76  C   UNL A   1      30.886  22.969  23.482  1.00  0.00     0.262 C 
ATOM     77  H   UNL A   1      32.796  22.079  23.132  1.00  0.00     0.348 HD
BRANCH  71  78
ATOM     78  C   UNL A   1      33.601  24.641  25.747  1.00  0.00     0.029 C 
BRANCH  78  79
ATOM     79  C   UNL A   1      35.270  23.304  26.283  1.00  0.00     0.037 C 
BRANCH  79  80
ATOM     80  C   UNL A   1      37.016  23.482  25.510  1.00  0.00    -0.048 A 
ATOM     81  C   UNL A   1      38.274  24.265  26.492  1.00  0.00     0.004 A 
ATOM     82  C   UNL A   1      37.430  21.810  24.934  1.00  0.00     0.004 A 
ATOM     83  C   UNL A   1      39.828  23.467  26.894  1.00  0.00     0.000 A 
ATOM     84  C   UNL A   1      38.948  20.868  25.563  1.00  0.00     0.000 A 
ATOM     85  C   UNL A   1      40.170  21.776  26.464  1.00  0.00     0.000 A 
ENDBRANCH  79  80
ENDBRANCH  78  79
ENDBRANCH  71  78
BRANCH  75  86
ATOM     86  C   UNL A   1      32.443  21.749  24.878  1.00  0.00     0.300 C 
BRANCH  86  87
ATOM     87  C   UNL A   1      32.934  20.387  24.480  1.00  0.00     0.025 A 
ATOM     88  C   UNL A   1      34.136  19.879  24.969  1.00  0.00     0.013 A 
ATOM     89  C   UNL A   1      32.179  19.565  23.646  1.00  0.00     0.120 A 
ATOM     90  C   UNL A   1      34.567  18.621  24.561  1.00  0.00     0.021 A 
ATOM     91  N   UNL A   1      32.569  18.336  23.235  1.00  0.00    -0.264 NA
ATOM     92  C   UNL A   1      33.764  17.904  23.688  1.00  0.00     0.111 A 
ENDBRANCH  86  87
ENDBRANCH  75  86
ENDBRANCH  69  71
ENDBRANCH  68  69
ENDBRANCH  67  68
ENDBRANCH   1  67
TORSDOF 19
ENDMDL
