MODEL 1
REMARK VINA RESULT:      -9.5      0.000      0.000
REMARK SMILES C[C@H]1[C@H](C(=O)OCCOC(=O)c2ccc(-c3c4nc(c(-c5ccc(S(=O)(=O)[O-])cc5)c5ccc([nH]5)c(-c5ccc(S(=O)(=O)[O-])cc5)c5nc(c(-c6ccc(S(=O)(=O)[O-])cc6)c6ccc3[nH]6)C=C5)C=C4)cc2)CC[N@@H+]1Cc1cscn1
REMARK SMILES IDX 8 1 7 2 6 3 4 4 5 5 3 6 1 7 2 8 74 9 72 10 73 11 75 13 76 14
REMARK SMILES IDX 77 15 80 16 78 17 79 18 9 19 10 20 11 21 12 22 13 23 71 24
REMARK SMILES IDX 14 25 70 26 15 27 16 28 17 29 64 30 18 31 69 32 63 33 65 34
REMARK SMILES IDX 19 35 68 36 62 37 61 38 20 40 50 41 31 42 49 43 32 44 35 45
REMARK SMILES IDX 48 46 66 47 33 48 34 49 47 51 67 52 36 53 21 54 22 55 30 56
REMARK SMILES IDX 23 57 29 58 24 59 25 60 26 61 27 62 28 63 51 64 52 65 60 66
REMARK SMILES IDX 53 67 59 68 54 69 55 70 56 71 57 72 58 73 37 74 38 75 46 76
REMARK SMILES IDX 39 77 45 78 40 79 41 80 42 81 43 82 44 83
REMARK H PARENT 74 12 65 39 35 50
REMARK Flexibility Score: inf
ROOT
ATOM      1  C   UNL A   1      33.792  32.232  28.069  1.00  0.00     0.275 C 
ENDROOT
BRANCH   1   2
ATOM      2  C   UNL A   1      34.633  33.328  28.723  1.00  0.00     0.274 C 
BRANCH   2   3
ATOM      3  O   UNL A   1      35.285  32.822  29.903  1.00  0.00    -0.462 OA
BRANCH   3   4
ATOM      4  C   UNL A   1      36.628  32.960  29.982  1.00  0.00     0.315 C 
ATOM      5  O   UNL A   1      37.362  33.135  29.016  1.00  0.00    -0.252 OA
BRANCH   4   6
ATOM      6  C   UNL A   1      37.177  32.886  31.395  1.00  0.00     0.162 C 
ATOM      7  C   UNL A   1      38.104  34.745  32.831  1.00  0.00     0.076 C 
ATOM      8  C   UNL A   1      36.827  34.034  32.354  1.00  0.00     0.195 C 
ATOM      9  N   UNL A   1      36.206  33.409  33.535  1.00  0.00    -0.327 N 
ATOM     10  C   UNL A   1      36.711  31.605  32.071  1.00  0.00     0.083 C 
ATOM     11  C   UNL A   1      36.515  31.986  33.522  1.00  0.00     0.263 C 
ATOM     12  H   UNL A   1      36.622  33.804  34.380  1.00  0.00     0.348 HD
BRANCH   9  13
ATOM     13  C   UNL A   1      34.803  33.771  33.763  1.00  0.00     0.320 C 
BRANCH  13  14
ATOM     14  C   UNL A   1      34.318  35.005  33.050  1.00  0.00     0.105 A 
ATOM     15  C   UNL A   1      33.620  35.064  31.856  1.00  0.00     0.096 A 
ATOM     16  N   UNL A   1      34.503  36.243  33.660  1.00  0.00    -0.244 NA
ATOM     17  S   UNL A   1      33.265  36.690  31.446  1.00  0.00    -0.130 S 
ATOM     18  C   UNL A   1      34.000  37.195  32.907  1.00  0.00     0.176 A 
ENDBRANCH  13  14
ENDBRANCH   9  13
ENDBRANCH   4   6
ENDBRANCH   3   4
ENDBRANCH   2   3
ENDBRANCH   1   2
BRANCH   1  19
ATOM     19  O   UNL A   1      34.609  31.384  27.246  1.00  0.00    -0.458 OA
BRANCH  19  20
ATOM     20  C   UNL A   1      34.694  30.100  27.663  1.00  0.00     0.338 C 
ATOM     21  O   UNL A   1      33.836  29.239  27.607  1.00  0.00    -0.246 OA
BRANCH  20  22
ATOM     22  C   UNL A   1      36.067  29.837  28.107  1.00  0.00     0.060 A 
ATOM     23  C   UNL A   1      37.108  30.015  27.194  1.00  0.00     0.016 A 
ATOM     24  C   UNL A   1      36.313  29.346  29.387  1.00  0.00     0.016 A 
ATOM     25  C   UNL A   1      38.409  29.673  27.543  1.00  0.00     0.010 A 
ATOM     26  C   UNL A   1      37.623  29.031  29.747  1.00  0.00     0.010 A 
ATOM     27  C   UNL A   1      38.674  29.178  28.822  1.00  0.00    -0.014 A 
BRANCH  27  28
ATOM     28  C   UNL A   1      40.044  28.771  29.202  1.00  0.00     0.031 A 
ATOM     29  C   UNL A   1      40.952  29.778  29.841  1.00  0.00     0.074 A 
ATOM     30  C   UNL A   1      40.472  27.524  28.936  1.00  0.00     0.049 A 
ATOM     31  N   UNL A   1      42.243  29.719  30.032  1.00  0.00    -0.248 NA
ATOM     32  C   UNL A   1      40.325  31.021  30.318  1.00  0.00     0.031 C 
ATOM     33  C   UNL A   1      39.650  26.444  28.386  1.00  0.00     0.029 A 
ATOM     34  N   UNL A   1      41.715  26.963  29.072  1.00  0.00    -0.354 N 
ATOM     35  C   UNL A   1      42.592  30.934  30.607  1.00  0.00     0.074 A 
ATOM     36  C   UNL A   1      41.377  31.709  30.739  1.00  0.00     0.031 C 
ATOM     37  C   UNL A   1      40.416  25.354  28.217  1.00  0.00     0.029 A 
ATOM     38  C   UNL A   1      41.792  25.681  28.578  1.00  0.00     0.049 A 
ATOM     39  H   UNL A   1      42.478  27.430  29.482  1.00  0.00     0.167 HD
ATOM     40  C   UNL A   1      43.821  31.363  30.977  1.00  0.00     0.031 A 
ATOM     41  C   UNL A   1      42.859  24.884  28.386  1.00  0.00     0.031 A 
ATOM     42  C   UNL A   1      45.014  30.570  30.841  1.00  0.00     0.049 A 
ATOM     43  C   UNL A   1      44.224  25.403  28.742  1.00  0.00     0.074 A 
ATOM     44  C   UNL A   1      46.313  30.905  31.176  1.00  0.00     0.029 A 
ATOM     45  N   UNL A   1      45.049  29.279  30.334  1.00  0.00    -0.354 N 
ATOM     46  N   UNL A   1      44.553  26.569  29.246  1.00  0.00    -0.248 NA
ATOM     47  C   UNL A   1      45.362  24.509  28.496  1.00  0.00     0.031 C 
ATOM     48  C   UNL A   1      47.141  29.829  30.834  1.00  0.00     0.029 A 
ATOM     49  C   UNL A   1      46.348  28.807  30.334  1.00  0.00     0.049 A 
ATOM     50  H   UNL A   1      44.264  28.774  30.020  1.00  0.00     0.167 HD
ATOM     51  C   UNL A   1      45.933  26.539  29.403  1.00  0.00     0.074 A 
ATOM     52  C   UNL A   1      46.377  25.239  28.943  1.00  0.00     0.031 C 
ATOM     53  C   UNL A   1      46.758  27.499  29.888  1.00  0.00     0.031 A 
BRANCH  40  54
ATOM     54  C   UNL A   1      43.940  32.765  31.507  1.00  0.00    -0.014 A 
ATOM     55  C   UNL A   1      44.079  33.867  30.646  1.00  0.00     0.010 A 
ATOM     56  C   UNL A   1      43.887  32.985  32.897  1.00  0.00     0.010 A 
ATOM     57  C   UNL A   1      44.202  35.159  31.165  1.00  0.00     0.020 A 
ATOM     58  C   UNL A   1      43.986  34.277  33.419  1.00  0.00     0.020 A 
ATOM     59  C   UNL A   1      44.161  35.355  32.550  1.00  0.00     0.054 A 
BRANCH  59  60
ATOM     60  S   UNL A   1      44.310  37.042  33.198  1.00  0.00     0.124 S 
ATOM     61  O   UNL A   1      43.381  37.015  34.325  1.00  0.00    -0.237 OA
ATOM     62  O   UNL A   1      45.724  37.129  33.552  1.00  0.00    -0.237 OA
ATOM     63  O   UNL A   1      43.900  37.883  32.074  1.00  0.00    -0.744 OA
ENDBRANCH  59  60
ENDBRANCH  40  54
BRANCH  41  64
ATOM     64  C   UNL A   1      42.676  23.536  27.783  1.00  0.00    -0.014 A 
ATOM     65  C   UNL A   1      42.903  23.330  26.412  1.00  0.00     0.010 A 
ATOM     66  C   UNL A   1      42.304  22.442  28.587  1.00  0.00     0.010 A 
ATOM     67  C   UNL A   1      42.754  22.056  25.854  1.00  0.00     0.020 A 
ATOM     68  C   UNL A   1      42.179  21.163  28.038  1.00  0.00     0.020 A 
ATOM     69  C   UNL A   1      42.396  20.980  26.672  1.00  0.00     0.054 A 
BRANCH  69  70
ATOM     70  S   UNL A   1      42.269  19.325  25.939  1.00  0.00     0.124 S 
ATOM     71  O   UNL A   1      43.142  19.440  24.776  1.00  0.00    -0.237 OA
ATOM     72  O   UNL A   1      42.758  18.464  27.014  1.00  0.00    -0.237 OA
ATOM     73  O   UNL A   1      40.844  19.190  25.644  1.00  0.00    -0.744 OA
ENDBRANCH  69  70
ENDBRANCH  41  64
BRANCH  53  74
ATOM     74  C   UNL A   1      48.219  27.166  30.003  1.00  0.00    -0.014 A 
ATOM     75  C   UNL A   1      49.146  27.631  29.054  1.00  0.00     0.010 A 
ATOM     76  C   UNL A   1      48.677  26.472  31.136  1.00  0.00     0.010 A 
ATOM     77  C   UNL A   1      50.511  27.400  29.239  1.00  0.00     0.020 A 
ATOM     78  C   UNL A   1      50.042  26.258  31.333  1.00  0.00     0.020 A 
ATOM     79  C   UNL A   1      50.951  26.721  30.380  1.00  0.00     0.054 A 
BRANCH  79  80
ATOM     80  S   UNL A   1      52.734  26.515  30.644  1.00  0.00     0.124 S 
ATOM     81  O   UNL A   1      52.778  25.364  31.542  1.00  0.00    -0.237 OA
ATOM     82  O   UNL A   1      53.233  26.277  29.291  1.00  0.00    -0.237 OA
ATOM     83  O   UNL A   1      53.145  27.786  31.238  1.00  0.00    -0.744 OA
ENDBRANCH  79  80
ENDBRANCH  53  74
ENDBRANCH  27  28
ENDBRANCH  20  22
ENDBRANCH  19  20
ENDBRANCH   1  19
TORSDOF 16
ENDMDL
MODEL 2
REMARK VINA RESULT:      -9.0      4.009      6.351
REMARK SMILES C[C@H]1[C@H](C(=O)OCCOC(=O)c2ccc(-c3c4nc(c(-c5ccc(S(=O)(=O)[O-])cc5)c5ccc([nH]5)c(-c5ccc(S(=O)(=O)[O-])cc5)c5nc(c(-c6ccc(S(=O)(=O)[O-])cc6)c6ccc3[nH]6)C=C5)C=C4)cc2)CC[N@@H+]1Cc1cscn1
REMARK SMILES IDX 8 1 7 2 6 3 4 4 5 5 3 6 1 7 2 8 74 9 72 10 73 11 75 13 76 14
REMARK SMILES IDX 77 15 80 16 78 17 79 18 9 19 10 20 11 21 12 22 13 23 71 24
REMARK SMILES IDX 14 25 70 26 15 27 16 28 17 29 64 30 18 31 69 32 63 33 65 34
REMARK SMILES IDX 19 35 68 36 62 37 61 38 20 40 50 41 31 42 49 43 32 44 35 45
REMARK SMILES IDX 48 46 66 47 33 48 34 49 47 51 67 52 36 53 21 54 22 55 30 56
REMARK SMILES IDX 23 57 29 58 24 59 25 60 26 61 27 62 28 63 51 64 52 65 60 66
REMARK SMILES IDX 53 67 59 68 54 69 55 70 56 71 57 72 58 73 37 74 38 75 46 76
REMARK SMILES IDX 39 77 45 78 40 79 41 80 42 81 43 82 44 83
REMARK H PARENT 74 12 65 39 35 50
REMARK Flexibility Score: inf
ROOT
ATOM      1  C   UNL A   1      34.267  30.707  27.476  1.00  0.00     0.275 C 
ENDROOT
BRANCH   1   2
ATOM      2  C   UNL A   1      33.742  29.425  26.831  1.00  0.00     0.274 C 
BRANCH   2   3
ATOM      3  O   UNL A   1      32.603  28.929  27.560  1.00  0.00    -0.462 OA
BRANCH   3   4
ATOM      4  C   UNL A   1      31.857  27.966  26.972  1.00  0.00     0.315 C 
ATOM      5  O   UNL A   1      30.973  27.333  27.540  1.00  0.00    -0.252 OA
BRANCH   4   6
ATOM      6  C   UNL A   1      32.198  27.720  25.514  1.00  0.00     0.162 C 
ATOM      7  C   UNL A   1      33.982  26.223  24.537  1.00  0.00     0.076 C 
ATOM      8  C   UNL A   1      32.553  26.284  25.099  1.00  0.00     0.195 C 
ATOM      9  N   UNL A   1      31.634  25.933  24.002  1.00  0.00    -0.327 N 
ATOM     10  C   UNL A   1      31.039  28.149  24.626  1.00  0.00     0.083 C 
ATOM     11  C   UNL A   1      31.045  27.159  23.481  1.00  0.00     0.263 C 
ATOM     12  H   UNL A   1      32.167  25.505  23.244  1.00  0.00     0.348 HD
BRANCH   9  13
ATOM     13  C   UNL A   1      30.706  24.836  24.296  1.00  0.00     0.320 C 
BRANCH  13  14
ATOM     14  C   UNL A   1      31.312  23.459  24.351  1.00  0.00     0.105 A 
ATOM     15  C   UNL A   1      31.383  22.617  25.449  1.00  0.00     0.096 A 
ATOM     16  N   UNL A   1      31.800  22.898  23.175  1.00  0.00    -0.244 NA
ATOM     17  S   UNL A   1      32.145  21.142  25.027  1.00  0.00    -0.130 S 
ATOM     18  C   UNL A   1      32.266  21.693  23.411  1.00  0.00     0.176 A 
ENDBRANCH  13  14
ENDBRANCH   9  13
ENDBRANCH   4   6
ENDBRANCH   3   4
ENDBRANCH   2   3
ENDBRANCH   1   2
BRANCH   1  19
ATOM     19  O   UNL A   1      35.703  30.700  27.529  1.00  0.00    -0.458 OA
BRANCH  19  20
ATOM     20  C   UNL A   1      36.224  30.587  28.771  1.00  0.00     0.338 C 
ATOM     21  O   UNL A   1      35.676  30.814  29.834  1.00  0.00    -0.246 OA
BRANCH  20  22
ATOM     22  C   UNL A   1      37.569  30.011  28.671  1.00  0.00     0.060 A 
ATOM     23  C   UNL A   1      38.275  29.756  29.849  1.00  0.00     0.016 A 
ATOM     24  C   UNL A   1      38.155  29.800  27.426  1.00  0.00     0.016 A 
ATOM     25  C   UNL A   1      39.590  29.314  29.794  1.00  0.00     0.010 A 
ATOM     26  C   UNL A   1      39.466  29.326  27.371  1.00  0.00     0.010 A 
ATOM     27  C   UNL A   1      40.194  29.096  28.554  1.00  0.00    -0.014 A 
BRANCH  27  28
ATOM     28  C   UNL A   1      41.606  28.663  28.470  1.00  0.00     0.031 A 
ATOM     29  C   UNL A   1      42.691  29.689  28.594  1.00  0.00     0.074 A 
ATOM     30  C   UNL A   1      41.898  27.369  28.244  1.00  0.00     0.049 A 
ATOM     31  N   UNL A   1      43.963  29.581  28.316  1.00  0.00    -0.248 NA
ATOM     32  C   UNL A   1      42.289  31.016  29.087  1.00  0.00     0.031 C 
ATOM     33  C   UNL A   1      40.925  26.277  28.182  1.00  0.00     0.029 A 
ATOM     34  N   UNL A   1      43.102  26.760  28.002  1.00  0.00    -0.354 N 
ATOM     35  C   UNL A   1      44.506  30.838  28.553  1.00  0.00     0.074 A 
ATOM     36  C   UNL A   1      43.428  31.691  29.003  1.00  0.00     0.031 C 
ATOM     37  C   UNL A   1      41.570  25.132  27.903  1.00  0.00     0.029 A 
ATOM     38  C   UNL A   1      42.985  25.424  27.697  1.00  0.00     0.049 A 
ATOM     39  H   UNL A   1      43.966  27.231  28.042  1.00  0.00     0.167 HD
ATOM     40  C   UNL A   1      45.788  31.238  28.394  1.00  0.00     0.031 A 
ATOM     41  C   UNL A   1      43.904  24.549  27.248  1.00  0.00     0.031 A 
ATOM     42  C   UNL A   1      46.845  30.368  27.951  1.00  0.00     0.049 A 
ATOM     43  C   UNL A   1      45.309  25.030  27.015  1.00  0.00     0.074 A 
ATOM     44  C   UNL A   1      48.180  30.668  27.748  1.00  0.00     0.029 A 
ATOM     45  N   UNL A   1      46.684  29.023  27.649  1.00  0.00    -0.354 N 
ATOM     46  N   UNL A   1      45.806  26.230  27.200  1.00  0.00    -0.248 NA
ATOM     47  C   UNL A   1      46.274  24.048  26.504  1.00  0.00     0.031 C 
ATOM     48  C   UNL A   1      48.818  29.512  27.285  1.00  0.00     0.029 A 
ATOM     49  C   UNL A   1      47.890  28.481  27.250  1.00  0.00     0.049 A 
ATOM     50  H   UNL A   1      45.834  28.528  27.711  1.00  0.00     0.167 HD
ATOM     51  C   UNL A   1      47.149  26.141  26.855  1.00  0.00     0.074 A 
ATOM     52  C   UNL A   1      47.387  24.770  26.451  1.00  0.00     0.031 C 
ATOM     53  C   UNL A   1      48.101  27.106  26.873  1.00  0.00     0.031 A 
BRANCH  40  54
ATOM     54  C   UNL A   1      46.102  32.688  28.646  1.00  0.00    -0.014 A 
ATOM     55  C   UNL A   1      46.520  33.139  29.909  1.00  0.00     0.010 A 
ATOM     56  C   UNL A   1      46.001  33.611  27.588  1.00  0.00     0.010 A 
ATOM     57  C   UNL A   1      46.793  34.494  30.121  1.00  0.00     0.020 A 
ATOM     58  C   UNL A   1      46.295  34.962  27.790  1.00  0.00     0.020 A 
ATOM     59  C   UNL A   1      46.672  35.398  29.061  1.00  0.00     0.054 A 
BRANCH  59  60
ATOM     60  S   UNL A   1      47.043  37.148  29.358  1.00  0.00     0.124 S 
ATOM     61  O   UNL A   1      46.876  37.722  28.025  1.00  0.00    -0.237 OA
ATOM     62  O   UNL A   1      46.031  37.531  30.338  1.00  0.00    -0.237 OA
ATOM     63  O   UNL A   1      48.416  37.131  29.861  1.00  0.00    -0.744 OA
ENDBRANCH  59  60
ENDBRANCH  40  54
BRANCH  41  64
ATOM     64  C   UNL A   1      43.505  23.148  26.944  1.00  0.00    -0.014 A 
ATOM     65  C   UNL A   1      43.819  22.569  25.704  1.00  0.00     0.010 A 
ATOM     66  C   UNL A   1      42.834  22.374  27.911  1.00  0.00     0.010 A 
ATOM     67  C   UNL A   1      43.464  21.243  25.431  1.00  0.00     0.020 A 
ATOM     68  C   UNL A   1      42.501  21.042  27.652  1.00  0.00     0.020 A 
ATOM     69  C   UNL A   1      42.810  20.487  26.409  1.00  0.00     0.054 A 
BRANCH  69  70
ATOM     70  S   UNL A   1      42.413  18.752  26.058  1.00  0.00     0.124 S 
ATOM     71  O   UNL A   1      43.344  18.441  24.978  1.00  0.00    -0.237 OA
ATOM     72  O   UNL A   1      42.687  18.100  27.337  1.00  0.00    -0.237 OA
ATOM     73  O   UNL A   1      41.003  18.794  25.679  1.00  0.00    -0.744 OA
ENDBRANCH  69  70
ENDBRANCH  41  64
BRANCH  53  74
ATOM     74  C   UNL A   1      49.501  26.708  26.501  1.00  0.00    -0.014 A 
ATOM     75  C   UNL A   1      50.322  26.012  27.404  1.00  0.00     0.010 A 
ATOM     76  C   UNL A   1      49.956  26.941  25.191  1.00  0.00     0.010 A 
ATOM     77  C   UNL A   1      51.581  25.559  27.001  1.00  0.00     0.020 A 
ATOM     78  C   UNL A   1      51.204  26.471  24.779  1.00  0.00     0.020 A 
ATOM     79  C   UNL A   1      52.011  25.785  25.688  1.00  0.00     0.054 A 
BRANCH  79  80
ATOM     80  S   UNL A   1      53.608  25.106  25.161  1.00  0.00     0.124 S 
ATOM     81  O   UNL A   1      53.417  23.675  25.380  1.00  0.00    -0.237 OA
ATOM     82  O   UNL A   1      53.689  25.524  23.763  1.00  0.00    -0.237 OA
ATOM     83  O   UNL A   1      54.569  25.751  26.053  1.00  0.00    -0.744 OA
ENDBRANCH  79  80
ENDBRANCH  53  74
ENDBRANCH  27  28
ENDBRANCH  20  22
ENDBRANCH  19  20
ENDBRANCH   1  19
TORSDOF 16
ENDMDL
MODEL 3
REMARK VINA RESULT:      -9.0      3.006      8.765
REMARK SMILES C[C@H]1[C@H](C(=O)OCCOC(=O)c2ccc(-c3c4nc(c(-c5ccc(S(=O)(=O)[O-])cc5)c5ccc([nH]5)c(-c5ccc(S(=O)(=O)[O-])cc5)c5nc(c(-c6ccc(S(=O)(=O)[O-])cc6)c6ccc3[nH]6)C=C5)C=C4)cc2)CC[N@@H+]1Cc1cscn1
REMARK SMILES IDX 8 1 7 2 6 3 4 4 5 5 3 6 1 7 2 8 74 9 72 10 73 11 75 13 76 14
REMARK SMILES IDX 77 15 80 16 78 17 79 18 9 19 10 20 11 21 12 22 13 23 71 24
REMARK SMILES IDX 14 25 70 26 15 27 16 28 17 29 64 30 18 31 69 32 63 33 65 34
REMARK SMILES IDX 19 35 68 36 62 37 61 38 20 40 50 41 31 42 49 43 32 44 35 45
REMARK SMILES IDX 48 46 66 47 33 48 34 49 47 51 67 52 36 53 21 54 22 55 30 56
REMARK SMILES IDX 23 57 29 58 24 59 25 60 26 61 27 62 28 63 51 64 52 65 60 66
REMARK SMILES IDX 53 67 59 68 54 69 55 70 56 71 57 72 58 73 37 74 38 75 46 76
REMARK SMILES IDX 39 77 45 78 40 79 41 80 42 81 43 82 44 83
REMARK H PARENT 74 12 65 39 35 50
REMARK Flexibility Score: inf
ROOT
ATOM      1  C   UNL A   1      33.407  31.790  27.651  1.00  0.00     0.275 C 
ENDROOT
BRANCH   1   2
ATOM      2  C   UNL A   1      33.695  33.091  28.400  1.00  0.00     0.274 C 
BRANCH   2   3
ATOM      3  O   UNL A   1      34.480  32.826  29.577  1.00  0.00    -0.462 OA
BRANCH   3   4
ATOM      4  C   UNL A   1      35.684  33.435  29.674  1.00  0.00     0.315 C 
ATOM      5  O   UNL A   1      36.146  34.192  28.826  1.00  0.00    -0.252 OA
BRANCH   4   6
ATOM      6  C   UNL A   1      36.445  33.108  30.946  1.00  0.00     0.162 C 
ATOM      7  C   UNL A   1      38.037  34.566  32.256  1.00  0.00     0.076 C 
ATOM      8  C   UNL A   1      36.562  34.212  32.007  1.00  0.00     0.195 C 
ATOM      9  N   UNL A   1      36.031  33.640  33.257  1.00  0.00    -0.327 N 
ATOM     10  C   UNL A   1      35.813  31.911  31.641  1.00  0.00     0.083 C 
ATOM     11  C   UNL A   1      35.979  32.192  33.118  1.00  0.00     0.263 C 
ATOM     12  H   UNL A   1      36.675  33.850  34.021  1.00  0.00     0.348 HD
BRANCH   9  13
ATOM     13  C   UNL A   1      34.822  34.291  33.773  1.00  0.00     0.320 C 
BRANCH  13  14
ATOM     14  C   UNL A   1      34.262  35.403  32.928  1.00  0.00     0.105 A 
ATOM     15  C   UNL A   1      33.448  35.282  31.814  1.00  0.00     0.096 A 
ATOM     16  N   UNL A   1      34.501  36.719  33.315  1.00  0.00    -0.244 NA
ATOM     17  S   UNL A   1      33.045  36.827  31.192  1.00  0.00    -0.130 S 
ATOM     18  C   UNL A   1      33.919  37.547  32.476  1.00  0.00     0.176 A 
ENDBRANCH  13  14
ENDBRANCH   9  13
ENDBRANCH   4   6
ENDBRANCH   3   4
ENDBRANCH   2   3
ENDBRANCH   1   2
BRANCH   1  19
ATOM     19  O   UNL A   1      34.629  31.175  27.209  1.00  0.00    -0.458 OA
BRANCH  19  20
ATOM     20  C   UNL A   1      34.812  29.906  27.639  1.00  0.00     0.338 C 
ATOM     21  O   UNL A   1      34.118  28.933  27.409  1.00  0.00    -0.246 OA
BRANCH  20  22
ATOM     22  C   UNL A   1      36.087  29.830  28.360  1.00  0.00     0.060 A 
ATOM     23  C   UNL A   1      37.217  30.406  27.777  1.00  0.00     0.016 A 
ATOM     24  C   UNL A   1      36.179  29.130  29.560  1.00  0.00     0.016 A 
ATOM     25  C   UNL A   1      38.462  30.261  28.375  1.00  0.00     0.010 A 
ATOM     26  C   UNL A   1      37.424  29.010  30.176  1.00  0.00     0.010 A 
ATOM     27  C   UNL A   1      38.573  29.562  29.579  1.00  0.00    -0.014 A 
BRANCH  27  28
ATOM     28  C   UNL A   1      39.894  29.361  30.214  1.00  0.00     0.031 A 
ATOM     29  C   UNL A   1      40.800  28.289  29.688  1.00  0.00     0.074 A 
ATOM     30  C   UNL A   1      40.250  30.110  31.273  1.00  0.00     0.049 A 
ATOM     31  N   UNL A   1      41.875  27.781  30.228  1.00  0.00    -0.248 NA
ATOM     32  C   UNL A   1      40.439  27.702  28.387  1.00  0.00     0.031 C 
ATOM     33  C   UNL A   1      39.479  31.229  31.820  1.00  0.00     0.029 A 
ATOM     34  N   UNL A   1      41.344  30.024  32.095  1.00  0.00    -0.354 N 
ATOM     35  C   UNL A   1      42.295  26.782  29.358  1.00  0.00     0.074 A 
ATOM     36  C   UNL A   1      41.362  26.759  28.253  1.00  0.00     0.031 C 
ATOM     37  C   UNL A   1      40.118  31.716  32.896  1.00  0.00     0.029 A 
ATOM     38  C   UNL A   1      41.300  30.899  33.155  1.00  0.00     0.049 A 
ATOM     39  H   UNL A   1      42.088  29.397  31.942  1.00  0.00     0.167 HD
ATOM     40  C   UNL A   1      43.358  25.955  29.485  1.00  0.00     0.031 A 
ATOM     41  C   UNL A   1      42.090  30.993  34.240  1.00  0.00     0.031 A 
ATOM     42  C   UNL A   1      44.276  26.002  30.591  1.00  0.00     0.049 A 
ATOM     43  C   UNL A   1      43.227  30.022  34.395  1.00  0.00     0.074 A 
ATOM     44  C   UNL A   1      45.384  25.208  30.826  1.00  0.00     0.029 A 
ATOM     45  N   UNL A   1      44.194  26.901  31.645  1.00  0.00    -0.354 N 
ATOM     46  N   UNL A   1      43.593  29.052  33.590  1.00  0.00    -0.248 NA
ATOM     47  C   UNL A   1      44.050  30.146  35.605  1.00  0.00     0.031 C 
ATOM     48  C   UNL A   1      45.949  25.602  32.044  1.00  0.00     0.029 A 
ATOM     49  C   UNL A   1      45.222  26.675  32.540  1.00  0.00     0.049 A 
ATOM     50  H   UNL A   1      43.504  27.598  31.741  1.00  0.00     0.167 HD
ATOM     51  C   UNL A   1      44.706  28.468  34.182  1.00  0.00     0.074 A 
ATOM     52  C   UNL A   1      44.955  29.194  35.411  1.00  0.00     0.031 C 
ATOM     53  C   UNL A   1      45.457  27.428  33.747  1.00  0.00     0.031 A 
BRANCH  40  54
ATOM     54  C   UNL A   1      43.547  24.897  28.432  1.00  0.00    -0.014 A 
ATOM     55  C   UNL A   1      42.880  23.663  28.503  1.00  0.00     0.010 A 
ATOM     56  C   UNL A   1      44.392  25.157  27.337  1.00  0.00     0.010 A 
ATOM     57  C   UNL A   1      43.084  22.691  27.518  1.00  0.00     0.020 A 
ATOM     58  C   UNL A   1      44.581  24.198  26.338  1.00  0.00     0.020 A 
ATOM     59  C   UNL A   1      43.939  22.963  26.445  1.00  0.00     0.054 A 
BRANCH  59  60
ATOM     60  S   UNL A   1      44.178  21.691  25.174  1.00  0.00     0.124 S 
ATOM     61  O   UNL A   1      43.859  22.424  23.951  1.00  0.00    -0.237 OA
ATOM     62  O   UNL A   1      45.582  21.328  25.341  1.00  0.00    -0.237 OA
ATOM     63  O   UNL A   1      43.221  20.649  25.543  1.00  0.00    -0.744 OA
ENDBRANCH  59  60
ENDBRANCH  40  54
BRANCH  41  64
ATOM     64  C   UNL A   1      41.796  32.015  35.282  1.00  0.00    -0.014 A 
ATOM     65  C   UNL A   1      40.942  31.714  36.356  1.00  0.00     0.010 A 
ATOM     66  C   UNL A   1      42.398  33.286  35.221  1.00  0.00     0.010 A 
ATOM     67  C   UNL A   1      40.688  32.668  37.347  1.00  0.00     0.020 A 
ATOM     68  C   UNL A   1      42.167  34.232  36.223  1.00  0.00     0.020 A 
ATOM     69  C   UNL A   1      41.305  33.921  37.275  1.00  0.00     0.054 A 
BRANCH  69  70
ATOM     70  S   UNL A   1      41.011  35.122  38.603  1.00  0.00     0.124 S 
ATOM     71  O   UNL A   1      39.867  34.535  39.294  1.00  0.00    -0.237 OA
ATOM     72  O   UNL A   1      42.274  35.098  39.337  1.00  0.00    -0.237 OA
ATOM     73  O   UNL A   1      40.740  36.365  37.885  1.00  0.00    -0.744 OA
ENDBRANCH  69  70
ENDBRANCH  41  64
BRANCH  53  74
ATOM     74  C   UNL A   1      46.654  27.042  34.569  1.00  0.00    -0.014 A 
ATOM     75  C   UNL A   1      46.566  26.050  35.559  1.00  0.00     0.010 A 
ATOM     76  C   UNL A   1      47.905  27.608  34.265  1.00  0.00     0.010 A 
ATOM     77  C   UNL A   1      47.714  25.634  36.237  1.00  0.00     0.020 A 
ATOM     78  C   UNL A   1      49.057  27.179  34.926  1.00  0.00     0.020 A 
ATOM     79  C   UNL A   1      48.954  26.196  35.911  1.00  0.00     0.054 A 
BRANCH  79  80
ATOM     80  S   UNL A   1      50.443  25.572  36.739  1.00  0.00     0.124 S 
ATOM     81  O   UNL A   1      50.456  26.355  37.971  1.00  0.00    -0.237 OA
ATOM     82  O   UNL A   1      50.148  24.150  36.901  1.00  0.00    -0.237 OA
ATOM     83  O   UNL A   1      51.516  25.876  35.795  1.00  0.00    -0.744 OA
ENDBRANCH  79  80
ENDBRANCH  53  74
ENDBRANCH  27  28
ENDBRANCH  20  22
ENDBRANCH  19  20
ENDBRANCH   1  19
TORSDOF 16
ENDMDL
