MODEL 1
REMARK VINA RESULT:     -11.0      0.000      0.000
REMARK SMILES O=C(OCCOC(=O)[C@@H]1[C@H](C(=O)NCc2cccnc2)[C@H]2C=C[C@@H]1C2)c1ccc(-c2c3nc(c(-c4ccc(S(=O)(=O)[O-])cc4)c4ccc([nH]4)c(-c4ccc(S(=O)(=O)[O-])cc4)c4nc(c(-c5ccc(S(=O)(=O)[O-])cc5)c5ccc2[nH]5)C=C4)C=C3)cc1
REMARK SMILES IDX 4 1 3 2 2 3 1 4 26 5 27 6 85 7 28 8 84 9 29 10 30 11 31 12
REMARK SMILES IDX 78 13 32 14 83 15 77 16 79 17 33 18 82 19 76 20 75 21 34 23
REMARK SMILES IDX 64 24 45 25 63 26 46 27 49 28 62 29 80 30 47 31 48 32 61 34
REMARK SMILES IDX 81 35 50 36 35 37 36 38 44 39 37 40 43 41 38 42 39 43 40 44
REMARK SMILES IDX 41 45 42 46 65 47 66 48 74 49 67 50 73 51 68 52 69 53 70 54
REMARK SMILES IDX 71 55 72 56 51 57 52 58 60 59 53 60 59 61 54 62 55 63 56 64
REMARK SMILES IDX 57 65 58 66 5 67 6 68 7 69 8 70 9 71 10 72 24 73 21 74 23 75
REMARK SMILES IDX 25 76 22 77 11 78 12 79 13 80 14 82 15 83 16 84 20 85 17 86
REMARK SMILES IDX 19 87 18 88
REMARK H PARENT 79 22 49 33 13 81
REMARK Flexibility Score: inf
ROOT
ATOM      1  C   UNL A   1      35.994  23.131  25.716  1.00  0.00     0.275 C 
ENDROOT
BRANCH   1   2
ATOM      2  O   UNL A   1      37.383  23.045  25.345  1.00  0.00    -0.458 OA
BRANCH   2   3
ATOM      3  C   UNL A   1      38.527  23.038  26.063  1.00  0.00     0.338 C 
ATOM      4  O   UNL A   1      39.066  21.946  26.252  1.00  0.00    -0.246 OA
BRANCH   3   5
ATOM      5  C   UNL A   1      39.177  24.235  26.709  1.00  0.00     0.060 A 
ATOM      6  C   UNL A   1      40.027  25.156  26.104  1.00  0.00     0.016 A 
ATOM      7  C   UNL A   1      38.885  24.457  28.068  1.00  0.00     0.016 A 
ATOM      8  C   UNL A   1      40.459  26.319  26.777  1.00  0.00     0.010 A 
ATOM      9  C   UNL A   1      39.290  25.630  28.731  1.00  0.00     0.010 A 
ATOM     10  C   UNL A   1      40.033  26.618  28.065  1.00  0.00    -0.014 A 
BRANCH  10  11
ATOM     11  C   UNL A   1      40.439  27.889  28.739  1.00  0.00     0.031 A 
ATOM     12  C   UNL A   1      41.762  27.888  29.423  1.00  0.00     0.074 A 
ATOM     13  C   UNL A   1      39.720  29.040  28.737  1.00  0.00     0.049 A 
ATOM     14  N   UNL A   1      42.321  28.843  30.111  1.00  0.00    -0.248 NA
ATOM     15  C   UNL A   1      42.585  26.678  29.257  1.00  0.00     0.031 C 
ATOM     16  C   UNL A   1      38.530  29.298  27.947  1.00  0.00     0.029 A 
ATOM     17  N   UNL A   1      39.853  30.216  29.446  1.00  0.00    -0.354 N 
ATOM     18  C   UNL A   1      43.592  28.381  30.389  1.00  0.00     0.074 A 
ATOM     19  C   UNL A   1      43.679  27.018  29.913  1.00  0.00     0.031 C 
ATOM     20  C   UNL A   1      37.948  30.450  28.311  1.00  0.00     0.029 A 
ATOM     21  C   UNL A   1      38.760  31.061  29.340  1.00  0.00     0.049 A 
ATOM     22  H   UNL A   1      40.652  30.434  29.979  1.00  0.00     0.167 HD
ATOM     23  C   UNL A   1      44.626  29.065  30.918  1.00  0.00     0.031 A 
ATOM     24  C   UNL A   1      38.436  32.203  29.983  1.00  0.00     0.031 A 
ATOM     25  C   UNL A   1      44.530  30.399  31.430  1.00  0.00     0.049 A 
ATOM     26  C   UNL A   1      39.503  32.828  30.829  1.00  0.00     0.074 A 
ATOM     27  C   UNL A   1      45.507  31.152  32.049  1.00  0.00     0.029 A 
ATOM     28  N   UNL A   1      43.379  31.175  31.398  1.00  0.00    -0.354 N 
ATOM     29  N   UNL A   1      40.714  32.383  31.059  1.00  0.00    -0.248 NA
ATOM     30  C   UNL A   1      39.211  34.139  31.420  1.00  0.00     0.031 C 
ATOM     31  C   UNL A   1      44.931  32.361  32.449  1.00  0.00     0.029 A 
ATOM     32  C   UNL A   1      43.612  32.388  32.022  1.00  0.00     0.049 A 
ATOM     33  H   UNL A   1      42.524  30.903  30.993  1.00  0.00     0.167 HD
ATOM     34  C   UNL A   1      41.359  33.397  31.749  1.00  0.00     0.074 A 
ATOM     35  C   UNL A   1      40.397  34.471  31.911  1.00  0.00     0.031 C 
ATOM     36  C   UNL A   1      42.642  33.442  32.179  1.00  0.00     0.031 A 
BRANCH  23  37
ATOM     37  C   UNL A   1      45.931  28.335  30.950  1.00  0.00    -0.014 A 
ATOM     38  C   UNL A   1      46.316  27.626  32.105  1.00  0.00     0.010 A 
ATOM     39  C   UNL A   1      46.812  28.430  29.864  1.00  0.00     0.010 A 
ATOM     40  C   UNL A   1      47.585  27.058  32.187  1.00  0.00     0.020 A 
ATOM     41  C   UNL A   1      48.073  27.838  29.933  1.00  0.00     0.020 A 
ATOM     42  C   UNL A   1      48.456  27.171  31.100  1.00  0.00     0.054 A 
BRANCH  42  43
ATOM     43  S   UNL A   1      50.099  26.419  31.232  1.00  0.00     0.124 S 
ATOM     44  O   UNL A   1      50.587  26.521  29.859  1.00  0.00    -0.237 OA
ATOM     45  O   UNL A   1      50.765  27.285  32.202  1.00  0.00    -0.237 OA
ATOM     46  O   UNL A   1      49.822  25.062  31.697  1.00  0.00    -0.744 OA
ENDBRANCH  42  43
ENDBRANCH  23  37
BRANCH  24  47
ATOM     47  C   UNL A   1      37.094  32.852  29.836  1.00  0.00    -0.014 A 
ATOM     48  C   UNL A   1      36.794  33.679  28.737  1.00  0.00     0.010 A 
ATOM     49  C   UNL A   1      36.129  32.716  30.854  1.00  0.00     0.010 A 
ATOM     50  C   UNL A   1      35.589  34.396  28.686  1.00  0.00     0.020 A 
ATOM     51  C   UNL A   1      34.913  33.413  30.796  1.00  0.00     0.020 A 
ATOM     52  C   UNL A   1      34.661  34.268  29.721  1.00  0.00     0.054 A 
BRANCH  52  53
ATOM     53  S   UNL A   1      33.123  35.238  29.645  1.00  0.00     0.124 S 
ATOM     54  O   UNL A   1      32.535  34.980  30.956  1.00  0.00    -0.237 OA
ATOM     55  O   UNL A   1      33.621  36.595  29.431  1.00  0.00    -0.237 OA
ATOM     56  O   UNL A   1      32.406  34.656  28.513  1.00  0.00    -0.744 OA
ENDBRANCH  52  53
ENDBRANCH  24  47
BRANCH  36  57
ATOM     57  C   UNL A   1      43.092  34.715  32.832  1.00  0.00    -0.014 A 
ATOM     58  C   UNL A   1      43.641  35.765  32.080  1.00  0.00     0.010 A 
ATOM     59  C   UNL A   1      42.924  34.870  34.221  1.00  0.00     0.010 A 
ATOM     60  C   UNL A   1      44.051  36.940  32.712  1.00  0.00     0.020 A 
ATOM     61  C   UNL A   1      43.296  36.057  34.849  1.00  0.00     0.020 A 
ATOM     62  C   UNL A   1      43.872  37.078  34.092  1.00  0.00     0.054 A 
BRANCH  62  63
ATOM     63  S   UNL A   1      44.365  38.633  34.879  1.00  0.00     0.124 S 
ATOM     64  O   UNL A   1      45.764  38.745  34.477  1.00  0.00    -0.237 OA
ATOM     65  O   UNL A   1      43.454  39.601  34.271  1.00  0.00    -0.237 OA
ATOM     66  O   UNL A   1      44.142  38.386  36.301  1.00  0.00    -0.744 OA
ENDBRANCH  62  63
ENDBRANCH  36  57
ENDBRANCH  10  11
ENDBRANCH   3   5
ENDBRANCH   2   3
ENDBRANCH   1   2
BRANCH   1  67
ATOM     67  C   UNL A   1      35.233  24.211  24.960  1.00  0.00     0.274 C 
BRANCH  67  68
ATOM     68  O   UNL A   1      34.370  24.985  25.806  1.00  0.00    -0.462 OA
BRANCH  68  69
ATOM     69  C   UNL A   1      33.792  26.043  25.178  1.00  0.00     0.310 C 
ATOM     70  O   UNL A   1      33.566  26.102  23.979  1.00  0.00    -0.252 OA
BRANCH  69  71
ATOM     71  C   UNL A   1      33.435  27.176  26.098  1.00  0.00     0.119 C 
ATOM     72  C   UNL A   1      31.930  27.471  26.347  1.00  0.00     0.100 C 
ATOM     73  C   UNL A   1      34.025  28.548  25.703  1.00  0.00     0.027 C 
ATOM     74  C   UNL A   1      31.879  29.001  26.221  1.00  0.00     0.025 C 
ATOM     75  C   UNL A   1      34.056  29.433  26.922  1.00  0.00    -0.027 C 
ATOM     76  C   UNL A   1      32.825  29.216  25.056  1.00  0.00     0.017 C 
ATOM     77  C   UNL A   1      32.778  29.682  27.255  1.00  0.00    -0.027 C 
BRANCH  72  78
ATOM     78  C   UNL A   1      30.848  26.559  25.711  1.00  0.00     0.224 C 
ATOM     79  O   UNL A   1      30.357  25.704  26.475  1.00  0.00    -0.275 OA
ATOM     80  N   UNL A   1      30.333  26.443  24.467  1.00  0.00    -0.352 N 
ATOM     81  H   UNL A   1      29.699  25.690  24.447  1.00  0.00     0.163 HD
BRANCH  80  82
ATOM     82  C   UNL A   1      30.396  27.058  23.141  1.00  0.00     0.153 C 
BRANCH  82  83
ATOM     83  C   UNL A   1      29.501  28.269  22.910  1.00  0.00    -0.010 A 
ATOM     84  C   UNL A   1      28.110  28.169  23.083  1.00  0.00     0.009 A 
ATOM     85  C   UNL A   1      29.961  29.536  22.585  1.00  0.00     0.116 A 
ATOM     86  C   UNL A   1      27.301  29.302  23.153  1.00  0.00     0.020 A 
ATOM     87  N   UNL A   1      29.197  30.662  22.612  1.00  0.00    -0.264 NA
ATOM     88  C   UNL A   1      27.894  30.526  22.933  1.00  0.00     0.111 A 
ENDBRANCH  82  83
ENDBRANCH  80  82
ENDBRANCH  72  78
ENDBRANCH  69  71
ENDBRANCH  68  69
ENDBRANCH  67  68
ENDBRANCH   1  67
TORSDOF 17
ENDMDL
MODEL 2
REMARK VINA RESULT:     -10.9      3.167      9.722
REMARK SMILES O=C(OCCOC(=O)[C@@H]1[C@H](C(=O)NCc2cccnc2)[C@H]2C=C[C@@H]1C2)c1ccc(-c2c3nc(c(-c4ccc(S(=O)(=O)[O-])cc4)c4ccc([nH]4)c(-c4ccc(S(=O)(=O)[O-])cc4)c4nc(c(-c5ccc(S(=O)(=O)[O-])cc5)c5ccc2[nH]5)C=C4)C=C3)cc1
REMARK SMILES IDX 4 1 3 2 2 3 1 4 26 5 27 6 85 7 28 8 84 9 29 10 30 11 31 12
REMARK SMILES IDX 78 13 32 14 83 15 77 16 79 17 33 18 82 19 76 20 75 21 34 23
REMARK SMILES IDX 64 24 45 25 63 26 46 27 49 28 62 29 80 30 47 31 48 32 61 34
REMARK SMILES IDX 81 35 50 36 35 37 36 38 44 39 37 40 43 41 38 42 39 43 40 44
REMARK SMILES IDX 41 45 42 46 65 47 66 48 74 49 67 50 73 51 68 52 69 53 70 54
REMARK SMILES IDX 71 55 72 56 51 57 52 58 60 59 53 60 59 61 54 62 55 63 56 64
REMARK SMILES IDX 57 65 58 66 5 67 6 68 7 69 8 70 9 71 10 72 24 73 21 74 23 75
REMARK SMILES IDX 25 76 22 77 11 78 12 79 13 80 14 82 15 83 16 84 20 85 17 86
REMARK SMILES IDX 19 87 18 88
REMARK H PARENT 79 22 49 33 13 81
REMARK Flexibility Score: inf
ROOT
ATOM      1  C   UNL A   1      33.199  28.495  25.837  1.00  0.00     0.275 C 
ENDROOT
BRANCH   1   2
ATOM      2  O   UNL A   1      33.397  29.124  27.117  1.00  0.00    -0.458 OA
BRANCH   2   3
ATOM      3  C   UNL A   1      34.262  30.066  27.556  1.00  0.00     0.338 C 
ATOM      4  O   UNL A   1      33.893  31.240  27.497  1.00  0.00    -0.246 OA
BRANCH   3   5
ATOM      5  C   UNL A   1      35.663  29.819  28.055  1.00  0.00     0.060 A 
ATOM      6  C   UNL A   1      36.045  29.491  29.352  1.00  0.00     0.016 A 
ATOM      7  C   UNL A   1      36.699  29.918  27.107  1.00  0.00     0.016 A 
ATOM      8  C   UNL A   1      37.377  29.143  29.666  1.00  0.00     0.010 A 
ATOM      9  C   UNL A   1      38.020  29.543  27.412  1.00  0.00     0.010 A 
ATOM     10  C   UNL A   1      38.364  29.081  28.692  1.00  0.00    -0.014 A 
BRANCH  10  11
ATOM     11  C   UNL A   1      39.754  28.640  29.024  1.00  0.00     0.031 A 
ATOM     12  C   UNL A   1      40.666  29.677  29.581  1.00  0.00     0.074 A 
ATOM     13  C   UNL A   1      40.223  27.373  28.898  1.00  0.00     0.049 A 
ATOM     14  N   UNL A   1      41.922  29.561  29.909  1.00  0.00    -0.248 NA
ATOM     15  C   UNL A   1      40.070  30.993  29.863  1.00  0.00     0.031 C 
ATOM     16  C   UNL A   1      39.430  26.198  28.589  1.00  0.00     0.029 A 
ATOM     17  N   UNL A   1      41.497  26.846  28.979  1.00  0.00    -0.354 N 
ATOM     18  C   UNL A   1      42.243  30.761  30.510  1.00  0.00     0.074 A 
ATOM     19  C   UNL A   1      41.098  31.635  30.387  1.00  0.00     0.031 C 
ATOM     20  C   UNL A   1      40.212  25.136  28.346  1.00  0.00     0.029 A 
ATOM     21  C   UNL A   1      41.589  25.536  28.537  1.00  0.00     0.049 A 
ATOM     22  H   UNL A   1      42.268  27.355  29.320  1.00  0.00     0.167 HD
ATOM     23  C   UNL A   1      43.367  31.078  31.185  1.00  0.00     0.031 A 
ATOM     24  C   UNL A   1      42.649  24.732  28.312  1.00  0.00     0.031 A 
ATOM     25  C   UNL A   1      44.518  30.231  31.270  1.00  0.00     0.049 A 
ATOM     26  C   UNL A   1      43.980  25.215  28.802  1.00  0.00     0.074 A 
ATOM     27  C   UNL A   1      45.732  30.493  31.873  1.00  0.00     0.029 A 
ATOM     28  N   UNL A   1      44.606  28.960  30.717  1.00  0.00    -0.354 N 
ATOM     29  N   UNL A   1      44.257  26.352  29.395  1.00  0.00    -0.248 NA
ATOM     30  C   UNL A   1      45.114  24.292  28.690  1.00  0.00     0.031 C 
ATOM     31  C   UNL A   1      46.577  29.405  31.632  1.00  0.00     0.029 A 
ATOM     32  C   UNL A   1      45.869  28.439  30.935  1.00  0.00     0.049 A 
ATOM     33  H   UNL A   1      43.878  28.499  30.242  1.00  0.00     0.167 HD
ATOM     34  C   UNL A   1      45.577  26.247  29.803  1.00  0.00     0.074 A 
ATOM     35  C   UNL A   1      46.045  24.942  29.376  1.00  0.00     0.031 C 
ATOM     36  C   UNL A   1      46.319  27.141  30.498  1.00  0.00     0.031 A 
BRANCH  23  37
ATOM     37  C   UNL A   1      43.356  32.410  31.864  1.00  0.00    -0.014 A 
ATOM     38  C   UNL A   1      43.841  33.550  31.194  1.00  0.00     0.010 A 
ATOM     39  C   UNL A   1      42.945  32.510  33.201  1.00  0.00     0.010 A 
ATOM     40  C   UNL A   1      43.955  34.763  31.868  1.00  0.00     0.020 A 
ATOM     41  C   UNL A   1      43.034  33.730  33.871  1.00  0.00     0.020 A 
ATOM     42  C   UNL A   1      43.553  34.843  33.204  1.00  0.00     0.054 A 
BRANCH  42  43
ATOM     43  S   UNL A   1      43.709  36.434  34.055  1.00  0.00     0.124 S 
ATOM     44  O   UNL A   1      44.894  36.218  34.882  1.00  0.00    -0.237 OA
ATOM     45  O   UNL A   1      43.879  37.370  32.947  1.00  0.00    -0.237 OA
ATOM     46  O   UNL A   1      42.452  36.559  34.788  1.00  0.00    -0.744 OA
ENDBRANCH  42  43
ENDBRANCH  23  37
BRANCH  24  47
ATOM     47  C   UNL A   1      42.515  23.397  27.647  1.00  0.00    -0.014 A 
ATOM     48  C   UNL A   1      41.917  22.304  28.302  1.00  0.00     0.010 A 
ATOM     49  C   UNL A   1      43.074  23.186  26.369  1.00  0.00     0.010 A 
ATOM     50  C   UNL A   1      41.930  21.026  27.725  1.00  0.00     0.020 A 
ATOM     51  C   UNL A   1      43.070  21.913  25.779  1.00  0.00     0.020 A 
ATOM     52  C   UNL A   1      42.517  20.835  26.472  1.00  0.00     0.054 A 
BRANCH  52  53
ATOM     53  S   UNL A   1      42.551  19.159  25.765  1.00  0.00     0.124 S 
ATOM     54  O   UNL A   1      43.269  18.410  26.793  1.00  0.00    -0.237 OA
ATOM     55  O   UNL A   1      41.130  18.848  25.632  1.00  0.00    -0.237 OA
ATOM     56  O   UNL A   1      43.268  19.333  24.504  1.00  0.00    -0.744 OA
ENDBRANCH  52  53
ENDBRANCH  24  47
BRANCH  36  57
ATOM     57  C   UNL A   1      47.708  26.719  30.876  1.00  0.00    -0.014 A 
ATOM     58  C   UNL A   1      48.800  26.964  30.029  1.00  0.00     0.010 A 
ATOM     59  C   UNL A   1      47.921  26.101  32.122  1.00  0.00     0.010 A 
ATOM     60  C   UNL A   1      50.082  26.563  30.405  1.00  0.00     0.020 A 
ATOM     61  C   UNL A   1      49.206  25.734  32.517  1.00  0.00     0.020 A 
ATOM     62  C   UNL A   1      50.276  25.954  31.648  1.00  0.00     0.054 A 
BRANCH  62  63
ATOM     63  S   UNL A   1      51.958  25.490  32.134  1.00  0.00     0.124 S 
ATOM     64  O   UNL A   1      52.084  26.133  33.438  1.00  0.00    -0.237 OA
ATOM     65  O   UNL A   1      51.893  24.030  32.154  1.00  0.00    -0.237 OA
ATOM     66  O   UNL A   1      52.792  26.056  31.076  1.00  0.00    -0.744 OA
ENDBRANCH  62  63
ENDBRANCH  36  57
ENDBRANCH  10  11
ENDBRANCH   3   5
ENDBRANCH   2   3
ENDBRANCH   1   2
BRANCH   1  67
ATOM     67  C   UNL A   1      33.007  26.989  25.928  1.00  0.00     0.274 C 
BRANCH  67  68
ATOM     68  O   UNL A   1      34.000  26.251  25.200  1.00  0.00    -0.462 OA
BRANCH  68  69
ATOM     69  C   UNL A   1      34.052  24.932  25.526  1.00  0.00     0.310 C 
ATOM     70  O   UNL A   1      33.164  24.322  26.101  1.00  0.00    -0.252 OA
BRANCH  69  71
ATOM     71  C   UNL A   1      35.326  24.252  25.110  1.00  0.00     0.119 C 
ATOM     72  C   UNL A   1      35.268  23.252  23.922  1.00  0.00     0.100 C 
ATOM     73  C   UNL A   1      36.040  23.463  26.230  1.00  0.00     0.027 C 
ATOM     74  C   UNL A   1      36.098  22.075  24.456  1.00  0.00     0.025 C 
ATOM     75  C   UNL A   1      37.491  23.301  25.860  1.00  0.00    -0.027 C 
ATOM     76  C   UNL A   1      35.634  22.038  25.899  1.00  0.00     0.017 C 
ATOM     77  C   UNL A   1      37.531  22.498  24.783  1.00  0.00    -0.027 C 
BRANCH  72  78
ATOM     78  C   UNL A   1      33.936  23.037  23.157  1.00  0.00     0.224 C 
ATOM     79  O   UNL A   1      33.849  23.632  22.065  1.00  0.00    -0.275 OA
ATOM     80  N   UNL A   1      32.794  22.370  23.433  1.00  0.00    -0.352 N 
ATOM     81  H   UNL A   1      32.143  22.527  22.711  1.00  0.00     0.163 HD
BRANCH  80  82
ATOM     82  C   UNL A   1      32.196  21.492  24.439  1.00  0.00     0.153 C 
BRANCH  82  83
ATOM     83  C   UNL A   1      32.395  19.995  24.240  1.00  0.00    -0.010 A 
ATOM     84  C   UNL A   1      32.201  19.415  22.975  1.00  0.00     0.009 A 
ATOM     85  C   UNL A   1      32.824  19.121  25.226  1.00  0.00     0.116 A 
ATOM     86  C   UNL A   1      32.636  18.121  22.692  1.00  0.00     0.020 A 
ATOM     87  N   UNL A   1      33.228  17.841  24.997  1.00  0.00    -0.264 NA
ATOM     88  C   UNL A   1      33.162  17.383  23.730  1.00  0.00     0.111 A 
ENDBRANCH  82  83
ENDBRANCH  80  82
ENDBRANCH  72  78
ENDBRANCH  69  71
ENDBRANCH  68  69
ENDBRANCH  67  68
ENDBRANCH   1  67
TORSDOF 17
ENDMDL
MODEL 3
REMARK VINA RESULT:     -10.8      4.032      5.664
REMARK SMILES O=C(OCCOC(=O)[C@@H]1[C@H](C(=O)NCc2cccnc2)[C@H]2C=C[C@@H]1C2)c1ccc(-c2c3nc(c(-c4ccc(S(=O)(=O)[O-])cc4)c4ccc([nH]4)c(-c4ccc(S(=O)(=O)[O-])cc4)c4nc(c(-c5ccc(S(=O)(=O)[O-])cc5)c5ccc2[nH]5)C=C4)C=C3)cc1
REMARK SMILES IDX 4 1 3 2 2 3 1 4 26 5 27 6 85 7 28 8 84 9 29 10 30 11 31 12
REMARK SMILES IDX 78 13 32 14 83 15 77 16 79 17 33 18 82 19 76 20 75 21 34 23
REMARK SMILES IDX 64 24 45 25 63 26 46 27 49 28 62 29 80 30 47 31 48 32 61 34
REMARK SMILES IDX 81 35 50 36 35 37 36 38 44 39 37 40 43 41 38 42 39 43 40 44
REMARK SMILES IDX 41 45 42 46 65 47 66 48 74 49 67 50 73 51 68 52 69 53 70 54
REMARK SMILES IDX 71 55 72 56 51 57 52 58 60 59 53 60 59 61 54 62 55 63 56 64
REMARK SMILES IDX 57 65 58 66 5 67 6 68 7 69 8 70 9 71 10 72 24 73 21 74 23 75
REMARK SMILES IDX 25 76 22 77 11 78 12 79 13 80 14 82 15 83 16 84 20 85 17 86
REMARK SMILES IDX 19 87 18 88
REMARK H PARENT 79 22 49 33 13 81
REMARK Flexibility Score: inf
ROOT
ATOM      1  C   UNL A   1      38.889  23.543  25.937  1.00  0.00     0.275 C 
ENDROOT
BRANCH   1   2
ATOM      2  O   UNL A   1      39.793  24.272  26.789  1.00  0.00    -0.458 OA
BRANCH   2   3
ATOM      3  C   UNL A   1      40.176  25.568  26.827  1.00  0.00     0.338 C 
ATOM      4  O   UNL A   1      40.798  26.000  25.856  1.00  0.00    -0.246 OA
BRANCH   3   5
ATOM      5  C   UNL A   1      39.966  26.521  27.976  1.00  0.00     0.060 A 
ATOM      6  C   UNL A   1      39.127  26.342  29.072  1.00  0.00     0.016 A 
ATOM      7  C   UNL A   1      40.706  27.718  27.948  1.00  0.00     0.016 A 
ATOM      8  C   UNL A   1      39.124  27.244  30.158  1.00  0.00     0.010 A 
ATOM      9  C   UNL A   1      40.726  28.603  29.042  1.00  0.00     0.010 A 
ATOM     10  C   UNL A   1      39.978  28.337  30.201  1.00  0.00    -0.014 A 
BRANCH  10  11
ATOM     11  C   UNL A   1      40.018  29.244  31.389  1.00  0.00     0.031 A 
ATOM     12  C   UNL A   1      41.025  28.923  32.438  1.00  0.00     0.074 A 
ATOM     13  C   UNL A   1      39.244  30.346  31.559  1.00  0.00     0.049 A 
ATOM     14  N   UNL A   1      41.232  29.525  33.575  1.00  0.00    -0.248 NA
ATOM     15  C   UNL A   1      41.959  27.825  32.137  1.00  0.00     0.031 C 
ATOM     16  C   UNL A   1      38.375  30.937  30.559  1.00  0.00     0.029 A 
ATOM     17  N   UNL A   1      39.026  31.164  32.649  1.00  0.00    -0.354 N 
ATOM     18  C   UNL A   1      42.369  28.932  34.087  1.00  0.00     0.074 A 
ATOM     19  C   UNL A   1      42.731  27.842  33.208  1.00  0.00     0.031 C 
ATOM     20  C   UNL A   1      37.605  31.897  31.093  1.00  0.00     0.029 A 
ATOM     21  C   UNL A   1      37.963  32.040  32.487  1.00  0.00     0.049 A 
ATOM     22  H   UNL A   1      39.575  31.129  33.466  1.00  0.00     0.167 HD
ATOM     23  C   UNL A   1      43.099  29.318  35.153  1.00  0.00     0.031 A 
ATOM     24  C   UNL A   1      37.342  32.873  33.348  1.00  0.00     0.031 A 
ATOM     25  C   UNL A   1      42.718  30.367  36.050  1.00  0.00     0.049 A 
ATOM     26  C   UNL A   1      38.000  33.085  34.677  1.00  0.00     0.074 A 
ATOM     27  C   UNL A   1      43.357  30.787  37.200  1.00  0.00     0.029 A 
ATOM     28  N   UNL A   1      41.582  31.153  35.908  1.00  0.00    -0.354 N 
ATOM     29  N   UNL A   1      39.096  32.528  35.133  1.00  0.00    -0.248 NA
ATOM     30  C   UNL A   1      37.411  34.094  35.566  1.00  0.00     0.031 C 
ATOM     31  C   UNL A   1      42.576  31.786  37.788  1.00  0.00     0.029 A 
ATOM     32  C   UNL A   1      41.483  32.033  36.971  1.00  0.00     0.049 A 
ATOM     33  H   UNL A   1      40.943  31.094  35.162  1.00  0.00     0.167 HD
ATOM     34  C   UNL A   1      39.376  33.179  36.323  1.00  0.00     0.074 A 
ATOM     35  C   UNL A   1      38.326  34.160  36.522  1.00  0.00     0.031 C 
ATOM     36  C   UNL A   1      40.429  32.998  37.156  1.00  0.00     0.031 A 
BRANCH  23  37
ATOM     37  C   UNL A   1      44.374  28.567  35.367  1.00  0.00    -0.014 A 
ATOM     38  C   UNL A   1      45.560  28.993  34.737  1.00  0.00     0.010 A 
ATOM     39  C   UNL A   1      44.372  27.385  36.122  1.00  0.00     0.010 A 
ATOM     40  C   UNL A   1      46.716  28.223  34.827  1.00  0.00     0.020 A 
ATOM     41  C   UNL A   1      45.535  26.625  36.235  1.00  0.00     0.020 A 
ATOM     42  C   UNL A   1      46.695  27.041  35.573  1.00  0.00     0.054 A 
BRANCH  42  43
ATOM     43  S   UNL A   1      48.214  26.060  35.675  1.00  0.00     0.124 S 
ATOM     44  O   UNL A   1      49.072  26.918  36.489  1.00  0.00    -0.237 OA
ATOM     45  O   UNL A   1      47.755  24.835  36.324  1.00  0.00    -0.237 OA
ATOM     46  O   UNL A   1      48.623  25.910  34.281  1.00  0.00    -0.744 OA
ENDBRANCH  42  43
ENDBRANCH  23  37
BRANCH  24  47
ATOM     47  C   UNL A   1      36.078  33.595  32.993  1.00  0.00    -0.014 A 
ATOM     48  C   UNL A   1      36.102  34.866  32.390  1.00  0.00     0.010 A 
ATOM     49  C   UNL A   1      34.829  33.043  33.342  1.00  0.00     0.010 A 
ATOM     50  C   UNL A   1      34.917  35.591  32.198  1.00  0.00     0.020 A 
ATOM     51  C   UNL A   1      33.639  33.756  33.131  1.00  0.00     0.020 A 
ATOM     52  C   UNL A   1      33.693  35.037  32.580  1.00  0.00     0.054 A 
BRANCH  52  53
ATOM     53  S   UNL A   1      32.177  36.016  32.352  1.00  0.00     0.124 S 
ATOM     54  O   UNL A   1      32.287  36.426  30.955  1.00  0.00    -0.237 OA
ATOM     55  O   UNL A   1      31.129  35.041  32.644  1.00  0.00    -0.237 OA
ATOM     56  O   UNL A   1      32.312  37.092  33.331  1.00  0.00    -0.744 OA
ENDBRANCH  52  53
ENDBRANCH  24  47
BRANCH  36  57
ATOM     57  C   UNL A   1      40.517  33.912  38.342  1.00  0.00    -0.014 A 
ATOM     58  C   UNL A   1      41.240  35.114  38.284  1.00  0.00     0.010 A 
ATOM     59  C   UNL A   1      39.830  33.572  39.522  1.00  0.00     0.010 A 
ATOM     60  C   UNL A   1      41.306  35.947  39.401  1.00  0.00     0.020 A 
ATOM     61  C   UNL A   1      39.861  34.422  40.627  1.00  0.00     0.020 A 
ATOM     62  C   UNL A   1      40.613  35.596  40.563  1.00  0.00     0.054 A 
BRANCH  62  63
ATOM     63  S   UNL A   1      40.672  36.721  41.982  1.00  0.00     0.124 S 
ATOM     64  O   UNL A   1      39.277  37.135  42.098  1.00  0.00    -0.237 OA
ATOM     65  O   UNL A   1      41.166  35.858  43.052  1.00  0.00    -0.237 OA
ATOM     66  O   UNL A   1      41.599  37.767  41.555  1.00  0.00    -0.744 OA
ENDBRANCH  62  63
ENDBRANCH  36  57
ENDBRANCH  10  11
ENDBRANCH   3   5
ENDBRANCH   2   3
ENDBRANCH   1   2
BRANCH   1  67
ATOM     67  C   UNL A   1      37.431  23.933  26.129  1.00  0.00     0.274 C 
BRANCH  67  68
ATOM     68  O   UNL A   1      36.534  22.817  26.029  1.00  0.00    -0.462 OA
BRANCH  68  69
ATOM     69  C   UNL A   1      35.467  23.044  25.217  1.00  0.00     0.310 C 
ATOM     70  O   UNL A   1      35.252  22.456  24.168  1.00  0.00    -0.252 OA
BRANCH  69  71
ATOM     71  C   UNL A   1      34.533  24.107  25.723  1.00  0.00     0.119 C 
ATOM     72  C   UNL A   1      33.271  23.660  26.511  1.00  0.00     0.100 C 
ATOM     73  C   UNL A   1      33.981  25.060  24.640  1.00  0.00     0.027 C 
ATOM     74  C   UNL A   1      32.176  24.536  25.883  1.00  0.00     0.025 C 
ATOM     75  C   UNL A   1      33.530  26.337  25.301  1.00  0.00    -0.027 C 
ATOM     76  C   UNL A   1      32.589  24.495  24.425  1.00  0.00     0.017 C 
ATOM     77  C   UNL A   1      32.472  26.025  26.068  1.00  0.00    -0.027 C 
BRANCH  72  78
ATOM     78  C   UNL A   1      33.043  22.156  26.816  1.00  0.00     0.224 C 
ATOM     79  O   UNL A   1      33.304  21.805  27.984  1.00  0.00    -0.275 OA
ATOM     80  N   UNL A   1      32.661  21.096  26.071  1.00  0.00    -0.352 N 
ATOM     81  H   UNL A   1      32.697  20.281  26.623  1.00  0.00     0.163 HD
BRANCH  80  82
ATOM     82  C   UNL A   1      32.208  20.748  24.724  1.00  0.00     0.153 C 
BRANCH  82  83
ATOM     83  C   UNL A   1      32.861  19.529  24.082  1.00  0.00    -0.010 A 
ATOM     84  C   UNL A   1      34.034  18.982  24.626  1.00  0.00     0.009 A 
ATOM     85  C   UNL A   1      32.345  18.845  22.991  1.00  0.00     0.116 A 
ATOM     86  C   UNL A   1      34.498  17.724  24.242  1.00  0.00     0.020 A 
ATOM     87  N   UNL A   1      32.789  17.631  22.566  1.00  0.00    -0.264 NA
ATOM     88  C   UNL A   1      33.829  17.080  23.225  1.00  0.00     0.111 A 
ENDBRANCH  82  83
ENDBRANCH  80  82
ENDBRANCH  72  78
ENDBRANCH  69  71
ENDBRANCH  68  69
ENDBRANCH  67  68
ENDBRANCH   1  67
TORSDOF 17
ENDMDL
