MODEL 1
REMARK VINA RESULT:     -13.3      0.000      0.000
REMARK SMILES Cc1ccc(S(=O)(=O)n2cc(C(=O)C(=O)NCC(=O)N[C@H](Cc3c[nH]c4ccccc34)C(=O)OCCOC(=O)c3ccc(-c4c5nc(c(-c6ccc(S(=O)(=O)[O-])cc6)c6ccc([nH]6)c(-c6ccc(S(=O)(=O)[O-])cc6)c6nc(c(-c7ccc(S(=O)(=O)[O-])cc7)c7ccc4[nH]7)C=C6)C=C5)cc3)c3ccccc32)cc1
REMARK SMILES IDX 32 1 33 2 21 3 20 4 18 5 19 6 17 8 16 9 14 10 15 11 12 13
REMARK SMILES IDX 13 14 11 15 9 16 10 17 105 18 100 19 104 20 101 21 103 22
REMARK SMILES IDX 102 23 6 24 7 25 8 26 5 27 1 28 2 29 3 30 107 31 4 32 106 33
REMARK SMILES IDX 22 34 23 35 24 36 31 37 25 38 26 39 30 40 27 42 29 43 28 44
REMARK SMILES IDX 34 45 35 46 36 47 37 48 38 49 39 50 40 51 41 52 99 53 42 54
REMARK SMILES IDX 98 55 43 56 44 57 45 58 92 59 46 60 97 61 91 62 93 63 47 64
REMARK SMILES IDX 96 65 90 66 89 67 48 69 78 70 59 71 77 72 60 73 63 74 76 75
REMARK SMILES IDX 94 76 61 77 62 78 75 80 95 81 64 82 49 83 50 84 58 85 51 86
REMARK SMILES IDX 57 87 52 88 53 89 54 90 55 91 56 92 79 93 80 94 88 95 81 96
REMARK SMILES IDX 87 97 82 98 83 99 84 100 85 101 86 102 65 103 66 104 74 105
REMARK SMILES IDX 67 106 73 107 68 108 69 109 70 110 71 111 72 112
REMARK H PARENT 20 7 16 12 25 41 93 68 63 79
REMARK Flexibility Score: inf
ROOT
ATOM      1  C   UNL A   1      35.944  31.386  28.761  1.00  0.00     0.329 C 
ATOM      2  O   UNL A   1      35.770  30.139  28.713  1.00  0.00    -0.250 OA
ENDROOT
BRANCH   1   3
ATOM      3  C   UNL A   1      34.551  33.073  28.479  1.00  0.00     0.196 C 
BRANCH   3   4
ATOM      4  N   UNL A   1      33.060  33.111  27.564  1.00  0.00    -0.341 N 
ATOM      5  C   UNL A   1      32.162  32.376  26.862  1.00  0.00     0.240 C 
ATOM      6  O   UNL A   1      31.126  33.039  26.638  1.00  0.00    -0.273 OA
ATOM      7  H   UNL A   1      32.746  34.044  27.555  1.00  0.00     0.164 HD
BRANCH   5   8
ATOM      8  C   UNL A   1      32.103  30.861  26.421  1.00  0.00     0.216 C 
BRANCH   8   9
ATOM      9  N   UNL A   1      31.600  30.140  25.229  1.00  0.00    -0.340 N 
ATOM     10  C   UNL A   1      31.380  28.770  25.017  1.00  0.00     0.292 C 
ATOM     11  O   UNL A   1      30.585  28.376  24.170  1.00  0.00    -0.265 OA
ATOM     12  H   UNL A   1      31.385  30.716  24.460  1.00  0.00     0.164 HD
BRANCH  10  13
ATOM     13  C   UNL A   1      32.063  27.743  25.888  1.00  0.00     0.252 C 
ATOM     14  O   UNL A   1      31.981  28.034  27.089  1.00  0.00    -0.283 OA
BRANCH  13  15
ATOM     15  C   UNL A   1      32.784  26.495  25.529  1.00  0.00     0.054 A 
ATOM     16  N   UNL A   1      34.259  24.759  25.405  1.00  0.00    -0.240 N 
ATOM     17  C   UNL A   1      33.946  26.041  24.875  1.00  0.00     0.117 A 
ATOM     18  C   UNL A   1      33.145  24.404  26.211  1.00  0.00     0.065 A 
ATOM     19  C   UNL A   1      32.137  25.278  25.856  1.00  0.00     0.012 A 
ATOM     20  C   UNL A   1      32.843  23.239  26.945  1.00  0.00     0.028 A 
ATOM     21  C   UNL A   1      30.791  24.900  26.021  1.00  0.00     0.011 A 
ATOM     22  C   UNL A   1      31.510  22.835  27.010  1.00  0.00     0.002 A 
ATOM     23  C   UNL A   1      30.494  23.634  26.510  1.00  0.00     0.001 A 
BRANCH  16  24
ATOM     24  S   UNL A   1      34.899  23.320  24.660  1.00  0.00     0.268 S 
ATOM     25  O   UNL A   1      36.195  23.274  25.341  1.00  0.00    -0.201 OA
ATOM     26  O   UNL A   1      34.834  23.713  23.252  1.00  0.00    -0.201 OA
BRANCH  24  27
ATOM     27  C   UNL A   1      34.610  21.602  24.416  1.00  0.00     0.088 A 
ATOM     28  C   UNL A   1      32.469  17.818  24.170  1.00  0.00     0.044 C 
ATOM     29  C   UNL A   1      33.259  19.092  24.224  1.00  0.00    -0.051 A 
ATOM     30  C   UNL A   1      32.637  20.238  23.764  1.00  0.00     0.005 A 
ATOM     31  C   UNL A   1      34.559  19.206  24.764  1.00  0.00     0.005 A 
ATOM     32  C   UNL A   1      33.306  21.447  23.851  1.00  0.00     0.022 A 
ATOM     33  C   UNL A   1      35.231  20.461  24.882  1.00  0.00     0.022 A 
ENDBRANCH  24  27
ENDBRANCH  16  24
ENDBRANCH  13  15
ENDBRANCH  10  13
ENDBRANCH   8   9
ENDBRANCH   5   8
ENDBRANCH   3   4
BRANCH   3  34
ATOM     34  C   UNL A   1      34.730  34.881  28.436  1.00  0.00     0.074 C 
BRANCH  34  35
ATOM     35  C   UNL A   1      33.936  35.871  29.279  1.00  0.00    -0.020 A 
ATOM     36  C   UNL A   1      33.424  37.106  28.910  1.00  0.00     0.087 A 
ATOM     37  C   UNL A   1      33.764  35.775  30.708  1.00  0.00     0.003 A 
ATOM     38  N   UNL A   1      33.264  37.845  30.062  1.00  0.00    -0.361 N 
ATOM     39  C   UNL A   1      33.543  37.073  31.169  1.00  0.00     0.046 A 
ATOM     40  C   UNL A   1      33.986  34.755  31.654  1.00  0.00     0.010 A 
ATOM     41  H   UNL A   1      32.989  38.790  30.090  1.00  0.00     0.166 HD
ATOM     42  C   UNL A   1      33.689  37.425  32.519  1.00  0.00     0.026 A 
ATOM     43  C   UNL A   1      34.067  35.078  33.012  1.00  0.00     0.001 A 
ATOM     44  C   UNL A   1      33.965  36.401  33.431  1.00  0.00     0.002 A 
ENDBRANCH  34  35
ENDBRANCH   3  34
ENDBRANCH   1   3
BRANCH   1  45
ATOM     45  O   UNL A   1      37.384  31.523  28.911  1.00  0.00    -0.461 OA
BRANCH  45  46
ATOM     46  C   UNL A   1      37.898  31.290  30.232  1.00  0.00     0.274 C 
BRANCH  46  47
ATOM     47  C   UNL A   1      39.059  30.293  30.128  1.00  0.00     0.275 C 
BRANCH  47  48
ATOM     48  O   UNL A   1      39.439  29.899  28.779  1.00  0.00    -0.458 OA
BRANCH  48  49
ATOM     49  C   UNL A   1      39.150  28.693  28.225  1.00  0.00     0.338 C 
ATOM     50  O   UNL A   1      38.057  28.151  28.261  1.00  0.00    -0.246 OA
BRANCH  49  51
ATOM     51  C   UNL A   1      40.345  27.954  27.782  1.00  0.00     0.060 A 
ATOM     52  C   UNL A   1      40.813  26.517  28.723  1.00  0.00     0.016 A 
ATOM     53  C   UNL A   1      41.586  28.929  26.962  1.00  0.00     0.016 A 
ATOM     54  C   UNL A   1      42.582  26.131  28.919  1.00  0.00     0.010 A 
ATOM     55  C   UNL A   1      43.326  28.544  27.113  1.00  0.00     0.010 A 
ATOM     56  C   UNL A   1      43.832  27.213  28.194  1.00  0.00    -0.014 A 
BRANCH  56  57
ATOM     57  C   UNL A   1      45.196  27.395  28.631  1.00  0.00     0.031 A 
ATOM     58  C   UNL A   1      46.267  26.812  27.782  1.00  0.00     0.074 A 
ATOM     59  C   UNL A   1      45.432  28.333  29.577  1.00  0.00     0.049 A 
ATOM     60  N   UNL A   1      47.479  26.651  28.177  1.00  0.00    -0.248 NA
ATOM     61  C   UNL A   1      46.071  26.292  26.423  1.00  0.00     0.031 C 
ATOM     62  C   UNL A   1      46.689  29.034  29.811  1.00  0.00     0.029 A 
ATOM     63  N   UNL A   1      44.619  28.871  30.564  1.00  0.00    -0.354 N 
ATOM     64  C   UNL A   1      48.241  26.379  27.058  1.00  0.00     0.074 A 
ATOM     65  C   UNL A   1      47.311  25.983  26.046  1.00  0.00     0.031 C 
ATOM     66  C   UNL A   1      46.641  29.653  31.004  1.00  0.00     0.029 A 
ATOM     67  C   UNL A   1      45.395  29.280  31.654  1.00  0.00     0.049 A 
ATOM     68  H   UNL A   1      43.640  28.951  30.505  1.00  0.00     0.167 HD
ATOM     69  C   UNL A   1      49.559  26.714  27.064  1.00  0.00     0.031 A 
ATOM     70  C   UNL A   1      45.340  28.680  32.887  1.00  0.00     0.031 A 
ATOM     71  C   UNL A   1      49.936  27.184  28.394  1.00  0.00     0.049 A 
ATOM     72  C   UNL A   1      46.554  27.776  33.122  1.00  0.00     0.074 A 
ATOM     73  C   UNL A   1      50.124  28.447  28.927  1.00  0.00     0.029 A 
ATOM     74  N   UNL A   1      49.759  26.321  29.466  1.00  0.00    -0.354 N 
ATOM     75  N   UNL A   1      47.393  27.445  32.174  1.00  0.00    -0.248 NA
ATOM     76  C   UNL A   1      46.953  27.203  34.407  1.00  0.00     0.031 C 
ATOM     77  C   UNL A   1      49.943  28.346  30.337  1.00  0.00     0.029 A 
ATOM     78  C   UNL A   1      49.686  27.022  30.653  1.00  0.00     0.049 A 
ATOM     79  H   UNL A   1      49.694  25.342  29.391  1.00  0.00     0.167 HD
ATOM     80  C   UNL A   1      48.428  26.705  32.678  1.00  0.00     0.074 A 
ATOM     81  C   UNL A   1      48.093  26.558  34.083  1.00  0.00     0.031 C 
ATOM     82  C   UNL A   1      49.485  26.303  31.908  1.00  0.00     0.031 A 
BRANCH  69  83
ATOM     83  C   UNL A   1      50.429  26.874  25.838  1.00  0.00    -0.014 A 
ATOM     84  C   UNL A   1      51.825  26.964  26.015  1.00  0.00     0.010 A 
ATOM     85  C   UNL A   1      49.969  27.004  24.511  1.00  0.00     0.010 A 
ATOM     86  C   UNL A   1      52.701  27.202  24.948  1.00  0.00     0.020 A 
ATOM     87  C   UNL A   1      50.834  27.244  23.430  1.00  0.00     0.020 A 
ATOM     88  C   UNL A   1      52.199  27.347  23.658  1.00  0.00     0.054 A 
BRANCH  88  89
ATOM     89  S   UNL A   1      53.349  27.656  22.296  1.00  0.00     0.124 S 
ATOM     90  O   UNL A   1      54.405  28.427  22.949  1.00  0.00    -0.237 OA
ATOM     91  O   UNL A   1      53.717  26.305  21.884  1.00  0.00    -0.237 OA
ATOM     92  O   UNL A   1      52.550  28.405  21.328  1.00  0.00    -0.744 OA
ENDBRANCH  88  89
ENDBRANCH  69  83
BRANCH  70  93
ATOM     93  C   UNL A   1      43.947  28.489  33.401  1.00  0.00    -0.014 A 
ATOM     94  C   UNL A   1      43.353  27.219  33.248  1.00  0.00     0.010 A 
ATOM     95  C   UNL A   1      43.565  29.251  34.504  1.00  0.00     0.010 A 
ATOM     96  C   UNL A   1      42.667  26.621  34.318  1.00  0.00     0.020 A 
ATOM     97  C   UNL A   1      42.908  28.642  35.585  1.00  0.00     0.020 A 
ATOM     98  C   UNL A   1      42.557  27.303  35.524  1.00  0.00     0.054 A 
BRANCH  98  99
ATOM     99  S   UNL A   1      42.113  26.370  37.016  1.00  0.00     0.124 S 
ATOM    100  O   UNL A   1      42.137  25.004  36.511  1.00  0.00    -0.237 OA
ATOM    101  O   UNL A   1      43.175  26.718  37.954  1.00  0.00    -0.237 OA
ATOM    102  O   UNL A   1      40.775  26.832  37.373  1.00  0.00    -0.744 OA
ENDBRANCH  98  99
ENDBRANCH  70  93
BRANCH  82 103
ATOM    103  C   UNL A   1      50.522  25.264  32.283  1.00  0.00    -0.014 A 
ATOM    104  C   UNL A   1      50.229  23.927  32.579  1.00  0.00     0.010 A 
ATOM    105  C   UNL A   1      51.898  25.616  32.229  1.00  0.00     0.010 A 
ATOM    106  C   UNL A   1      51.247  23.021  32.909  1.00  0.00     0.020 A 
ATOM    107  C   UNL A   1      52.921  24.705  32.479  1.00  0.00     0.020 A 
ATOM    108  C   UNL A   1      52.584  23.421  32.870  1.00  0.00     0.054 A 
BRANCH 108 109
ATOM    109  S   UNL A   1      53.879  22.255  33.342  1.00  0.00     0.124 S 
ATOM    110  O   UNL A   1      53.958  22.469  34.784  1.00  0.00    -0.237 OA
ATOM    111  O   UNL A   1      53.321  20.969  32.927  1.00  0.00    -0.237 OA
ATOM    112  O   UNL A   1      55.043  22.698  32.579  1.00  0.00    -0.744 OA
ENDBRANCH 108 109
ENDBRANCH  82 103
ENDBRANCH  56  57
ENDBRANCH  49  51
ENDBRANCH  48  49
ENDBRANCH  47  48
ENDBRANCH  46  47
ENDBRANCH  45  46
ENDBRANCH   1  45
TORSDOF 23
ENDMDL
MODEL 2
REMARK VINA RESULT:     -12.9      4.247      8.383
REMARK SMILES Cc1ccc(S(=O)(=O)n2cc(C(=O)C(=O)NCC(=O)N[C@H](Cc3c[nH]c4ccccc34)C(=O)OCCOC(=O)c3ccc(-c4c5nc(c(-c6ccc(S(=O)(=O)[O-])cc6)c6ccc([nH]6)c(-c6ccc(S(=O)(=O)[O-])cc6)c6nc(c(-c7ccc(S(=O)(=O)[O-])cc7)c7ccc4[nH]7)C=C6)C=C5)cc3)c3ccccc32)cc1
REMARK SMILES IDX 32 1 33 2 21 3 20 4 18 5 19 6 17 8 16 9 14 10 15 11 12 13
REMARK SMILES IDX 13 14 11 15 9 16 10 17 105 18 100 19 104 20 101 21 103 22
REMARK SMILES IDX 102 23 6 24 7 25 8 26 5 27 1 28 2 29 3 30 107 31 4 32 106 33
REMARK SMILES IDX 22 34 23 35 24 36 31 37 25 38 26 39 30 40 27 42 29 43 28 44
REMARK SMILES IDX 34 45 35 46 36 47 37 48 38 49 39 50 40 51 41 52 99 53 42 54
REMARK SMILES IDX 98 55 43 56 44 57 45 58 92 59 46 60 97 61 91 62 93 63 47 64
REMARK SMILES IDX 96 65 90 66 89 67 48 69 78 70 59 71 77 72 60 73 63 74 76 75
REMARK SMILES IDX 94 76 61 77 62 78 75 80 95 81 64 82 49 83 50 84 58 85 51 86
REMARK SMILES IDX 57 87 52 88 53 89 54 90 55 91 56 92 79 93 80 94 88 95 81 96
REMARK SMILES IDX 87 97 82 98 83 99 84 100 85 101 86 102 65 103 66 104 74 105
REMARK SMILES IDX 67 106 73 107 68 108 69 109 70 110 71 111 72 112
REMARK H PARENT 20 7 16 12 25 41 93 68 63 79
REMARK Flexibility Score: inf
ROOT
ATOM      1  C   UNL A   1      39.290  26.315  28.267  1.00  0.00     0.329 C 
ATOM      2  O   UNL A   1      39.342  26.535  29.507  1.00  0.00    -0.250 OA
ENDROOT
BRANCH   1   3
ATOM      3  C   UNL A   1      39.572  24.468  27.093  1.00  0.00     0.196 C 
BRANCH   3   4
ATOM      4  N   UNL A   1      38.529  23.793  25.860  1.00  0.00    -0.341 N 
ATOM      5  C   UNL A   1      37.265  23.408  25.555  1.00  0.00     0.240 C 
ATOM      6  O   UNL A   1      37.150  23.196  24.329  1.00  0.00    -0.273 OA
ATOM      7  H   UNL A   1      39.087  23.624  25.067  1.00  0.00     0.164 HD
BRANCH   5   8
ATOM      8  C   UNL A   1      35.923  23.325  26.383  1.00  0.00     0.216 C 
BRANCH   8   9
ATOM      9  N   UNL A   1      34.964  22.245  26.712  1.00  0.00    -0.340 N 
ATOM     10  C   UNL A   1      34.033  21.574  25.905  1.00  0.00     0.292 C 
ATOM     11  O   UNL A   1      33.630  20.453  26.195  1.00  0.00    -0.265 OA
ATOM     12  H   UNL A   1      34.985  21.950  27.652  1.00  0.00     0.164 HD
BRANCH  10  13
ATOM     13  C   UNL A   1      33.563  22.189  24.608  1.00  0.00     0.252 C 
ATOM     14  O   UNL A   1      33.375  21.331  23.737  1.00  0.00    -0.283 OA
BRANCH  13  15
ATOM     15  C   UNL A   1      33.307  23.607  24.247  1.00  0.00     0.054 A 
ATOM     16  N   UNL A   1      32.747  25.543  23.179  1.00  0.00    -0.240 N 
ATOM     17  C   UNL A   1      33.822  24.655  23.460  1.00  0.00     0.117 A 
ATOM     18  C   UNL A   1      31.669  25.097  23.989  1.00  0.00     0.065 A 
ATOM     19  C   UNL A   1      32.233  24.242  24.916  1.00  0.00     0.012 A 
ATOM     20  C   UNL A   1      30.368  25.599  24.191  1.00  0.00     0.028 A 
ATOM     21  C   UNL A   1      31.609  24.055  26.165  1.00  0.00     0.011 A 
ATOM     22  C   UNL A   1      29.814  25.484  25.466  1.00  0.00     0.002 A 
ATOM     23  C   UNL A   1      30.450  24.759  26.461  1.00  0.00     0.001 A 
BRANCH  16  24
ATOM     24  S   UNL A   1      32.677  27.279  23.053  1.00  0.00     0.268 S 
ATOM     25  O   UNL A   1      33.494  27.448  21.849  1.00  0.00    -0.201 OA
ATOM     26  O   UNL A   1      33.226  27.650  24.359  1.00  0.00    -0.201 OA
BRANCH  24  27
ATOM     27  C   UNL A   1      31.582  28.645  22.885  1.00  0.00     0.088 A 
ATOM     28  C   UNL A   1      28.468  31.525  23.873  1.00  0.00     0.044 C 
ATOM     29  C   UNL A   1      29.559  30.572  23.481  1.00  0.00    -0.051 A 
ATOM     30  C   UNL A   1      30.421  30.159  24.479  1.00  0.00     0.005 A 
ATOM     31  C   UNL A   1      29.723  30.031  22.187  1.00  0.00     0.005 A 
ATOM     32  C   UNL A   1      31.406  29.234  24.176  1.00  0.00     0.022 A 
ATOM     33  C   UNL A   1      30.718  29.051  21.888  1.00  0.00     0.022 A 
ENDBRANCH  24  27
ENDBRANCH  16  24
ENDBRANCH  13  15
ENDBRANCH  10  13
ENDBRANCH   8   9
ENDBRANCH   5   8
ENDBRANCH   3   4
BRANCH   3  34
ATOM     34  C   UNL A   1      40.393  22.876  27.399  1.00  0.00     0.074 C 
BRANCH  34  35
ATOM     35  C   UNL A   1      41.677  22.398  26.733  1.00  0.00    -0.020 A 
ATOM     36  C   UNL A   1      42.464  23.056  25.800  1.00  0.00     0.087 A 
ATOM     37  C   UNL A   1      42.186  21.050  26.810  1.00  0.00     0.003 A 
ATOM     38  N   UNL A   1      43.175  22.096  25.113  1.00  0.00    -0.361 N 
ATOM     39  C   UNL A   1      42.958  20.852  25.665  1.00  0.00     0.046 A 
ATOM     40  C   UNL A   1      41.890  19.937  27.621  1.00  0.00     0.010 A 
ATOM     41  H   UNL A   1      43.757  22.274  24.339  1.00  0.00     0.166 HD
ATOM     42  C   UNL A   1      43.315  19.574  25.212  1.00  0.00     0.026 A 
ATOM     43  C   UNL A   1      42.297  18.661  27.219  1.00  0.00     0.001 A 
ATOM     44  C   UNL A   1      42.960  18.479  26.009  1.00  0.00     0.002 A 
ENDBRANCH  34  35
ENDBRANCH   3  34
ENDBRANCH   1   3
BRANCH   1  45
ATOM     45  O   UNL A   1      39.134  27.641  27.691  1.00  0.00    -0.461 OA
BRANCH  45  46
ATOM     46  C   UNL A   1      38.743  28.676  28.607  1.00  0.00     0.274 C 
BRANCH  46  47
ATOM     47  C   UNL A   1      37.342  29.162  28.216  1.00  0.00     0.275 C 
BRANCH  47  48
ATOM     48  O   UNL A   1      37.084  30.581  28.413  1.00  0.00    -0.458 OA
BRANCH  48  49
ATOM     49  C   UNL A   1      36.627  31.120  29.573  1.00  0.00     0.338 C 
ATOM     50  O   UNL A   1      35.501  31.557  29.746  1.00  0.00    -0.246 OA
BRANCH  49  51
ATOM     51  C   UNL A   1      37.694  31.372  30.558  1.00  0.00     0.060 A 
ATOM     52  C   UNL A   1      39.059  32.390  30.041  1.00  0.00     0.016 A 
ATOM     53  C   UNL A   1      37.942  30.086  31.760  1.00  0.00     0.016 A 
ATOM     54  C   UNL A   1      40.724  32.021  30.680  1.00  0.00     0.010 A 
ATOM     55  C   UNL A   1      39.564  29.732  32.427  1.00  0.00     0.010 A 
ATOM     56  C   UNL A   1      40.979  30.622  31.793  1.00  0.00    -0.014 A 
BRANCH  56  57
ATOM     57  C   UNL A   1      42.193  29.868  31.992  1.00  0.00     0.031 A 
ATOM     58  C   UNL A   1      42.547  28.861  30.958  1.00  0.00     0.074 A 
ATOM     59  C   UNL A   1      43.079  30.332  32.904  1.00  0.00     0.049 A 
ATOM     60  N   UNL A   1      43.425  27.939  31.133  1.00  0.00    -0.248 NA
ATOM     61  C   UNL A   1      41.906  28.749  29.641  1.00  0.00     0.031 C 
ATOM     62  C   UNL A   1      44.513  30.072  32.933  1.00  0.00     0.029 A 
ATOM     63  N   UNL A   1      42.911  31.127  34.028  1.00  0.00    -0.354 N 
ATOM     64  C   UNL A   1      43.704  27.399  29.894  1.00  0.00     0.074 A 
ATOM     65  C   UNL A   1      42.619  27.793  29.049  1.00  0.00     0.031 C 
ATOM     66  C   UNL A   1      45.009  30.432  34.129  1.00  0.00     0.029 A 
ATOM     67  C   UNL A   1      43.896  30.829  34.976  1.00  0.00     0.049 A 
ATOM     68  H   UNL A   1      42.202  31.800  34.142  1.00  0.00     0.167 HD
ATOM     69  C   UNL A   1      44.928  26.847  29.679  1.00  0.00     0.031 A 
ATOM     70  C   UNL A   1      43.625  30.241  36.187  1.00  0.00     0.031 A 
ATOM     71  C   UNL A   1      45.673  26.812  30.934  1.00  0.00     0.049 A 
ATOM     72  C   UNL A   1      44.017  28.761  36.188  1.00  0.00     0.074 A 
ATOM     73  C   UNL A   1      46.676  27.611  31.455  1.00  0.00     0.029 A 
ATOM     74  N   UNL A   1      45.124  26.115  32.001  1.00  0.00    -0.354 N 
ATOM     75  N   UNL A   1      44.339  28.105  35.102  1.00  0.00    -0.248 NA
ATOM     76  C   UNL A   1      44.118  27.907  37.372  1.00  0.00     0.031 C 
ATOM     77  C   UNL A   1      46.643  27.465  32.872  1.00  0.00     0.029 A 
ATOM     78  C   UNL A   1      45.652  26.555  33.198  1.00  0.00     0.049 A 
ATOM     79  H   UNL A   1      44.449  25.404  31.916  1.00  0.00     0.167 HD
ATOM     80  C   UNL A   1      44.730  26.829  35.402  1.00  0.00     0.074 A 
ATOM     81  C   UNL A   1      44.549  26.744  36.840  1.00  0.00     0.031 C 
ATOM     82  C   UNL A   1      45.196  25.962  34.453  1.00  0.00     0.031 A 
BRANCH  69  83
ATOM     83  C   UNL A   1      45.549  26.590  28.325  1.00  0.00    -0.014 A 
ATOM     84  C   UNL A   1      46.388  25.466  28.176  1.00  0.00     0.010 A 
ATOM     85  C   UNL A   1      45.416  27.411  27.186  1.00  0.00     0.010 A 
ATOM     86  C   UNL A   1      47.077  25.198  26.986  1.00  0.00     0.020 A 
ATOM     87  C   UNL A   1      46.100  27.157  25.986  1.00  0.00     0.020 A 
ATOM     88  C   UNL A   1      46.933  26.051  25.896  1.00  0.00     0.054 A 
BRANCH  88  89
ATOM     89  S   UNL A   1      47.834  25.686  24.369  1.00  0.00     0.124 S 
ATOM     90  O   UNL A   1      47.229  24.426  23.944  1.00  0.00    -0.237 OA
ATOM     91  O   UNL A   1      47.526  26.846  23.539  1.00  0.00    -0.237 OA
ATOM     92  O   UNL A   1      49.226  25.585  24.802  1.00  0.00    -0.744 OA
ENDBRANCH  88  89
ENDBRANCH  69  83
BRANCH  70  93
ATOM     93  C   UNL A   1      42.496  30.887  36.929  1.00  0.00    -0.014 A 
ATOM     94  C   UNL A   1      42.754  32.097  37.604  1.00  0.00     0.010 A 
ATOM     95  C   UNL A   1      41.210  30.689  36.429  1.00  0.00     0.010 A 
ATOM     96  C   UNL A   1      41.865  33.179  37.492  1.00  0.00     0.020 A 
ATOM     97  C   UNL A   1      40.335  31.778  36.290  1.00  0.00     0.020 A 
ATOM     98  C   UNL A   1      40.712  33.037  36.729  1.00  0.00     0.054 A 
BRANCH  98  99
ATOM     99  S   UNL A   1      39.831  34.531  36.194  1.00  0.00     0.124 S 
ATOM    100  O   UNL A   1      39.291  34.095  34.912  1.00  0.00    -0.237 OA
ATOM    101  O   UNL A   1      38.854  34.741  37.256  1.00  0.00    -0.237 OA
ATOM    102  O   UNL A   1      40.861  35.558  36.068  1.00  0.00    -0.744 OA
ENDBRANCH  98  99
ENDBRANCH  70  93
BRANCH  82 103
ATOM    103  C   UNL A   1      45.384  24.468  34.619  1.00  0.00    -0.014 A 
ATOM    104  C   UNL A   1      44.369  23.520  34.446  1.00  0.00     0.010 A 
ATOM    105  C   UNL A   1      46.692  23.962  34.855  1.00  0.00     0.010 A 
ATOM    106  C   UNL A   1      44.624  22.150  34.609  1.00  0.00     0.020 A 
ATOM    107  C   UNL A   1      46.971  22.601  34.942  1.00  0.00     0.020 A 
ATOM    108  C   UNL A   1      45.920  21.703  34.870  1.00  0.00     0.054 A 
BRANCH 108 109
ATOM    109  S   UNL A   1      46.223  19.941  35.122  1.00  0.00     0.124 S 
ATOM    110  O   UNL A   1      47.147  19.642  34.032  1.00  0.00    -0.237 OA
ATOM    111  O   UNL A   1      46.800  19.903  36.464  1.00  0.00    -0.237 OA
ATOM    112  O   UNL A   1      44.898  19.338  35.002  1.00  0.00    -0.744 OA
ENDBRANCH 108 109
ENDBRANCH  82 103
ENDBRANCH  56  57
ENDBRANCH  49  51
ENDBRANCH  48  49
ENDBRANCH  47  48
ENDBRANCH  46  47
ENDBRANCH  45  46
ENDBRANCH   1  45
TORSDOF 23
ENDMDL
MODEL 3
REMARK VINA RESULT:     -12.5      4.963     12.128
REMARK SMILES Cc1ccc(S(=O)(=O)n2cc(C(=O)C(=O)NCC(=O)N[C@H](Cc3c[nH]c4ccccc34)C(=O)OCCOC(=O)c3ccc(-c4c5nc(c(-c6ccc(S(=O)(=O)[O-])cc6)c6ccc([nH]6)c(-c6ccc(S(=O)(=O)[O-])cc6)c6nc(c(-c7ccc(S(=O)(=O)[O-])cc7)c7ccc4[nH]7)C=C6)C=C5)cc3)c3ccccc32)cc1
REMARK SMILES IDX 32 1 33 2 21 3 20 4 18 5 19 6 17 8 16 9 14 10 15 11 12 13
REMARK SMILES IDX 13 14 11 15 9 16 10 17 105 18 100 19 104 20 101 21 103 22
REMARK SMILES IDX 102 23 6 24 7 25 8 26 5 27 1 28 2 29 3 30 107 31 4 32 106 33
REMARK SMILES IDX 22 34 23 35 24 36 31 37 25 38 26 39 30 40 27 42 29 43 28 44
REMARK SMILES IDX 34 45 35 46 36 47 37 48 38 49 39 50 40 51 41 52 99 53 42 54
REMARK SMILES IDX 98 55 43 56 44 57 45 58 92 59 46 60 97 61 91 62 93 63 47 64
REMARK SMILES IDX 96 65 90 66 89 67 48 69 78 70 59 71 77 72 60 73 63 74 76 75
REMARK SMILES IDX 94 76 61 77 62 78 75 80 95 81 64 82 49 83 50 84 58 85 51 86
REMARK SMILES IDX 57 87 52 88 53 89 54 90 55 91 56 92 79 93 80 94 88 95 81 96
REMARK SMILES IDX 87 97 82 98 83 99 84 100 85 101 86 102 65 103 66 104 74 105
REMARK SMILES IDX 67 106 73 107 68 108 69 109 70 110 71 111 72 112
REMARK H PARENT 20 7 16 12 25 41 93 68 63 79
REMARK Flexibility Score: inf
ROOT
ATOM      1  C   UNL A   1      47.104  28.479  25.547  1.00  0.00     0.329 C 
ATOM      2  O   UNL A   1      47.252  29.420  26.372  1.00  0.00    -0.250 OA
ENDROOT
BRANCH   1   3
ATOM      3  C   UNL A   1      45.336  27.287  24.985  1.00  0.00     0.196 C 
BRANCH   3   4
ATOM      4  N   UNL A   1      43.651  27.758  25.019  1.00  0.00    -0.341 N 
ATOM      5  C   UNL A   1      42.699  28.452  25.691  1.00  0.00     0.240 C 
ATOM      6  O   UNL A   1      41.664  28.567  25.000  1.00  0.00    -0.273 OA
ATOM      7  H   UNL A   1      43.218  27.355  24.231  1.00  0.00     0.164 HD
BRANCH   5   8
ATOM      8  C   UNL A   1      42.690  29.245  27.057  1.00  0.00     0.216 C 
BRANCH   8   9
ATOM      9  N   UNL A   1      42.414  28.890  28.468  1.00  0.00    -0.340 N 
ATOM     10  C   UNL A   1      41.267  28.345  29.064  1.00  0.00     0.292 C 
ATOM     11  O   UNL A   1      41.331  27.726  30.121  1.00  0.00    -0.265 OA
ATOM     12  H   UNL A   1      43.158  29.066  29.089  1.00  0.00     0.164 HD
BRANCH  10  13
ATOM     13  C   UNL A   1      39.928  28.440  28.372  1.00  0.00     0.252 C 
ATOM     14  O   UNL A   1      39.774  27.531  27.547  1.00  0.00    -0.283 OA
BRANCH  13  15
ATOM     15  C   UNL A   1      38.824  29.421  28.532  1.00  0.00     0.054 A 
ATOM     16  N   UNL A   1      36.865  30.471  29.048  1.00  0.00    -0.240 N 
ATOM     17  C   UNL A   1      37.540  29.727  28.041  1.00  0.00     0.117 A 
ATOM     18  C   UNL A   1      37.854  30.762  30.026  1.00  0.00     0.065 A 
ATOM     19  C   UNL A   1      39.065  30.501  29.416  1.00  0.00     0.012 A 
ATOM     20  C   UNL A   1      37.811  31.509  31.220  1.00  0.00     0.028 A 
ATOM     21  C   UNL A   1      40.226  31.168  29.851  1.00  0.00     0.011 A 
ATOM     22  C   UNL A   1      38.946  32.238  31.575  1.00  0.00     0.002 A 
ATOM     23  C   UNL A   1      40.131  32.107  30.870  1.00  0.00     0.001 A 
BRANCH  16  24
ATOM     24  S   UNL A   1      35.753  31.808  28.956  1.00  0.00     0.268 S 
ATOM     25  O   UNL A   1      34.682  31.155  28.201  1.00  0.00    -0.201 OA
ATOM     26  O   UNL A   1      36.604  32.800  28.295  1.00  0.00    -0.201 OA
BRANCH  24  27
ATOM     27  C   UNL A   1      34.814  32.941  29.920  1.00  0.00     0.088 A 
ATOM     28  C   UNL A   1      32.898  36.659  31.131  1.00  0.00     0.044 C 
ATOM     29  C   UNL A   1      33.522  35.346  30.761  1.00  0.00    -0.051 A 
ATOM     30  C   UNL A   1      33.519  35.003  29.422  1.00  0.00     0.005 A 
ATOM     31  C   UNL A   1      34.159  34.476  31.674  1.00  0.00     0.005 A 
ATOM     32  C   UNL A   1      34.138  33.829  29.027  1.00  0.00     0.022 A 
ATOM     33  C   UNL A   1      34.825  33.284  31.257  1.00  0.00     0.022 A 
ENDBRANCH  24  27
ENDBRANCH  16  24
ENDBRANCH  13  15
ENDBRANCH  10  13
ENDBRANCH   8   9
ENDBRANCH   5   8
ENDBRANCH   3   4
BRANCH   3  34
ATOM     34  C   UNL A   1      44.934  25.514  25.003  1.00  0.00     0.074 C 
BRANCH  34  35
ATOM     35  C   UNL A   1      45.003  24.601  26.221  1.00  0.00    -0.020 A 
ATOM     36  C   UNL A   1      45.923  23.603  26.502  1.00  0.00     0.087 A 
ATOM     37  C   UNL A   1      43.963  24.482  27.214  1.00  0.00     0.003 A 
ATOM     38  N   UNL A   1      45.324  22.730  27.384  1.00  0.00    -0.361 N 
ATOM     39  C   UNL A   1      44.092  23.209  27.771  1.00  0.00     0.046 A 
ATOM     40  C   UNL A   1      42.819  25.241  27.528  1.00  0.00     0.010 A 
ATOM     41  H   UNL A   1      45.721  21.884  27.694  1.00  0.00     0.166 HD
ATOM     42  C   UNL A   1      43.059  22.601  28.500  1.00  0.00     0.026 A 
ATOM     43  C   UNL A   1      41.809  24.674  28.312  1.00  0.00     0.001 A 
ATOM     44  C   UNL A   1      41.909  23.358  28.751  1.00  0.00     0.002 A 
ENDBRANCH  34  35
ENDBRANCH   3  34
ENDBRANCH   1   3
BRANCH   1  45
ATOM     45  O   UNL A   1      48.459  28.206  25.095  1.00  0.00    -0.461 OA
BRANCH  45  46
ATOM     46  C   UNL A   1      48.632  27.000  24.333  1.00  0.00     0.274 C 
BRANCH  46  47
ATOM     47  C   UNL A   1      48.738  25.824  25.311  1.00  0.00     0.275 C 
BRANCH  47  48
ATOM     48  O   UNL A   1      49.374  26.114  26.589  1.00  0.00    -0.458 OA
BRANCH  48  49
ATOM     49  C   UNL A   1      48.956  25.614  27.781  1.00  0.00     0.338 C 
ATOM     50  O   UNL A   1      48.876  24.428  28.052  1.00  0.00    -0.246 OA
BRANCH  49  51
ATOM     51  C   UNL A   1      48.357  26.632  28.661  1.00  0.00     0.060 A 
ATOM     52  C   UNL A   1      49.300  27.143  30.082  1.00  0.00     0.016 A 
ATOM     53  C   UNL A   1      46.579  26.642  28.718  1.00  0.00     0.016 A 
ATOM     54  C   UNL A   1      48.419  27.567  31.618  1.00  0.00     0.010 A 
ATOM     55  C   UNL A   1      45.696  27.090  30.207  1.00  0.00     0.010 A 
ATOM     56  C   UNL A   1      46.620  27.436  31.697  1.00  0.00    -0.014 A 
BRANCH  56  57
ATOM     57  C   UNL A   1      45.807  27.221  32.870  1.00  0.00     0.031 A 
ATOM     58  C   UNL A   1      45.033  28.381  33.385  1.00  0.00     0.074 A 
ATOM     59  C   UNL A   1      45.546  25.943  33.228  1.00  0.00     0.049 A 
ATOM     60  N   UNL A   1      44.499  28.419  34.553  1.00  0.00    -0.248 NA
ATOM     61  C   UNL A   1      44.832  29.643  32.661  1.00  0.00     0.031 C 
ATOM     62  C   UNL A   1      44.409  25.474  34.010  1.00  0.00     0.029 A 
ATOM     63  N   UNL A   1      46.238  24.763  32.997  1.00  0.00    -0.354 N 
ATOM     64  C   UNL A   1      43.627  29.488  34.570  1.00  0.00     0.074 A 
ATOM     65  C   UNL A   1      44.006  30.312  33.465  1.00  0.00     0.031 C 
ATOM     66  C   UNL A   1      44.638  24.215  34.423  1.00  0.00     0.029 A 
ATOM     67  C   UNL A   1      45.989  23.852  34.031  1.00  0.00     0.049 A 
ATOM     68  H   UNL A   1      46.819  24.592  32.221  1.00  0.00     0.167 HD
ATOM     69  C   UNL A   1      42.554  29.446  35.404  1.00  0.00     0.031 A 
ATOM     70  C   UNL A   1      46.949  23.445  34.924  1.00  0.00     0.031 A 
ATOM     71  C   UNL A   1      42.649  28.268  36.261  1.00  0.00     0.049 A 
ATOM     72  C   UNL A   1      46.770  24.126  36.283  1.00  0.00     0.074 A 
ATOM     73  C   UNL A   1      42.040  27.026  36.225  1.00  0.00     0.029 A 
ATOM     74  N   UNL A   1      43.767  28.139  37.074  1.00  0.00    -0.354 N 
ATOM     75  N   UNL A   1      45.960  25.135  36.477  1.00  0.00    -0.248 NA
ATOM     76  C   UNL A   1      47.435  23.734  37.526  1.00  0.00     0.031 C 
ATOM     77  C   UNL A   1      42.876  26.120  36.938  1.00  0.00     0.029 A 
ATOM     78  C   UNL A   1      43.963  26.821  37.434  1.00  0.00     0.049 A 
ATOM     79  H   UNL A   1      44.343  28.887  37.354  1.00  0.00     0.167 HD
ATOM     80  C   UNL A   1      45.931  25.489  37.798  1.00  0.00     0.074 A 
ATOM     81  C   UNL A   1      46.895  24.595  38.414  1.00  0.00     0.031 C 
ATOM     82  C   UNL A   1      45.098  26.462  38.279  1.00  0.00     0.031 A 
BRANCH  69  83
ATOM     83  C   UNL A   1      41.308  30.293  35.274  1.00  0.00    -0.014 A 
ATOM     84  C   UNL A   1      41.287  31.553  35.907  1.00  0.00     0.010 A 
ATOM     85  C   UNL A   1      40.118  29.916  34.618  1.00  0.00     0.010 A 
ATOM     86  C   UNL A   1      40.147  32.368  35.916  1.00  0.00     0.020 A 
ATOM     87  C   UNL A   1      38.966  30.720  34.619  1.00  0.00     0.020 A 
ATOM     88  C   UNL A   1      38.987  31.942  35.275  1.00  0.00     0.054 A 
BRANCH  88  89
ATOM     89  S   UNL A   1      37.526  33.009  35.302  1.00  0.00     0.124 S 
ATOM     90  O   UNL A   1      38.072  34.296  34.877  1.00  0.00    -0.237 OA
ATOM     91  O   UNL A   1      36.640  32.352  34.347  1.00  0.00    -0.237 OA
ATOM     92  O   UNL A   1      37.084  32.959  36.694  1.00  0.00    -0.744 OA
ENDBRANCH  88  89
ENDBRANCH  69  83
BRANCH  70  93
ATOM     93  C   UNL A   1      48.231  23.020  34.277  1.00  0.00    -0.014 A 
ATOM     94  C   UNL A   1      49.376  23.813  34.492  1.00  0.00     0.010 A 
ATOM     95  C   UNL A   1      48.421  21.653  34.078  1.00  0.00     0.010 A 
ATOM     96  C   UNL A   1      50.605  23.215  34.817  1.00  0.00     0.020 A 
ATOM     97  C   UNL A   1      49.640  21.054  34.433  1.00  0.00     0.020 A 
ATOM     98  C   UNL A   1      50.689  21.830  34.899  1.00  0.00     0.054 A 
BRANCH  98  99
ATOM     99  S   UNL A   1      52.102  21.092  35.767  1.00  0.00     0.124 S 
ATOM    100  O   UNL A   1      53.181  21.360  34.826  1.00  0.00    -0.237 OA
ATOM    101  O   UNL A   1      52.151  21.839  37.019  1.00  0.00    -0.237 OA
ATOM    102  O   UNL A   1      51.778  19.674  35.888  1.00  0.00    -0.744 OA
ENDBRANCH  98  99
ENDBRANCH  70  93
BRANCH  82 103
ATOM    103  C   UNL A   1      45.182  27.120  39.641  1.00  0.00    -0.014 A 
ATOM    104  C   UNL A   1      45.791  28.356  39.886  1.00  0.00     0.010 A 
ATOM    105  C   UNL A   1      44.509  26.516  40.738  1.00  0.00     0.010 A 
ATOM    106  C   UNL A   1      45.820  28.905  41.175  1.00  0.00     0.020 A 
ATOM    107  C   UNL A   1      44.465  27.089  42.006  1.00  0.00     0.020 A 
ATOM    108  C   UNL A   1      45.169  28.260  42.228  1.00  0.00     0.054 A 
BRANCH 108 109
ATOM    109  S   UNL A   1      45.255  28.956  43.892  1.00  0.00     0.124 S 
ATOM    110  O   UNL A   1      46.633  29.435  43.941  1.00  0.00    -0.237 OA
ATOM    111  O   UNL A   1      44.229  29.996  43.858  1.00  0.00    -0.237 OA
ATOM    112  O   UNL A   1      44.955  27.821  44.761  1.00  0.00    -0.744 OA
ENDBRANCH 108 109
ENDBRANCH  82 103
ENDBRANCH  56  57
ENDBRANCH  49  51
ENDBRANCH  48  49
ENDBRANCH  47  48
ENDBRANCH  46  47
ENDBRANCH  45  46
ENDBRANCH   1  45
TORSDOF 23
ENDMDL
