MODEL 1
REMARK VINA RESULT:     -12.0      0.000      0.000
REMARK SMILES CCC(CC)(NC(=O)c1cc(C)ccc1OC)C(=O)OCCOC(=O)c1ccc(-c2c3nc(c(-c4ccc(S(=O)(=O)[O-])cc4)c4ccc([nH]4)c(-c4ccc(S(=O)(=O)[O-])cc4)c4nc(c(-c5ccc(S(=O)(=O)[O-])cc5)c5ccc2[nH]5)C=C4)C=C3)cc1
REMARK SMILES IDX 21 1 20 2 18 3 19 4 3 5 2 6 1 7 4 8 5 9 6 10 7 11 8 13 9 14
REMARK SMILES IDX 10 15 15 16 11 17 14 18 12 19 13 20 16 21 17 22 22 23 23 24
REMARK SMILES IDX 24 25 25 26 26 27 27 28 85 29 28 30 84 31 29 32 30 33 31 34
REMARK SMILES IDX 78 35 32 36 83 37 77 38 79 39 33 40 82 41 76 42 75 43 34 45
REMARK SMILES IDX 64 46 45 47 63 48 46 49 49 50 62 51 80 52 47 53 48 54 61 56
REMARK SMILES IDX 81 57 50 58 35 59 36 60 44 61 37 62 43 63 38 64 39 65 40 66
REMARK SMILES IDX 41 67 42 68 65 69 66 70 74 71 67 72 73 73 68 74 69 75 70 76
REMARK SMILES IDX 71 77 72 78 51 79 52 80 60 81 53 82 59 83 54 84 55 85 56 86
REMARK SMILES IDX 57 87 58 88
REMARK H PARENT 6 12 79 44 49 55
REMARK Flexibility Score: inf
ROOT
ATOM      1  C   UNL A   1      35.913  22.708  23.408  1.00  0.00     0.274 C 
ENDROOT
BRANCH   1   2
ATOM      2  O   UNL A   1      35.036  23.766  22.983  1.00  0.00    -0.460 OA
BRANCH   2   3
ATOM      3  C   UNL A   1      33.716  23.559  23.194  1.00  0.00     0.331 C 
ATOM      4  O   UNL A   1      33.219  22.434  23.230  1.00  0.00    -0.249 OA
BRANCH   3   5
ATOM      5  C   UNL A   1      32.956  24.822  23.659  1.00  0.00     0.137 C 
BRANCH   5   6
ATOM      6  C   UNL A   1      33.398  25.150  25.141  1.00  0.00     0.037 C 
ATOM      7  C   UNL A   1      33.725  24.027  26.138  1.00  0.00     0.007 C 
ENDBRANCH   5   6
BRANCH   5   8
ATOM      8  C   UNL A   1      31.418  24.900  23.524  1.00  0.00     0.037 C 
ATOM      9  C   UNL A   1      30.697  25.419  24.780  1.00  0.00     0.007 C 
ENDBRANCH   5   8
BRANCH   5  10
ATOM     10  N   UNL A   1      33.641  25.811  22.736  1.00  0.00    -0.336 N 
ATOM     11  C   UNL A   1      33.463  27.159  22.468  1.00  0.00     0.255 C 
ATOM     12  H   UNL A   1      34.371  25.407  22.212  1.00  0.00     0.165 HD
ATOM     13  O   UNL A   1      34.063  27.637  21.503  1.00  0.00    -0.269 OA
BRANCH  11  14
ATOM     14  C   UNL A   1      32.557  28.077  23.214  1.00  0.00     0.082 A 
ATOM     15  C   UNL A   1      31.304  28.377  22.618  1.00  0.00     0.021 A 
ATOM     16  C   UNL A   1      32.893  28.720  24.410  1.00  0.00     0.131 A 
ATOM     17  C   UNL A   1      30.351  29.201  23.268  1.00  0.00    -0.050 A 
ATOM     18  C   UNL A   1      31.947  29.540  25.050  1.00  0.00     0.047 A 
ATOM     19  C   UNL A   1      28.934  29.310  22.762  1.00  0.00     0.044 C 
ATOM     20  C   UNL A   1      30.692  29.783  24.490  1.00  0.00     0.007 A 
BRANCH  16  21
ATOM     21  O   UNL A   1      34.077  28.650  25.092  1.00  0.00    -0.496 OA
ATOM     22  C   UNL A   1      33.979  28.770  26.504  1.00  0.00     0.278 C 
ENDBRANCH  16  21
ENDBRANCH  11  14
ENDBRANCH   5  10
ENDBRANCH   3   5
ENDBRANCH   2   3
ENDBRANCH   1   2
BRANCH   1  23
ATOM     23  C   UNL A   1      37.279  23.027  24.049  1.00  0.00     0.275 C 
BRANCH  23  24
ATOM     24  O   UNL A   1      37.537  22.769  25.441  1.00  0.00    -0.458 OA
BRANCH  24  25
ATOM     25  C   UNL A   1      38.734  22.281  25.849  1.00  0.00     0.338 C 
ATOM     26  O   UNL A   1      39.339  21.358  25.355  1.00  0.00    -0.246 OA
BRANCH  25  27
ATOM     27  C   UNL A   1      39.352  23.175  26.846  1.00  0.00     0.060 A 
ATOM     28  C   UNL A   1      40.264  22.625  27.756  1.00  0.00     0.016 A 
ATOM     29  C   UNL A   1      39.282  24.545  26.623  1.00  0.00     0.016 A 
ATOM     30  C   UNL A   1      41.167  23.456  28.377  1.00  0.00     0.010 A 
ATOM     31  C   UNL A   1      40.371  25.295  26.952  1.00  0.00     0.010 A 
ATOM     32  C   UNL A   1      41.211  24.780  27.931  1.00  0.00    -0.014 A 
BRANCH  32  33
ATOM     33  C   UNL A   1      41.724  25.835  28.783  1.00  0.00     0.031 A 
ATOM     34  C   UNL A   1      40.799  26.969  28.910  1.00  0.00     0.074 A 
ATOM     35  C   UNL A   1      42.992  25.512  29.164  1.00  0.00     0.049 A 
ATOM     36  N   UNL A   1      40.949  28.154  28.426  1.00  0.00    -0.248 NA
ATOM     37  C   UNL A   1      39.430  26.764  29.430  1.00  0.00     0.031 C 
ATOM     38  C   UNL A   1      44.069  26.185  29.844  1.00  0.00     0.029 A 
ATOM     39  N   UNL A   1      43.650  24.351  28.693  1.00  0.00    -0.354 N 
ATOM     40  C   UNL A   1      40.035  28.909  29.138  1.00  0.00     0.074 A 
ATOM     41  C   UNL A   1      38.948  28.014  29.440  1.00  0.00     0.031 C 
ATOM     42  C   UNL A   1      45.237  25.706  29.342  1.00  0.00     0.029 A 
ATOM     43  C   UNL A   1      44.951  24.653  28.357  1.00  0.00     0.049 A 
ATOM     44  H   UNL A   1      43.240  23.460  28.617  1.00  0.00     0.167 HD
ATOM     45  C   UNL A   1      40.488  29.968  29.878  1.00  0.00     0.031 A 
ATOM     46  C   UNL A   1      45.210  24.625  27.013  1.00  0.00     0.031 A 
ATOM     47  C   UNL A   1      41.954  30.014  29.805  1.00  0.00     0.049 A 
ATOM     48  C   UNL A   1      45.216  26.075  26.555  1.00  0.00     0.074 A 
ATOM     49  C   UNL A   1      42.932  29.585  30.689  1.00  0.00     0.029 A 
ATOM     50  N   UNL A   1      42.577  30.095  28.557  1.00  0.00    -0.354 N 
ATOM     51  N   UNL A   1      44.413  27.009  27.020  1.00  0.00    -0.248 NA
ATOM     52  C   UNL A   1      46.321  26.616  25.774  1.00  0.00     0.031 C 
ATOM     53  C   UNL A   1      44.107  29.310  29.935  1.00  0.00     0.029 A 
ATOM     54  C   UNL A   1      43.817  29.471  28.588  1.00  0.00     0.049 A 
ATOM     55  H   UNL A   1      42.190  30.534  27.765  1.00  0.00     0.167 HD
ATOM     56  C   UNL A   1      44.996  28.240  26.803  1.00  0.00     0.074 A 
ATOM     57  C   UNL A   1      46.153  27.935  25.965  1.00  0.00     0.031 C 
ATOM     58  C   UNL A   1      44.644  29.431  27.387  1.00  0.00     0.031 A 
BRANCH  45  59
ATOM     59  C   UNL A   1      39.655  30.608  30.971  1.00  0.00    -0.014 A 
ATOM     60  C   UNL A   1      38.990  31.829  30.743  1.00  0.00     0.010 A 
ATOM     61  C   UNL A   1      39.472  30.024  32.244  1.00  0.00     0.010 A 
ATOM     62  C   UNL A   1      38.224  32.461  31.735  1.00  0.00     0.020 A 
ATOM     63  C   UNL A   1      38.720  30.656  33.254  1.00  0.00     0.020 A 
ATOM     64  C   UNL A   1      38.095  31.871  32.989  1.00  0.00     0.054 A 
BRANCH  64  65
ATOM     65  S   UNL A   1      37.067  32.696  34.238  1.00  0.00     0.124 S 
ATOM     66  O   UNL A   1      37.417  31.976  35.461  1.00  0.00    -0.237 OA
ATOM     67  O   UNL A   1      37.536  34.077  34.167  1.00  0.00    -0.237 OA
ATOM     68  O   UNL A   1      35.702  32.479  33.765  1.00  0.00    -0.744 OA
ENDBRANCH  64  65
ENDBRANCH  45  59
BRANCH  46  69
ATOM     69  C   UNL A   1      44.852  23.323  26.270  1.00  0.00    -0.014 A 
ATOM     70  C   UNL A   1      45.926  22.656  25.608  1.00  0.00     0.010 A 
ATOM     71  C   UNL A   1      43.618  22.641  26.211  1.00  0.00     0.010 A 
ATOM     72  C   UNL A   1      45.826  21.374  25.034  1.00  0.00     0.020 A 
ATOM     73  C   UNL A   1      43.499  21.334  25.614  1.00  0.00     0.020 A 
ATOM     74  C   UNL A   1      44.611  20.706  25.036  1.00  0.00     0.054 A 
BRANCH  74  75
ATOM     75  S   UNL A   1      44.588  18.989  24.378  1.00  0.00     0.124 S 
ATOM     76  O   UNL A   1      44.502  19.214  22.939  1.00  0.00    -0.237 OA
ATOM     77  O   UNL A   1      45.872  18.453  24.835  1.00  0.00    -0.237 OA
ATOM     78  O   UNL A   1      43.405  18.388  24.976  1.00  0.00    -0.744 OA
ENDBRANCH  74  75
ENDBRANCH  46  69
BRANCH  58  79
ATOM     79  C   UNL A   1      45.162  30.771  26.930  1.00  0.00    -0.014 A 
ATOM     80  C   UNL A   1      44.328  31.778  26.430  1.00  0.00     0.010 A 
ATOM     81  C   UNL A   1      46.513  31.112  27.194  1.00  0.00     0.010 A 
ATOM     82  C   UNL A   1      44.835  33.045  26.138  1.00  0.00     0.020 A 
ATOM     83  C   UNL A   1      47.010  32.391  26.974  1.00  0.00     0.020 A 
ATOM     84  C   UNL A   1      46.172  33.343  26.415  1.00  0.00     0.054 A 
BRANCH  84  85
ATOM     85  S   UNL A   1      46.794  35.006  26.100  1.00  0.00     0.124 S 
ATOM     86  O   UNL A   1      45.558  35.735  25.833  1.00  0.00    -0.237 OA
ATOM     87  O   UNL A   1      47.467  35.344  27.352  1.00  0.00    -0.237 OA
ATOM     88  O   UNL A   1      47.679  34.828  24.952  1.00  0.00    -0.744 OA
ENDBRANCH  84  85
ENDBRANCH  58  79
ENDBRANCH  32  33
ENDBRANCH  25  27
ENDBRANCH  24  25
ENDBRANCH  23  24
ENDBRANCH   1  23
TORSDOF 19
ENDMDL
MODEL 2
REMARK VINA RESULT:     -11.4      3.927     10.258
REMARK SMILES CCC(CC)(NC(=O)c1cc(C)ccc1OC)C(=O)OCCOC(=O)c1ccc(-c2c3nc(c(-c4ccc(S(=O)(=O)[O-])cc4)c4ccc([nH]4)c(-c4ccc(S(=O)(=O)[O-])cc4)c4nc(c(-c5ccc(S(=O)(=O)[O-])cc5)c5ccc2[nH]5)C=C4)C=C3)cc1
REMARK SMILES IDX 21 1 20 2 18 3 19 4 3 5 2 6 1 7 4 8 5 9 6 10 7 11 8 13 9 14
REMARK SMILES IDX 10 15 15 16 11 17 14 18 12 19 13 20 16 21 17 22 22 23 23 24
REMARK SMILES IDX 24 25 25 26 26 27 27 28 85 29 28 30 84 31 29 32 30 33 31 34
REMARK SMILES IDX 78 35 32 36 83 37 77 38 79 39 33 40 82 41 76 42 75 43 34 45
REMARK SMILES IDX 64 46 45 47 63 48 46 49 49 50 62 51 80 52 47 53 48 54 61 56
REMARK SMILES IDX 81 57 50 58 35 59 36 60 44 61 37 62 43 63 38 64 39 65 40 66
REMARK SMILES IDX 41 67 42 68 65 69 66 70 74 71 67 72 73 73 68 74 69 75 70 76
REMARK SMILES IDX 71 77 72 78 51 79 52 80 60 81 53 82 59 83 54 84 55 85 56 86
REMARK SMILES IDX 57 87 58 88
REMARK H PARENT 6 12 79 44 49 55
REMARK Flexibility Score: inf
ROOT
ATOM      1  C   UNL A   1      32.088  30.577  26.924  1.00  0.00     0.274 C 
ENDROOT
BRANCH   1   2
ATOM      2  O   UNL A   1      31.566  29.474  26.163  1.00  0.00    -0.460 OA
BRANCH   2   3
ATOM      3  C   UNL A   1      31.877  28.240  26.623  1.00  0.00     0.331 C 
ATOM      4  O   UNL A   1      31.702  27.906  27.794  1.00  0.00    -0.249 OA
BRANCH   3   5
ATOM      5  C   UNL A   1      32.199  27.223  25.504  1.00  0.00     0.137 C 
BRANCH   5   6
ATOM      6  C   UNL A   1      32.845  25.942  26.169  1.00  0.00     0.037 C 
ATOM      7  C   UNL A   1      34.100  25.287  25.572  1.00  0.00     0.007 C 
ENDBRANCH   5   6
BRANCH   5   8
ATOM      8  C   UNL A   1      33.014  27.659  24.266  1.00  0.00     0.037 C 
ATOM      9  C   UNL A   1      32.162  28.196  23.103  1.00  0.00     0.007 C 
ENDBRANCH   5   8
BRANCH   5  10
ATOM     10  N   UNL A   1      30.768  26.886  25.132  1.00  0.00    -0.336 N 
ATOM     11  C   UNL A   1      30.128  25.726  24.725  1.00  0.00     0.255 C 
ATOM     12  H   UNL A   1      30.162  27.660  25.192  1.00  0.00     0.165 HD
ATOM     13  O   UNL A   1      28.974  25.826  24.301  1.00  0.00    -0.269 OA
BRANCH  11  14
ATOM     14  C   UNL A   1      30.735  24.366  24.699  1.00  0.00     0.082 A 
ATOM     15  C   UNL A   1      31.270  23.918  23.463  1.00  0.00     0.021 A 
ATOM     16  C   UNL A   1      30.737  23.480  25.782  1.00  0.00     0.131 A 
ATOM     17  C   UNL A   1      31.912  22.660  23.344  1.00  0.00    -0.050 A 
ATOM     18  C   UNL A   1      31.370  22.231  25.660  1.00  0.00     0.047 A 
ATOM     19  C   UNL A   1      32.701  22.296  22.112  1.00  0.00     0.044 C 
ATOM     20  C   UNL A   1      31.950  21.821  24.459  1.00  0.00     0.007 A 
BRANCH  16  21
ATOM     21  O   UNL A   1      30.188  23.673  27.020  1.00  0.00    -0.496 OA
ATOM     22  C   UNL A   1      29.234  22.702  27.426  1.00  0.00     0.278 C 
ENDBRANCH  16  21
ENDBRANCH  11  14
ENDBRANCH   5  10
ENDBRANCH   3   5
ENDBRANCH   2   3
ENDBRANCH   1   2
BRANCH   1  23
ATOM     23  C   UNL A   1      33.607  30.832  27.002  1.00  0.00     0.275 C 
BRANCH  23  24
ATOM     24  O   UNL A   1      34.394  30.366  28.114  1.00  0.00    -0.458 OA
BRANCH  24  25
ATOM     25  C   UNL A   1      34.974  31.239  28.972  1.00  0.00     0.338 C 
ATOM     26  O   UNL A   1      34.408  32.079  29.633  1.00  0.00    -0.246 OA
BRANCH  25  27
ATOM     27  C   UNL A   1      36.389  30.891  29.198  1.00  0.00     0.060 A 
ATOM     28  C   UNL A   1      36.698  30.022  30.252  1.00  0.00     0.016 A 
ATOM     29  C   UNL A   1      37.292  31.145  28.173  1.00  0.00     0.016 A 
ATOM     30  C   UNL A   1      37.893  29.340  30.222  1.00  0.00     0.010 A 
ATOM     31  C   UNL A   1      38.283  30.232  27.964  1.00  0.00     0.010 A 
ATOM     32  C   UNL A   1      38.648  29.448  29.051  1.00  0.00    -0.014 A 
BRANCH  32  33
ATOM     33  C   UNL A   1      40.078  29.210  29.064  1.00  0.00     0.031 A 
ATOM     34  C   UNL A   1      40.429  27.813  28.778  1.00  0.00     0.074 A 
ATOM     35  C   UNL A   1      40.708  30.359  29.437  1.00  0.00     0.049 A 
ATOM     36  N   UNL A   1      40.918  26.950  29.599  1.00  0.00    -0.248 NA
ATOM     37  C   UNL A   1      40.002  27.178  27.512  1.00  0.00     0.031 C 
ATOM     38  C   UNL A   1      42.055  30.730  29.791  1.00  0.00     0.029 A 
ATOM     39  N   UNL A   1      39.998  31.525  29.810  1.00  0.00    -0.354 N 
ATOM     40  C   UNL A   1      41.416  25.962  28.769  1.00  0.00     0.074 A 
ATOM     41  C   UNL A   1      40.555  25.962  27.613  1.00  0.00     0.031 C 
ATOM     42  C   UNL A   1      41.980  31.730  30.707  1.00  0.00     0.029 A 
ATOM     43  C   UNL A   1      40.571  32.086  30.929  1.00  0.00     0.049 A 
ATOM     44  H   UNL A   1      39.211  31.882  29.338  1.00  0.00     0.167 HD
ATOM     45  C   UNL A   1      42.749  25.658  28.828  1.00  0.00     0.031 A 
ATOM     46  C   UNL A   1      39.815  31.980  32.065  1.00  0.00     0.031 A 
ATOM     47  C   UNL A   1      43.408  26.570  29.772  1.00  0.00     0.049 A 
ATOM     48  C   UNL A   1      40.417  30.836  32.866  1.00  0.00     0.074 A 
ATOM     49  C   UNL A   1      44.161  27.716  29.567  1.00  0.00     0.029 A 
ATOM     50  N   UNL A   1      42.949  26.644  31.089  1.00  0.00    -0.354 N 
ATOM     51  N   UNL A   1      40.918  29.737  32.341  1.00  0.00    -0.248 NA
ATOM     52  C   UNL A   1      40.762  30.998  34.273  1.00  0.00     0.031 C 
ATOM     53  C   UNL A   1      44.054  28.519  30.737  1.00  0.00     0.029 A 
ATOM     54  C   UNL A   1      43.159  27.916  31.609  1.00  0.00     0.049 A 
ATOM     55  H   UNL A   1      42.534  25.899  31.581  1.00  0.00     0.167 HD
ATOM     56  C   UNL A   1      41.806  29.184  33.238  1.00  0.00     0.074 A 
ATOM     57  C   UNL A   1      41.619  29.978  34.450  1.00  0.00     0.031 C 
ATOM     58  C   UNL A   1      42.750  28.222  32.975  1.00  0.00     0.031 A 
BRANCH  45  59
ATOM     59  C   UNL A   1      43.455  24.890  27.728  1.00  0.00    -0.014 A 
ATOM     60  C   UNL A   1      44.293  25.556  26.813  1.00  0.00     0.010 A 
ATOM     61  C   UNL A   1      43.346  23.491  27.572  1.00  0.00     0.010 A 
ATOM     62  C   UNL A   1      44.950  24.883  25.771  1.00  0.00     0.020 A 
ATOM     63  C   UNL A   1      43.985  22.804  26.521  1.00  0.00     0.020 A 
ATOM     64  C   UNL A   1      44.790  23.507  25.629  1.00  0.00     0.054 A 
BRANCH  64  65
ATOM     65  S   UNL A   1      45.682  22.660  24.293  1.00  0.00     0.124 S 
ATOM     66  O   UNL A   1      46.550  23.715  23.775  1.00  0.00    -0.237 OA
ATOM     67  O   UNL A   1      46.360  21.581  25.005  1.00  0.00    -0.237 OA
ATOM     68  O   UNL A   1      44.622  22.232  23.383  1.00  0.00    -0.744 OA
ENDBRANCH  64  65
ENDBRANCH  45  59
BRANCH  46  69
ATOM     69  C   UNL A   1      38.374  32.521  31.987  1.00  0.00    -0.014 A 
ATOM     70  C   UNL A   1      37.449  32.001  32.941  1.00  0.00     0.010 A 
ATOM     71  C   UNL A   1      37.844  33.526  31.149  1.00  0.00     0.010 A 
ATOM     72  C   UNL A   1      36.148  32.503  33.136  1.00  0.00     0.020 A 
ATOM     73  C   UNL A   1      36.509  34.039  31.329  1.00  0.00     0.020 A 
ATOM     74  C   UNL A   1      35.672  33.527  32.331  1.00  0.00     0.054 A 
BRANCH  74  75
ATOM     75  S   UNL A   1      34.011  34.211  32.725  1.00  0.00     0.124 S 
ATOM     76  O   UNL A   1      33.329  33.050  33.289  1.00  0.00    -0.237 OA
ATOM     77  O   UNL A   1      34.320  35.266  33.692  1.00  0.00    -0.237 OA
ATOM     78  O   UNL A   1      33.493  34.663  31.442  1.00  0.00    -0.744 OA
ENDBRANCH  74  75
ENDBRANCH  46  69
BRANCH  58  79
ATOM     79  C   UNL A   1      43.521  27.493  34.046  1.00  0.00    -0.014 A 
ATOM     80  C   UNL A   1      44.753  27.941  34.533  1.00  0.00     0.010 A 
ATOM     81  C   UNL A   1      42.896  26.421  34.733  1.00  0.00     0.010 A 
ATOM     82  C   UNL A   1      45.369  27.304  35.612  1.00  0.00     0.020 A 
ATOM     83  C   UNL A   1      43.467  25.827  35.851  1.00  0.00     0.020 A 
ATOM     84  C   UNL A   1      44.720  26.254  36.265  1.00  0.00     0.054 A 
BRANCH  84  85
ATOM     85  S   UNL A   1      45.495  25.487  37.701  1.00  0.00     0.124 S 
ATOM     86  O   UNL A   1      46.890  25.415  37.277  1.00  0.00    -0.237 OA
ATOM     87  O   UNL A   1      45.211  26.441  38.771  1.00  0.00    -0.237 OA
ATOM     88  O   UNL A   1      44.806  24.205  37.819  1.00  0.00    -0.744 OA
ENDBRANCH  84  85
ENDBRANCH  58  79
ENDBRANCH  32  33
ENDBRANCH  25  27
ENDBRANCH  24  25
ENDBRANCH  23  24
ENDBRANCH   1  23
TORSDOF 19
ENDMDL
MODEL 3
REMARK VINA RESULT:     -11.2      1.254      2.081
REMARK SMILES CCC(CC)(NC(=O)c1cc(C)ccc1OC)C(=O)OCCOC(=O)c1ccc(-c2c3nc(c(-c4ccc(S(=O)(=O)[O-])cc4)c4ccc([nH]4)c(-c4ccc(S(=O)(=O)[O-])cc4)c4nc(c(-c5ccc(S(=O)(=O)[O-])cc5)c5ccc2[nH]5)C=C4)C=C3)cc1
REMARK SMILES IDX 21 1 20 2 18 3 19 4 3 5 2 6 1 7 4 8 5 9 6 10 7 11 8 13 9 14
REMARK SMILES IDX 10 15 15 16 11 17 14 18 12 19 13 20 16 21 17 22 22 23 23 24
REMARK SMILES IDX 24 25 25 26 26 27 27 28 85 29 28 30 84 31 29 32 30 33 31 34
REMARK SMILES IDX 78 35 32 36 83 37 77 38 79 39 33 40 82 41 76 42 75 43 34 45
REMARK SMILES IDX 64 46 45 47 63 48 46 49 49 50 62 51 80 52 47 53 48 54 61 56
REMARK SMILES IDX 81 57 50 58 35 59 36 60 44 61 37 62 43 63 38 64 39 65 40 66
REMARK SMILES IDX 41 67 42 68 65 69 66 70 74 71 67 72 73 73 68 74 69 75 70 76
REMARK SMILES IDX 71 77 72 78 51 79 52 80 60 81 53 82 59 83 54 84 55 85 56 86
REMARK SMILES IDX 57 87 58 88
REMARK H PARENT 6 12 79 44 49 55
REMARK Flexibility Score: inf
ROOT
ATOM      1  C   UNL A   1      35.195  22.407  25.400  1.00  0.00     0.274 C 
ENDROOT
BRANCH   1   2
ATOM      2  O   UNL A   1      34.357  23.504  24.996  1.00  0.00    -0.460 OA
BRANCH   2   3
ATOM      3  C   UNL A   1      33.045  23.390  25.305  1.00  0.00     0.331 C 
ATOM      4  O   UNL A   1      32.654  23.086  26.430  1.00  0.00    -0.249 OA
BRANCH   3   5
ATOM      5  C   UNL A   1      32.099  23.944  24.215  1.00  0.00     0.137 C 
BRANCH   5   6
ATOM      6  C   UNL A   1      31.684  22.751  23.265  1.00  0.00     0.037 C 
ATOM      7  C   UNL A   1      32.512  21.457  23.208  1.00  0.00     0.007 C 
ENDBRANCH   5   6
BRANCH   5   8
ATOM      8  C   UNL A   1      32.509  25.180  23.382  1.00  0.00     0.037 C 
ATOM      9  C   UNL A   1      33.855  25.802  23.791  1.00  0.00     0.007 C 
ENDBRANCH   5   8
BRANCH   5  10
ATOM     10  N   UNL A   1      30.922  24.254  25.120  1.00  0.00    -0.336 N 
ATOM     11  C   UNL A   1      30.483  25.398  25.768  1.00  0.00     0.255 C 
ATOM     12  H   UNL A   1      30.345  23.474  25.282  1.00  0.00     0.165 HD
ATOM     13  O   UNL A   1      29.585  25.275  26.604  1.00  0.00    -0.269 OA
BRANCH  11  14
ATOM     14  C   UNL A   1      31.045  26.766  25.586  1.00  0.00     0.082 A 
ATOM     15  C   UNL A   1      32.033  27.190  26.513  1.00  0.00     0.021 A 
ATOM     16  C   UNL A   1      30.606  27.679  24.621  1.00  0.00     0.131 A 
ATOM     17  C   UNL A   1      32.664  28.454  26.399  1.00  0.00    -0.050 A 
ATOM     18  C   UNL A   1      31.231  28.934  24.514  1.00  0.00     0.047 A 
ATOM     19  C   UNL A   1      33.882  28.798  27.218  1.00  0.00     0.044 C 
ATOM     20  C   UNL A   1      32.246  29.322  25.390  1.00  0.00     0.007 A 
BRANCH  16  21
ATOM     21  O   UNL A   1      29.604  27.510  23.705  1.00  0.00    -0.496 OA
ATOM     22  C   UNL A   1      29.437  28.571  22.776  1.00  0.00     0.278 C 
ENDBRANCH  16  21
ENDBRANCH  11  14
ENDBRANCH   5  10
ENDBRANCH   3   5
ENDBRANCH   2   3
ENDBRANCH   1   2
BRANCH   1  23
ATOM     23  C   UNL A   1      36.577  22.191  24.751  1.00  0.00     0.275 C 
BRANCH  23  24
ATOM     24  O   UNL A   1      37.739  22.917  25.190  1.00  0.00    -0.458 OA
BRANCH  24  25
ATOM     25  C   UNL A   1      38.754  22.288  25.830  1.00  0.00     0.338 C 
ATOM     26  O   UNL A   1      39.247  21.227  25.524  1.00  0.00    -0.246 OA
BRANCH  25  27
ATOM     27  C   UNL A   1      39.372  23.175  26.834  1.00  0.00     0.060 A 
ATOM     28  C   UNL A   1      40.259  22.613  27.760  1.00  0.00     0.016 A 
ATOM     29  C   UNL A   1      39.327  24.545  26.605  1.00  0.00     0.016 A 
ATOM     30  C   UNL A   1      41.166  23.431  28.392  1.00  0.00     0.010 A 
ATOM     31  C   UNL A   1      40.424  25.278  26.949  1.00  0.00     0.010 A 
ATOM     32  C   UNL A   1      41.239  24.752  27.943  1.00  0.00    -0.014 A 
BRANCH  32  33
ATOM     33  C   UNL A   1      41.756  25.802  28.800  1.00  0.00     0.031 A 
ATOM     34  C   UNL A   1      40.844  26.947  28.915  1.00  0.00     0.074 A 
ATOM     35  C   UNL A   1      43.016  25.463  29.195  1.00  0.00     0.049 A 
ATOM     36  N   UNL A   1      41.014  28.130  28.432  1.00  0.00    -0.248 NA
ATOM     37  C   UNL A   1      39.467  26.760  29.421  1.00  0.00     0.031 C 
ATOM     38  C   UNL A   1      44.094  26.123  29.886  1.00  0.00     0.029 A 
ATOM     39  N   UNL A   1      43.665  24.294  28.732  1.00  0.00    -0.354 N 
ATOM     40  C   UNL A   1      40.103  28.898  29.134  1.00  0.00     0.074 A 
ATOM     41  C   UNL A   1      39.001  28.016  29.425  1.00  0.00     0.031 C 
ATOM     42  C   UNL A   1      45.261  25.630  29.396  1.00  0.00     0.029 A 
ATOM     43  C   UNL A   1      44.972  24.580  28.409  1.00  0.00     0.049 A 
ATOM     44  H   UNL A   1      43.244  23.408  28.652  1.00  0.00     0.167 HD
ATOM     45  C   UNL A   1      40.561  29.951  29.878  1.00  0.00     0.031 A 
ATOM     46  C   UNL A   1      45.246  24.546  27.068  1.00  0.00     0.031 A 
ATOM     47  C   UNL A   1      42.028  29.978  29.821  1.00  0.00     0.049 A 
ATOM     48  C   UNL A   1      45.275  25.996  26.609  1.00  0.00     0.074 A 
ATOM     49  C   UNL A   1      42.990  29.539  30.715  1.00  0.00     0.029 A 
ATOM     50  N   UNL A   1      42.665  30.051  28.579  1.00  0.00    -0.354 N 
ATOM     51  N   UNL A   1      44.479  26.941  27.065  1.00  0.00    -0.248 NA
ATOM     52  C   UNL A   1      46.395  26.522  25.840  1.00  0.00     0.031 C 
ATOM     53  C   UNL A   1      44.170  29.248  29.975  1.00  0.00     0.029 A 
ATOM     54  C   UNL A   1      43.897  29.411  28.624  1.00  0.00     0.049 A 
ATOM     55  H   UNL A   1      42.292  30.494  27.783  1.00  0.00     0.167 HD
ATOM     56  C   UNL A   1      45.079  28.164  26.853  1.00  0.00     0.074 A 
ATOM     57  C   UNL A   1      46.241  27.844  26.028  1.00  0.00     0.031 C 
ATOM     58  C   UNL A   1      44.736  29.360  27.432  1.00  0.00     0.031 A 
BRANCH  45  59
ATOM     59  C   UNL A   1      39.724  30.603  30.961  1.00  0.00    -0.014 A 
ATOM     60  C   UNL A   1      40.121  30.538  32.311  1.00  0.00     0.010 A 
ATOM     61  C   UNL A   1      38.539  31.323  30.692  1.00  0.00     0.010 A 
ATOM     62  C   UNL A   1      39.364  31.114  33.343  1.00  0.00     0.020 A 
ATOM     63  C   UNL A   1      37.760  31.891  31.719  1.00  0.00     0.020 A 
ATOM     64  C   UNL A   1      38.183  31.787  33.041  1.00  0.00     0.054 A 
BRANCH  64  65
ATOM     65  S   UNL A   1      37.245  32.552  34.395  1.00  0.00     0.124 S 
ATOM     66  O   UNL A   1      37.529  31.661  35.518  1.00  0.00    -0.237 OA
ATOM     67  O   UNL A   1      37.846  33.880  34.480  1.00  0.00    -0.237 OA
ATOM     68  O   UNL A   1      35.864  32.525  33.921  1.00  0.00    -0.744 OA
ENDBRANCH  64  65
ENDBRANCH  45  59
BRANCH  46  69
ATOM     69  C   UNL A   1      44.880  23.248  26.323  1.00  0.00    -0.014 A 
ATOM     70  C   UNL A   1      45.971  22.465  25.841  1.00  0.00     0.010 A 
ATOM     71  C   UNL A   1      43.609  22.671  26.109  1.00  0.00     0.010 A 
ATOM     72  C   UNL A   1      45.838  21.173  25.299  1.00  0.00     0.020 A 
ATOM     73  C   UNL A   1      43.458  21.354  25.542  1.00  0.00     0.020 A 
ATOM     74  C   UNL A   1      44.579  20.610  25.149  1.00  0.00     0.054 A 
BRANCH  74  75
ATOM     75  S   UNL A   1      44.494  18.874  24.548  1.00  0.00     0.124 S 
ATOM     76  O   UNL A   1      43.238  18.410  25.128  1.00  0.00    -0.237 OA
ATOM     77  O   UNL A   1      44.470  19.039  23.093  1.00  0.00    -0.237 OA
ATOM     78  O   UNL A   1      45.690  18.245  25.091  1.00  0.00    -0.744 OA
ENDBRANCH  74  75
ENDBRANCH  46  69
BRANCH  58  79
ATOM     79  C   UNL A   1      45.275  30.693  26.979  1.00  0.00    -0.014 A 
ATOM     80  C   UNL A   1      44.513  31.615  26.254  1.00  0.00     0.010 A 
ATOM     81  C   UNL A   1      46.535  31.126  27.469  1.00  0.00     0.010 A 
ATOM     82  C   UNL A   1      45.012  32.886  25.967  1.00  0.00     0.020 A 
ATOM     83  C   UNL A   1      47.010  32.413  27.249  1.00  0.00     0.020 A 
ATOM     84  C   UNL A   1      46.256  33.277  26.469  1.00  0.00     0.054 A 
BRANCH  84  85
ATOM     85  S   UNL A   1      46.857  34.947  26.150  1.00  0.00     0.124 S 
ATOM     86  O   UNL A   1      47.083  34.906  24.709  1.00  0.00    -0.237 OA
ATOM     87  O   UNL A   1      45.742  35.783  26.589  1.00  0.00    -0.237 OA
ATOM     88  O   UNL A   1      48.059  35.041  26.973  1.00  0.00    -0.744 OA
ENDBRANCH  84  85
ENDBRANCH  58  79
ENDBRANCH  32  33
ENDBRANCH  25  27
ENDBRANCH  24  25
ENDBRANCH  23  24
ENDBRANCH   1  23
TORSDOF 19
ENDMDL
