MODEL 1
REMARK VINA RESULT:     -11.3      0.000      0.000
REMARK SMILES Cc1nsc(NC(=O)N2CCC[C@@H](C)C2)c1C(=O)OCCOC(=O)c1ccc(-c2c3nc(c(-c4ccc(S(=O)(=O)[O-])cc4)c4ccc([nH]4)c(-c4ccc(S(=O)(=O)[O-])cc4)c4nc(c(-c5ccc(S(=O)(=O)[O-])cc5)c5ccc2[nH]5)C=C4)C=C3)cc1
REMARK SMILES IDX 21 1 20 2 19 3 17 4 18 5 16 6 1 7 2 8 3 9 4 10 5 11 6 12
REMARK SMILES IDX 7 13 8 15 9 16 10 17 15 18 11 19 13 20 12 21 14 22 22 23
REMARK SMILES IDX 23 24 24 25 25 26 26 27 84 28 27 29 83 30 28 31 29 32 30 33
REMARK SMILES IDX 77 34 31 35 82 36 76 37 78 38 32 39 81 40 75 41 74 42 33 44
REMARK SMILES IDX 63 45 44 46 62 47 45 48 48 49 61 50 79 51 46 52 47 53 60 55
REMARK SMILES IDX 80 56 49 57 34 58 35 59 43 60 36 61 42 62 37 63 38 64 39 65
REMARK SMILES IDX 40 66 41 67 64 68 65 69 73 70 66 71 72 72 67 73 68 74 69 75
REMARK SMILES IDX 70 76 71 77 50 78 51 79 59 80 52 81 58 82 53 83 54 84 55 85
REMARK SMILES IDX 56 86 57 87
REMARK H PARENT 6 14 78 43 48 54
REMARK Flexibility Score: inf
ROOT
ATOM      1  C   UNL A   1      37.746  20.158  24.993  1.00  0.00     0.275 C 
ENDROOT
BRANCH   1   2
ATOM      2  C   UNL A   1      36.617  21.130  24.672  1.00  0.00     0.275 C 
BRANCH   2   3
ATOM      3  O   UNL A   1      36.279  21.922  25.826  1.00  0.00    -0.458 OA
BRANCH   3   4
ATOM      4  C   UNL A   1      35.682  23.133  25.620  1.00  0.00     0.343 C 
ATOM      5  O   UNL A   1      36.296  24.186  25.470  1.00  0.00    -0.246 OA
BRANCH   4   6
ATOM      6  C   UNL A   1      34.239  23.017  25.437  1.00  0.00     0.117 A 
ATOM      7  C   UNL A   1      33.648  21.501  27.503  1.00  0.00     0.069 C 
ATOM      8  C   UNL A   1      33.329  22.228  26.243  1.00  0.00     0.068 A 
ATOM      9  N   UNL A   1      32.083  22.120  25.784  1.00  0.00    -0.195 NA
ATOM     10  S   UNL A   1      32.030  22.796  24.284  1.00  0.00    -0.017 S 
ATOM     11  C   UNL A   1      33.549  23.552  24.352  1.00  0.00     0.132 A 
BRANCH  11  12
ATOM     12  N   UNL A   1      34.016  24.387  23.348  1.00  0.00    -0.297 N 
ATOM     13  C   UNL A   1      33.585  25.611  22.928  1.00  0.00     0.322 C 
ATOM     14  H   UNL A   1      34.793  24.035  22.853  1.00  0.00     0.172 HD
ATOM     15  O   UNL A   1      33.773  25.909  21.745  1.00  0.00    -0.248 OA
BRANCH  13  16
ATOM     16  N   UNL A   1      32.988  26.489  23.801  1.00  0.00    -0.324 N 
ATOM     17  C   UNL A   1      31.536  26.594  23.936  1.00  0.00     0.121 C 
ATOM     18  C   UNL A   1      33.738  26.897  24.985  1.00  0.00     0.124 C 
ATOM     19  C   UNL A   1      31.089  27.988  24.385  1.00  0.00     0.022 C 
ATOM     20  C   UNL A   1      33.423  28.358  25.322  1.00  0.00     0.005 C 
ATOM     21  C   UNL A   1      31.915  28.537  25.549  1.00  0.00     0.007 C 
ATOM     22  C   UNL A   1      34.214  28.833  26.537  1.00  0.00     0.009 C 
ENDBRANCH  13  16
ENDBRANCH  11  12
ENDBRANCH   4   6
ENDBRANCH   3   4
ENDBRANCH   2   3
ENDBRANCH   1   2
BRANCH   1  23
ATOM     23  O   UNL A   1      38.859  20.862  25.540  1.00  0.00    -0.458 OA
BRANCH  23  24
ATOM     24  C   UNL A   1      39.949  20.097  25.770  1.00  0.00     0.338 C 
ATOM     25  O   UNL A   1      40.036  18.891  25.618  1.00  0.00    -0.246 OA
BRANCH  24  26
ATOM     26  C   UNL A   1      40.978  20.893  26.436  1.00  0.00     0.060 A 
ATOM     27  C   UNL A   1      40.920  20.967  27.832  1.00  0.00     0.016 A 
ATOM     28  C   UNL A   1      41.720  21.800  25.667  1.00  0.00     0.016 A 
ATOM     29  C   UNL A   1      41.433  22.086  28.449  1.00  0.00     0.010 A 
ATOM     30  C   UNL A   1      42.218  22.919  26.282  1.00  0.00     0.010 A 
ATOM     31  C   UNL A   1      41.986  23.087  27.648  1.00  0.00    -0.014 A 
BRANCH  31  32
ATOM     32  C   UNL A   1      42.347  24.344  28.266  1.00  0.00     0.031 A 
ATOM     33  C   UNL A   1      41.353  25.427  28.084  1.00  0.00     0.074 A 
ATOM     34  C   UNL A   1      43.414  24.412  29.086  1.00  0.00     0.049 A 
ATOM     35  N   UNL A   1      41.554  26.629  27.662  1.00  0.00    -0.248 NA
ATOM     36  C   UNL A   1      39.934  25.090  28.293  1.00  0.00     0.031 C 
ATOM     37  C   UNL A   1      44.272  23.307  29.532  1.00  0.00     0.029 A 
ATOM     38  N   UNL A   1      43.839  25.458  29.840  1.00  0.00    -0.354 N 
ATOM     39  C   UNL A   1      40.313  27.256  27.694  1.00  0.00     0.074 A 
ATOM     40  C   UNL A   1      39.338  26.230  27.956  1.00  0.00     0.031 C 
ATOM     41  C   UNL A   1      44.908  23.681  30.663  1.00  0.00     0.029 A 
ATOM     42  C   UNL A   1      44.579  25.069  30.949  1.00  0.00     0.049 A 
ATOM     43  H   UNL A   1      43.644  26.398  29.621  1.00  0.00     0.167 HD
ATOM     44  C   UNL A   1      40.183  28.609  27.689  1.00  0.00     0.031 A 
ATOM     45  C   UNL A   1      44.777  25.795  32.079  1.00  0.00     0.031 A 
ATOM     46  C   UNL A   1      41.393  29.266  27.278  1.00  0.00     0.049 A 
ATOM     47  C   UNL A   1      44.485  27.215  31.745  1.00  0.00     0.074 A 
ATOM     48  C   UNL A   1      42.131  29.267  26.112  1.00  0.00     0.029 A 
ATOM     49  N   UNL A   1      42.222  29.752  28.263  1.00  0.00    -0.354 N 
ATOM     50  N   UNL A   1      45.204  27.918  30.913  1.00  0.00    -0.248 NA
ATOM     51  C   UNL A   1      43.136  27.719  31.968  1.00  0.00     0.031 C 
ATOM     52  C   UNL A   1      43.489  29.307  26.538  1.00  0.00     0.029 A 
ATOM     53  C   UNL A   1      43.503  29.382  27.933  1.00  0.00     0.049 A 
ATOM     54  H   UNL A   1      41.948  30.267  29.055  1.00  0.00     0.167 HD
ATOM     55  C   UNL A   1      44.286  28.670  30.190  1.00  0.00     0.074 A 
ATOM     56  C   UNL A   1      43.046  28.592  30.960  1.00  0.00     0.031 C 
ATOM     57  C   UNL A   1      44.531  29.039  28.896  1.00  0.00     0.031 A 
BRANCH  44  58
ATOM     58  C   UNL A   1      39.066  29.335  28.388  1.00  0.00    -0.014 A 
ATOM     59  C   UNL A   1      37.897  29.642  27.667  1.00  0.00     0.010 A 
ATOM     60  C   UNL A   1      39.240  29.971  29.636  1.00  0.00     0.010 A 
ATOM     61  C   UNL A   1      36.992  30.605  28.132  1.00  0.00     0.020 A 
ATOM     62  C   UNL A   1      38.323  30.897  30.130  1.00  0.00     0.020 A 
ATOM     63  C   UNL A   1      37.228  31.243  29.351  1.00  0.00     0.054 A 
BRANCH  63  64
ATOM     64  S   UNL A   1      36.151  32.603  29.861  1.00  0.00     0.124 S 
ATOM     65  O   UNL A   1      36.797  33.049  31.092  1.00  0.00    -0.237 OA
ATOM     66  O   UNL A   1      36.245  33.518  28.728  1.00  0.00    -0.237 OA
ATOM     67  O   UNL A   1      34.848  31.964  30.034  1.00  0.00    -0.744 OA
ENDBRANCH  63  64
ENDBRANCH  44  58
BRANCH  45  68
ATOM     68  C   UNL A   1      44.844  25.262  33.466  1.00  0.00    -0.014 A 
ATOM     69  C   UNL A   1      44.211  24.059  33.824  1.00  0.00     0.010 A 
ATOM     70  C   UNL A   1      45.734  25.829  34.406  1.00  0.00     0.010 A 
ATOM     71  C   UNL A   1      44.494  23.428  35.051  1.00  0.00     0.020 A 
ATOM     72  C   UNL A   1      46.009  25.220  35.633  1.00  0.00     0.020 A 
ATOM     73  C   UNL A   1      45.404  24.007  35.941  1.00  0.00     0.054 A 
BRANCH  73  74
ATOM     74  S   UNL A   1      45.896  23.113  37.445  1.00  0.00     0.124 S 
ATOM     75  O   UNL A   1      44.987  23.663  38.446  1.00  0.00    -0.237 OA
ATOM     76  O   UNL A   1      45.664  21.720  37.075  1.00  0.00    -0.237 OA
ATOM     77  O   UNL A   1      47.302  23.478  37.618  1.00  0.00    -0.744 OA
ENDBRANCH  73  74
ENDBRANCH  45  68
BRANCH  57  78
ATOM     78  C   UNL A   1      45.914  28.804  28.328  1.00  0.00    -0.014 A 
ATOM     79  C   UNL A   1      46.309  27.580  27.752  1.00  0.00     0.010 A 
ATOM     80  C   UNL A   1      46.775  29.909  28.198  1.00  0.00     0.010 A 
ATOM     81  C   UNL A   1      47.538  27.457  27.087  1.00  0.00     0.020 A 
ATOM     82  C   UNL A   1      47.993  29.799  27.519  1.00  0.00     0.020 A 
ATOM     83  C   UNL A   1      48.372  28.571  26.974  1.00  0.00     0.054 A 
BRANCH  83  84
ATOM     84  S   UNL A   1      49.930  28.423  26.056  1.00  0.00     0.124 S 
ATOM     85  O   UNL A   1      50.457  29.785  26.106  1.00  0.00    -0.237 OA
ATOM     86  O   UNL A   1      50.675  27.433  26.832  1.00  0.00    -0.237 OA
ATOM     87  O   UNL A   1      49.512  27.970  24.730  1.00  0.00    -0.744 OA
ENDBRANCH  83  84
ENDBRANCH  57  78
ENDBRANCH  31  32
ENDBRANCH  24  26
ENDBRANCH  23  24
ENDBRANCH   1  23
TORSDOF 16
ENDMDL
MODEL 2
REMARK VINA RESULT:     -11.0      2.905      7.823
REMARK SMILES Cc1nsc(NC(=O)N2CCC[C@@H](C)C2)c1C(=O)OCCOC(=O)c1ccc(-c2c3nc(c(-c4ccc(S(=O)(=O)[O-])cc4)c4ccc([nH]4)c(-c4ccc(S(=O)(=O)[O-])cc4)c4nc(c(-c5ccc(S(=O)(=O)[O-])cc5)c5ccc2[nH]5)C=C4)C=C3)cc1
REMARK SMILES IDX 21 1 20 2 19 3 17 4 18 5 16 6 1 7 2 8 3 9 4 10 5 11 6 12
REMARK SMILES IDX 7 13 8 15 9 16 10 17 15 18 11 19 13 20 12 21 14 22 22 23
REMARK SMILES IDX 23 24 24 25 25 26 26 27 84 28 27 29 83 30 28 31 29 32 30 33
REMARK SMILES IDX 77 34 31 35 82 36 76 37 78 38 32 39 81 40 75 41 74 42 33 44
REMARK SMILES IDX 63 45 44 46 62 47 45 48 48 49 61 50 79 51 46 52 47 53 60 55
REMARK SMILES IDX 80 56 49 57 34 58 35 59 43 60 36 61 42 62 37 63 38 64 39 65
REMARK SMILES IDX 40 66 41 67 64 68 65 69 73 70 66 71 72 72 67 73 68 74 69 75
REMARK SMILES IDX 70 76 71 77 50 78 51 79 59 80 52 81 58 82 53 83 54 84 55 85
REMARK SMILES IDX 56 86 57 87
REMARK H PARENT 6 14 78 43 48 54
REMARK Flexibility Score: inf
ROOT
ATOM      1  C   UNL A   1      37.938  21.327  25.488  1.00  0.00     0.275 C 
ENDROOT
BRANCH   1   2
ATOM      2  C   UNL A   1      36.789  21.465  24.496  1.00  0.00     0.275 C 
BRANCH   2   3
ATOM      3  O   UNL A   1      36.089  22.708  24.692  1.00  0.00    -0.458 OA
BRANCH   3   4
ATOM      4  C   UNL A   1      34.905  22.676  25.371  1.00  0.00     0.343 C 
ATOM      5  O   UNL A   1      34.758  23.095  26.517  1.00  0.00    -0.246 OA
BRANCH   4   6
ATOM      6  C   UNL A   1      33.795  22.237  24.534  1.00  0.00     0.117 A 
ATOM      7  C   UNL A   1      33.025  20.119  25.889  1.00  0.00     0.069 C 
ATOM      8  C   UNL A   1      32.988  21.048  24.726  1.00  0.00     0.068 A 
ATOM      9  N   UNL A   1      32.151  20.743  23.736  1.00  0.00    -0.195 NA
ATOM     10  S   UNL A   1      32.452  21.759  22.477  1.00  0.00    -0.017 S 
ATOM     11  C   UNL A   1      33.444  22.843  23.329  1.00  0.00     0.132 A 
BRANCH  11  12
ATOM     12  N   UNL A   1      33.936  24.011  22.766  1.00  0.00    -0.297 N 
ATOM     13  C   UNL A   1      33.391  25.258  22.670  1.00  0.00     0.322 C 
ATOM     14  H   UNL A   1      34.833  23.925  22.366  1.00  0.00     0.172 HD
ATOM     15  O   UNL A   1      33.730  25.958  21.712  1.00  0.00    -0.248 OA
BRANCH  13  16
ATOM     16  N   UNL A   1      32.518  25.724  23.624  1.00  0.00    -0.324 N 
ATOM     17  C   UNL A   1      32.898  25.877  25.028  1.00  0.00     0.121 C 
ATOM     18  C   UNL A   1      31.432  26.600  23.191  1.00  0.00     0.124 C 
ATOM     19  C   UNL A   1      31.704  25.738  25.976  1.00  0.00     0.022 C 
ATOM     20  C   UNL A   1      30.179  26.325  24.028  1.00  0.00     0.005 C 
ATOM     21  C   UNL A   1      30.480  26.534  25.519  1.00  0.00     0.007 C 
ATOM     22  C   UNL A   1      29.010  27.199  23.584  1.00  0.00     0.009 C 
ENDBRANCH  13  16
ENDBRANCH  11  12
ENDBRANCH   4   6
ENDBRANCH   3   4
ENDBRANCH   2   3
ENDBRANCH   1   2
BRANCH   1  23
ATOM     23  O   UNL A   1      38.496  22.609  25.771  1.00  0.00    -0.458 OA
BRANCH  23  24
ATOM     24  C   UNL A   1      39.570  22.583  26.590  1.00  0.00     0.338 C 
ATOM     25  O   UNL A   1      39.930  21.653  27.290  1.00  0.00    -0.246 OA
BRANCH  24  26
ATOM     26  C   UNL A   1      40.150  23.922  26.685  1.00  0.00     0.060 A 
ATOM     27  C   UNL A   1      41.490  24.007  27.078  1.00  0.00     0.016 A 
ATOM     28  C   UNL A   1      39.283  25.022  26.734  1.00  0.00     0.016 A 
ATOM     29  C   UNL A   1      41.909  25.147  27.727  1.00  0.00     0.010 A 
ATOM     30  C   UNL A   1      39.698  26.150  27.392  1.00  0.00     0.010 A 
ATOM     31  C   UNL A   1      40.974  26.157  27.958  1.00  0.00    -0.014 A 
BRANCH  31  32
ATOM     32  C   UNL A   1      41.352  27.266  28.806  1.00  0.00     0.031 A 
ATOM     33  C   UNL A   1      42.489  28.069  28.301  1.00  0.00     0.074 A 
ATOM     34  C   UNL A   1      40.578  27.609  29.855  1.00  0.00     0.049 A 
ATOM     35  N   UNL A   1      43.560  28.416  28.931  1.00  0.00    -0.248 NA
ATOM     36  C   UNL A   1      42.482  28.435  26.874  1.00  0.00     0.031 C 
ATOM     37  C   UNL A   1      39.284  27.030  30.240  1.00  0.00     0.029 A 
ATOM     38  N   UNL A   1      40.699  28.674  30.687  1.00  0.00    -0.354 N 
ATOM     39  C   UNL A   1      44.301  29.176  28.032  1.00  0.00     0.074 A 
ATOM     40  C   UNL A   1      43.661  29.040  26.750  1.00  0.00     0.031 C 
ATOM     41  C   UNL A   1      38.629  27.913  31.024  1.00  0.00     0.029 A 
ATOM     42  C   UNL A   1      39.497  29.053  31.272  1.00  0.00     0.049 A 
ATOM     43  H   UNL A   1      41.554  29.131  30.860  1.00  0.00     0.167 HD
ATOM     44  C   UNL A   1      45.286  30.022  28.435  1.00  0.00     0.031 A 
ATOM     45  C   UNL A   1      39.204  30.274  31.789  1.00  0.00     0.031 A 
ATOM     46  C   UNL A   1      45.705  29.757  29.784  1.00  0.00     0.049 A 
ATOM     47  C   UNL A   1      40.497  30.961  32.053  1.00  0.00     0.074 A 
ATOM     48  C   UNL A   1      46.289  28.674  30.408  1.00  0.00     0.029 A 
ATOM     49  N   UNL A   1      45.176  30.541  30.783  1.00  0.00    -0.354 N 
ATOM     50  N   UNL A   1      41.357  30.553  32.947  1.00  0.00    -0.248 NA
ATOM     51  C   UNL A   1      41.053  31.821  31.016  1.00  0.00     0.031 C 
ATOM     52  C   UNL A   1      45.682  28.620  31.694  1.00  0.00     0.029 A 
ATOM     53  C   UNL A   1      44.804  29.702  31.803  1.00  0.00     0.049 A 
ATOM     54  H   UNL A   1      45.082  31.521  30.768  1.00  0.00     0.167 HD
ATOM     55  C   UNL A   1      42.602  30.730  32.357  1.00  0.00     0.074 A 
ATOM     56  C   UNL A   1      42.358  31.619  31.223  1.00  0.00     0.031 C 
ATOM     57  C   UNL A   1      43.657  29.916  32.663  1.00  0.00     0.031 A 
BRANCH  44  58
ATOM     58  C   UNL A   1      45.620  31.302  27.721  1.00  0.00    -0.014 A 
ATOM     59  C   UNL A   1      46.896  31.448  27.145  1.00  0.00     0.010 A 
ATOM     60  C   UNL A   1      44.830  32.465  27.841  1.00  0.00     0.010 A 
ATOM     61  C   UNL A   1      47.390  32.710  26.791  1.00  0.00     0.020 A 
ATOM     62  C   UNL A   1      45.294  33.720  27.450  1.00  0.00     0.020 A 
ATOM     63  C   UNL A   1      46.591  33.840  26.971  1.00  0.00     0.054 A 
BRANCH  63  64
ATOM     64  S   UNL A   1      47.295  35.480  26.675  1.00  0.00     0.124 S 
ATOM     65  O   UNL A   1      48.359  35.532  27.673  1.00  0.00    -0.237 OA
ATOM     66  O   UNL A   1      47.731  35.386  25.285  1.00  0.00    -0.237 OA
ATOM     67  O   UNL A   1      46.171  36.384  26.912  1.00  0.00    -0.744 OA
ENDBRANCH  63  64
ENDBRANCH  44  58
BRANCH  45  68
ATOM     68  C   UNL A   1      37.892  30.970  31.711  1.00  0.00    -0.014 A 
ATOM     69  C   UNL A   1      37.045  31.071  32.828  1.00  0.00     0.010 A 
ATOM     70  C   UNL A   1      37.563  31.746  30.578  1.00  0.00     0.010 A 
ATOM     71  C   UNL A   1      35.942  31.948  32.825  1.00  0.00     0.020 A 
ATOM     72  C   UNL A   1      36.461  32.606  30.558  1.00  0.00     0.020 A 
ATOM     73  C   UNL A   1      35.668  32.721  31.693  1.00  0.00     0.054 A 
BRANCH  73  74
ATOM     74  S   UNL A   1      34.350  33.971  31.747  1.00  0.00     0.124 S 
ATOM     75  O   UNL A   1      33.443  33.426  32.752  1.00  0.00    -0.237 OA
ATOM     76  O   UNL A   1      35.074  35.178  32.134  1.00  0.00    -0.237 OA
ATOM     77  O   UNL A   1      33.827  33.979  30.381  1.00  0.00    -0.744 OA
ENDBRANCH  73  74
ENDBRANCH  45  68
BRANCH  57  78
ATOM     78  C   UNL A   1      43.510  28.950  33.819  1.00  0.00    -0.014 A 
ATOM     79  C   UNL A   1      43.817  29.294  35.151  1.00  0.00     0.010 A 
ATOM     80  C   UNL A   1      42.862  27.724  33.583  1.00  0.00     0.010 A 
ATOM     81  C   UNL A   1      43.508  28.430  36.211  1.00  0.00     0.020 A 
ATOM     82  C   UNL A   1      42.532  26.867  34.637  1.00  0.00     0.020 A 
ATOM     83  C   UNL A   1      42.864  27.220  35.946  1.00  0.00     0.054 A 
BRANCH  83  84
ATOM     84  S   UNL A   1      42.407  26.136  37.327  1.00  0.00     0.124 S 
ATOM     85  O   UNL A   1      42.687  24.806  36.792  1.00  0.00    -0.237 OA
ATOM     86  O   UNL A   1      43.294  26.581  38.400  1.00  0.00    -0.237 OA
ATOM     87  O   UNL A   1      40.991  26.428  37.546  1.00  0.00    -0.744 OA
ENDBRANCH  83  84
ENDBRANCH  57  78
ENDBRANCH  31  32
ENDBRANCH  24  26
ENDBRANCH  23  24
ENDBRANCH   1  23
TORSDOF 16
ENDMDL
MODEL 3
REMARK VINA RESULT:     -10.8      4.545      9.939
REMARK SMILES Cc1nsc(NC(=O)N2CCC[C@@H](C)C2)c1C(=O)OCCOC(=O)c1ccc(-c2c3nc(c(-c4ccc(S(=O)(=O)[O-])cc4)c4ccc([nH]4)c(-c4ccc(S(=O)(=O)[O-])cc4)c4nc(c(-c5ccc(S(=O)(=O)[O-])cc5)c5ccc2[nH]5)C=C4)C=C3)cc1
REMARK SMILES IDX 21 1 20 2 19 3 17 4 18 5 16 6 1 7 2 8 3 9 4 10 5 11 6 12
REMARK SMILES IDX 7 13 8 15 9 16 10 17 15 18 11 19 13 20 12 21 14 22 22 23
REMARK SMILES IDX 23 24 24 25 25 26 26 27 84 28 27 29 83 30 28 31 29 32 30 33
REMARK SMILES IDX 77 34 31 35 82 36 76 37 78 38 32 39 81 40 75 41 74 42 33 44
REMARK SMILES IDX 63 45 44 46 62 47 45 48 48 49 61 50 79 51 46 52 47 53 60 55
REMARK SMILES IDX 80 56 49 57 34 58 35 59 43 60 36 61 42 62 37 63 38 64 39 65
REMARK SMILES IDX 40 66 41 67 64 68 65 69 73 70 66 71 72 72 67 73 68 74 69 75
REMARK SMILES IDX 70 76 71 77 50 78 51 79 59 80 52 81 58 82 53 83 54 84 55 85
REMARK SMILES IDX 56 86 57 87
REMARK H PARENT 6 14 78 43 48 54
REMARK Flexibility Score: inf
ROOT
ATOM      1  C   UNL A   1      33.264  31.018  27.573  1.00  0.00     0.275 C 
ENDROOT
BRANCH   1   2
ATOM      2  C   UNL A   1      33.924  30.084  26.565  1.00  0.00     0.275 C 
BRANCH   2   3
ATOM      3  O   UNL A   1      32.952  29.559  25.642  1.00  0.00    -0.458 OA
BRANCH   3   4
ATOM      4  C   UNL A   1      33.185  28.328  25.098  1.00  0.00     0.343 C 
ATOM      5  O   UNL A   1      34.269  27.971  24.643  1.00  0.00    -0.246 OA
BRANCH   4   6
ATOM      6  C   UNL A   1      32.051  27.425  25.259  1.00  0.00     0.117 A 
ATOM      7  C   UNL A   1      31.403  27.962  27.750  1.00  0.00     0.069 C 
ATOM      8  C   UNL A   1      31.288  27.207  26.471  1.00  0.00     0.068 A 
ATOM      9  N   UNL A   1      30.416  26.200  26.442  1.00  0.00    -0.195 NA
ATOM     10  S   UNL A   1      30.631  25.377  25.033  1.00  0.00    -0.017 S 
ATOM     11  C   UNL A   1      31.630  26.527  24.281  1.00  0.00     0.132 A 
BRANCH  11  12
ATOM     12  N   UNL A   1      32.063  26.400  22.969  1.00  0.00    -0.297 N 
ATOM     13  C   UNL A   1      33.093  25.687  22.431  1.00  0.00     0.322 C 
ATOM     14  H   UNL A   1      31.535  26.914  22.314  1.00  0.00     0.172 HD
ATOM     15  O   UNL A   1      33.610  26.120  21.397  1.00  0.00    -0.248 OA
BRANCH  13  16
ATOM     16  N   UNL A   1      33.519  24.513  23.006  1.00  0.00    -0.324 N 
ATOM     17  C   UNL A   1      33.208  23.203  22.437  1.00  0.00     0.121 C 
ATOM     18  C   UNL A   1      34.730  24.548  23.822  1.00  0.00     0.124 C 
ATOM     19  C   UNL A   1      33.157  22.100  23.499  1.00  0.00     0.022 C 
ATOM     20  C   UNL A   1      34.595  23.570  24.993  1.00  0.00     0.005 C 
ATOM     21  C   UNL A   1      34.336  22.150  24.471  1.00  0.00     0.007 C 
ATOM     22  C   UNL A   1      35.830  23.602  25.889  1.00  0.00     0.009 C 
ENDBRANCH  13  16
ENDBRANCH  11  12
ENDBRANCH   4   6
ENDBRANCH   3   4
ENDBRANCH   2   3
ENDBRANCH   1   2
BRANCH   1  23
ATOM     23  O   UNL A   1      33.014  32.288  26.973  1.00  0.00    -0.458 OA
BRANCH  23  24
ATOM     24  C   UNL A   1      32.922  33.313  27.849  1.00  0.00     0.338 C 
ATOM     25  O   UNL A   1      32.004  34.109  27.943  1.00  0.00    -0.246 OA
BRANCH  24  26
ATOM     26  C   UNL A   1      34.191  33.472  28.557  1.00  0.00     0.060 A 
ATOM     27  C   UNL A   1      35.294  33.877  27.799  1.00  0.00     0.016 A 
ATOM     28  C   UNL A   1      34.324  32.888  29.823  1.00  0.00     0.016 A 
ATOM     29  C   UNL A   1      36.549  33.498  28.218  1.00  0.00     0.010 A 
ATOM     30  C   UNL A   1      35.573  32.500  30.233  1.00  0.00     0.010 A 
ATOM     31  C   UNL A   1      36.654  32.731  29.380  1.00  0.00    -0.014 A 
BRANCH  31  32
ATOM     32  C   UNL A   1      37.941  32.165  29.720  1.00  0.00     0.031 A 
ATOM     33  C   UNL A   1      38.115  30.748  29.324  1.00  0.00     0.074 A 
ATOM     34  C   UNL A   1      38.927  32.958  30.181  1.00  0.00     0.049 A 
ATOM     35  N   UNL A   1      38.516  29.762  30.052  1.00  0.00    -0.248 NA
ATOM     36  C   UNL A   1      37.674  30.361  27.973  1.00  0.00     0.031 C 
ATOM     37  C   UNL A   1      38.907  34.419  30.325  1.00  0.00     0.029 A 
ATOM     38  N   UNL A   1      40.221  32.639  30.442  1.00  0.00    -0.354 N 
ATOM     39  C   UNL A   1      38.529  28.651  29.215  1.00  0.00     0.074 A 
ATOM     40  C   UNL A   1      37.875  29.046  27.995  1.00  0.00     0.031 C 
ATOM     41  C   UNL A   1      40.180  34.869  30.367  1.00  0.00     0.029 A 
ATOM     42  C   UNL A   1      41.081  33.727  30.358  1.00  0.00     0.049 A 
ATOM     43  H   UNL A   1      40.519  31.729  30.668  1.00  0.00     0.167 HD
ATOM     44  C   UNL A   1      39.243  27.531  29.505  1.00  0.00     0.031 A 
ATOM     45  C   UNL A   1      42.422  33.678  30.149  1.00  0.00     0.031 A 
ATOM     46  C   UNL A   1      39.644  27.490  30.884  1.00  0.00     0.049 A 
ATOM     47  C   UNL A   1      42.870  32.303  30.497  1.00  0.00     0.074 A 
ATOM     48  C   UNL A   1      38.955  27.439  32.079  1.00  0.00     0.029 A 
ATOM     49  N   UNL A   1      40.922  27.898  31.190  1.00  0.00    -0.354 N 
ATOM     50  N   UNL A   1      42.827  31.819  31.708  1.00  0.00    -0.248 NA
ATOM     51  C   UNL A   1      42.930  31.302  29.438  1.00  0.00     0.031 C 
ATOM     52  C   UNL A   1      39.704  28.259  32.969  1.00  0.00     0.029 A 
ATOM     53  C   UNL A   1      40.833  28.719  32.286  1.00  0.00     0.049 A 
ATOM     54  H   UNL A   1      41.745  27.647  30.712  1.00  0.00     0.167 HD
ATOM     55  C   UNL A   1      42.417  30.500  31.555  1.00  0.00     0.074 A 
ATOM     56  C   UNL A   1      42.609  30.208  30.136  1.00  0.00     0.031 C 
ATOM     57  C   UNL A   1      41.690  29.864  32.524  1.00  0.00     0.031 A 
BRANCH  44  58
ATOM     58  C   UNL A   1      39.864  26.652  28.455  1.00  0.00    -0.014 A 
ATOM     59  C   UNL A   1      39.307  25.382  28.213  1.00  0.00     0.010 A 
ATOM     60  C   UNL A   1      41.136  26.915  27.903  1.00  0.00     0.010 A 
ATOM     61  C   UNL A   1      40.029  24.395  27.529  1.00  0.00     0.020 A 
ATOM     62  C   UNL A   1      41.843  25.954  27.182  1.00  0.00     0.020 A 
ATOM     63  C   UNL A   1      41.303  24.684  27.041  1.00  0.00     0.054 A 
BRANCH  63  64
ATOM     64  S   UNL A   1      42.295  23.358  26.313  1.00  0.00     0.124 S 
ATOM     65  O   UNL A   1      42.814  23.999  25.109  1.00  0.00    -0.237 OA
ATOM     66  O   UNL A   1      43.274  23.088  27.361  1.00  0.00    -0.237 OA
ATOM     67  O   UNL A   1      41.324  22.289  26.083  1.00  0.00    -0.744 OA
ENDBRANCH  63  64
ENDBRANCH  44  58
BRANCH  45  68
ATOM     68  C   UNL A   1      43.220  34.634  29.337  1.00  0.00    -0.014 A 
ATOM     69  C   UNL A   1      42.816  35.024  28.049  1.00  0.00     0.010 A 
ATOM     70  C   UNL A   1      44.285  35.353  29.925  1.00  0.00     0.010 A 
ATOM     71  C   UNL A   1      43.420  36.117  27.398  1.00  0.00     0.020 A 
ATOM     72  C   UNL A   1      44.904  36.428  29.281  1.00  0.00     0.020 A 
ATOM     73  C   UNL A   1      44.452  36.821  28.027  1.00  0.00     0.054 A 
BRANCH  73  74
ATOM     74  S   UNL A   1      45.118  38.329  27.263  1.00  0.00     0.124 S 
ATOM     75  O   UNL A   1      45.575  39.091  28.421  1.00  0.00    -0.237 OA
ATOM     76  O   UNL A   1      46.168  37.806  26.393  1.00  0.00    -0.237 OA
ATOM     77  O   UNL A   1      43.967  38.898  26.563  1.00  0.00    -0.744 OA
ENDBRANCH  73  74
ENDBRANCH  45  68
BRANCH  57  78
ATOM     78  C   UNL A   1      41.522  30.546  33.864  1.00  0.00    -0.014 A 
ATOM     79  C   UNL A   1      42.385  30.317  34.955  1.00  0.00     0.010 A 
ATOM     80  C   UNL A   1      40.587  31.592  33.965  1.00  0.00     0.010 A 
ATOM     81  C   UNL A   1      42.299  31.092  36.120  1.00  0.00     0.020 A 
ATOM     82  C   UNL A   1      40.509  32.383  35.116  1.00  0.00     0.020 A 
ATOM     83  C   UNL A   1      41.360  32.124  36.192  1.00  0.00     0.054 A 
BRANCH  83  84
ATOM     84  S   UNL A   1      41.298  33.166  37.676  1.00  0.00     0.124 S 
ATOM     85  O   UNL A   1      39.947  33.720  37.616  1.00  0.00    -0.237 OA
ATOM     86  O   UNL A   1      41.539  32.212  38.756  1.00  0.00    -0.237 OA
ATOM     87  O   UNL A   1      42.373  34.135  37.466  1.00  0.00    -0.744 OA
ENDBRANCH  83  84
ENDBRANCH  57  78
ENDBRANCH  31  32
ENDBRANCH  24  26
ENDBRANCH  23  24
ENDBRANCH   1  23
TORSDOF 16
ENDMDL
