MODEL 1
REMARK VINA RESULT:     -10.9      0.000      0.000
REMARK SMILES O=C(OCCOC(=O)[C@H](NC(=O)[C@H]1CC[C@@H](CNC(=O)[C@@H]2Cc3ccccc3C[NH2+]2)CC1)c1ccccc1)c1ccc(-c2c3nc(c(-c4ccc(S(=O)(=O)[O-])cc4)c4ccc([nH]4)c(-c4ccc(S(=O)(=O)[O-])cc4)c4nc(c(-c5ccc(S(=O)(=O)[O-])cc5)c5ccc2[nH]5)C=C4)C=C3)cc1
REMARK SMILES IDX 5 1 4 2 3 3 2 4 1 5 39 6 40 7 98 8 41 9 97 10 42 11 43 12
REMARK SMILES IDX 44 13 91 14 45 15 96 16 90 17 92 18 46 19 95 20 89 21 88 22
REMARK SMILES IDX 47 24 77 25 58 26 76 27 59 28 62 29 75 30 93 31 60 32 61 33
REMARK SMILES IDX 74 35 94 36 63 37 48 38 49 39 57 40 50 41 56 42 51 43 52 44
REMARK SMILES IDX 53 45 54 46 55 47 78 48 79 49 87 50 80 51 86 52 81 53 82 54
REMARK SMILES IDX 83 55 84 56 85 57 64 58 65 59 73 60 66 61 72 62 67 63 68 64
REMARK SMILES IDX 69 65 70 66 71 67 6 68 7 69 8 70 9 71 33 72 34 73 38 74
REMARK SMILES IDX 35 75 37 76 36 77 10 78 11 79 12 81 13 82 32 83 14 84 31 85
REMARK SMILES IDX 15 86 16 87 17 88 18 89 19 90 20 92 21 93 22 94 30 95 23 96
REMARK SMILES IDX 29 97 24 100 28 101 25 102 27 103 26 104
REMARK H PARENT 92 23 62 34 10 80 18 91 30 98 30 99
REMARK Flexibility Score: inf
ROOT
ATOM      1  C   UNL A   1      34.291  28.488  26.563  1.00  0.00     0.274 C 
ENDROOT
BRANCH   1   2
ATOM      2  C   UNL A   1      35.059  29.389  27.532  1.00  0.00     0.275 C 
BRANCH   2   3
ATOM      3  O   UNL A   1      36.254  28.766  28.033  1.00  0.00    -0.458 OA
BRANCH   3   4
ATOM      4  C   UNL A   1      37.384  29.304  28.547  1.00  0.00     0.338 C 
ATOM      5  O   UNL A   1      37.252  30.105  29.473  1.00  0.00    -0.246 OA
BRANCH   4   6
ATOM      6  C   UNL A   1      38.786  29.076  28.036  1.00  0.00     0.060 A 
ATOM      7  C   UNL A   1      39.276  29.302  26.748  1.00  0.00     0.016 A 
ATOM      8  C   UNL A   1      39.722  28.660  29.002  1.00  0.00     0.016 A 
ATOM      9  C   UNL A   1      40.650  29.248  26.467  1.00  0.00     0.010 A 
ATOM     10  C   UNL A   1      41.096  28.613  28.731  1.00  0.00     0.010 A 
ATOM     11  C   UNL A   1      41.573  28.934  27.464  1.00  0.00    -0.014 A 
BRANCH  11  12
ATOM     12  C   UNL A   1      42.993  28.732  27.100  1.00  0.00     0.031 A 
ATOM     13  C   UNL A   1      43.956  29.791  27.516  1.00  0.00     0.074 A 
ATOM     14  C   UNL A   1      43.420  27.638  26.441  1.00  0.00     0.049 A 
ATOM     15  N   UNL A   1      45.257  29.765  27.510  1.00  0.00    -0.248 NA
ATOM     16  C   UNL A   1      43.368  31.068  27.955  1.00  0.00     0.031 C 
ATOM     17  C   UNL A   1      42.547  26.623  25.872  1.00  0.00     0.029 A 
ATOM     18  N   UNL A   1      44.683  27.173  26.162  1.00  0.00    -0.354 N 
ATOM     19  C   UNL A   1      45.647  31.050  27.853  1.00  0.00     0.074 A 
ATOM     20  C   UNL A   1      44.447  31.812  28.115  1.00  0.00     0.031 C 
ATOM     21  C   UNL A   1      43.292  25.590  25.446  1.00  0.00     0.029 A 
ATOM     22  C   UNL A   1      44.696  25.875  25.687  1.00  0.00     0.049 A 
ATOM     23  H   UNL A   1      45.497  27.710  26.289  1.00  0.00     0.167 HD
ATOM     24  C   UNL A   1      46.893  31.568  27.860  1.00  0.00     0.031 A 
ATOM     25  C   UNL A   1      45.721  25.013  25.511  1.00  0.00     0.031 A 
ATOM     26  C   UNL A   1      48.067  30.825  27.505  1.00  0.00     0.049 A 
ATOM     27  C   UNL A   1      47.113  25.566  25.685  1.00  0.00     0.074 A 
ATOM     28  C   UNL A   1      49.368  31.277  27.400  1.00  0.00     0.029 A 
ATOM     29  N   UNL A   1      48.069  29.488  27.125  1.00  0.00    -0.354 N 
ATOM     30  N   UNL A   1      47.479  26.739  26.145  1.00  0.00    -0.248 NA
ATOM     31  C   UNL A   1      48.226  24.706  25.258  1.00  0.00     0.031 C 
ATOM     32  C   UNL A   1      50.139  30.244  26.859  1.00  0.00     0.029 A 
ATOM     33  C   UNL A   1      49.337  29.122  26.708  1.00  0.00     0.049 A 
ATOM     34  H   UNL A   1      47.287  28.890  27.148  1.00  0.00     0.167 HD
ATOM     35  C   UNL A   1      48.861  26.782  26.005  1.00  0.00     0.074 A 
ATOM     36  C   UNL A   1      49.271  25.481  25.515  1.00  0.00     0.031 C 
ATOM     37  C   UNL A   1      49.709  27.819  26.214  1.00  0.00     0.031 A 
BRANCH  24  38
ATOM     38  C   UNL A   1      46.989  33.046  28.104  1.00  0.00    -0.014 A 
ATOM     39  C   UNL A   1      47.156  33.561  29.399  1.00  0.00     0.010 A 
ATOM     40  C   UNL A   1      46.836  33.930  27.020  1.00  0.00     0.010 A 
ATOM     41  C   UNL A   1      47.137  34.941  29.611  1.00  0.00     0.020 A 
ATOM     42  C   UNL A   1      46.847  35.310  27.225  1.00  0.00     0.020 A 
ATOM     43  C   UNL A   1      46.986  35.806  28.522  1.00  0.00     0.054 A 
BRANCH  43  44
ATOM     44  S   UNL A   1      47.001  37.591  28.830  1.00  0.00     0.124 S 
ATOM     45  O   UNL A   1      46.263  37.686  30.087  1.00  0.00    -0.237 OA
ATOM     46  O   UNL A   1      48.430  37.883  28.917  1.00  0.00    -0.237 OA
ATOM     47  O   UNL A   1      46.323  38.150  27.664  1.00  0.00    -0.744 OA
ENDBRANCH  43  44
ENDBRANCH  24  38
BRANCH  25  48
ATOM     48  C   UNL A   1      45.517  23.564  25.175  1.00  0.00    -0.014 A 
ATOM     49  C   UNL A   1      45.220  23.183  23.848  1.00  0.00     0.010 A 
ATOM     50  C   UNL A   1      45.571  22.553  26.153  1.00  0.00     0.010 A 
ATOM     51  C   UNL A   1      44.959  21.847  23.515  1.00  0.00     0.020 A 
ATOM     52  C   UNL A   1      45.352  21.209  25.819  1.00  0.00     0.020 A 
ATOM     53  C   UNL A   1      45.028  20.865  24.506  1.00  0.00     0.054 A 
BRANCH  53  54
ATOM     54  S   UNL A   1      44.725  19.130  24.055  1.00  0.00     0.124 S 
ATOM     55  O   UNL A   1      45.909  18.466  24.591  1.00  0.00    -0.237 OA
ATOM     56  O   UNL A   1      43.469  18.838  24.744  1.00  0.00    -0.237 OA
ATOM     57  O   UNL A   1      44.630  19.172  22.599  1.00  0.00    -0.744 OA
ENDBRANCH  53  54
ENDBRANCH  25  48
BRANCH  37  58
ATOM     58  C   UNL A   1      51.159  27.595  25.890  1.00  0.00    -0.014 A 
ATOM     59  C   UNL A   1      51.574  27.248  24.590  1.00  0.00     0.010 A 
ATOM     60  C   UNL A   1      52.125  27.812  26.886  1.00  0.00     0.010 A 
ATOM     61  C   UNL A   1      52.931  27.087  24.304  1.00  0.00     0.020 A 
ATOM     62  C   UNL A   1      53.484  27.685  26.595  1.00  0.00     0.020 A 
ATOM     63  C   UNL A   1      53.877  27.308  25.310  1.00  0.00     0.054 A 
BRANCH  63  64
ATOM     64  S   UNL A   1      55.636  27.137  24.909  1.00  0.00     0.124 S 
ATOM     65  O   UNL A   1      56.139  28.483  25.173  1.00  0.00    -0.237 OA
ATOM     66  O   UNL A   1      56.078  26.105  25.843  1.00  0.00    -0.237 OA
ATOM     67  O   UNL A   1      55.633  26.737  23.504  1.00  0.00    -0.744 OA
ENDBRANCH  63  64
ENDBRANCH  37  58
ENDBRANCH  11  12
ENDBRANCH   4   6
ENDBRANCH   3   4
ENDBRANCH   2   3
ENDBRANCH   1   2
BRANCH   1  68
ATOM     68  O   UNL A   1      33.221  27.809  27.240  1.00  0.00    -0.460 OA
BRANCH  68  69
ATOM     69  C   UNL A   1      31.958  28.313  27.141  1.00  0.00     0.333 C 
ATOM     70  O   UNL A   1      31.644  29.443  27.516  1.00  0.00    -0.249 OA
BRANCH  69  71
ATOM     71  C   UNL A   1      30.973  27.282  26.503  1.00  0.00     0.223 C 
BRANCH  71  72
ATOM     72  C   UNL A   1      31.015  27.323  24.966  1.00  0.00    -0.014 A 
ATOM     73  C   UNL A   1      31.850  28.224  24.270  1.00  0.00     0.006 A 
ATOM     74  C   UNL A   1      30.172  26.511  24.184  1.00  0.00     0.006 A 
ATOM     75  C   UNL A   1      31.875  28.282  22.873  1.00  0.00     0.000 A 
ATOM     76  C   UNL A   1      30.204  26.561  22.786  1.00  0.00     0.000 A 
ATOM     77  C   UNL A   1      31.058  27.441  22.129  1.00  0.00     0.000 A 
ENDBRANCH  71  72
BRANCH  71  78
ATOM     78  N   UNL A   1      31.385  25.958  27.018  1.00  0.00    -0.339 N 
ATOM     79  C   UNL A   1      32.058  24.860  26.627  1.00  0.00     0.224 C 
ATOM     80  H   UNL A   1      31.065  25.843  27.941  1.00  0.00     0.164 HD
ATOM     81  O   UNL A   1      32.139  23.992  27.511  1.00  0.00    -0.275 OA
BRANCH  79  82
ATOM     82  C   UNL A   1      32.650  24.544  25.238  1.00  0.00     0.078 C 
ATOM     83  C   UNL A   1      33.871  25.335  24.798  1.00  0.00     0.014 C 
ATOM     84  C   UNL A   1      32.902  23.012  25.174  1.00  0.00     0.014 C 
ATOM     85  C   UNL A   1      34.538  24.784  23.533  1.00  0.00     0.006 C 
ATOM     86  C   UNL A   1      33.680  22.512  23.955  1.00  0.00     0.006 C 
ATOM     87  C   UNL A   1      34.953  23.320  23.686  1.00  0.00     0.008 C 
BRANCH  87  88
ATOM     88  C   UNL A   1      36.026  23.145  24.786  1.00  0.00     0.119 C 
BRANCH  88  89
ATOM     89  N   UNL A   1      36.751  21.895  24.655  1.00  0.00    -0.351 N 
ATOM     90  C   UNL A   1      37.967  21.475  25.106  1.00  0.00     0.278 C 
ATOM     91  H   UNL A   1      36.267  21.213  24.137  1.00  0.00     0.163 HD
ATOM     92  O   UNL A   1      38.187  20.260  24.997  1.00  0.00    -0.268 OA
BRANCH  90  93
ATOM     93  C   UNL A   1      39.039  22.391  25.729  1.00  0.00     0.277 C 
ATOM     94  C   UNL A   1      39.799  21.661  26.871  1.00  0.00     0.111 C 
ATOM     95  N   UNL A   1      38.578  23.774  26.003  1.00  0.00    -0.332 N 
ATOM     96  C   UNL A   1      40.703  22.640  27.584  1.00  0.00    -0.033 A 
ATOM     97  C   UNL A   1      38.752  24.162  27.399  1.00  0.00     0.298 C 
ATOM     98  H   UNL A   1      37.587  23.841  25.767  1.00  0.00     0.347 HD
ATOM     99  H   UNL A   1      39.144  24.406  25.435  1.00  0.00     0.347 HD
ATOM    100  C   UNL A   1      42.013  22.350  27.965  1.00  0.00     0.004 A 
ATOM    101  C   UNL A   1      40.174  23.926  27.807  1.00  0.00     0.010 A 
ATOM    102  C   UNL A   1      42.812  23.363  28.493  1.00  0.00     0.000 A 
ATOM    103  C   UNL A   1      40.977  24.930  28.335  1.00  0.00     0.010 A 
ATOM    104  C   UNL A   1      42.302  24.652  28.646  1.00  0.00     0.001 A 
ENDBRANCH  90  93
ENDBRANCH  88  89
ENDBRANCH  87  88
ENDBRANCH  79  82
ENDBRANCH  71  78
ENDBRANCH  69  71
ENDBRANCH  68  69
ENDBRANCH   1  68
TORSDOF 20
ENDMDL
MODEL 2
REMARK VINA RESULT:     -10.9      7.163     13.330
REMARK SMILES O=C(OCCOC(=O)[C@H](NC(=O)[C@H]1CC[C@@H](CNC(=O)[C@@H]2Cc3ccccc3C[NH2+]2)CC1)c1ccccc1)c1ccc(-c2c3nc(c(-c4ccc(S(=O)(=O)[O-])cc4)c4ccc([nH]4)c(-c4ccc(S(=O)(=O)[O-])cc4)c4nc(c(-c5ccc(S(=O)(=O)[O-])cc5)c5ccc2[nH]5)C=C4)C=C3)cc1
REMARK SMILES IDX 5 1 4 2 3 3 2 4 1 5 39 6 40 7 98 8 41 9 97 10 42 11 43 12
REMARK SMILES IDX 44 13 91 14 45 15 96 16 90 17 92 18 46 19 95 20 89 21 88 22
REMARK SMILES IDX 47 24 77 25 58 26 76 27 59 28 62 29 75 30 93 31 60 32 61 33
REMARK SMILES IDX 74 35 94 36 63 37 48 38 49 39 57 40 50 41 56 42 51 43 52 44
REMARK SMILES IDX 53 45 54 46 55 47 78 48 79 49 87 50 80 51 86 52 81 53 82 54
REMARK SMILES IDX 83 55 84 56 85 57 64 58 65 59 73 60 66 61 72 62 67 63 68 64
REMARK SMILES IDX 69 65 70 66 71 67 6 68 7 69 8 70 9 71 33 72 34 73 38 74
REMARK SMILES IDX 35 75 37 76 36 77 10 78 11 79 12 81 13 82 32 83 14 84 31 85
REMARK SMILES IDX 15 86 16 87 17 88 18 89 19 90 20 92 21 93 22 94 30 95 23 96
REMARK SMILES IDX 29 97 24 100 28 101 25 102 27 103 26 104
REMARK H PARENT 92 23 62 34 10 80 18 91 30 98 30 99
REMARK Flexibility Score: inf
ROOT
ATOM      1  C   UNL A   1      43.884  25.852  26.141  1.00  0.00     0.274 C 
ENDROOT
BRANCH   1   2
ATOM      2  C   UNL A   1      43.423  27.022  25.270  1.00  0.00     0.275 C 
BRANCH   2   3
ATOM      3  O   UNL A   1      41.999  27.211  25.311  1.00  0.00    -0.458 OA
BRANCH   3   4
ATOM      4  C   UNL A   1      41.075  26.794  26.207  1.00  0.00     0.338 C 
ATOM      5  O   UNL A   1      40.332  25.875  25.858  1.00  0.00    -0.246 OA
BRANCH   4   6
ATOM      6  C   UNL A   1      40.818  27.403  27.564  1.00  0.00     0.060 A 
ATOM      7  C   UNL A   1      40.189  26.811  28.662  1.00  0.00     0.016 A 
ATOM      8  C   UNL A   1      41.349  28.691  27.760  1.00  0.00     0.016 A 
ATOM      9  C   UNL A   1      40.206  27.416  29.928  1.00  0.00     0.010 A 
ATOM     10  C   UNL A   1      41.378  29.296  29.024  1.00  0.00     0.010 A 
ATOM     11  C   UNL A   1      40.828  28.648  30.126  1.00  0.00    -0.014 A 
BRANCH  11  12
ATOM     12  C   UNL A   1      40.693  29.328  31.433  1.00  0.00     0.031 A 
ATOM     13  C   UNL A   1      41.853  29.243  32.364  1.00  0.00     0.074 A 
ATOM     14  C   UNL A   1      39.587  30.015  31.777  1.00  0.00     0.049 A 
ATOM     15  N   UNL A   1      42.076  29.908  33.461  1.00  0.00    -0.248 NA
ATOM     16  C   UNL A   1      42.878  28.238  32.036  1.00  0.00     0.031 C 
ATOM     17  C   UNL A   1      38.356  30.041  31.002  1.00  0.00     0.029 A 
ATOM     18  N   UNL A   1      39.320  30.848  32.837  1.00  0.00    -0.354 N 
ATOM     19  C   UNL A   1      43.217  29.339  34.005  1.00  0.00     0.074 A 
ATOM     20  C   UNL A   1      43.669  28.314  33.091  1.00  0.00     0.031 C 
ATOM     21  C   UNL A   1      37.524  30.955  31.528  1.00  0.00     0.029 A 
ATOM     22  C   UNL A   1      38.148  31.565  32.690  1.00  0.00     0.049 A 
ATOM     23  H   UNL A   1      39.907  30.927  33.624  1.00  0.00     0.167 HD
ATOM     24  C   UNL A   1      43.781  29.589  35.204  1.00  0.00     0.031 A 
ATOM     25  C   UNL A   1      37.664  32.615  33.389  1.00  0.00     0.031 A 
ATOM     26  C   UNL A   1      43.265  30.542  36.144  1.00  0.00     0.049 A 
ATOM     27  C   UNL A   1      38.404  32.993  34.647  1.00  0.00     0.074 A 
ATOM     28  C   UNL A   1      43.714  30.815  37.422  1.00  0.00     0.029 A 
ATOM     29  N   UNL A   1      42.137  31.327  35.934  1.00  0.00    -0.354 N 
ATOM     30  N   UNL A   1      39.558  32.549  35.086  1.00  0.00    -0.248 NA
ATOM     31  C   UNL A   1      37.749  33.965  35.534  1.00  0.00     0.031 C 
ATOM     32  C   UNL A   1      42.800  31.686  38.021  1.00  0.00     0.029 A 
ATOM     33  C   UNL A   1      41.830  32.024  37.089  1.00  0.00     0.049 A 
ATOM     34  H   UNL A   1      41.632  31.379  35.090  1.00  0.00     0.167 HD
ATOM     35  C   UNL A   1      39.738  33.140  36.330  1.00  0.00     0.074 A 
ATOM     36  C   UNL A   1      38.626  34.049  36.525  1.00  0.00     0.031 C 
ATOM     37  C   UNL A   1      40.707  32.914  37.252  1.00  0.00     0.031 A 
BRANCH  24  38
ATOM     38  C   UNL A   1      44.912  28.687  35.600  1.00  0.00    -0.014 A 
ATOM     39  C   UNL A   1      44.677  27.464  36.250  1.00  0.00     0.010 A 
ATOM     40  C   UNL A   1      46.236  29.109  35.377  1.00  0.00     0.010 A 
ATOM     41  C   UNL A   1      45.749  26.693  36.700  1.00  0.00     0.020 A 
ATOM     42  C   UNL A   1      47.310  28.326  35.799  1.00  0.00     0.020 A 
ATOM     43  C   UNL A   1      47.059  27.128  36.470  1.00  0.00     0.054 A 
BRANCH  43  44
ATOM     44  S   UNL A   1      48.427  26.084  37.038  1.00  0.00     0.124 S 
ATOM     45  O   UNL A   1      49.115  25.784  35.785  1.00  0.00    -0.237 OA
ATOM     46  O   UNL A   1      49.143  26.973  37.950  1.00  0.00    -0.237 OA
ATOM     47  O   UNL A   1      47.759  24.952  37.671  1.00  0.00    -0.744 OA
ENDBRANCH  43  44
ENDBRANCH  24  38
BRANCH  25  48
ATOM     48  C   UNL A   1      36.461  33.399  32.952  1.00  0.00    -0.014 A 
ATOM     49  C   UNL A   1      35.191  33.101  33.493  1.00  0.00     0.010 A 
ATOM     50  C   UNL A   1      36.539  34.411  31.977  1.00  0.00     0.010 A 
ATOM     51  C   UNL A   1      34.039  33.770  33.057  1.00  0.00     0.020 A 
ATOM     52  C   UNL A   1      35.396  35.112  31.567  1.00  0.00     0.020 A 
ATOM     53  C   UNL A   1      34.149  34.774  32.094  1.00  0.00     0.054 A 
BRANCH  53  54
ATOM     54  S   UNL A   1      32.653  35.661  31.564  1.00  0.00     0.124 S 
ATOM     55  O   UNL A   1      31.655  35.161  32.504  1.00  0.00    -0.237 OA
ATOM     56  O   UNL A   1      33.037  37.061  31.732  1.00  0.00    -0.237 OA
ATOM     57  O   UNL A   1      32.483  35.234  30.178  1.00  0.00    -0.744 OA
ENDBRANCH  53  54
ENDBRANCH  25  48
BRANCH  37  58
ATOM     58  C   UNL A   1      40.593  33.644  38.560  1.00  0.00    -0.014 A 
ATOM     59  C   UNL A   1      41.191  34.905  38.750  1.00  0.00     0.010 A 
ATOM     60  C   UNL A   1      39.810  33.092  39.588  1.00  0.00     0.010 A 
ATOM     61  C   UNL A   1      41.034  35.582  39.961  1.00  0.00     0.020 A 
ATOM     62  C   UNL A   1      39.624  33.782  40.785  1.00  0.00     0.020 A 
ATOM     63  C   UNL A   1      40.250  35.016  40.970  1.00  0.00     0.054 A 
BRANCH  63  64
ATOM     64  S   UNL A   1      40.024  35.930  42.519  1.00  0.00     0.124 S 
ATOM     65  O   UNL A   1      39.403  37.167  42.052  1.00  0.00    -0.237 OA
ATOM     66  O   UNL A   1      39.157  35.043  43.290  1.00  0.00    -0.237 OA
ATOM     67  O   UNL A   1      41.382  36.071  43.039  1.00  0.00    -0.744 OA
ENDBRANCH  63  64
ENDBRANCH  37  58
ENDBRANCH  11  12
ENDBRANCH   4   6
ENDBRANCH   3   4
ENDBRANCH   2   3
ENDBRANCH   1   2
BRANCH   1  68
ATOM     68  O   UNL A   1      43.366  24.609  25.639  1.00  0.00    -0.460 OA
BRANCH  68  69
ATOM     69  C   UNL A   1      43.463  23.495  26.419  1.00  0.00     0.333 C 
ATOM     70  O   UNL A   1      43.983  23.488  27.535  1.00  0.00    -0.249 OA
BRANCH  69  71
ATOM     71  C   UNL A   1      42.844  22.245  25.718  1.00  0.00     0.223 C 
BRANCH  71  72
ATOM     72  C   UNL A   1      43.908  21.183  25.391  1.00  0.00    -0.014 A 
ATOM     73  C   UNL A   1      43.609  19.803  25.411  1.00  0.00     0.006 A 
ATOM     74  C   UNL A   1      45.243  21.536  25.124  1.00  0.00     0.006 A 
ATOM     75  C   UNL A   1      44.578  18.832  25.138  1.00  0.00     0.000 A 
ATOM     76  C   UNL A   1      46.212  20.566  24.840  1.00  0.00     0.000 A 
ATOM     77  C   UNL A   1      45.880  19.215  24.841  1.00  0.00     0.000 A 
ENDBRANCH  71  72
BRANCH  71  78
ATOM     78  N   UNL A   1      41.828  21.717  26.655  1.00  0.00    -0.339 N 
ATOM     79  C   UNL A   1      40.499  21.524  26.739  1.00  0.00     0.224 C 
ATOM     80  H   UNL A   1      42.264  21.409  27.481  1.00  0.00     0.164 HD
ATOM     81  O   UNL A   1      40.146  20.989  27.802  1.00  0.00    -0.275 OA
BRANCH  79  82
ATOM     82  C   UNL A   1      39.406  21.943  25.736  1.00  0.00     0.078 C 
ATOM     83  C   UNL A   1      38.421  20.878  25.282  1.00  0.00     0.014 C 
ATOM     84  C   UNL A   1      38.681  23.186  26.324  1.00  0.00     0.014 C 
ATOM     85  C   UNL A   1      37.229  21.436  24.497  1.00  0.00     0.006 C 
ATOM     86  C   UNL A   1      37.422  23.640  25.584  1.00  0.00     0.006 C 
ATOM     87  C   UNL A   1      36.454  22.491  25.288  1.00  0.00     0.008 C 
BRANCH  87  88
ATOM     88  C   UNL A   1      35.819  21.891  26.564  1.00  0.00     0.119 C 
BRANCH  88  89
ATOM     89  N   UNL A   1      34.775  20.929  26.261  1.00  0.00    -0.351 N 
ATOM     90  C   UNL A   1      33.587  21.025  25.600  1.00  0.00     0.278 C 
ATOM     91  H   UNL A   1      34.965  20.025  26.600  1.00  0.00     0.163 HD
ATOM     92  O   UNL A   1      33.037  19.947  25.332  1.00  0.00    -0.268 OA
BRANCH  90  93
ATOM     93  C   UNL A   1      32.920  22.348  25.175  1.00  0.00     0.277 C 
ATOM     94  C   UNL A   1      31.565  22.550  25.910  1.00  0.00     0.111 C 
ATOM     95  N   UNL A   1      32.938  22.600  23.713  1.00  0.00    -0.332 N 
ATOM     96  C   UNL A   1      30.852  23.751  25.334  1.00  0.00    -0.033 A 
ATOM     97  C   UNL A   1      31.605  22.818  23.161  1.00  0.00     0.298 C 
ATOM     98  H   UNL A   1      33.356  21.794  23.248  1.00  0.00     0.347 HD
ATOM     99  H   UNL A   1      33.480  23.451  23.554  1.00  0.00     0.347 HD
ATOM    100  C   UNL A   1      30.202  24.712  26.108  1.00  0.00     0.004 A 
ATOM    101  C   UNL A   1      30.917  23.901  23.935  1.00  0.00     0.010 A 
ATOM    102  C   UNL A   1      29.691  25.854  25.494  1.00  0.00     0.000 A 
ATOM    103  C   UNL A   1      30.404  25.043  23.330  1.00  0.00     0.010 A 
ATOM    104  C   UNL A   1      29.822  26.029  24.116  1.00  0.00     0.001 A 
ENDBRANCH  90  93
ENDBRANCH  88  89
ENDBRANCH  87  88
ENDBRANCH  79  82
ENDBRANCH  71  78
ENDBRANCH  69  71
ENDBRANCH  68  69
ENDBRANCH   1  68
TORSDOF 20
ENDMDL
MODEL 3
REMARK VINA RESULT:     -10.5      7.348     13.559
REMARK SMILES O=C(OCCOC(=O)[C@H](NC(=O)[C@H]1CC[C@@H](CNC(=O)[C@@H]2Cc3ccccc3C[NH2+]2)CC1)c1ccccc1)c1ccc(-c2c3nc(c(-c4ccc(S(=O)(=O)[O-])cc4)c4ccc([nH]4)c(-c4ccc(S(=O)(=O)[O-])cc4)c4nc(c(-c5ccc(S(=O)(=O)[O-])cc5)c5ccc2[nH]5)C=C4)C=C3)cc1
REMARK SMILES IDX 5 1 4 2 3 3 2 4 1 5 39 6 40 7 98 8 41 9 97 10 42 11 43 12
REMARK SMILES IDX 44 13 91 14 45 15 96 16 90 17 92 18 46 19 95 20 89 21 88 22
REMARK SMILES IDX 47 24 77 25 58 26 76 27 59 28 62 29 75 30 93 31 60 32 61 33
REMARK SMILES IDX 74 35 94 36 63 37 48 38 49 39 57 40 50 41 56 42 51 43 52 44
REMARK SMILES IDX 53 45 54 46 55 47 78 48 79 49 87 50 80 51 86 52 81 53 82 54
REMARK SMILES IDX 83 55 84 56 85 57 64 58 65 59 73 60 66 61 72 62 67 63 68 64
REMARK SMILES IDX 69 65 70 66 71 67 6 68 7 69 8 70 9 71 33 72 34 73 38 74
REMARK SMILES IDX 35 75 37 76 36 77 10 78 11 79 12 81 13 82 32 83 14 84 31 85
REMARK SMILES IDX 15 86 16 87 17 88 18 89 19 90 20 92 21 93 22 94 30 95 23 96
REMARK SMILES IDX 29 97 24 100 28 101 25 102 27 103 26 104
REMARK H PARENT 92 23 62 34 10 80 18 91 30 98 30 99
REMARK Flexibility Score: inf
ROOT
ATOM      1  C   UNL A   1      45.997  26.901  25.117  1.00  0.00     0.274 C 
ENDROOT
BRANCH   1   2
ATOM      2  C   UNL A   1      44.470  26.967  25.168  1.00  0.00     0.275 C 
BRANCH   2   3
ATOM      3  O   UNL A   1      43.989  28.219  25.683  1.00  0.00    -0.458 OA
BRANCH   3   4
ATOM      4  C   UNL A   1      42.737  28.627  25.993  1.00  0.00     0.338 C 
ATOM      5  O   UNL A   1      41.942  28.753  25.060  1.00  0.00    -0.246 OA
BRANCH   4   6
ATOM      6  C   UNL A   1      42.247  29.021  27.365  1.00  0.00     0.060 A 
ATOM      7  C   UNL A   1      41.420  28.289  28.221  1.00  0.00     0.016 A 
ATOM      8  C   UNL A   1      42.752  30.236  27.864  1.00  0.00     0.016 A 
ATOM      9  C   UNL A   1      41.216  28.681  29.553  1.00  0.00     0.010 A 
ATOM     10  C   UNL A   1      42.560  30.628  29.196  1.00  0.00     0.010 A 
ATOM     11  C   UNL A   1      41.810  29.837  30.059  1.00  0.00    -0.014 A 
BRANCH  11  12
ATOM     12  C   UNL A   1      41.450  30.303  31.417  1.00  0.00     0.031 A 
ATOM     13  C   UNL A   1      42.519  30.263  32.453  1.00  0.00     0.074 A 
ATOM     14  C   UNL A   1      40.221  30.765  31.717  1.00  0.00     0.049 A 
ATOM     15  N   UNL A   1      42.533  30.797  33.640  1.00  0.00    -0.248 NA
ATOM     16  C   UNL A   1      43.718  29.476  32.120  1.00  0.00     0.031 C 
ATOM     17  C   UNL A   1      39.076  30.715  30.821  1.00  0.00     0.029 A 
ATOM     18  N   UNL A   1      39.729  31.396  32.835  1.00  0.00    -0.354 N 
ATOM     19  C   UNL A   1      43.696  30.334  34.234  1.00  0.00     0.074 A 
ATOM     20  C   UNL A   1      44.388  29.523  33.257  1.00  0.00     0.031 C 
ATOM     21  C   UNL A   1      38.064  31.415  31.359  1.00  0.00     0.029 A 
ATOM     22  C   UNL A   1      38.474  31.945  32.648  1.00  0.00     0.049 A 
ATOM     23  H   UNL A   1      40.222  31.452  33.685  1.00  0.00     0.167 HD
ATOM     24  C   UNL A   1      44.103  30.498  35.510  1.00  0.00     0.031 A 
ATOM     25  C   UNL A   1      37.767  32.805  33.411  1.00  0.00     0.031 A 
ATOM     26  C   UNL A   1      43.357  31.226  36.496  1.00  0.00     0.049 A 
ATOM     27  C   UNL A   1      38.320  33.112  34.780  1.00  0.00     0.074 A 
ATOM     28  C   UNL A   1      43.639  31.384  37.839  1.00  0.00     0.029 A 
ATOM     29  N   UNL A   1      42.141  31.856  36.259  1.00  0.00    -0.354 N 
ATOM     30  N   UNL A   1      39.486  32.788  35.287  1.00  0.00    -0.248 NA
ATOM     31  C   UNL A   1      37.440  33.846  35.701  1.00  0.00     0.031 C 
ATOM     32  C   UNL A   1      42.547  32.020  38.435  1.00  0.00     0.029 A 
ATOM     33  C   UNL A   1      41.623  32.335  37.449  1.00  0.00     0.049 A 
ATOM     34  H   UNL A   1      41.713  31.949  35.378  1.00  0.00     0.167 HD
ATOM     35  C   UNL A   1      39.455  33.222  36.606  1.00  0.00     0.074 A 
ATOM     36  C   UNL A   1      38.199  33.922  36.786  1.00  0.00     0.031 C 
ATOM     37  C   UNL A   1      40.361  33.018  37.594  1.00  0.00     0.031 A 
BRANCH  24  38
ATOM     38  C   UNL A   1      45.324  29.727  35.915  1.00  0.00    -0.014 A 
ATOM     39  C   UNL A   1      46.602  30.308  35.866  1.00  0.00     0.010 A 
ATOM     40  C   UNL A   1      45.191  28.375  36.282  1.00  0.00     0.010 A 
ATOM     41  C   UNL A   1      47.732  29.539  36.147  1.00  0.00     0.020 A 
ATOM     42  C   UNL A   1      46.316  27.612  36.593  1.00  0.00     0.020 A 
ATOM     43  C   UNL A   1      47.581  28.196  36.512  1.00  0.00     0.054 A 
BRANCH  43  44
ATOM     44  S   UNL A   1      49.067  27.236  36.904  1.00  0.00     0.124 S 
ATOM     45  O   UNL A   1      48.929  26.090  36.009  1.00  0.00    -0.237 OA
ATOM     46  O   UNL A   1      50.141  28.169  36.570  1.00  0.00    -0.237 OA
ATOM     47  O   UNL A   1      48.922  26.939  38.326  1.00  0.00    -0.744 OA
ENDBRANCH  43  44
ENDBRANCH  24  38
BRANCH  25  48
ATOM     48  C   UNL A   1      36.497  33.455  32.943  1.00  0.00    -0.014 A 
ATOM     49  C   UNL A   1      36.474  34.841  32.671  1.00  0.00     0.010 A 
ATOM     50  C   UNL A   1      35.297  32.736  32.798  1.00  0.00     0.010 A 
ATOM     51  C   UNL A   1      35.289  35.489  32.296  1.00  0.00     0.020 A 
ATOM     52  C   UNL A   1      34.117  33.372  32.383  1.00  0.00     0.020 A 
ATOM     53  C   UNL A   1      34.115  34.748  32.153  1.00  0.00     0.054 A 
BRANCH  53  54
ATOM     54  S   UNL A   1      32.593  35.593  31.630  1.00  0.00     0.124 S 
ATOM     55  O   UNL A   1      32.450  35.135  30.251  1.00  0.00    -0.237 OA
ATOM     56  O   UNL A   1      31.603  35.078  32.573  1.00  0.00    -0.237 OA
ATOM     57  O   UNL A   1      32.919  37.007  31.794  1.00  0.00    -0.744 OA
ENDBRANCH  53  54
ENDBRANCH  25  48
BRANCH  37  58
ATOM     58  C   UNL A   1      40.013  33.537  38.962  1.00  0.00    -0.014 A 
ATOM     59  C   UNL A   1      39.396  32.714  39.922  1.00  0.00     0.010 A 
ATOM     60  C   UNL A   1      40.382  34.846  39.312  1.00  0.00     0.010 A 
ATOM     61  C   UNL A   1      39.122  33.207  41.199  1.00  0.00     0.020 A 
ATOM     62  C   UNL A   1      40.140  35.331  40.597  1.00  0.00     0.020 A 
ATOM     63  C   UNL A   1      39.498  34.513  41.528  1.00  0.00     0.054 A 
BRANCH  63  64
ATOM     64  S   UNL A   1      39.173  35.120  43.204  1.00  0.00     0.124 S 
ATOM     65  O   UNL A   1      40.177  34.403  43.986  1.00  0.00    -0.237 OA
ATOM     66  O   UNL A   1      39.388  36.559  43.071  1.00  0.00    -0.237 OA
ATOM     67  O   UNL A   1      37.789  34.724  43.453  1.00  0.00    -0.744 OA
ENDBRANCH  63  64
ENDBRANCH  37  58
ENDBRANCH  11  12
ENDBRANCH   4   6
ENDBRANCH   3   4
ENDBRANCH   2   3
ENDBRANCH   1   2
BRANCH   1  68
ATOM     68  O   UNL A   1      46.447  25.536  25.091  1.00  0.00    -0.460 OA
BRANCH  68  69
ATOM     69  C   UNL A   1      46.971  24.997  26.229  1.00  0.00     0.333 C 
ATOM     70  O   UNL A   1      48.027  25.374  26.738  1.00  0.00    -0.249 OA
BRANCH  69  71
ATOM     71  C   UNL A   1      46.074  23.849  26.789  1.00  0.00     0.223 C 
BRANCH  71  72
ATOM     72  C   UNL A   1      45.283  24.293  28.033  1.00  0.00    -0.014 A 
ATOM     73  C   UNL A   1      44.961  23.389  29.069  1.00  0.00     0.006 A 
ATOM     74  C   UNL A   1      44.787  25.603  28.161  1.00  0.00     0.006 A 
ATOM     75  C   UNL A   1      44.222  23.781  30.190  1.00  0.00     0.000 A 
ATOM     76  C   UNL A   1      44.057  25.999  29.287  1.00  0.00     0.000 A 
ATOM     77  C   UNL A   1      43.779  25.092  30.304  1.00  0.00     0.000 A 
ENDBRANCH  71  72
BRANCH  71  78
ATOM     78  N   UNL A   1      45.168  23.466  25.684  1.00  0.00    -0.339 N 
ATOM     79  C   UNL A   1      44.013  22.808  25.474  1.00  0.00     0.224 C 
ATOM     80  H   UNL A   1      45.524  23.799  24.830  1.00  0.00     0.164 HD
ATOM     81  O   UNL A   1      43.661  22.801  24.284  1.00  0.00    -0.275 OA
BRANCH  79  82
ATOM     82  C   UNL A   1      43.153  22.034  26.494  1.00  0.00     0.078 C 
ATOM     83  C   UNL A   1      41.955  22.752  27.093  1.00  0.00     0.014 C 
ATOM     84  C   UNL A   1      42.748  20.686  25.837  1.00  0.00     0.014 C 
ATOM     85  C   UNL A   1      41.021  21.834  27.888  1.00  0.00     0.006 C 
ATOM     86  C   UNL A   1      41.718  19.851  26.601  1.00  0.00     0.006 C 
ATOM     87  C   UNL A   1      40.501  20.665  27.049  1.00  0.00     0.008 C 
BRANCH  87  88
ATOM     88  C   UNL A   1      39.633  21.156  25.868  1.00  0.00     0.119 C 
BRANCH  88  89
ATOM     89  N   UNL A   1      39.161  22.516  26.058  1.00  0.00    -0.351 N 
ATOM     90  C   UNL A   1      37.939  23.104  25.915  1.00  0.00     0.278 C 
ATOM     91  H   UNL A   1      39.865  23.138  26.350  1.00  0.00     0.163 HD
ATOM     92  O   UNL A   1      37.842  24.250  26.375  1.00  0.00    -0.268 OA
BRANCH  90  93
ATOM     93  C   UNL A   1      36.717  22.442  25.248  1.00  0.00     0.277 C 
ATOM     94  C   UNL A   1      35.789  23.510  24.605  1.00  0.00     0.111 C 
ATOM     95  N   UNL A   1      36.067  21.390  26.068  1.00  0.00    -0.332 N 
ATOM     96  C   UNL A   1      34.514  22.851  24.131  1.00  0.00    -0.033 A 
ATOM     97  C   UNL A   1      34.649  21.646  26.296  1.00  0.00     0.298 C 
ATOM     98  H   UNL A   1      36.540  21.342  26.971  1.00  0.00     0.347 HD
ATOM     99  H   UNL A   1      36.142  20.510  25.556  1.00  0.00     0.347 HD
ATOM    100  C   UNL A   1      33.910  23.126  22.904  1.00  0.00     0.004 A 
ATOM    101  C   UNL A   1      33.967  21.871  24.981  1.00  0.00     0.010 A 
ATOM    102  C   UNL A   1      32.812  22.368  22.498  1.00  0.00     0.000 A 
ATOM    103  C   UNL A   1      32.871  21.121  24.569  1.00  0.00     0.010 A 
ATOM    104  C   UNL A   1      32.319  21.351  23.315  1.00  0.00     0.001 A 
ENDBRANCH  90  93
ENDBRANCH  88  89
ENDBRANCH  87  88
ENDBRANCH  79  82
ENDBRANCH  71  78
ENDBRANCH  69  71
ENDBRANCH  68  69
ENDBRANCH   1  68
TORSDOF 20
ENDMDL
