MODEL 1
REMARK VINA RESULT:     -11.8      0.000      0.000
REMARK SMILES CCOC(=O)[C@@]1(C)C/C(=N/c2cccc(C(=O)OCCOC(=O)c3ccc(-c4c5nc(c(-c6ccc(S(=O)(=O)[O-])cc6)c6ccc([nH]6)c(-c6ccc(S(=O)(=O)[O-])cc6)c6nc(c(-c7ccc(S(=O)(=O)[O-])cc7)c7ccc4[nH]7)C=C6)C=C5)cc3)c2)C(=O)N1c1ccccc1
REMARK SMILES IDX 19 1 18 2 16 3 17 4 15 5 11 6 12 7 84 8 13 9 14 10 10 11
REMARK SMILES IDX 6 12 7 13 8 14 87 15 9 16 85 17 86 18 4 19 5 20 3 21 2 22
REMARK SMILES IDX 1 23 88 24 89 25 93 26 90 27 92 28 91 29 20 30 21 31 22 32
REMARK SMILES IDX 23 33 24 34 25 35 83 36 26 37 82 38 27 39 28 40 29 41 76 42
REMARK SMILES IDX 30 43 81 44 75 45 77 46 31 47 80 48 74 49 73 50 32 52 62 53
REMARK SMILES IDX 43 54 61 55 44 56 47 57 60 58 78 59 45 60 46 61 59 63 79 64
REMARK SMILES IDX 48 65 33 66 34 67 42 68 35 69 41 70 36 71 37 72 38 73 39 74
REMARK SMILES IDX 40 75 63 76 64 77 72 78 65 79 71 80 66 81 67 82 68 83 69 84
REMARK SMILES IDX 70 85 49 86 50 87 58 88 51 89 57 90 52 91 53 92 54 93 55 94
REMARK SMILES IDX 56 95
REMARK H PARENT 77 51 47 62
REMARK Flexibility Score: inf
ROOT
ATOM      1  C   UNL A   1      33.261  30.875  27.506  1.00  0.00     0.275 C 
ENDROOT
BRANCH   1   2
ATOM      2  O   UNL A   1      33.173  29.783  26.570  1.00  0.00    -0.458 OA
BRANCH   2   3
ATOM      3  C   UNL A   1      32.191  29.891  25.635  1.00  0.00     0.338 C 
ATOM      4  O   UNL A   1      31.360  30.781  25.561  1.00  0.00    -0.246 OA
BRANCH   3   5
ATOM      5  C   UNL A   1      32.294  28.793  24.642  1.00  0.00     0.062 A 
ATOM      6  C   UNL A   1      31.698  26.576  23.844  1.00  0.00     0.064 A 
ATOM      7  C   UNL A   1      32.474  26.785  22.704  1.00  0.00     0.028 A 
ATOM      8  C   UNL A   1      31.650  27.567  24.834  1.00  0.00     0.044 A 
ATOM      9  C   UNL A   1      33.145  27.996  22.519  1.00  0.00     0.003 A 
ATOM     10  C   UNL A   1      33.040  29.006  23.477  1.00  0.00     0.016 A 
BRANCH   6  11
ATOM     11  N   UNL A   1      30.981  25.381  24.010  1.00  0.00    -0.248 NA
ATOM     12  C   UNL A   1      32.340  22.229  23.936  1.00  0.00     0.148 C 
ATOM     13  C   UNL A   1      32.372  22.274  22.393  1.00  0.00     0.048 C 
ATOM     14  C   UNL A   1      31.070  22.975  24.426  1.00  0.00     0.103 C 
ATOM     15  N   UNL A   1      33.472  22.988  24.526  1.00  0.00    -0.290 N 
ATOM     16  C   UNL A   1      31.621  24.352  24.477  1.00  0.00     0.109 C 
ATOM     17  C   UNL A   1      33.056  24.256  24.924  1.00  0.00     0.273 C 
ATOM     18  O   UNL A   1      33.624  25.157  25.504  1.00  0.00    -0.267 OA
BRANCH  12  19
ATOM     19  C   UNL A   1      32.162  20.778  24.429  1.00  0.00     0.332 C 
ATOM     20  O   UNL A   1      31.826  20.486  25.572  1.00  0.00    -0.249 OA
BRANCH  19  21
ATOM     21  O   UNL A   1      32.489  19.865  23.475  1.00  0.00    -0.464 OA
BRANCH  21  22
ATOM     22  C   UNL A   1      32.717  18.539  23.966  1.00  0.00     0.229 C 
ATOM     23  C   UNL A   1      34.171  18.430  24.378  1.00  0.00     0.049 C 
ENDBRANCH  21  22
ENDBRANCH  19  21
ENDBRANCH  12  19
BRANCH  15  24
ATOM     24  C   UNL A   1      34.828  22.536  24.593  1.00  0.00     0.045 A 
ATOM     25  C   UNL A   1      35.755  22.869  23.593  1.00  0.00     0.026 A 
ATOM     26  C   UNL A   1      35.294  21.735  25.649  1.00  0.00     0.026 A 
ATOM     27  C   UNL A   1      37.079  22.415  23.635  1.00  0.00     0.002 A 
ATOM     28  C   UNL A   1      36.615  21.271  25.687  1.00  0.00     0.002 A 
ATOM     29  C   UNL A   1      37.509  21.611  24.680  1.00  0.00     0.000 A 
ENDBRANCH  15  24
ENDBRANCH   6  11
ENDBRANCH   3   5
ENDBRANCH   2   3
ENDBRANCH   1   2
BRANCH   1  30
ATOM     30  C   UNL A   1      34.719  31.301  27.678  1.00  0.00     0.275 C 
BRANCH  30  31
ATOM     31  O   UNL A   1      35.431  30.235  28.318  1.00  0.00    -0.458 OA
BRANCH  31  32
ATOM     32  C   UNL A   1      36.231  30.582  29.350  1.00  0.00     0.338 C 
ATOM     33  O   UNL A   1      35.897  31.221  30.333  1.00  0.00    -0.246 OA
BRANCH  32  34
ATOM     34  C   UNL A   1      37.611  30.096  29.080  1.00  0.00     0.060 A 
ATOM     35  C   UNL A   1      38.064  29.852  27.776  1.00  0.00     0.016 A 
ATOM     36  C   UNL A   1      38.471  29.887  30.161  1.00  0.00     0.016 A 
ATOM     37  C   UNL A   1      39.371  29.413  27.553  1.00  0.00     0.010 A 
ATOM     38  C   UNL A   1      39.786  29.468  29.937  1.00  0.00     0.010 A 
ATOM     39  C   UNL A   1      40.245  29.229  28.632  1.00  0.00    -0.014 A 
BRANCH  39  40
ATOM     40  C   UNL A   1      41.640  28.785  28.406  1.00  0.00     0.031 A 
ATOM     41  C   UNL A   1      42.766  29.774  28.482  1.00  0.00     0.074 A 
ATOM     42  C   UNL A   1      41.897  27.498  28.108  1.00  0.00     0.049 A 
ATOM     43  N   UNL A   1      44.026  29.613  28.169  1.00  0.00    -0.248 NA
ATOM     44  C   UNL A   1      42.429  31.122  28.967  1.00  0.00     0.031 C 
ATOM     45  C   UNL A   1      40.900  26.430  28.022  1.00  0.00     0.029 A 
ATOM     46  N   UNL A   1      43.083  26.874  27.816  1.00  0.00    -0.354 N 
ATOM     47  C   UNL A   1      44.625  30.849  28.370  1.00  0.00     0.074 A 
ATOM     48  C   UNL A   1      43.595  31.743  28.860  1.00  0.00     0.031 C 
ATOM     49  C   UNL A   1      41.518  25.279  27.706  1.00  0.00     0.029 A 
ATOM     50  C   UNL A   1      42.945  25.535  27.535  1.00  0.00     0.049 A 
ATOM     51  H   UNL A   1      43.950  27.340  27.808  1.00  0.00     0.167 HD
ATOM     52  C   UNL A   1      45.910  31.212  28.148  1.00  0.00     0.031 A 
ATOM     53  C   UNL A   1      43.861  24.623  27.160  1.00  0.00     0.031 A 
ATOM     54  C   UNL A   1      46.941  30.327  27.683  1.00  0.00     0.049 A 
ATOM     55  C   UNL A   1      45.290  25.039  26.965  1.00  0.00     0.074 A 
ATOM     56  C   UNL A   1      48.264  30.616  27.399  1.00  0.00     0.029 A 
ATOM     57  N   UNL A   1      46.768  28.973  27.451  1.00  0.00    -0.354 N 
ATOM     58  N   UNL A   1      45.826  26.227  27.102  1.00  0.00    -0.248 NA
ATOM     59  C   UNL A   1      46.234  23.991  26.550  1.00  0.00     0.031 C 
ATOM     60  C   UNL A   1      48.893  29.431  26.992  1.00  0.00     0.029 A 
ATOM     61  C   UNL A   1      47.960  28.407  27.034  1.00  0.00     0.049 A 
ATOM     62  H   UNL A   1      45.920  28.484  27.565  1.00  0.00     0.167 HD
ATOM     63  C   UNL A   1      47.166  26.074  26.772  1.00  0.00     0.074 A 
ATOM     64  C   UNL A   1      47.367  24.676  26.455  1.00  0.00     0.031 C 
ATOM     65  C   UNL A   1      48.140  27.015  26.722  1.00  0.00     0.031 A 
BRANCH  52  66
ATOM     66  C   UNL A   1      46.246  32.658  28.369  1.00  0.00    -0.014 A 
ATOM     67  C   UNL A   1      46.716  33.107  29.614  1.00  0.00     0.010 A 
ATOM     68  C   UNL A   1      46.074  33.577  27.318  1.00  0.00     0.010 A 
ATOM     69  C   UNL A   1      46.975  34.465  29.818  1.00  0.00     0.020 A 
ATOM     70  C   UNL A   1      46.339  34.933  27.518  1.00  0.00     0.020 A 
ATOM     71  C   UNL A   1      46.768  35.371  28.772  1.00  0.00     0.054 A 
BRANCH  71  72
ATOM     72  S   UNL A   1      47.092  37.136  29.043  1.00  0.00     0.124 S 
ATOM     73  O   UNL A   1      48.164  37.393  28.085  1.00  0.00    -0.237 OA
ATOM     74  O   UNL A   1      45.809  37.762  28.729  1.00  0.00    -0.237 OA
ATOM     75  O   UNL A   1      47.480  37.197  30.450  1.00  0.00    -0.744 OA
ENDBRANCH  71  72
ENDBRANCH  52  66
BRANCH  53  76
ATOM     76  C   UNL A   1      43.441  23.223  26.914  1.00  0.00    -0.014 A 
ATOM     77  C   UNL A   1      43.406  22.716  25.604  1.00  0.00     0.010 A 
ATOM     78  C   UNL A   1      43.100  22.386  27.990  1.00  0.00     0.010 A 
ATOM     79  C   UNL A   1      43.034  21.389  25.371  1.00  0.00     0.020 A 
ATOM     80  C   UNL A   1      42.737  21.057  27.761  1.00  0.00     0.020 A 
ATOM     81  C   UNL A   1      42.699  20.569  26.453  1.00  0.00     0.054 A 
BRANCH  81  82
ATOM     82  S   UNL A   1      42.279  18.826  26.170  1.00  0.00     0.124 S 
ATOM     83  O   UNL A   1      42.394  18.266  27.513  1.00  0.00    -0.237 OA
ATOM     84  O   UNL A   1      40.922  18.891  25.629  1.00  0.00    -0.237 OA
ATOM     85  O   UNL A   1      43.299  18.395  25.217  1.00  0.00    -0.744 OA
ENDBRANCH  81  82
ENDBRANCH  53  76
BRANCH  65  86
ATOM     86  C   UNL A   1      49.505  26.558  26.299  1.00  0.00    -0.014 A 
ATOM     87  C   UNL A   1      49.925  26.721  24.968  1.00  0.00     0.010 A 
ATOM     88  C   UNL A   1      50.386  25.998  27.241  1.00  0.00     0.010 A 
ATOM     89  C   UNL A   1      51.203  26.315  24.577  1.00  0.00     0.020 A 
ATOM     90  C   UNL A   1      51.667  25.596  26.854  1.00  0.00     0.020 A 
ATOM     91  C   UNL A   1      52.064  25.747  25.521  1.00  0.00     0.054 A 
BRANCH  91  92
ATOM     92  S   UNL A   1      53.739  25.259  25.023  1.00  0.00     0.124 S 
ATOM     93  O   UNL A   1      53.596  23.815  24.854  1.00  0.00    -0.237 OA
ATOM     94  O   UNL A   1      53.955  26.016  23.791  1.00  0.00    -0.237 OA
ATOM     95  O   UNL A   1      54.563  25.679  26.154  1.00  0.00    -0.744 OA
ENDBRANCH  91  92
ENDBRANCH  65  86
ENDBRANCH  39  40
ENDBRANCH  32  34
ENDBRANCH  31  32
ENDBRANCH  30  31
ENDBRANCH   1  30
TORSDOF 19
ENDMDL
MODEL 2
REMARK VINA RESULT:     -11.5      6.298     11.962
REMARK SMILES CCOC(=O)[C@@]1(C)C/C(=N/c2cccc(C(=O)OCCOC(=O)c3ccc(-c4c5nc(c(-c6ccc(S(=O)(=O)[O-])cc6)c6ccc([nH]6)c(-c6ccc(S(=O)(=O)[O-])cc6)c6nc(c(-c7ccc(S(=O)(=O)[O-])cc7)c7ccc4[nH]7)C=C6)C=C5)cc3)c2)C(=O)N1c1ccccc1
REMARK SMILES IDX 19 1 18 2 16 3 17 4 15 5 11 6 12 7 84 8 13 9 14 10 10 11
REMARK SMILES IDX 6 12 7 13 8 14 87 15 9 16 85 17 86 18 4 19 5 20 3 21 2 22
REMARK SMILES IDX 1 23 88 24 89 25 93 26 90 27 92 28 91 29 20 30 21 31 22 32
REMARK SMILES IDX 23 33 24 34 25 35 83 36 26 37 82 38 27 39 28 40 29 41 76 42
REMARK SMILES IDX 30 43 81 44 75 45 77 46 31 47 80 48 74 49 73 50 32 52 62 53
REMARK SMILES IDX 43 54 61 55 44 56 47 57 60 58 78 59 45 60 46 61 59 63 79 64
REMARK SMILES IDX 48 65 33 66 34 67 42 68 35 69 41 70 36 71 37 72 38 73 39 74
REMARK SMILES IDX 40 75 63 76 64 77 72 78 65 79 71 80 66 81 67 82 68 83 69 84
REMARK SMILES IDX 70 85 49 86 50 87 58 88 51 89 57 90 52 91 53 92 54 93 55 94
REMARK SMILES IDX 56 95
REMARK H PARENT 77 51 47 62
REMARK Flexibility Score: inf
ROOT
ATOM      1  C   UNL A   1      38.205  22.011  25.654  1.00  0.00     0.275 C 
ENDROOT
BRANCH   1   2
ATOM      2  O   UNL A   1      37.293  21.704  24.582  1.00  0.00    -0.458 OA
BRANCH   2   3
ATOM      3  C   UNL A   1      36.343  20.775  24.870  1.00  0.00     0.338 C 
ATOM      4  O   UNL A   1      36.502  19.565  24.900  1.00  0.00    -0.246 OA
BRANCH   3   5
ATOM      5  C   UNL A   1      35.058  21.432  25.216  1.00  0.00     0.062 A 
ATOM      6  C   UNL A   1      33.038  22.630  24.591  1.00  0.00     0.064 A 
ATOM      7  C   UNL A   1      32.615  22.598  25.921  1.00  0.00     0.028 A 
ATOM      8  C   UNL A   1      34.284  22.085  24.253  1.00  0.00     0.044 A 
ATOM      9  C   UNL A   1      33.397  21.973  26.894  1.00  0.00     0.003 A 
ATOM     10  C   UNL A   1      34.608  21.374  26.540  1.00  0.00     0.016 A 
BRANCH   6  11
ATOM     11  N   UNL A   1      32.232  23.212  23.600  1.00  0.00    -0.248 NA
ATOM     12  C   UNL A   1      30.835  26.344  23.769  1.00  0.00     0.148 C 
ATOM     13  C   UNL A   1      29.723  25.803  24.692  1.00  0.00     0.048 C 
ATOM     14  C   UNL A   1      31.194  25.245  22.732  1.00  0.00     0.103 C 
ATOM     15  N   UNL A   1      32.097  26.578  24.517  1.00  0.00    -0.290 N 
ATOM     16  C   UNL A   1      32.209  24.507  23.524  1.00  0.00     0.109 C 
ATOM     17  C   UNL A   1      32.978  25.515  24.338  1.00  0.00     0.273 C 
ATOM     18  O   UNL A   1      34.120  25.330  24.702  1.00  0.00    -0.267 OA
BRANCH  12  19
ATOM     19  C   UNL A   1      30.311  27.526  22.929  1.00  0.00     0.332 C 
ATOM     20  O   UNL A   1      30.740  27.810  21.816  1.00  0.00    -0.249 OA
BRANCH  19  21
ATOM     21  O   UNL A   1      29.374  28.256  23.593  1.00  0.00    -0.464 OA
BRANCH  21  22
ATOM     22  C   UNL A   1      28.085  28.286  22.971  1.00  0.00     0.229 C 
ATOM     23  C   UNL A   1      27.608  29.725  22.939  1.00  0.00     0.049 C 
ENDBRANCH  21  22
ENDBRANCH  19  21
ENDBRANCH  12  19
BRANCH  15  24
ATOM     24  C   UNL A   1      32.351  27.687  25.386  1.00  0.00     0.045 A 
ATOM     25  C   UNL A   1      31.544  27.931  26.508  1.00  0.00     0.026 A 
ATOM     26  C   UNL A   1      33.406  28.586  25.157  1.00  0.00     0.026 A 
ATOM     27  C   UNL A   1      31.768  29.024  27.354  1.00  0.00     0.002 A 
ATOM     28  C   UNL A   1      33.626  29.687  25.995  1.00  0.00     0.002 A 
ATOM     29  C   UNL A   1      32.807  29.906  27.094  1.00  0.00     0.000 A 
ENDBRANCH  15  24
ENDBRANCH   6  11
ENDBRANCH   3   5
ENDBRANCH   2   3
ENDBRANCH   1   2
BRANCH   1  30
ATOM     30  C   UNL A   1      38.287  23.524  25.855  1.00  0.00     0.275 C 
BRANCH  30  31
ATOM     31  O   UNL A   1      39.078  23.785  27.020  1.00  0.00    -0.458 OA
BRANCH  31  32
ATOM     32  C   UNL A   1      40.210  24.497  26.830  1.00  0.00     0.338 C 
ATOM     33  O   UNL A   1      41.069  24.270  25.994  1.00  0.00    -0.246 OA
BRANCH  32  34
ATOM     34  C   UNL A   1      40.273  25.590  27.838  1.00  0.00     0.060 A 
ATOM     35  C   UNL A   1      41.256  26.587  27.783  1.00  0.00     0.016 A 
ATOM     36  C   UNL A   1      39.319  25.616  28.859  1.00  0.00     0.016 A 
ATOM     37  C   UNL A   1      41.278  27.610  28.734  1.00  0.00     0.010 A 
ATOM     38  C   UNL A   1      39.329  26.650  29.799  1.00  0.00     0.010 A 
ATOM     39  C   UNL A   1      40.308  27.655  29.742  1.00  0.00    -0.014 A 
BRANCH  39  40
ATOM     40  C   UNL A   1      40.309  28.748  30.743  1.00  0.00     0.031 A 
ATOM     41  C   UNL A   1      41.286  28.724  31.881  1.00  0.00     0.074 A 
ATOM     42  C   UNL A   1      39.417  29.751  30.645  1.00  0.00     0.049 A 
ATOM     43  N   UNL A   1      41.345  29.501  32.932  1.00  0.00    -0.248 NA
ATOM     44  C   UNL A   1      42.330  27.688  31.833  1.00  0.00     0.031 C 
ATOM     45  C   UNL A   1      38.426  29.907  29.579  1.00  0.00     0.029 A 
ATOM     46  N   UNL A   1      39.199  30.829  31.465  1.00  0.00    -0.354 N 
ATOM     47  C   UNL A   1      42.396  29.019  33.698  1.00  0.00     0.074 A 
ATOM     48  C   UNL A   1      42.968  27.900  32.976  1.00  0.00     0.031 C 
ATOM     49  C   UNL A   1      37.710  31.022  29.806  1.00  0.00     0.029 A 
ATOM     50  C   UNL A   1      38.169  31.637  31.048  1.00  0.00     0.049 A 
ATOM     51  H   UNL A   1      39.731  31.006  32.274  1.00  0.00     0.167 HD
ATOM     52  C   UNL A   1      42.836  29.455  34.902  1.00  0.00     0.031 A 
ATOM     53  C   UNL A   1      37.639  32.737  31.614  1.00  0.00     0.031 A 
ATOM     54  C   UNL A   1      42.289  30.576  35.614  1.00  0.00     0.049 A 
ATOM     55  C   UNL A   1      38.173  33.230  32.927  1.00  0.00     0.074 A 
ATOM     56  C   UNL A   1      42.649  31.070  36.856  1.00  0.00     0.029 A 
ATOM     57  N   UNL A   1      41.275  31.390  35.139  1.00  0.00    -0.354 N 
ATOM     58  N   UNL A   1      39.130  32.725  33.667  1.00  0.00    -0.248 NA
ATOM     59  C   UNL A   1      37.542  34.433  33.489  1.00  0.00     0.031 C 
ATOM     60  C   UNL A   1      41.848  32.186  37.131  1.00  0.00     0.029 A 
ATOM     61  C   UNL A   1      40.999  32.390  36.055  1.00  0.00     0.049 A 
ATOM     62  H   UNL A   1      40.817  31.275  34.274  1.00  0.00     0.167 HD
ATOM     63  C   UNL A   1      39.205  33.538  34.791  1.00  0.00     0.074 A 
ATOM     64  C   UNL A   1      38.216  34.583  34.623  1.00  0.00     0.031 C 
ATOM     65  C   UNL A   1      40.012  33.419  35.872  1.00  0.00     0.031 A 
BRANCH  52  66
ATOM     66  C   UNL A   1      43.943  28.667  35.537  1.00  0.00    -0.014 A 
ATOM     67  C   UNL A   1      43.663  27.573  36.372  1.00  0.00     0.010 A 
ATOM     68  C   UNL A   1      45.279  29.039  35.305  1.00  0.00     0.010 A 
ATOM     69  C   UNL A   1      44.705  26.882  36.997  1.00  0.00     0.020 A 
ATOM     70  C   UNL A   1      46.322  28.347  35.923  1.00  0.00     0.020 A 
ATOM     71  C   UNL A   1      46.027  27.285  36.781  1.00  0.00     0.054 A 
BRANCH  71  72
ATOM     72  S   UNL A   1      47.378  26.396  37.605  1.00  0.00     0.124 S 
ATOM     73  O   UNL A   1      47.093  26.660  39.013  1.00  0.00    -0.237 OA
ATOM     74  O   UNL A   1      47.180  25.014  37.174  1.00  0.00    -0.237 OA
ATOM     75  O   UNL A   1      48.577  27.042  37.077  1.00  0.00    -0.744 OA
ENDBRANCH  71  72
ENDBRANCH  52  66
BRANCH  53  76
ATOM     76  C   UNL A   1      36.513  33.432  30.948  1.00  0.00    -0.014 A 
ATOM     77  C   UNL A   1      35.295  33.614  31.624  1.00  0.00     0.010 A 
ATOM     78  C   UNL A   1      36.663  33.938  29.645  1.00  0.00     0.010 A 
ATOM     79  C   UNL A   1      34.239  34.290  31.008  1.00  0.00     0.020 A 
ATOM     80  C   UNL A   1      35.613  34.623  29.029  1.00  0.00     0.020 A 
ATOM     81  C   UNL A   1      34.404  34.788  29.711  1.00  0.00     0.054 A 
BRANCH  81  82
ATOM     82  S   UNL A   1      33.065  35.726  28.924  1.00  0.00     0.124 S 
ATOM     83  O   UNL A   1      33.805  36.711  28.141  1.00  0.00    -0.237 OA
ATOM     84  O   UNL A   1      32.354  34.711  28.150  1.00  0.00    -0.237 OA
ATOM     85  O   UNL A   1      32.323  36.256  30.067  1.00  0.00    -0.744 OA
ENDBRANCH  81  82
ENDBRANCH  53  76
BRANCH  65  86
ATOM     86  C   UNL A   1      39.848  34.440  36.958  1.00  0.00    -0.014 A 
ATOM     87  C   UNL A   1      39.107  34.133  38.113  1.00  0.00     0.010 A 
ATOM     88  C   UNL A   1      40.466  35.697  36.845  1.00  0.00     0.010 A 
ATOM     89  C   UNL A   1      38.971  35.075  39.135  1.00  0.00     0.020 A 
ATOM     90  C   UNL A   1      40.336  36.640  37.868  1.00  0.00     0.020 A 
ATOM     91  C   UNL A   1      39.579  36.327  39.003  1.00  0.00     0.054 A 
BRANCH  91  92
ATOM     92  S   UNL A   1      39.437  37.535  40.349  1.00  0.00     0.124 S 
ATOM     93  O   UNL A   1      38.689  38.614  39.709  1.00  0.00    -0.237 OA
ATOM     94  O   UNL A   1      38.715  36.799  41.384  1.00  0.00    -0.237 OA
ATOM     95  O   UNL A   1      40.828  37.844  40.672  1.00  0.00    -0.744 OA
ENDBRANCH  91  92
ENDBRANCH  65  86
ENDBRANCH  39  40
ENDBRANCH  32  34
ENDBRANCH  31  32
ENDBRANCH  30  31
ENDBRANCH   1  30
TORSDOF 19
ENDMDL
MODEL 3
REMARK VINA RESULT:     -11.3      0.974      7.938
REMARK SMILES CCOC(=O)[C@@]1(C)C/C(=N/c2cccc(C(=O)OCCOC(=O)c3ccc(-c4c5nc(c(-c6ccc(S(=O)(=O)[O-])cc6)c6ccc([nH]6)c(-c6ccc(S(=O)(=O)[O-])cc6)c6nc(c(-c7ccc(S(=O)(=O)[O-])cc7)c7ccc4[nH]7)C=C6)C=C5)cc3)c2)C(=O)N1c1ccccc1
REMARK SMILES IDX 19 1 18 2 16 3 17 4 15 5 11 6 12 7 84 8 13 9 14 10 10 11
REMARK SMILES IDX 6 12 7 13 8 14 87 15 9 16 85 17 86 18 4 19 5 20 3 21 2 22
REMARK SMILES IDX 1 23 88 24 89 25 93 26 90 27 92 28 91 29 20 30 21 31 22 32
REMARK SMILES IDX 23 33 24 34 25 35 83 36 26 37 82 38 27 39 28 40 29 41 76 42
REMARK SMILES IDX 30 43 81 44 75 45 77 46 31 47 80 48 74 49 73 50 32 52 62 53
REMARK SMILES IDX 43 54 61 55 44 56 47 57 60 58 78 59 45 60 46 61 59 63 79 64
REMARK SMILES IDX 48 65 33 66 34 67 42 68 35 69 41 70 36 71 37 72 38 73 39 74
REMARK SMILES IDX 40 75 63 76 64 77 72 78 65 79 71 80 66 81 67 82 68 83 69 84
REMARK SMILES IDX 70 85 49 86 50 87 58 88 51 89 57 90 52 91 53 92 54 93 55 94
REMARK SMILES IDX 56 95
REMARK H PARENT 77 51 47 62
REMARK Flexibility Score: inf
ROOT
ATOM      1  C   UNL A   1      34.038  31.866  28.006  1.00  0.00     0.275 C 
ENDROOT
BRANCH   1   2
ATOM      2  O   UNL A   1      33.466  30.655  27.475  1.00  0.00    -0.458 OA
BRANCH   2   3
ATOM      3  C   UNL A   1      32.280  30.803  26.826  1.00  0.00     0.338 C 
ATOM      4  O   UNL A   1      31.571  31.795  26.838  1.00  0.00    -0.246 OA
BRANCH   3   5
ATOM      5  C   UNL A   1      31.971  29.595  26.022  1.00  0.00     0.062 A 
ATOM      6  C   UNL A   1      31.317  27.262  25.841  1.00  0.00     0.064 A 
ATOM      7  C   UNL A   1      31.335  27.370  24.451  1.00  0.00     0.028 A 
ATOM      8  C   UNL A   1      31.682  28.367  26.622  1.00  0.00     0.044 A 
ATOM      9  C   UNL A   1      31.652  28.586  23.842  1.00  0.00     0.003 A 
ATOM     10  C   UNL A   1      31.951  29.702  24.626  1.00  0.00     0.016 A 
BRANCH   6  11
ATOM     11  N   UNL A   1      30.949  26.055  26.459  1.00  0.00    -0.248 NA
ATOM     12  C   UNL A   1      32.327  22.984  25.782  1.00  0.00     0.148 C 
ATOM     13  C   UNL A   1      31.463  22.872  24.508  1.00  0.00     0.048 C 
ATOM     14  C   UNL A   1      31.501  23.713  26.877  1.00  0.00     0.103 C 
ATOM     15  N   UNL A   1      33.509  23.856  25.563  1.00  0.00    -0.290 N 
ATOM     16  C   UNL A   1      31.840  25.113  26.522  1.00  0.00     0.109 C 
ATOM     17  C   UNL A   1      33.273  25.136  26.058  1.00  0.00     0.273 C 
ATOM     18  O   UNL A   1      33.977  26.119  26.150  1.00  0.00    -0.267 OA
BRANCH  12  19
ATOM     19  C   UNL A   1      32.610  21.585  26.366  1.00  0.00     0.332 C 
ATOM     20  O   UNL A   1      33.232  21.396  27.406  1.00  0.00    -0.249 OA
BRANCH  19  21
ATOM     21  O   UNL A   1      32.156  20.587  25.560  1.00  0.00    -0.464 OA
BRANCH  21  22
ATOM     22  C   UNL A   1      33.130  19.590  25.233  1.00  0.00     0.229 C 
ATOM     23  C   UNL A   1      32.581  18.745  24.100  1.00  0.00     0.049 C 
ENDBRANCH  21  22
ENDBRANCH  19  21
ENDBRANCH  12  19
BRANCH  15  24
ATOM     24  C   UNL A   1      34.696  23.481  24.856  1.00  0.00     0.045 A 
ATOM     25  C   UNL A   1      34.697  23.349  23.458  1.00  0.00     0.026 A 
ATOM     26  C   UNL A   1      35.906  23.219  25.518  1.00  0.00     0.026 A 
ATOM     27  C   UNL A   1      35.844  22.962  22.755  1.00  0.00     0.002 A 
ATOM     28  C   UNL A   1      37.053  22.821  24.818  1.00  0.00     0.002 A 
ATOM     29  C   UNL A   1      37.022  22.692  23.436  1.00  0.00     0.000 A 
ENDBRANCH  15  24
ENDBRANCH   6  11
ENDBRANCH   3   5
ENDBRANCH   2   3
ENDBRANCH   1   2
BRANCH   1  30
ATOM     30  C   UNL A   1      35.444  31.591  28.539  1.00  0.00     0.275 C 
BRANCH  30  31
ATOM     31  O   UNL A   1      35.598  30.176  28.707  1.00  0.00    -0.458 OA
BRANCH  31  32
ATOM     32  C   UNL A   1      36.348  29.774  29.756  1.00  0.00     0.338 C 
ATOM     33  O   UNL A   1      35.980  29.704  30.916  1.00  0.00    -0.246 OA
BRANCH  32  34
ATOM     34  C   UNL A   1      37.724  29.468  29.280  1.00  0.00     0.060 A 
ATOM     35  C   UNL A   1      38.081  29.588  27.930  1.00  0.00     0.016 A 
ATOM     36  C   UNL A   1      38.679  29.054  30.213  1.00  0.00     0.016 A 
ATOM     37  C   UNL A   1      39.386  29.310  27.517  1.00  0.00     0.010 A 
ATOM     38  C   UNL A   1      39.990  28.795  29.803  1.00  0.00     0.010 A 
ATOM     39  C   UNL A   1      40.352  28.922  28.453  1.00  0.00    -0.014 A 
BRANCH  39  40
ATOM     40  C   UNL A   1      41.745  28.646  28.029  1.00  0.00     0.031 A 
ATOM     41  C   UNL A   1      42.145  27.260  27.616  1.00  0.00     0.074 A 
ATOM     42  C   UNL A   1      42.660  29.633  28.037  1.00  0.00     0.049 A 
ATOM     43  N   UNL A   1      43.338  26.789  27.360  1.00  0.00    -0.248 NA
ATOM     44  C   UNL A   1      41.061  26.274  27.478  1.00  0.00     0.031 C 
ATOM     45  C   UNL A   1      42.402  31.029  28.398  1.00  0.00     0.029 A 
ATOM     46  N   UNL A   1      43.998  29.607  27.738  1.00  0.00    -0.354 N 
ATOM     47  C   UNL A   1      43.159  25.441  27.081  1.00  0.00     0.074 A 
ATOM     48  C   UNL A   1      41.737  25.176  27.170  1.00  0.00     0.031 C 
ATOM     49  C   UNL A   1      43.545  31.727  28.290  1.00  0.00     0.029 A 
ATOM     50  C   UNL A   1      44.619  30.823  27.887  1.00  0.00     0.049 A 
ATOM     51  H   UNL A   1      44.469  28.794  27.444  1.00  0.00     0.167 HD
ATOM     52  C   UNL A   1      44.093  24.505  26.795  1.00  0.00     0.031 A 
ATOM     53  C   UNL A   1      45.912  31.168  27.739  1.00  0.00     0.031 A 
ATOM     54  C   UNL A   1      45.502  24.764  26.684  1.00  0.00     0.049 A 
ATOM     55  C   UNL A   1      46.925  30.121  27.377  1.00  0.00     0.074 A 
ATOM     56  C   UNL A   1      46.528  23.869  26.431  1.00  0.00     0.029 A 
ATOM     57  N   UNL A   1      46.083  26.015  26.803  1.00  0.00    -0.354 N 
ATOM     58  N   UNL A   1      46.745  28.838  27.175  1.00  0.00    -0.248 NA
ATOM     59  C   UNL A   1      48.318  30.568  27.237  1.00  0.00     0.031 C 
ATOM     60  C   UNL A   1      47.733  24.584  26.397  1.00  0.00     0.029 A 
ATOM     61  C   UNL A   1      47.451  25.922  26.620  1.00  0.00     0.049 A 
ATOM     62  H   UNL A   1      45.593  26.849  26.990  1.00  0.00     0.167 HD
ATOM     63  C   UNL A   1      48.005  28.321  26.903  1.00  0.00     0.074 A 
ATOM     64  C   UNL A   1      48.934  29.431  26.939  1.00  0.00     0.031 C 
ATOM     65  C   UNL A   1      48.360  27.036  26.660  1.00  0.00     0.031 A 
BRANCH  52  66
ATOM     66  C   UNL A   1      43.604  23.096  26.632  1.00  0.00    -0.014 A 
ATOM     67  C   UNL A   1      43.002  22.414  27.702  1.00  0.00     0.010 A 
ATOM     68  C   UNL A   1      43.762  22.447  25.395  1.00  0.00     0.010 A 
ATOM     69  C   UNL A   1      42.598  21.084  27.548  1.00  0.00     0.020 A 
ATOM     70  C   UNL A   1      43.354  21.122  25.237  1.00  0.00     0.020 A 
ATOM     71  C   UNL A   1      42.793  20.442  26.321  1.00  0.00     0.054 A 
BRANCH  71  72
ATOM     72  S   UNL A   1      42.281  18.712  26.126  1.00  0.00     0.124 S 
ATOM     73  O   UNL A   1      42.535  18.174  27.461  1.00  0.00    -0.237 OA
ATOM     74  O   UNL A   1      40.873  18.820  25.753  1.00  0.00    -0.237 OA
ATOM     75  O   UNL A   1      43.163  18.216  25.073  1.00  0.00    -0.744 OA
ENDBRANCH  71  72
ENDBRANCH  52  66
BRANCH  53  76
ATOM     76  C   UNL A   1      46.326  32.572  27.966  1.00  0.00    -0.014 A 
ATOM     77  C   UNL A   1      46.778  32.980  29.232  1.00  0.00     0.010 A 
ATOM     78  C   UNL A   1      46.293  33.500  26.910  1.00  0.00     0.010 A 
ATOM     79  C   UNL A   1      47.192  34.298  29.442  1.00  0.00     0.020 A 
ATOM     80  C   UNL A   1      46.715  34.816  27.115  1.00  0.00     0.020 A 
ATOM     81  C   UNL A   1      47.155  35.209  28.382  1.00  0.00     0.054 A 
BRANCH  81  82
ATOM     82  S   UNL A   1      47.752  36.906  28.624  1.00  0.00     0.124 S 
ATOM     83  O   UNL A   1      46.529  37.604  29.008  1.00  0.00    -0.237 OA
ATOM     84  O   UNL A   1      48.752  36.761  29.680  1.00  0.00    -0.237 OA
ATOM     85  O   UNL A   1      48.291  37.252  27.311  1.00  0.00    -0.744 OA
ENDBRANCH  81  82
ENDBRANCH  53  76
BRANCH  65  86
ATOM     86  C   UNL A   1      49.817  26.767  26.425  1.00  0.00    -0.014 A 
ATOM     87  C   UNL A   1      50.662  26.453  27.504  1.00  0.00     0.010 A 
ATOM     88  C   UNL A   1      50.338  26.790  25.120  1.00  0.00     0.010 A 
ATOM     89  C   UNL A   1      52.014  26.181  27.284  1.00  0.00     0.020 A 
ATOM     90  C   UNL A   1      51.689  26.513  24.897  1.00  0.00     0.020 A 
ATOM     91  C   UNL A   1      52.522  26.222  25.982  1.00  0.00     0.054 A 
BRANCH  91  92
ATOM     92  S   UNL A   1      54.269  25.827  25.693  1.00  0.00     0.124 S 
ATOM     93  O   UNL A   1      54.286  25.564  24.257  1.00  0.00    -0.237 OA
ATOM     94  O   UNL A   1      54.961  27.043  26.116  1.00  0.00    -0.237 OA
ATOM     95  O   UNL A   1      54.497  24.663  26.546  1.00  0.00    -0.744 OA
ENDBRANCH  91  92
ENDBRANCH  65  86
ENDBRANCH  39  40
ENDBRANCH  32  34
ENDBRANCH  31  32
ENDBRANCH  30  31
ENDBRANCH   1  30
TORSDOF 19
ENDMDL
