MODEL 1
REMARK VINA RESULT:     -10.4      0.000      0.000
REMARK SMILES CS(=O)(=O)[C@@H]1CCC[C@@H](Sc2ccc(C(=O)OCCOC(=O)c3ccc(-c4c5nc(c(-c6ccc(S(=O)(=O)[O-])cc6)c6ccc([nH]6)c(-c6ccc(S(=O)(=O)[O-])cc6)c6nc(c(-c7ccc(S(=O)(=O)[O-])cc7)c7ccc4[nH]7)C=C6)C=C5)cc3)cn2)C1
REMARK SMILES IDX 18 1 17 2 15 3 16 4 14 5 11 6 12 7 84 8 13 9 83 10 10 11
REMARK SMILES IDX 9 12 5 13 6 14 85 15 7 16 8 17 2 18 1 19 3 20 4 21 19 22
REMARK SMILES IDX 20 23 21 24 22 25 23 26 24 27 82 28 25 29 81 30 26 31 27 32
REMARK SMILES IDX 28 33 75 34 29 35 80 36 74 37 76 38 30 39 79 40 73 41 72 42
REMARK SMILES IDX 31 44 61 45 42 46 60 47 43 48 46 49 59 50 77 51 44 52 45 53
REMARK SMILES IDX 58 55 78 56 47 57 32 58 33 59 41 60 34 61 40 62 35 63 36 64
REMARK SMILES IDX 37 65 38 66 39 67 62 68 63 69 71 70 64 71 70 72 65 73 66 74
REMARK SMILES IDX 67 75 68 76 69 77 48 78 49 79 57 80 50 81 56 82 51 83 52 84
REMARK SMILES IDX 53 85 54 86 55 87
REMARK H PARENT 76 43 46 54
REMARK Flexibility Score: inf
ROOT
ATOM      1  C   UNL A   1      35.166  33.654  27.850  1.00  0.00     0.275 C 
ENDROOT
BRANCH   1   2
ATOM      2  O   UNL A   1      34.425  32.424  27.956  1.00  0.00    -0.458 OA
BRANCH   2   3
ATOM      3  C   UNL A   1      35.107  31.261  27.770  1.00  0.00     0.339 C 
ATOM      4  O   UNL A   1      36.288  31.064  27.966  1.00  0.00    -0.246 OA
BRANCH   3   5
ATOM      5  C   UNL A   1      34.156  30.222  27.325  1.00  0.00     0.078 A 
ATOM      6  C   UNL A   1      32.338  28.246  26.569  1.00  0.00     0.096 A 
ATOM      7  C   UNL A   1      31.947  29.540  26.814  1.00  0.00     0.036 A 
ATOM      8  N   UNL A   1      33.650  27.943  26.624  1.00  0.00    -0.249 NA
ATOM      9  C   UNL A   1      32.820  30.528  27.231  1.00  0.00     0.020 A 
ATOM     10  C   UNL A   1      34.530  28.935  26.958  1.00  0.00     0.128 A 
BRANCH   6  11
ATOM     11  S   UNL A   1      31.228  26.903  26.221  1.00  0.00    -0.103 SA
BRANCH  11  12
ATOM     12  C   UNL A   1      30.958  26.671  24.380  1.00  0.00     0.054 C 
ATOM     13  C   UNL A   1      30.099  28.829  23.364  1.00  0.00     0.109 C 
ATOM     14  C   UNL A   1      31.303  28.881  22.401  1.00  0.00     0.020 C 
ATOM     15  C   UNL A   1      29.760  27.400  23.746  1.00  0.00     0.034 C 
ATOM     16  C   UNL A   1      32.507  27.979  22.729  1.00  0.00     0.002 C 
ATOM     17  C   UNL A   1      32.208  26.689  23.493  1.00  0.00     0.015 C 
BRANCH  13  18
ATOM     18  S   UNL A   1      28.713  29.796  22.753  1.00  0.00     0.150 S 
ATOM     19  C   UNL A   1      27.326  28.752  23.174  1.00  0.00     0.158 C 
ATOM     20  O   UNL A   1      28.781  29.854  21.307  1.00  0.00    -0.229 OA
ATOM     21  O   UNL A   1      28.601  31.011  23.536  1.00  0.00    -0.229 OA
ENDBRANCH  13  18
ENDBRANCH  11  12
ENDBRANCH   6  11
ENDBRANCH   3   5
ENDBRANCH   2   3
ENDBRANCH   1   2
BRANCH   1  22
ATOM     22  C   UNL A   1      34.344  34.852  28.330  1.00  0.00     0.275 C 
BRANCH  22  23
ATOM     23  O   UNL A   1      33.326  34.439  29.261  1.00  0.00    -0.458 OA
BRANCH  23  24
ATOM     24  C   UNL A   1      33.369  35.082  30.449  1.00  0.00     0.338 C 
ATOM     25  O   UNL A   1      32.675  36.025  30.799  1.00  0.00    -0.246 OA
BRANCH  24  26
ATOM     26  C   UNL A   1      34.247  34.381  31.396  1.00  0.00     0.060 A 
ATOM     27  C   UNL A   1      35.246  35.147  31.976  1.00  0.00     0.016 A 
ATOM     28  C   UNL A   1      34.293  32.997  31.497  1.00  0.00     0.016 A 
ATOM     29  C   UNL A   1      36.383  34.558  32.501  1.00  0.00     0.010 A 
ATOM     30  C   UNL A   1      35.380  32.400  32.156  1.00  0.00     0.010 A 
ATOM     31  C   UNL A   1      36.477  33.169  32.600  1.00  0.00    -0.014 A 
BRANCH  31  32
ATOM     32  C   UNL A   1      37.760  32.549  33.052  1.00  0.00     0.031 A 
ATOM     33  C   UNL A   1      38.206  32.713  34.487  1.00  0.00     0.074 A 
ATOM     34  C   UNL A   1      38.497  31.779  32.220  1.00  0.00     0.049 A 
ATOM     35  N   UNL A   1      39.358  32.420  35.036  1.00  0.00    -0.248 NA
ATOM     36  C   UNL A   1      37.238  33.309  35.423  1.00  0.00     0.031 C 
ATOM     37  C   UNL A   1      38.160  31.452  30.831  1.00  0.00     0.029 A 
ATOM     38  N   UNL A   1      39.680  31.111  32.430  1.00  0.00    -0.354 N 
ATOM     39  C   UNL A   1      39.278  32.867  36.351  1.00  0.00     0.074 A 
ATOM     40  C   UNL A   1      37.973  33.467  36.514  1.00  0.00     0.031 C 
ATOM     41  C   UNL A   1      39.074  30.603  30.340  1.00  0.00     0.029 A 
ATOM     42  C   UNL A   1      40.129  30.421  31.327  1.00  0.00     0.049 A 
ATOM     43  H   UNL A   1      40.162  31.124  33.289  1.00  0.00     0.167 HD
ATOM     44  C   UNL A   1      40.208  32.787  37.334  1.00  0.00     0.031 A 
ATOM     45  C   UNL A   1      41.281  29.757  31.105  1.00  0.00     0.031 A 
ATOM     46  C   UNL A   1      41.480  32.129  37.183  1.00  0.00     0.049 A 
ATOM     47  C   UNL A   1      42.315  29.716  32.194  1.00  0.00     0.074 A 
ATOM     48  C   UNL A   1      42.491  31.986  38.118  1.00  0.00     0.029 A 
ATOM     49  N   UNL A   1      41.907  31.481  36.033  1.00  0.00    -0.354 N 
ATOM     50  N   UNL A   1      42.261  30.224  33.403  1.00  0.00    -0.248 NA
ATOM     51  C   UNL A   1      43.571  29.020  31.886  1.00  0.00     0.031 C 
ATOM     52  C   UNL A   1      43.550  31.299  37.515  1.00  0.00     0.029 A 
ATOM     53  C   UNL A   1      43.170  30.949  36.230  1.00  0.00     0.049 A 
ATOM     54  H   UNL A   1      41.387  31.411  35.199  1.00  0.00     0.167 HD
ATOM     55  C   UNL A   1      43.464  29.881  34.010  1.00  0.00     0.074 A 
ATOM     56  C   UNL A   1      44.216  29.111  33.041  1.00  0.00     0.031 C 
ATOM     57  C   UNL A   1      43.905  30.179  35.257  1.00  0.00     0.031 A 
BRANCH  44  58
ATOM     58  C   UNL A   1      39.904  33.470  38.645  1.00  0.00    -0.014 A 
ATOM     59  C   UNL A   1      40.285  34.798  38.902  1.00  0.00     0.010 A 
ATOM     60  C   UNL A   1      39.195  32.763  39.635  1.00  0.00     0.010 A 
ATOM     61  C   UNL A   1      40.005  35.391  40.138  1.00  0.00     0.020 A 
ATOM     62  C   UNL A   1      38.881  33.362  40.859  1.00  0.00     0.020 A 
ATOM     63  C   UNL A   1      39.307  34.667  41.110  1.00  0.00     0.054 A 
BRANCH  63  64
ATOM     64  S   UNL A   1      38.941  35.465  42.698  1.00  0.00     0.124 S 
ATOM     65  O   UNL A   1      39.757  34.683  43.622  1.00  0.00    -0.237 OA
ATOM     66  O   UNL A   1      39.384  36.839  42.476  1.00  0.00    -0.237 OA
ATOM     67  O   UNL A   1      37.497  35.296  42.848  1.00  0.00    -0.744 OA
ENDBRANCH  63  64
ENDBRANCH  44  58
BRANCH  45  68
ATOM     68  C   UNL A   1      41.540  29.135  29.775  1.00  0.00    -0.014 A 
ATOM     69  C   UNL A   1      41.177  27.802  29.517  1.00  0.00     0.010 A 
ATOM     70  C   UNL A   1      42.150  29.884  28.750  1.00  0.00     0.010 A 
ATOM     71  C   UNL A   1      41.433  27.225  28.268  1.00  0.00     0.020 A 
ATOM     72  C   UNL A   1      42.371  29.324  27.489  1.00  0.00     0.020 A 
ATOM     73  C   UNL A   1      42.023  27.993  27.260  1.00  0.00     0.054 A 
BRANCH  73  74
ATOM     74  S   UNL A   1      42.299  27.243  25.630  1.00  0.00     0.124 S 
ATOM     75  O   UNL A   1      41.155  26.344  25.512  1.00  0.00    -0.237 OA
ATOM     76  O   UNL A   1      42.287  28.403  24.743  1.00  0.00    -0.237 OA
ATOM     77  O   UNL A   1      43.598  26.589  25.770  1.00  0.00    -0.744 OA
ENDBRANCH  73  74
ENDBRANCH  45  68
BRANCH  57  78
ATOM     78  C   UNL A   1      45.237  29.610  35.670  1.00  0.00    -0.014 A 
ATOM     79  C   UNL A   1      45.346  28.348  36.281  1.00  0.00     0.010 A 
ATOM     80  C   UNL A   1      46.407  30.351  35.414  1.00  0.00     0.010 A 
ATOM     81  C   UNL A   1      46.595  27.863  36.679  1.00  0.00     0.020 A 
ATOM     82  C   UNL A   1      47.660  29.854  35.777  1.00  0.00     0.020 A 
ATOM     83  C   UNL A   1      47.744  28.622  36.427  1.00  0.00     0.054 A 
BRANCH  83  84
ATOM     84  S   UNL A   1      49.354  27.963  36.938  1.00  0.00     0.124 S 
ATOM     85  O   UNL A   1      49.027  26.577  37.257  1.00  0.00    -0.237 OA
ATOM     86  O   UNL A   1      50.173  28.158  35.744  1.00  0.00    -0.237 OA
ATOM     87  O   UNL A   1      49.721  28.796  38.082  1.00  0.00    -0.744 OA
ENDBRANCH  83  84
ENDBRANCH  57  78
ENDBRANCH  31  32
ENDBRANCH  24  26
ENDBRANCH  23  24
ENDBRANCH  22  23
ENDBRANCH   1  22
TORSDOF 17
ENDMDL
MODEL 2
REMARK VINA RESULT:     -10.4      6.680      8.964
REMARK SMILES CS(=O)(=O)[C@@H]1CCC[C@@H](Sc2ccc(C(=O)OCCOC(=O)c3ccc(-c4c5nc(c(-c6ccc(S(=O)(=O)[O-])cc6)c6ccc([nH]6)c(-c6ccc(S(=O)(=O)[O-])cc6)c6nc(c(-c7ccc(S(=O)(=O)[O-])cc7)c7ccc4[nH]7)C=C6)C=C5)cc3)cn2)C1
REMARK SMILES IDX 18 1 17 2 15 3 16 4 14 5 11 6 12 7 84 8 13 9 83 10 10 11
REMARK SMILES IDX 9 12 5 13 6 14 85 15 7 16 8 17 2 18 1 19 3 20 4 21 19 22
REMARK SMILES IDX 20 23 21 24 22 25 23 26 24 27 82 28 25 29 81 30 26 31 27 32
REMARK SMILES IDX 28 33 75 34 29 35 80 36 74 37 76 38 30 39 79 40 73 41 72 42
REMARK SMILES IDX 31 44 61 45 42 46 60 47 43 48 46 49 59 50 77 51 44 52 45 53
REMARK SMILES IDX 58 55 78 56 47 57 32 58 33 59 41 60 34 61 40 62 35 63 36 64
REMARK SMILES IDX 37 65 38 66 39 67 62 68 63 69 71 70 64 71 70 72 65 73 66 74
REMARK SMILES IDX 67 75 68 76 69 77 48 78 49 79 57 80 50 81 56 82 51 83 52 84
REMARK SMILES IDX 53 85 54 86 55 87
REMARK H PARENT 76 43 46 54
REMARK Flexibility Score: inf
ROOT
ATOM      1  C   UNL A   1      34.044  31.514  27.743  1.00  0.00     0.275 C 
ENDROOT
BRANCH   1   2
ATOM      2  O   UNL A   1      33.928  30.435  26.796  1.00  0.00    -0.458 OA
BRANCH   2   3
ATOM      3  C   UNL A   1      32.675  30.060  26.420  1.00  0.00     0.339 C 
ATOM      4  O   UNL A   1      31.764  30.785  26.077  1.00  0.00    -0.246 OA
BRANCH   3   5
ATOM      5  C   UNL A   1      32.596  28.586  26.445  1.00  0.00     0.078 A 
ATOM      6  C   UNL A   1      32.424  25.801  26.408  1.00  0.00     0.096 A 
ATOM      7  C   UNL A   1      33.543  26.468  25.969  1.00  0.00     0.036 A 
ATOM      8  N   UNL A   1      31.412  26.514  26.941  1.00  0.00    -0.249 NA
ATOM      9  C   UNL A   1      33.637  27.847  25.937  1.00  0.00     0.020 A 
ATOM     10  C   UNL A   1      31.532  27.875  26.986  1.00  0.00     0.128 A 
BRANCH   6  11
ATOM     11  S   UNL A   1      32.182  24.045  26.288  1.00  0.00    -0.103 SA
BRANCH  11  12
ATOM     12  C   UNL A   1      31.517  23.538  24.610  1.00  0.00     0.054 C 
ATOM     13  C   UNL A   1      32.825  24.713  22.783  1.00  0.00     0.109 C 
ATOM     14  C   UNL A   1      33.235  23.356  22.174  1.00  0.00     0.020 C 
ATOM     15  C   UNL A   1      31.495  24.612  23.508  1.00  0.00     0.034 C 
ATOM     16  C   UNL A   1      33.052  22.105  23.053  1.00  0.00     0.002 C 
ATOM     17  C   UNL A   1      31.933  22.156  24.093  1.00  0.00     0.015 C 
BRANCH  13  18
ATOM     18  S   UNL A   1      32.929  26.044  21.580  1.00  0.00     0.150 S 
ATOM     19  C   UNL A   1      31.378  26.891  21.837  1.00  0.00     0.158 C 
ATOM     20  O   UNL A   1      32.891  25.477  20.247  1.00  0.00    -0.229 OA
ATOM     21  O   UNL A   1      33.993  26.950  21.967  1.00  0.00    -0.229 OA
ENDBRANCH  13  18
ENDBRANCH  11  12
ENDBRANCH   6  11
ENDBRANCH   3   5
ENDBRANCH   2   3
ENDBRANCH   1   2
BRANCH   1  22
ATOM     22  C   UNL A   1      35.261  31.339  28.652  1.00  0.00     0.275 C 
BRANCH  22  23
ATOM     23  O   UNL A   1      36.004  30.158  28.299  1.00  0.00    -0.458 OA
BRANCH  23  24
ATOM     24  C   UNL A   1      36.818  29.703  29.277  1.00  0.00     0.338 C 
ATOM     25  O   UNL A   1      36.566  29.636  30.470  1.00  0.00    -0.246 OA
BRANCH  24  26
ATOM     26  C   UNL A   1      38.029  29.091  28.712  1.00  0.00     0.060 A 
ATOM     27  C   UNL A   1      38.811  28.367  29.598  1.00  0.00     0.016 A 
ATOM     28  C   UNL A   1      38.539  29.440  27.469  1.00  0.00     0.016 A 
ATOM     29  C   UNL A   1      40.152  28.137  29.344  1.00  0.00     0.010 A 
ATOM     30  C   UNL A   1      39.860  29.081  27.152  1.00  0.00     0.010 A 
ATOM     31  C   UNL A   1      40.708  28.492  28.114  1.00  0.00    -0.014 A 
BRANCH  31  32
ATOM     32  C   UNL A   1      42.181  28.350  27.904  1.00  0.00     0.031 A 
ATOM     33  C   UNL A   1      43.107  29.471  28.319  1.00  0.00     0.074 A 
ATOM     34  C   UNL A   1      42.713  27.208  27.416  1.00  0.00     0.049 A 
ATOM     35  N   UNL A   1      44.380  29.632  28.063  1.00  0.00    -0.248 NA
ATOM     36  C   UNL A   1      42.517  30.568  29.106  1.00  0.00     0.031 C 
ATOM     37  C   UNL A   1      41.964  26.002  27.048  1.00  0.00     0.029 A 
ATOM     38  N   UNL A   1      44.020  26.864  27.163  1.00  0.00    -0.354 N 
ATOM     39  C   UNL A   1      44.720  30.877  28.584  1.00  0.00     0.074 A 
ATOM     40  C   UNL A   1      43.516  31.436  29.155  1.00  0.00     0.031 C 
ATOM     41  C   UNL A   1      42.821  25.040  26.679  1.00  0.00     0.029 A 
ATOM     42  C   UNL A   1      44.170  25.590  26.662  1.00  0.00     0.049 A 
ATOM     43  H   UNL A   1      44.778  27.470  27.324  1.00  0.00     0.167 HD
ATOM     44  C   UNL A   1      45.924  31.499  28.586  1.00  0.00     0.031 A 
ATOM     45  C   UNL A   1      45.255  24.946  26.189  1.00  0.00     0.031 A 
ATOM     46  C   UNL A   1      47.132  30.907  28.073  1.00  0.00     0.049 A 
ATOM     47  C   UNL A   1      46.572  25.669  26.162  1.00  0.00     0.074 A 
ATOM     48  C   UNL A   1      48.406  31.448  28.032  1.00  0.00     0.029 A 
ATOM     49  N   UNL A   1      47.226  29.631  27.537  1.00  0.00    -0.354 N 
ATOM     50  N   UNL A   1      46.857  26.881  26.574  1.00  0.00    -0.248 NA
ATOM     51  C   UNL A   1      47.713  24.939  25.595  1.00  0.00     0.031 C 
ATOM     52  C   UNL A   1      49.257  30.521  27.422  1.00  0.00     0.029 A 
ATOM     53  C   UNL A   1      48.530  29.372  27.151  1.00  0.00     0.049 A 
ATOM     54  H   UNL A   1      46.474  29.001  27.445  1.00  0.00     0.167 HD
ATOM     55  C   UNL A   1      48.218  27.048  26.345  1.00  0.00     0.074 A 
ATOM     56  C   UNL A   1      48.699  25.807  25.773  1.00  0.00     0.031 C 
ATOM     57  C   UNL A   1      48.997  28.131  26.587  1.00  0.00     0.031 A 
BRANCH  44  58
ATOM     58  C   UNL A   1      45.985  32.911  29.113  1.00  0.00    -0.014 A 
ATOM     59  C   UNL A   1      46.078  34.024  28.260  1.00  0.00     0.010 A 
ATOM     60  C   UNL A   1      45.920  33.125  30.504  1.00  0.00     0.010 A 
ATOM     61  C   UNL A   1      46.154  35.318  28.787  1.00  0.00     0.020 A 
ATOM     62  C   UNL A   1      45.960  34.417  31.035  1.00  0.00     0.020 A 
ATOM     63  C   UNL A   1      46.097  35.506  30.172  1.00  0.00     0.054 A 
BRANCH  63  64
ATOM     64  S   UNL A   1      46.180  37.195  30.829  1.00  0.00     0.124 S 
ATOM     65  O   UNL A   1      45.270  37.909  29.939  1.00  0.00    -0.237 OA
ATOM     66  O   UNL A   1      45.713  37.027  32.203  1.00  0.00    -0.237 OA
ATOM     67  O   UNL A   1      47.590  37.552  30.693  1.00  0.00    -0.744 OA
ENDBRANCH  63  64
ENDBRANCH  44  58
BRANCH  45  68
ATOM     68  C   UNL A   1      45.125  23.564  25.645  1.00  0.00    -0.014 A 
ATOM     69  C   UNL A   1      44.839  23.346  24.285  1.00  0.00     0.010 A 
ATOM     70  C   UNL A   1      45.297  22.451  26.490  1.00  0.00     0.010 A 
ATOM     71  C   UNL A   1      44.712  22.044  23.787  1.00  0.00     0.020 A 
ATOM     72  C   UNL A   1      45.209  21.150  25.988  1.00  0.00     0.020 A 
ATOM     73  C   UNL A   1      44.903  20.955  24.641  1.00  0.00     0.054 A 
BRANCH  73  74
ATOM     74  S   UNL A   1      44.785  19.275  23.964  1.00  0.00     0.124 S 
ATOM     75  O   UNL A   1      45.961  18.631  24.541  1.00  0.00    -0.237 OA
ATOM     76  O   UNL A   1      43.496  18.818  24.477  1.00  0.00    -0.237 OA
ATOM     77  O   UNL A   1      44.831  19.484  22.519  1.00  0.00    -0.744 OA
ENDBRANCH  73  74
ENDBRANCH  45  68
BRANCH  57  78
ATOM     78  C   UNL A   1      50.469  27.997  26.296  1.00  0.00    -0.014 A 
ATOM     79  C   UNL A   1      51.383  27.582  27.280  1.00  0.00     0.010 A 
ATOM     80  C   UNL A   1      50.938  28.274  24.997  1.00  0.00     0.010 A 
ATOM     81  C   UNL A   1      52.747  27.498  26.985  1.00  0.00     0.020 A 
ATOM     82  C   UNL A   1      52.294  28.156  24.689  1.00  0.00     0.020 A 
ATOM     83  C   UNL A   1      53.193  27.789  25.691  1.00  0.00     0.054 A 
BRANCH  83  84
ATOM     84  S   UNL A   1      54.965  27.658  25.329  1.00  0.00     0.124 S 
ATOM     85  O   UNL A   1      55.473  28.932  25.830  1.00  0.00    -0.237 OA
ATOM     86  O   UNL A   1      55.362  26.479  26.095  1.00  0.00    -0.237 OA
ATOM     87  O   UNL A   1      55.011  27.496  23.877  1.00  0.00    -0.744 OA
ENDBRANCH  83  84
ENDBRANCH  57  78
ENDBRANCH  31  32
ENDBRANCH  24  26
ENDBRANCH  23  24
ENDBRANCH  22  23
ENDBRANCH   1  22
TORSDOF 17
ENDMDL
MODEL 3
REMARK VINA RESULT:     -10.3      6.796      9.501
REMARK SMILES CS(=O)(=O)[C@@H]1CCC[C@@H](Sc2ccc(C(=O)OCCOC(=O)c3ccc(-c4c5nc(c(-c6ccc(S(=O)(=O)[O-])cc6)c6ccc([nH]6)c(-c6ccc(S(=O)(=O)[O-])cc6)c6nc(c(-c7ccc(S(=O)(=O)[O-])cc7)c7ccc4[nH]7)C=C6)C=C5)cc3)cn2)C1
REMARK SMILES IDX 18 1 17 2 15 3 16 4 14 5 11 6 12 7 84 8 13 9 83 10 10 11
REMARK SMILES IDX 9 12 5 13 6 14 85 15 7 16 8 17 2 18 1 19 3 20 4 21 19 22
REMARK SMILES IDX 20 23 21 24 22 25 23 26 24 27 82 28 25 29 81 30 26 31 27 32
REMARK SMILES IDX 28 33 75 34 29 35 80 36 74 37 76 38 30 39 79 40 73 41 72 42
REMARK SMILES IDX 31 44 61 45 42 46 60 47 43 48 46 49 59 50 77 51 44 52 45 53
REMARK SMILES IDX 58 55 78 56 47 57 32 58 33 59 41 60 34 61 40 62 35 63 36 64
REMARK SMILES IDX 37 65 38 66 39 67 62 68 63 69 71 70 64 71 70 72 65 73 66 74
REMARK SMILES IDX 67 75 68 76 69 77 48 78 49 79 57 80 50 81 56 82 51 83 52 84
REMARK SMILES IDX 53 85 54 86 55 87
REMARK H PARENT 76 43 46 54
REMARK Flexibility Score: inf
ROOT
ATOM      1  C   UNL A   1      34.142  31.024  27.759  1.00  0.00     0.275 C 
ENDROOT
BRANCH   1   2
ATOM      2  O   UNL A   1      33.916  29.766  27.097  1.00  0.00    -0.458 OA
BRANCH   2   3
ATOM      3  C   UNL A   1      32.629  29.433  26.801  1.00  0.00     0.339 C 
ATOM      4  O   UNL A   1      31.672  30.176  26.757  1.00  0.00    -0.246 OA
BRANCH   3   5
ATOM      5  C   UNL A   1      32.575  27.992  26.484  1.00  0.00     0.078 A 
ATOM      6  C   UNL A   1      32.446  25.289  25.804  1.00  0.00     0.096 A 
ATOM      7  C   UNL A   1      33.527  26.072  25.477  1.00  0.00     0.036 A 
ATOM      8  N   UNL A   1      31.454  25.829  26.541  1.00  0.00    -0.249 NA
ATOM      9  C   UNL A   1      33.597  27.422  25.764  1.00  0.00     0.020 A 
ATOM     10  C   UNL A   1      31.555  27.144  26.898  1.00  0.00     0.128 A 
BRANCH   6  11
ATOM     11  S   UNL A   1      32.225  23.603  25.289  1.00  0.00    -0.103 SA
BRANCH  11  12
ATOM     12  C   UNL A   1      33.282  22.417  26.286  1.00  0.00     0.054 C 
ATOM     13  C   UNL A   1      33.901  20.418  24.855  1.00  0.00     0.109 C 
ATOM     14  C   UNL A   1      35.402  20.712  25.055  1.00  0.00     0.020 C 
ATOM     15  C   UNL A   1      33.081  20.913  26.033  1.00  0.00     0.034 C 
ATOM     16  C   UNL A   1      35.782  22.106  25.590  1.00  0.00     0.002 C 
ATOM     17  C   UNL A   1      34.753  22.802  26.480  1.00  0.00     0.015 C 
BRANCH  13  18
ATOM     18  S   UNL A   1      33.611  18.704  24.401  1.00  0.00     0.150 S 
ATOM     19  C   UNL A   1      32.693  18.103  25.810  1.00  0.00     0.158 C 
ATOM     20  O   UNL A   1      34.878  18.001  24.385  1.00  0.00    -0.229 OA
ATOM     21  O   UNL A   1      32.729  18.661  23.251  1.00  0.00    -0.229 OA
ENDBRANCH  13  18
ENDBRANCH  11  12
ENDBRANCH   6  11
ENDBRANCH   3   5
ENDBRANCH   2   3
ENDBRANCH   1   2
BRANCH   1  22
ATOM     22  C   UNL A   1      35.400  30.986  28.629  1.00  0.00     0.275 C 
BRANCH  22  23
ATOM     23  O   UNL A   1      35.931  29.651  28.710  1.00  0.00    -0.458 OA
BRANCH  23  24
ATOM     24  C   UNL A   1      36.923  29.503  29.617  1.00  0.00     0.338 C 
ATOM     25  O   UNL A   1      36.841  29.662  30.825  1.00  0.00    -0.246 OA
BRANCH  24  26
ATOM     26  C   UNL A   1      38.122  28.923  28.997  1.00  0.00     0.060 A 
ATOM     27  C   UNL A   1      38.957  28.211  29.844  1.00  0.00     0.016 A 
ATOM     28  C   UNL A   1      38.570  29.291  27.736  1.00  0.00     0.016 A 
ATOM     29  C   UNL A   1      40.290  28.012  29.531  1.00  0.00     0.010 A 
ATOM     30  C   UNL A   1      39.884  28.964  27.361  1.00  0.00     0.010 A 
ATOM     31  C   UNL A   1      40.786  28.387  28.282  1.00  0.00    -0.014 A 
BRANCH  31  32
ATOM     32  C   UNL A   1      42.251  28.281  28.009  1.00  0.00     0.031 A 
ATOM     33  C   UNL A   1      43.169  29.418  28.394  1.00  0.00     0.074 A 
ATOM     34  C   UNL A   1      42.787  27.154  27.490  1.00  0.00     0.049 A 
ATOM     35  N   UNL A   1      44.426  29.610  28.085  1.00  0.00    -0.248 NA
ATOM     36  C   UNL A   1      42.589  30.496  29.214  1.00  0.00     0.031 C 
ATOM     37  C   UNL A   1      42.050  25.934  27.144  1.00  0.00     0.029 A 
ATOM     38  N   UNL A   1      44.090  26.841  27.179  1.00  0.00    -0.354 N 
ATOM     39  C   UNL A   1      44.760  30.859  28.602  1.00  0.00     0.074 A 
ATOM     40  C   UNL A   1      43.569  31.387  29.228  1.00  0.00     0.031 C 
ATOM     41  C   UNL A   1      42.912  24.994  26.731  1.00  0.00     0.029 A 
ATOM     42  C   UNL A   1      44.246  25.575  26.662  1.00  0.00     0.049 A 
ATOM     43  H   UNL A   1      44.840  27.463  27.313  1.00  0.00     0.167 HD
ATOM     44  C   UNL A   1      45.949  31.507  28.558  1.00  0.00     0.031 A 
ATOM     45  C   UNL A   1      45.324  24.958  26.138  1.00  0.00     0.031 A 
ATOM     46  C   UNL A   1      47.148  30.946  27.990  1.00  0.00     0.049 A 
ATOM     47  C   UNL A   1      46.623  25.710  26.061  1.00  0.00     0.074 A 
ATOM     48  C   UNL A   1      48.406  31.516  27.900  1.00  0.00     0.029 A 
ATOM     49  N   UNL A   1      47.246  29.676  27.440  1.00  0.00    -0.354 N 
ATOM     50  N   UNL A   1      46.898  26.926  26.471  1.00  0.00    -0.248 NA
ATOM     51  C   UNL A   1      47.755  25.011  25.441  1.00  0.00     0.031 C 
ATOM     52  C   UNL A   1      49.251  30.612  27.247  1.00  0.00     0.029 A 
ATOM     53  C   UNL A   1      48.539  29.450  26.997  1.00  0.00     0.049 A 
ATOM     54  H   UNL A   1      46.505  29.030  27.375  1.00  0.00     0.167 HD
ATOM     55  C   UNL A   1      48.244  27.124  26.187  1.00  0.00     0.074 A 
ATOM     56  C   UNL A   1      48.728  25.899  25.584  1.00  0.00     0.031 C 
ATOM     57  C   UNL A   1      49.008  28.223  26.404  1.00  0.00     0.031 A 
BRANCH  44  58
ATOM     58  C   UNL A   1      46.001  32.917  29.094  1.00  0.00    -0.014 A 
ATOM     59  C   UNL A   1      45.675  34.030  28.301  1.00  0.00     0.010 A 
ATOM     60  C   UNL A   1      46.363  33.123  30.439  1.00  0.00     0.010 A 
ATOM     61  C   UNL A   1      45.756  35.324  28.827  1.00  0.00     0.020 A 
ATOM     62  C   UNL A   1      46.412  34.411  30.980  1.00  0.00     0.020 A 
ATOM     63  C   UNL A   1      46.126  35.506  30.163  1.00  0.00     0.054 A 
BRANCH  63  64
ATOM     64  S   UNL A   1      46.207  37.193  30.826  1.00  0.00     0.124 S 
ATOM     65  O   UNL A   1      46.077  36.959  32.261  1.00  0.00    -0.237 OA
ATOM     66  O   UNL A   1      47.520  37.650  30.379  1.00  0.00    -0.237 OA
ATOM     67  O   UNL A   1      45.070  37.867  30.201  1.00  0.00    -0.744 OA
ENDBRANCH  63  64
ENDBRANCH  44  58
BRANCH  45  68
ATOM     68  C   UNL A   1      45.202  23.577  25.588  1.00  0.00    -0.014 A 
ATOM     69  C   UNL A   1      45.567  22.458  26.357  1.00  0.00     0.010 A 
ATOM     70  C   UNL A   1      44.707  23.375  24.286  1.00  0.00     0.010 A 
ATOM     71  C   UNL A   1      45.456  21.167  25.828  1.00  0.00     0.020 A 
ATOM     72  C   UNL A   1      44.557  22.086  23.768  1.00  0.00     0.020 A 
ATOM     73  C   UNL A   1      44.946  20.990  24.538  1.00  0.00     0.054 A 
BRANCH  73  74
ATOM     74  S   UNL A   1      44.761  19.305  23.890  1.00  0.00     0.124 S 
ATOM     75  O   UNL A   1      44.587  19.546  22.461  1.00  0.00    -0.237 OA
ATOM     76  O   UNL A   1      46.022  18.677  24.278  1.00  0.00    -0.237 OA
ATOM     77  O   UNL A   1      43.582  18.797  24.588  1.00  0.00    -0.744 OA
ENDBRANCH  73  74
ENDBRANCH  45  68
BRANCH  57  78
ATOM     78  C   UNL A   1      50.469  28.125  26.050  1.00  0.00    -0.014 A 
ATOM     79  C   UNL A   1      51.438  27.763  27.002  1.00  0.00     0.010 A 
ATOM     80  C   UNL A   1      50.871  28.379  24.725  1.00  0.00     0.010 A 
ATOM     81  C   UNL A   1      52.790  27.710  26.647  1.00  0.00     0.020 A 
ATOM     82  C   UNL A   1      52.216  28.293  24.358  1.00  0.00     0.020 A 
ATOM     83  C   UNL A   1      53.169  27.980  25.328  1.00  0.00     0.054 A 
BRANCH  83  84
ATOM     84  S   UNL A   1      54.926  27.890  24.889  1.00  0.00     0.124 S 
ATOM     85  O   UNL A   1      55.566  28.413  26.093  1.00  0.00    -0.237 OA
ATOM     86  O   UNL A   1      55.122  26.464  24.642  1.00  0.00    -0.237 OA
ATOM     87  O   UNL A   1      55.032  28.742  23.707  1.00  0.00    -0.744 OA
ENDBRANCH  83  84
ENDBRANCH  57  78
ENDBRANCH  31  32
ENDBRANCH  24  26
ENDBRANCH  23  24
ENDBRANCH  22  23
ENDBRANCH   1  22
TORSDOF 17
ENDMDL
