MODEL 1
REMARK VINA RESULT:     -12.0      0.000      0.000
REMARK SMILES CS(=O)(=O)c1ccc(-c2cc(Cl)cc3c2O[C@H](C(F)(F)F)C(C(=O)OCCOC(=O)c2ccc(-c4c5nc(c(-c6ccc(S(=O)(=O)[O-])cc6)c6ccc([nH]6)c(-c6ccc(S(=O)(=O)[O-])cc6)c6nc(c(-c7ccc(S(=O)(=O)[O-])cc7)c7ccc4[nH]7)C=C6)C=C5)cc2)=C3)cc1
REMARK SMILES IDX 27 1 26 2 25 3 23 4 24 5 22 6 9 7 10 8 15 9 11 10 14 11
REMARK SMILES IDX 16 12 12 13 13 14 91 15 17 16 8 17 5 18 6 19 93 20 7 21
REMARK SMILES IDX 92 22 2 23 1 24 3 25 4 26 18 27 19 28 20 29 21 30 28 31
REMARK SMILES IDX 29 32 30 33 31 34 32 35 90 36 33 37 89 38 34 39 35 40 36 41
REMARK SMILES IDX 83 42 37 43 88 44 82 45 84 46 38 47 87 48 81 49 80 50 39 52
REMARK SMILES IDX 69 53 50 54 68 55 51 56 54 57 67 58 85 59 52 60 53 61 66 63
REMARK SMILES IDX 86 64 55 65 40 66 41 67 49 68 42 69 48 70 43 71 44 72 45 73
REMARK SMILES IDX 46 74 47 75 70 76 71 77 79 78 72 79 78 80 73 81 74 82 75 83
REMARK SMILES IDX 76 84 77 85 56 86 57 87 65 88 58 89 64 90 59 91 60 92 61 93
REMARK SMILES IDX 62 94 63 95
REMARK H PARENT 84 51 54 62
REMARK Flexibility Score: inf
ROOT
ATOM      1  C   UNL A   1      37.146  22.045  24.630  1.00  0.00     0.275 C 
ENDROOT
BRANCH   1   2
ATOM      2  C   UNL A   1      35.654  21.762  24.814  1.00  0.00     0.275 C 
BRANCH   2   3
ATOM      3  O   UNL A   1      34.850  22.213  23.698  1.00  0.00    -0.459 OA
BRANCH   3   4
ATOM      4  C   UNL A   1      33.548  22.386  24.045  1.00  0.00     0.338 C 
ATOM      5  O   UNL A   1      32.661  21.571  23.820  1.00  0.00    -0.246 OA
BRANCH   4   6
ATOM      6  C   UNL A   1      33.287  23.636  24.803  1.00  0.00     0.087 C 
ATOM      7  C   UNL A   1      31.161  26.618  23.037  1.00  0.00     0.026 A 
ATOM      8  C   UNL A   1      31.437  26.448  21.658  1.00  0.00     0.033 A 
ATOM      9  C   UNL A   1      31.960  25.860  23.894  1.00  0.00     0.135 A 
ATOM     10  C   UNL A   1      32.538  25.729  21.181  1.00  0.00     0.042 A 
ATOM     11  C   UNL A   1      33.187  25.337  23.415  1.00  0.00     0.019 A 
ATOM     12  O   UNL A   1      31.575  25.453  25.162  1.00  0.00    -0.475 OA
ATOM     13  Cl  UNL A   1      32.794  25.399  19.518  1.00  0.00    -0.084 Cl
ATOM     14  C   UNL A   1      33.477  25.257  22.066  1.00  0.00     0.032 A 
ATOM     15  C   UNL A   1      34.067  24.643  24.374  1.00  0.00     0.027 C 
ATOM     16  C   UNL A   1      31.936  24.011  25.394  1.00  0.00     0.316 C 
BRANCH   7  17
ATOM     17  C   UNL A   1      30.253  27.752  23.364  1.00  0.00    -0.015 A 
ATOM     18  C   UNL A   1      28.939  30.277  23.271  1.00  0.00     0.067 A 
ATOM     19  C   UNL A   1      28.261  29.116  22.894  1.00  0.00     0.021 A 
ATOM     20  C   UNL A   1      30.231  30.182  23.781  1.00  0.00     0.021 A 
ATOM     21  C   UNL A   1      28.911  27.858  22.968  1.00  0.00     0.010 A 
ATOM     22  C   UNL A   1      30.870  28.937  23.827  1.00  0.00     0.010 A 
BRANCH  18  23
ATOM     23  S   UNL A   1      28.174  31.890  23.168  1.00  0.00     0.175 S 
ATOM     24  C   UNL A   1      27.984  32.253  21.447  1.00  0.00     0.163 C 
ATOM     25  O   UNL A   1      29.112  32.844  23.714  1.00  0.00    -0.224 OA
ATOM     26  O   UNL A   1      26.848  31.740  23.758  1.00  0.00    -0.224 OA
ENDBRANCH  18  23
ENDBRANCH   7  17
BRANCH  16  27
ATOM     27  C   UNL A   1      32.018  23.707  26.893  1.00  0.00     0.430 C 
ATOM     28  F   UNL A   1      32.002  24.837  27.641  1.00  0.00    -0.167 F 
ATOM     29  F   UNL A   1      31.006  22.920  27.313  1.00  0.00    -0.167 F 
ATOM     30  F   UNL A   1      33.173  23.057  27.192  1.00  0.00    -0.167 F 
ENDBRANCH  16  27
ENDBRANCH   4   6
ENDBRANCH   3   4
ENDBRANCH   2   3
ENDBRANCH   1   2
BRANCH   1  31
ATOM     31  O   UNL A   1      37.563  23.161  25.438  1.00  0.00    -0.458 OA
BRANCH  31  32
ATOM     32  C   UNL A   1      38.693  22.934  26.147  1.00  0.00     0.338 C 
ATOM     33  O   UNL A   1      39.275  21.859  26.238  1.00  0.00    -0.246 OA
BRANCH  32  34
ATOM     34  C   UNL A   1      39.246  24.184  26.719  1.00  0.00     0.060 A 
ATOM     35  C   UNL A   1      38.930  24.438  28.051  1.00  0.00     0.016 A 
ATOM     36  C   UNL A   1      40.031  25.108  26.014  1.00  0.00     0.016 A 
ATOM     37  C   UNL A   1      39.421  25.581  28.676  1.00  0.00     0.010 A 
ATOM     38  C   UNL A   1      40.512  26.272  26.657  1.00  0.00     0.010 A 
ATOM     39  C   UNL A   1      40.229  26.514  28.007  1.00  0.00    -0.014 A 
BRANCH  39  40
ATOM     40  C   UNL A   1      40.727  27.685  28.806  1.00  0.00     0.031 A 
ATOM     41  C   UNL A   1      39.828  28.870  29.024  1.00  0.00     0.074 A 
ATOM     42  C   UNL A   1      41.861  27.609  29.536  1.00  0.00     0.049 A 
ATOM     43  N   UNL A   1      39.992  29.883  29.835  1.00  0.00    -0.248 NA
ATOM     44  C   UNL A   1      38.584  28.919  28.239  1.00  0.00     0.031 C 
ATOM     45  C   UNL A   1      42.815  26.519  29.464  1.00  0.00     0.029 A 
ATOM     46  N   UNL A   1      42.363  28.401  30.545  1.00  0.00    -0.354 N 
ATOM     47  C   UNL A   1      38.878  30.688  29.659  1.00  0.00     0.074 A 
ATOM     48  C   UNL A   1      38.022  30.027  28.697  1.00  0.00     0.031 C 
ATOM     49  C   UNL A   1      43.672  26.592  30.494  1.00  0.00     0.029 A 
ATOM     50  C   UNL A   1      43.435  27.838  31.212  1.00  0.00     0.049 A 
ATOM     51  H   UNL A   1      41.992  29.284  30.772  1.00  0.00     0.167 HD
ATOM     52  C   UNL A   1      38.606  31.890  30.216  1.00  0.00     0.031 A 
ATOM     53  C   UNL A   1      44.175  28.283  32.252  1.00  0.00     0.031 A 
ATOM     54  C   UNL A   1      39.500  32.611  31.077  1.00  0.00     0.049 A 
ATOM     55  C   UNL A   1      43.916  29.676  32.764  1.00  0.00     0.074 A 
ATOM     56  C   UNL A   1      39.343  33.877  31.613  1.00  0.00     0.029 A 
ATOM     57  N   UNL A   1      40.730  32.144  31.509  1.00  0.00    -0.354 N 
ATOM     58  N   UNL A   1      42.952  30.502  32.434  1.00  0.00    -0.248 NA
ATOM     59  C   UNL A   1      44.881  30.226  33.727  1.00  0.00     0.031 C 
ATOM     60  C   UNL A   1      40.477  34.169  32.381  1.00  0.00     0.029 A 
ATOM     61  C   UNL A   1      41.303  33.059  32.375  1.00  0.00     0.049 A 
ATOM     62  H   UNL A   1      41.136  31.289  31.239  1.00  0.00     0.167 HD
ATOM     63  C   UNL A   1      43.210  31.676  33.132  1.00  0.00     0.074 A 
ATOM     64  C   UNL A   1      44.396  31.445  33.927  1.00  0.00     0.031 C 
ATOM     65  C   UNL A   1      42.521  32.842  33.111  1.00  0.00     0.031 A 
BRANCH  52  66
ATOM     66  C   UNL A   1      37.298  32.519  29.841  1.00  0.00    -0.014 A 
ATOM     67  C   UNL A   1      37.197  33.334  28.701  1.00  0.00     0.010 A 
ATOM     68  C   UNL A   1      36.169  32.312  30.651  1.00  0.00     0.010 A 
ATOM     69  C   UNL A   1      35.991  33.971  28.400  1.00  0.00     0.020 A 
ATOM     70  C   UNL A   1      34.957  32.932  30.342  1.00  0.00     0.020 A 
ATOM     71  C   UNL A   1      34.883  33.775  29.230  1.00  0.00     0.054 A 
BRANCH  71  72
ATOM     72  S   UNL A   1      33.338  34.634  28.833  1.00  0.00     0.124 S 
ATOM     73  O   UNL A   1      33.832  35.898  28.294  1.00  0.00    -0.237 OA
ATOM     74  O   UNL A   1      32.713  33.739  27.865  1.00  0.00    -0.237 OA
ATOM     75  O   UNL A   1      32.656  34.730  30.122  1.00  0.00    -0.744 OA
ENDBRANCH  71  72
ENDBRANCH  52  66
BRANCH  53  76
ATOM     76  C   UNL A   1      45.313  27.482  32.802  1.00  0.00    -0.014 A 
ATOM     77  C   UNL A   1      46.561  27.437  32.149  1.00  0.00     0.010 A 
ATOM     78  C   UNL A   1      45.136  26.705  33.962  1.00  0.00     0.010 A 
ATOM     79  C   UNL A   1      47.592  26.621  32.633  1.00  0.00     0.020 A 
ATOM     80  C   UNL A   1      46.176  25.922  34.473  1.00  0.00     0.020 A 
ATOM     81  C   UNL A   1      47.392  25.868  33.794  1.00  0.00     0.054 A 
BRANCH  81  82
ATOM     82  S   UNL A   1      48.740  24.835  34.435  1.00  0.00     0.124 S 
ATOM     83  O   UNL A   1      49.842  25.189  33.547  1.00  0.00    -0.237 OA
ATOM     84  O   UNL A   1      48.866  25.292  35.817  1.00  0.00    -0.237 OA
ATOM     85  O   UNL A   1      48.225  23.475  34.283  1.00  0.00    -0.744 OA
ENDBRANCH  81  82
ENDBRANCH  53  76
BRANCH  65  86
ATOM     86  C   UNL A   1      43.024  33.959  33.980  1.00  0.00    -0.014 A 
ATOM     87  C   UNL A   1      43.964  34.888  33.501  1.00  0.00     0.010 A 
ATOM     88  C   UNL A   1      42.496  34.114  35.273  1.00  0.00     0.010 A 
ATOM     89  C   UNL A   1      44.367  35.957  34.306  1.00  0.00     0.020 A 
ATOM     90  C   UNL A   1      42.881  35.193  36.072  1.00  0.00     0.020 A 
ATOM     91  C   UNL A   1      43.818  36.106  35.584  1.00  0.00     0.054 A 
BRANCH  91  92
ATOM     92  S   UNL A   1      44.298  37.545  36.579  1.00  0.00     0.124 S 
ATOM     93  O   UNL A   1      43.999  38.653  35.678  1.00  0.00    -0.237 OA
ATOM     94  O   UNL A   1      43.423  37.430  37.745  1.00  0.00    -0.237 OA
ATOM     95  O   UNL A   1      45.716  37.322  36.848  1.00  0.00    -0.744 OA
ENDBRANCH  91  92
ENDBRANCH  65  86
ENDBRANCH  39  40
ENDBRANCH  32  34
ENDBRANCH  31  32
ENDBRANCH   1  31
TORSDOF 17
ENDMDL
MODEL 2
REMARK VINA RESULT:     -11.8      1.569      7.855
REMARK SMILES CS(=O)(=O)c1ccc(-c2cc(Cl)cc3c2O[C@H](C(F)(F)F)C(C(=O)OCCOC(=O)c2ccc(-c4c5nc(c(-c6ccc(S(=O)(=O)[O-])cc6)c6ccc([nH]6)c(-c6ccc(S(=O)(=O)[O-])cc6)c6nc(c(-c7ccc(S(=O)(=O)[O-])cc7)c7ccc4[nH]7)C=C6)C=C5)cc2)=C3)cc1
REMARK SMILES IDX 27 1 26 2 25 3 23 4 24 5 22 6 9 7 10 8 15 9 11 10 14 11
REMARK SMILES IDX 16 12 12 13 13 14 91 15 17 16 8 17 5 18 6 19 93 20 7 21
REMARK SMILES IDX 92 22 2 23 1 24 3 25 4 26 18 27 19 28 20 29 21 30 28 31
REMARK SMILES IDX 29 32 30 33 31 34 32 35 90 36 33 37 89 38 34 39 35 40 36 41
REMARK SMILES IDX 83 42 37 43 88 44 82 45 84 46 38 47 87 48 81 49 80 50 39 52
REMARK SMILES IDX 69 53 50 54 68 55 51 56 54 57 67 58 85 59 52 60 53 61 66 63
REMARK SMILES IDX 86 64 55 65 40 66 41 67 49 68 42 69 48 70 43 71 44 72 45 73
REMARK SMILES IDX 46 74 47 75 70 76 71 77 79 78 72 79 78 80 73 81 74 82 75 83
REMARK SMILES IDX 76 84 77 85 56 86 57 87 65 88 58 89 64 90 59 91 60 92 61 93
REMARK SMILES IDX 62 94 63 95
REMARK H PARENT 84 51 54 62
REMARK Flexibility Score: inf
ROOT
ATOM      1  C   UNL A   1      37.070  21.914  24.864  1.00  0.00     0.275 C 
ENDROOT
BRANCH   1   2
ATOM      2  C   UNL A   1      35.562  21.680  24.951  1.00  0.00     0.275 C 
BRANCH   2   3
ATOM      3  O   UNL A   1      34.849  22.145  23.780  1.00  0.00    -0.459 OA
BRANCH   3   4
ATOM      4  C   UNL A   1      33.531  22.352  24.034  1.00  0.00     0.338 C 
ATOM      5  O   UNL A   1      32.639  21.565  23.737  1.00  0.00    -0.246 OA
BRANCH   4   6
ATOM      6  C   UNL A   1      33.252  23.602  24.785  1.00  0.00     0.087 C 
ATOM      7  C   UNL A   1      31.115  26.558  22.988  1.00  0.00     0.026 A 
ATOM      8  C   UNL A   1      31.404  26.386  21.613  1.00  0.00     0.033 A 
ATOM      9  C   UNL A   1      31.913  25.811  23.855  1.00  0.00     0.135 A 
ATOM     10  C   UNL A   1      32.517  25.675  21.149  1.00  0.00     0.042 A 
ATOM     11  C   UNL A   1      33.148  25.298  23.390  1.00  0.00     0.019 A 
ATOM     12  O   UNL A   1      31.519  25.405  25.121  1.00  0.00    -0.475 OA
ATOM     13  Cl  UNL A   1      32.791  25.341  19.489  1.00  0.00    -0.084 Cl
ATOM     14  C   UNL A   1      33.451  25.216  22.044  1.00  0.00     0.032 A 
ATOM     15  C   UNL A   1      34.026  24.615  24.360  1.00  0.00     0.027 C 
ATOM     16  C   UNL A   1      31.892  23.967  25.362  1.00  0.00     0.316 C 
BRANCH   7  17
ATOM     17  C   UNL A   1      30.193  27.686  23.303  1.00  0.00    -0.015 A 
ATOM     18  C   UNL A   1      28.737  30.125  23.100  1.00  0.00     0.067 A 
ATOM     19  C   UNL A   1      28.083  28.899  22.953  1.00  0.00     0.021 A 
ATOM     20  C   UNL A   1      30.087  30.145  23.440  1.00  0.00     0.021 A 
ATOM     21  C   UNL A   1      28.807  27.688  23.081  1.00  0.00     0.010 A 
ATOM     22  C   UNL A   1      30.796  28.942  23.540  1.00  0.00     0.010 A 
BRANCH  18  23
ATOM     23  S   UNL A   1      27.874  31.680  22.917  1.00  0.00     0.175 S 
ATOM     24  C   UNL A   1      29.047  32.956  23.274  1.00  0.00     0.163 C 
ATOM     25  O   UNL A   1      26.854  31.726  23.940  1.00  0.00    -0.224 OA
ATOM     26  O   UNL A   1      27.509  31.770  21.507  1.00  0.00    -0.224 OA
ENDBRANCH  18  23
ENDBRANCH   7  17
BRANCH  16  27
ATOM     27  C   UNL A   1      31.963  23.670  26.863  1.00  0.00     0.430 C 
ATOM     28  F   UNL A   1      30.976  22.830  27.260  1.00  0.00    -0.167 F 
ATOM     29  F   UNL A   1      33.142  23.119  27.221  1.00  0.00    -0.167 F 
ATOM     30  F   UNL A   1      31.823  24.809  27.590  1.00  0.00    -0.167 F 
ENDBRANCH  16  27
ENDBRANCH   4   6
ENDBRANCH   3   4
ENDBRANCH   2   3
ENDBRANCH   1   2
BRANCH   1  31
ATOM     31  O   UNL A   1      37.480  22.976  25.746  1.00  0.00    -0.458 OA
BRANCH  31  32
ATOM     32  C   UNL A   1      38.754  22.861  26.189  1.00  0.00     0.338 C 
ATOM     33  O   UNL A   1      39.473  21.878  26.051  1.00  0.00    -0.246 OA
BRANCH  32  34
ATOM     34  C   UNL A   1      39.252  24.132  26.767  1.00  0.00     0.060 A 
ATOM     35  C   UNL A   1      38.919  24.368  28.099  1.00  0.00     0.016 A 
ATOM     36  C   UNL A   1      40.003  25.088  26.070  1.00  0.00     0.016 A 
ATOM     37  C   UNL A   1      39.360  25.529  28.730  1.00  0.00     0.010 A 
ATOM     38  C   UNL A   1      40.433  26.269  26.718  1.00  0.00     0.010 A 
ATOM     39  C   UNL A   1      40.133  26.495  28.068  1.00  0.00    -0.014 A 
BRANCH  39  40
ATOM     40  C   UNL A   1      40.578  27.683  28.873  1.00  0.00     0.031 A 
ATOM     41  C   UNL A   1      42.044  27.892  29.137  1.00  0.00     0.074 A 
ATOM     42  C   UNL A   1      39.734  28.696  29.161  1.00  0.00     0.049 A 
ATOM     43  N   UNL A   1      42.644  28.942  29.634  1.00  0.00    -0.248 NA
ATOM     44  C   UNL A   1      42.950  26.785  28.789  1.00  0.00     0.031 C 
ATOM     45  C   UNL A   1      38.301  28.663  28.938  1.00  0.00     0.029 A 
ATOM     46  N   UNL A   1      39.953  29.980  29.609  1.00  0.00    -0.354 N 
ATOM     47  C   UNL A   1      43.993  28.625  29.661  1.00  0.00     0.074 A 
ATOM     48  C   UNL A   1      44.132  27.302  29.090  1.00  0.00     0.031 C 
ATOM     49  C   UNL A   1      37.791  29.898  29.057  1.00  0.00     0.029 A 
ATOM     50  C   UNL A   1      38.837  30.793  29.536  1.00  0.00     0.049 A 
ATOM     51  H   UNL A   1      40.823  30.292  29.948  1.00  0.00     0.167 HD
ATOM     52  C   UNL A   1      45.023  29.351  30.152  1.00  0.00     0.031 A 
ATOM     53  C   UNL A   1      38.655  32.093  29.854  1.00  0.00     0.031 A 
ATOM     54  C   UNL A   1      44.884  30.609  30.829  1.00  0.00     0.049 A 
ATOM     55  C   UNL A   1      39.793  32.831  30.509  1.00  0.00     0.074 A 
ATOM     56  C   UNL A   1      45.866  31.369  31.440  1.00  0.00     0.029 A 
ATOM     57  N   UNL A   1      43.688  31.283  31.009  1.00  0.00    -0.354 N 
ATOM     58  N   UNL A   1      41.027  32.428  30.697  1.00  0.00    -0.248 NA
ATOM     59  C   UNL A   1      39.501  34.162  31.061  1.00  0.00     0.031 C 
ATOM     60  C   UNL A   1      45.262  32.511  31.979  1.00  0.00     0.029 A 
ATOM     61  C   UNL A   1      43.919  32.491  31.643  1.00  0.00     0.049 A 
ATOM     62  H   UNL A   1      42.805  30.951  30.728  1.00  0.00     0.167 HD
ATOM     63  C   UNL A   1      41.649  33.447  31.410  1.00  0.00     0.074 A 
ATOM     64  C   UNL A   1      40.671  34.497  31.589  1.00  0.00     0.031 C 
ATOM     65  C   UNL A   1      42.920  33.501  31.874  1.00  0.00     0.031 A 
BRANCH  52  66
ATOM     66  C   UNL A   1      46.388  28.745  30.024  1.00  0.00    -0.014 A 
ATOM     67  C   UNL A   1      47.155  28.947  28.863  1.00  0.00     0.010 A 
ATOM     68  C   UNL A   1      46.896  27.948  31.063  1.00  0.00     0.010 A 
ATOM     69  C   UNL A   1      48.395  28.321  28.726  1.00  0.00     0.020 A 
ATOM     70  C   UNL A   1      48.145  27.337  30.937  1.00  0.00     0.020 A 
ATOM     71  C   UNL A   1      48.875  27.511  29.759  1.00  0.00     0.054 A 
BRANCH  71  72
ATOM     72  S   UNL A   1      50.476  26.688  29.545  1.00  0.00     0.124 S 
ATOM     73  O   UNL A   1      50.406  25.635  30.555  1.00  0.00    -0.237 OA
ATOM     74  O   UNL A   1      50.421  26.235  28.159  1.00  0.00    -0.237 OA
ATOM     75  O   UNL A   1      51.446  27.747  29.816  1.00  0.00    -0.744 OA
ENDBRANCH  71  72
ENDBRANCH  52  66
BRANCH  53  76
ATOM     76  C   UNL A   1      37.324  32.760  29.693  1.00  0.00    -0.014 A 
ATOM     77  C   UNL A   1      36.935  33.330  28.464  1.00  0.00     0.010 A 
ATOM     78  C   UNL A   1      36.454  32.880  30.792  1.00  0.00     0.010 A 
ATOM     79  C   UNL A   1      35.719  34.019  28.349  1.00  0.00     0.020 A 
ATOM     80  C   UNL A   1      35.222  33.529  30.672  1.00  0.00     0.020 A 
ATOM     81  C   UNL A   1      34.871  34.113  29.455  1.00  0.00     0.054 A 
BRANCH  81  82
ATOM     82  S   UNL A   1      33.284  34.981  29.295  1.00  0.00     0.124 S 
ATOM     83  O   UNL A   1      33.706  36.306  28.854  1.00  0.00    -0.237 OA
ATOM     84  O   UNL A   1      32.576  34.177  28.302  1.00  0.00    -0.237 OA
ATOM     85  O   UNL A   1      32.727  34.918  30.646  1.00  0.00    -0.744 OA
ENDBRANCH  81  82
ENDBRANCH  53  76
BRANCH  65  86
ATOM     86  C   UNL A   1      43.334  34.741  32.614  1.00  0.00    -0.014 A 
ATOM     87  C   UNL A   1      43.722  35.904  31.927  1.00  0.00     0.010 A 
ATOM     88  C   UNL A   1      43.270  34.757  34.018  1.00  0.00     0.010 A 
ATOM     89  C   UNL A   1      44.039  37.066  32.636  1.00  0.00     0.020 A 
ATOM     90  C   UNL A   1      43.566  35.922  34.729  1.00  0.00     0.020 A 
ATOM     91  C   UNL A   1      43.952  37.068  34.033  1.00  0.00     0.054 A 
BRANCH  91  92
ATOM     92  S   UNL A   1      44.292  38.611  34.926  1.00  0.00     0.124 S 
ATOM     93  O   UNL A   1      45.734  38.754  34.751  1.00  0.00    -0.237 OA
ATOM     94  O   UNL A   1      43.472  39.582  34.206  1.00  0.00    -0.237 OA
ATOM     95  O   UNL A   1      43.854  38.324  36.290  1.00  0.00    -0.744 OA
ENDBRANCH  91  92
ENDBRANCH  65  86
ENDBRANCH  39  40
ENDBRANCH  32  34
ENDBRANCH  31  32
ENDBRANCH   1  31
TORSDOF 17
ENDMDL
MODEL 3
REMARK VINA RESULT:     -11.4      5.225     10.556
REMARK SMILES CS(=O)(=O)c1ccc(-c2cc(Cl)cc3c2O[C@H](C(F)(F)F)C(C(=O)OCCOC(=O)c2ccc(-c4c5nc(c(-c6ccc(S(=O)(=O)[O-])cc6)c6ccc([nH]6)c(-c6ccc(S(=O)(=O)[O-])cc6)c6nc(c(-c7ccc(S(=O)(=O)[O-])cc7)c7ccc4[nH]7)C=C6)C=C5)cc2)=C3)cc1
REMARK SMILES IDX 27 1 26 2 25 3 23 4 24 5 22 6 9 7 10 8 15 9 11 10 14 11
REMARK SMILES IDX 16 12 12 13 13 14 91 15 17 16 8 17 5 18 6 19 93 20 7 21
REMARK SMILES IDX 92 22 2 23 1 24 3 25 4 26 18 27 19 28 20 29 21 30 28 31
REMARK SMILES IDX 29 32 30 33 31 34 32 35 90 36 33 37 89 38 34 39 35 40 36 41
REMARK SMILES IDX 83 42 37 43 88 44 82 45 84 46 38 47 87 48 81 49 80 50 39 52
REMARK SMILES IDX 69 53 50 54 68 55 51 56 54 57 67 58 85 59 52 60 53 61 66 63
REMARK SMILES IDX 86 64 55 65 40 66 41 67 49 68 42 69 48 70 43 71 44 72 45 73
REMARK SMILES IDX 46 74 47 75 70 76 71 77 79 78 72 79 78 80 73 81 74 82 75 83
REMARK SMILES IDX 76 84 77 85 56 86 57 87 65 88 58 89 64 90 59 91 60 92 61 93
REMARK SMILES IDX 62 94 63 95
REMARK H PARENT 84 51 54 62
REMARK Flexibility Score: inf
ROOT
ATOM      1  C   UNL A   1      36.973  32.188  33.356  1.00  0.00     0.275 C 
ENDROOT
BRANCH   1   2
ATOM      2  C   UNL A   1      36.665  33.484  32.603  1.00  0.00     0.275 C 
BRANCH   2   3
ATOM      3  O   UNL A   1      35.839  33.276  31.433  1.00  0.00    -0.459 OA
BRANCH   3   4
ATOM      4  C   UNL A   1      36.478  33.631  30.288  1.00  0.00     0.338 C 
ATOM      5  O   UNL A   1      37.682  33.849  30.209  1.00  0.00    -0.246 OA
BRANCH   4   6
ATOM      6  C   UNL A   1      35.598  33.661  29.092  1.00  0.00     0.087 C 
ATOM      7  C   UNL A   1      34.256  30.154  27.532  1.00  0.00     0.026 A 
ATOM      8  C   UNL A   1      35.275  29.230  27.872  1.00  0.00     0.033 A 
ATOM      9  C   UNL A   1      34.581  31.493  27.749  1.00  0.00     0.135 A 
ATOM     10  C   UNL A   1      36.573  29.617  28.220  1.00  0.00     0.042 A 
ATOM     11  C   UNL A   1      35.943  31.864  27.874  1.00  0.00     0.019 A 
ATOM     12  O   UNL A   1      33.651  32.491  27.996  1.00  0.00    -0.475 OA
ATOM     13  Cl  UNL A   1      37.765  28.514  28.771  1.00  0.00    -0.084 Cl
ATOM     14  C   UNL A   1      36.938  30.938  28.120  1.00  0.00     0.032 A 
ATOM     15  C   UNL A   1      36.265  33.300  27.982  1.00  0.00     0.027 C 
ATOM     16  C   UNL A   1      34.103  33.378  29.124  1.00  0.00     0.316 C 
BRANCH   7  17
ATOM     17  C   UNL A   1      33.113  29.581  26.768  1.00  0.00    -0.015 A 
ATOM     18  C   UNL A   1      31.570  27.888  25.075  1.00  0.00     0.067 A 
ATOM     19  C   UNL A   1      31.378  27.866  26.459  1.00  0.00     0.021 A 
ATOM     20  C   UNL A   1      32.454  28.810  24.520  1.00  0.00     0.021 A 
ATOM     21  C   UNL A   1      32.130  28.729  27.294  1.00  0.00     0.010 A 
ATOM     22  C   UNL A   1      33.207  29.641  25.359  1.00  0.00     0.010 A 
BRANCH  18  23
ATOM     23  S   UNL A   1      30.669  26.798  23.982  1.00  0.00     0.175 S 
ATOM     24  C   UNL A   1      29.927  27.821  22.743  1.00  0.00     0.163 C 
ATOM     25  O   UNL A   1      29.602  26.204  24.754  1.00  0.00    -0.224 OA
ATOM     26  O   UNL A   1      31.674  25.955  23.343  1.00  0.00    -0.224 OA
ENDBRANCH  18  23
ENDBRANCH   7  17
BRANCH  16  27
ATOM     27  C   UNL A   1      33.403  34.739  29.058  1.00  0.00     0.430 C 
ATOM     28  F   UNL A   1      32.333  34.718  28.227  1.00  0.00    -0.167 F 
ATOM     29  F   UNL A   1      32.976  35.154  30.269  1.00  0.00    -0.167 F 
ATOM     30  F   UNL A   1      34.246  35.695  28.587  1.00  0.00    -0.167 F 
ENDBRANCH  16  27
ENDBRANCH   4   6
ENDBRANCH   3   4
ENDBRANCH   2   3
ENDBRANCH   1   2
BRANCH   1  31
ATOM     31  O   UNL A   1      36.673  31.037  32.545  1.00  0.00    -0.458 OA
BRANCH  31  32
ATOM     32  C   UNL A   1      37.403  29.941  32.857  1.00  0.00     0.338 C 
ATOM     33  O   UNL A   1      37.078  29.069  33.655  1.00  0.00    -0.246 OA
BRANCH  32  34
ATOM     34  C   UNL A   1      38.619  29.831  32.016  1.00  0.00     0.060 A 
ATOM     35  C   UNL A   1      39.451  28.746  32.285  1.00  0.00     0.016 A 
ATOM     36  C   UNL A   1      38.980  30.736  31.008  1.00  0.00     0.016 A 
ATOM     37  C   UNL A   1      40.606  28.554  31.533  1.00  0.00     0.010 A 
ATOM     38  C   UNL A   1      40.163  30.537  30.261  1.00  0.00     0.010 A 
ATOM     39  C   UNL A   1      40.985  29.427  30.501  1.00  0.00    -0.014 A 
BRANCH  39  40
ATOM     40  C   UNL A   1      42.233  29.086  29.739  1.00  0.00     0.031 A 
ATOM     41  C   UNL A   1      43.473  29.912  29.938  1.00  0.00     0.074 A 
ATOM     42  C   UNL A   1      42.351  27.921  29.065  1.00  0.00     0.049 A 
ATOM     43  N   UNL A   1      44.692  29.669  29.531  1.00  0.00    -0.248 NA
ATOM     44  C   UNL A   1      43.327  31.164  30.698  1.00  0.00     0.031 C 
ATOM     45  C   UNL A   1      41.259  27.000  28.815  1.00  0.00     0.029 A 
ATOM     46  N   UNL A   1      43.445  27.260  28.551  1.00  0.00    -0.354 N 
ATOM     47  C   UNL A   1      45.456  30.734  29.982  1.00  0.00     0.074 A 
ATOM     48  C   UNL A   1      44.576  31.604  30.732  1.00  0.00     0.031 C 
ATOM     49  C   UNL A   1      41.742  25.826  28.380  1.00  0.00     0.029 A 
ATOM     50  C   UNL A   1      43.175  25.963  28.155  1.00  0.00     0.049 A 
ATOM     51  H   UNL A   1      44.336  27.671  28.475  1.00  0.00     0.167 HD
ATOM     52  C   UNL A   1      46.766  30.988  29.761  1.00  0.00     0.031 A 
ATOM     53  C   UNL A   1      43.970  25.004  27.631  1.00  0.00     0.031 A 
ATOM     54  C   UNL A   1      47.620  30.198  28.920  1.00  0.00     0.049 A 
ATOM     55  C   UNL A   1      45.391  25.368  27.290  1.00  0.00     0.074 A 
ATOM     56  C   UNL A   1      48.937  30.435  28.567  1.00  0.00     0.029 A 
ATOM     57  N   UNL A   1      47.239  29.032  28.278  1.00  0.00    -0.354 N 
ATOM     58  N   UNL A   1      46.040  26.474  27.564  1.00  0.00    -0.248 NA
ATOM     59  C   UNL A   1      46.164  24.392  26.507  1.00  0.00     0.031 C 
ATOM     60  C   UNL A   1      49.354  29.402  27.720  1.00  0.00     0.029 A 
ATOM     61  C   UNL A   1      48.319  28.491  27.604  1.00  0.00     0.049 A 
ATOM     62  H   UNL A   1      46.333  28.646  28.299  1.00  0.00     0.167 HD
ATOM     63  C   UNL A   1      47.288  26.335  26.966  1.00  0.00     0.074 A 
ATOM     64  C   UNL A   1      47.317  25.028  26.347  1.00  0.00     0.031 C 
ATOM     65  C   UNL A   1      48.315  27.217  26.934  1.00  0.00     0.031 A 
BRANCH  52  66
ATOM     66  C   UNL A   1      47.324  32.224  30.401  1.00  0.00    -0.014 A 
ATOM     67  C   UNL A   1      47.891  32.172  31.686  1.00  0.00     0.010 A 
ATOM     68  C   UNL A   1      47.256  33.450  29.719  1.00  0.00     0.010 A 
ATOM     69  C   UNL A   1      48.343  33.341  32.299  1.00  0.00     0.020 A 
ATOM     70  C   UNL A   1      47.727  34.618  30.322  1.00  0.00     0.020 A 
ATOM     71  C   UNL A   1      48.246  34.558  31.617  1.00  0.00     0.054 A 
BRANCH  71  72
ATOM     72  S   UNL A   1      48.817  36.066  32.446  1.00  0.00     0.124 S 
ATOM     73  O   UNL A   1      48.578  35.740  33.850  1.00  0.00    -0.237 OA
ATOM     74  O   UNL A   1      50.218  36.141  32.047  1.00  0.00    -0.237 OA
ATOM     75  O   UNL A   1      47.955  37.109  31.894  1.00  0.00    -0.744 OA
ENDBRANCH  71  72
ENDBRANCH  52  66
BRANCH  53  76
ATOM     76  C   UNL A   1      43.433  23.656  27.267  1.00  0.00    -0.014 A 
ATOM     77  C   UNL A   1      43.228  22.661  28.243  1.00  0.00     0.010 A 
ATOM     78  C   UNL A   1      43.175  23.336  25.920  1.00  0.00     0.010 A 
ATOM     79  C   UNL A   1      42.799  21.377  27.877  1.00  0.00     0.020 A 
ATOM     80  C   UNL A   1      42.706  22.070  25.555  1.00  0.00     0.020 A 
ATOM     81  C   UNL A   1      42.541  21.091  26.534  1.00  0.00     0.054 A 
BRANCH  81  82
ATOM     82  S   UNL A   1      41.957  19.437  26.066  1.00  0.00     0.124 S 
ATOM     83  O   UNL A   1      40.538  19.674  25.823  1.00  0.00    -0.237 OA
ATOM     84  O   UNL A   1      42.762  19.134  24.886  1.00  0.00    -0.237 OA
ATOM     85  O   UNL A   1      42.264  18.625  27.243  1.00  0.00    -0.744 OA
ENDBRANCH  81  82
ENDBRANCH  53  76
BRANCH  65  86
ATOM     86  C   UNL A   1      49.565  26.798  26.215  1.00  0.00    -0.014 A 
ATOM     87  C   UNL A   1      49.826  27.220  24.900  1.00  0.00     0.010 A 
ATOM     88  C   UNL A   1      50.521  26.023  26.895  1.00  0.00     0.010 A 
ATOM     89  C   UNL A   1      51.027  26.872  24.276  1.00  0.00     0.020 A 
ATOM     90  C   UNL A   1      51.731  25.690  26.282  1.00  0.00     0.020 A 
ATOM     91  C   UNL A   1      51.974  26.115  24.974  1.00  0.00     0.054 A 
BRANCH  91  92
ATOM     92  S   UNL A   1      53.558  25.742  24.171  1.00  0.00     0.124 S 
ATOM     93  O   UNL A   1      54.441  26.747  24.755  1.00  0.00    -0.237 OA
ATOM     94  O   UNL A   1      53.810  24.364  24.590  1.00  0.00    -0.237 OA
ATOM     95  O   UNL A   1      53.273  25.911  22.748  1.00  0.00    -0.744 OA
ENDBRANCH  91  92
ENDBRANCH  65  86
ENDBRANCH  39  40
ENDBRANCH  32  34
ENDBRANCH  31  32
ENDBRANCH   1  31
TORSDOF 17
ENDMDL
