MODEL 1
REMARK VINA RESULT:     -11.4      0.000      0.000
REMARK SMILES CC(C)COc1cccc(C(=O)Nc2ccc(O)c(C(=O)OCCOC(=O)c3ccc(-c4c5nc(c(-c6ccc(S(=O)(=O)[O-])cc6)c6ccc([nH]6)c(-c6ccc(S(=O)(=O)[O-])cc6)c6nc(c(-c7ccc(S(=O)(=O)[O-])cc7)c7ccc4[nH]7)C=C6)C=C5)cc3)c2)c1
REMARK SMILES IDX 23 1 22 2 20 3 21 4 19 5 14 6 15 7 88 8 16 9 17 10 13 11
REMARK SMILES IDX 11 12 12 13 10 15 6 16 7 17 89 18 8 19 9 20 5 21 4 22 2 23
REMARK SMILES IDX 1 24 3 25 18 26 24 28 25 29 26 30 27 31 28 32 29 33 87 34
REMARK SMILES IDX 30 35 86 36 31 37 32 38 33 39 80 40 34 41 85 42 79 43 81 44
REMARK SMILES IDX 35 45 84 46 78 47 77 48 36 50 66 51 47 52 65 53 48 54 51 55
REMARK SMILES IDX 64 56 82 57 49 58 50 59 63 61 83 62 52 63 37 64 38 65 46 66
REMARK SMILES IDX 39 67 45 68 40 69 41 70 42 71 43 72 44 73 67 74 68 75 76 76
REMARK SMILES IDX 69 77 75 78 70 79 71 80 72 81 73 82 74 83 53 84 54 85 62 86
REMARK SMILES IDX 55 87 61 88 56 89 57 90 58 91 59 92 60 93
REMARK H PARENT 13 14 18 27 81 49 51 60
REMARK Flexibility Score: inf
ROOT
ATOM      1  C   UNL A   1      32.103  28.908  27.339  1.00  0.00     0.275 C 
ENDROOT
BRANCH   1   2
ATOM      2  O   UNL A   1      32.428  28.030  26.240  1.00  0.00    -0.458 OA
BRANCH   2   3
ATOM      3  C   UNL A   1      31.703  26.889  26.203  1.00  0.00     0.342 C 
ATOM      4  O   UNL A   1      31.147  26.354  27.147  1.00  0.00    -0.246 OA
BRANCH   3   5
ATOM      5  C   UNL A   1      31.675  26.247  24.876  1.00  0.00     0.103 A 
ATOM      6  C   UNL A   1      32.967  25.043  23.251  1.00  0.00     0.042 A 
ATOM      7  C   UNL A   1      31.806  24.436  22.756  1.00  0.00     0.030 A 
ATOM      8  C   UNL A   1      32.879  26.064  24.197  1.00  0.00     0.045 A 
ATOM      9  C   UNL A   1      30.581  24.689  23.365  1.00  0.00     0.049 A 
ATOM     10  C   UNL A   1      30.540  25.525  24.473  1.00  0.00     0.130 A 
BRANCH   6  11
ATOM     11  N   UNL A   1      34.192  24.476  22.877  1.00  0.00    -0.322 N 
ATOM     12  C   UNL A   1      34.946  23.459  23.441  1.00  0.00     0.255 C 
ATOM     13  O   UNL A   1      36.091  23.295  23.012  1.00  0.00    -0.269 OA
ATOM     14  H   UNL A   1      34.590  24.872  22.068  1.00  0.00     0.170 HD
BRANCH  12  15
ATOM     15  C   UNL A   1      34.429  22.474  24.452  1.00  0.00     0.043 A 
ATOM     16  C   UNL A   1      33.096  20.537  25.118  1.00  0.00     0.120 A 
ATOM     17  C   UNL A   1      33.504  20.691  26.436  1.00  0.00     0.046 A 
ATOM     18  C   UNL A   1      33.588  21.402  24.141  1.00  0.00     0.060 A 
ATOM     19  C   UNL A   1      34.421  21.694  26.760  1.00  0.00     0.005 A 
ATOM     20  C   UNL A   1      34.870  22.587  25.777  1.00  0.00     0.014 A 
BRANCH  16  21
ATOM     21  O   UNL A   1      32.061  19.685  24.850  1.00  0.00    -0.493 OA
BRANCH  21  22
ATOM     22  C   UNL A   1      32.347  18.552  24.008  1.00  0.00     0.232 C 
BRANCH  22  23
ATOM     23  C   UNL A   1      33.549  17.718  24.491  1.00  0.00     0.020 C 
ATOM     24  C   UNL A   1      33.155  16.741  25.603  1.00  0.00     0.011 C 
ATOM     25  C   UNL A   1      34.221  16.937  23.359  1.00  0.00     0.011 C 
ENDBRANCH  22  23
ENDBRANCH  21  22
ENDBRANCH  16  21
ENDBRANCH  12  15
ENDBRANCH   6  11
BRANCH  10  26
ATOM     26  O   UNL A   1      29.381  25.484  25.193  1.00  0.00    -0.507 OA
ATOM     27  H   UNL A   1      28.831  26.241  25.238  1.00  0.00     0.293 HD
ENDBRANCH  10  26
ENDBRANCH   3   5
ENDBRANCH   2   3
ENDBRANCH   1   2
BRANCH   1  28
ATOM     28  C   UNL A   1      32.458  30.365  27.034  1.00  0.00     0.275 C 
BRANCH  28  29
ATOM     29  O   UNL A   1      33.882  30.539  26.886  1.00  0.00    -0.458 OA
BRANCH  29  30
ATOM     30  C   UNL A   1      34.529  30.924  28.010  1.00  0.00     0.338 C 
ATOM     31  O   UNL A   1      34.150  31.763  28.816  1.00  0.00    -0.246 OA
BRANCH  30  32
ATOM     32  C   UNL A   1      35.780  30.169  28.206  1.00  0.00     0.060 A 
ATOM     33  C   UNL A   1      36.131  29.700  29.468  1.00  0.00     0.016 A 
ATOM     34  C   UNL A   1      36.717  30.139  27.176  1.00  0.00     0.016 A 
ATOM     35  C   UNL A   1      37.464  29.417  29.755  1.00  0.00     0.010 A 
ATOM     36  C   UNL A   1      38.008  29.662  27.428  1.00  0.00     0.010 A 
ATOM     37  C   UNL A   1      38.423  29.356  28.737  1.00  0.00    -0.014 A 
BRANCH  37  38
ATOM     38  C   UNL A   1      39.847  28.990  29.012  1.00  0.00     0.031 A 
ATOM     39  C   UNL A   1      40.807  30.034  29.538  1.00  0.00     0.074 A 
ATOM     40  C   UNL A   1      40.308  27.747  28.754  1.00  0.00     0.049 A 
ATOM     41  N   UNL A   1      42.116  30.043  29.517  1.00  0.00    -0.248 NA
ATOM     42  C   UNL A   1      40.213  31.244  30.134  1.00  0.00     0.031 C 
ATOM     43  C   UNL A   1      39.503  26.603  28.317  1.00  0.00     0.029 A 
ATOM     44  N   UNL A   1      41.585  27.238  28.808  1.00  0.00    -0.354 N 
ATOM     45  C   UNL A   1      42.498  31.287  30.013  1.00  0.00     0.074 A 
ATOM     46  C   UNL A   1      41.282  32.006  30.328  1.00  0.00     0.031 C 
ATOM     47  C   UNL A   1      40.289  25.528  28.180  1.00  0.00     0.029 A 
ATOM     48  C   UNL A   1      41.672  25.932  28.381  1.00  0.00     0.049 A 
ATOM     49  H   UNL A   1      42.360  27.758  29.122  1.00  0.00     0.167 HD
ATOM     50  C   UNL A   1      43.749  31.784  30.179  1.00  0.00     0.031 A 
ATOM     51  C   UNL A   1      42.736  25.158  28.099  1.00  0.00     0.031 A 
ATOM     52  C   UNL A   1      44.949  31.032  29.911  1.00  0.00     0.049 A 
ATOM     53  C   UNL A   1      44.111  25.743  28.232  1.00  0.00     0.074 A 
ATOM     54  C   UNL A   1      46.268  31.430  30.056  1.00  0.00     0.029 A 
ATOM     55  N   UNL A   1      44.977  29.720  29.461  1.00  0.00    -0.354 N 
ATOM     56  N   UNL A   1      44.460  26.946  28.620  1.00  0.00    -0.248 NA
ATOM     57  C   UNL A   1      45.238  24.870  27.875  1.00  0.00     0.031 C 
ATOM     58  C   UNL A   1      47.090  30.376  29.645  1.00  0.00     0.029 A 
ATOM     59  C   UNL A   1      46.287  29.298  29.310  1.00  0.00     0.049 A 
ATOM     60  H   UNL A   1      44.182  29.170  29.276  1.00  0.00     0.167 HD
ATOM     61  C   UNL A   1      45.848  26.966  28.581  1.00  0.00     0.074 A 
ATOM     62  C   UNL A   1      46.274  25.652  28.143  1.00  0.00     0.031 C 
ATOM     63  C   UNL A   1      46.693  27.982  28.882  1.00  0.00     0.031 A 
BRANCH  50  64
ATOM     64  C   UNL A   1      43.890  33.222  30.620  1.00  0.00    -0.014 A 
ATOM     65  C   UNL A   1      43.955  34.282  29.699  1.00  0.00     0.010 A 
ATOM     66  C   UNL A   1      43.918  33.519  31.997  1.00  0.00     0.010 A 
ATOM     67  C   UNL A   1      44.092  35.603  30.144  1.00  0.00     0.020 A 
ATOM     68  C   UNL A   1      44.022  34.839  32.447  1.00  0.00     0.020 A 
ATOM     69  C   UNL A   1      44.129  35.872  31.515  1.00  0.00     0.054 A 
BRANCH  69  70
ATOM     70  S   UNL A   1      44.294  37.594  32.064  1.00  0.00     0.124 S 
ATOM     71  O   UNL A   1      43.415  37.625  33.230  1.00  0.00    -0.237 OA
ATOM     72  O   UNL A   1      45.722  37.702  32.353  1.00  0.00    -0.237 OA
ATOM     73  O   UNL A   1      43.832  38.372  30.917  1.00  0.00    -0.744 OA
ENDBRANCH  69  70
ENDBRANCH  50  64
BRANCH  51  74
ATOM     74  C   UNL A   1      42.530  23.769  27.598  1.00  0.00    -0.014 A 
ATOM     75  C   UNL A   1      42.648  23.480  26.229  1.00  0.00     0.010 A 
ATOM     76  C   UNL A   1      42.254  22.720  28.496  1.00  0.00     0.010 A 
ATOM     77  C   UNL A   1      42.486  22.171  25.765  1.00  0.00     0.020 A 
ATOM     78  C   UNL A   1      42.129  21.405  28.042  1.00  0.00     0.020 A 
ATOM     79  C   UNL A   1      42.235  21.140  26.676  1.00  0.00     0.054 A 
BRANCH  79  80
ATOM     80  S   UNL A   1      42.095  19.442  26.056  1.00  0.00     0.124 S 
ATOM     81  O   UNL A   1      42.924  19.488  24.856  1.00  0.00    -0.237 OA
ATOM     82  O   UNL A   1      42.630  18.656  27.166  1.00  0.00    -0.237 OA
ATOM     83  O   UNL A   1      40.661  19.279  25.823  1.00  0.00    -0.744 OA
ENDBRANCH  79  80
ENDBRANCH  51  74
BRANCH  63  84
ATOM     84  C   UNL A   1      48.168  27.692  28.813  1.00  0.00    -0.014 A 
ATOM     85  C   UNL A   1      48.879  27.226  29.933  1.00  0.00     0.010 A 
ATOM     86  C   UNL A   1      48.839  27.846  27.586  1.00  0.00     0.010 A 
ATOM     87  C   UNL A   1      50.244  26.946  29.832  1.00  0.00     0.020 A 
ATOM     88  C   UNL A   1      50.196  27.537  27.474  1.00  0.00     0.020 A 
ATOM     89  C   UNL A   1      50.893  27.101  28.603  1.00  0.00     0.054 A 
BRANCH  89  90
ATOM     90  S   UNL A   1      52.653  26.682  28.487  1.00  0.00     0.124 S 
ATOM     91  O   UNL A   1      52.665  25.721  27.388  1.00  0.00    -0.237 OA
ATOM     92  O   UNL A   1      53.271  27.974  28.199  1.00  0.00    -0.237 OA
ATOM     93  O   UNL A   1      52.965  26.127  29.803  1.00  0.00    -0.744 OA
ENDBRANCH  89  90
ENDBRANCH  63  84
ENDBRANCH  37  38
ENDBRANCH  30  32
ENDBRANCH  29  30
ENDBRANCH  28  29
ENDBRANCH   1  28
TORSDOF 20
ENDMDL
MODEL 2
REMARK VINA RESULT:     -11.4      4.884     10.893
REMARK SMILES CC(C)COc1cccc(C(=O)Nc2ccc(O)c(C(=O)OCCOC(=O)c3ccc(-c4c5nc(c(-c6ccc(S(=O)(=O)[O-])cc6)c6ccc([nH]6)c(-c6ccc(S(=O)(=O)[O-])cc6)c6nc(c(-c7ccc(S(=O)(=O)[O-])cc7)c7ccc4[nH]7)C=C6)C=C5)cc3)c2)c1
REMARK SMILES IDX 23 1 22 2 20 3 21 4 19 5 14 6 15 7 88 8 16 9 17 10 13 11
REMARK SMILES IDX 11 12 12 13 10 15 6 16 7 17 89 18 8 19 9 20 5 21 4 22 2 23
REMARK SMILES IDX 1 24 3 25 18 26 24 28 25 29 26 30 27 31 28 32 29 33 87 34
REMARK SMILES IDX 30 35 86 36 31 37 32 38 33 39 80 40 34 41 85 42 79 43 81 44
REMARK SMILES IDX 35 45 84 46 78 47 77 48 36 50 66 51 47 52 65 53 48 54 51 55
REMARK SMILES IDX 64 56 82 57 49 58 50 59 63 61 83 62 52 63 37 64 38 65 46 66
REMARK SMILES IDX 39 67 45 68 40 69 41 70 42 71 43 72 44 73 67 74 68 75 76 76
REMARK SMILES IDX 69 77 75 78 70 79 71 80 72 81 73 82 74 83 53 84 54 85 62 86
REMARK SMILES IDX 55 87 61 88 56 89 57 90 58 91 59 92 60 93
REMARK H PARENT 13 14 18 27 81 49 51 60
REMARK Flexibility Score: inf
ROOT
ATOM      1  C   UNL A   1      38.559  21.530  25.522  1.00  0.00     0.275 C 
ENDROOT
BRANCH   1   2
ATOM      2  O   UNL A   1      37.168  21.701  25.870  1.00  0.00    -0.458 OA
BRANCH   2   3
ATOM      3  C   UNL A   1      36.329  20.834  25.259  1.00  0.00     0.342 C 
ATOM      4  O   UNL A   1      36.574  19.677  24.963  1.00  0.00    -0.246 OA
BRANCH   3   5
ATOM      5  C   UNL A   1      35.033  21.429  24.885  1.00  0.00     0.103 A 
ATOM      6  C   UNL A   1      33.955  23.109  23.554  1.00  0.00     0.042 A 
ATOM      7  C   UNL A   1      32.785  22.342  23.503  1.00  0.00     0.030 A 
ATOM      8  C   UNL A   1      35.014  22.727  24.376  1.00  0.00     0.045 A 
ATOM      9  C   UNL A   1      32.760  21.082  24.095  1.00  0.00     0.049 A 
ATOM     10  C   UNL A   1      33.911  20.602  24.705  1.00  0.00     0.130 A 
BRANCH   6  11
ATOM     11  N   UNL A   1      34.065  24.164  22.638  1.00  0.00    -0.322 N 
ATOM     12  C   UNL A   1      33.418  25.387  22.561  1.00  0.00     0.255 C 
ATOM     13  O   UNL A   1      33.569  26.047  21.529  1.00  0.00    -0.269 OA
ATOM     14  H   UNL A   1      34.721  24.009  21.920  1.00  0.00     0.170 HD
BRANCH  12  15
ATOM     15  C   UNL A   1      32.643  26.014  23.686  1.00  0.00     0.043 A 
ATOM     16  C   UNL A   1      32.472  27.255  25.784  1.00  0.00     0.120 A 
ATOM     17  C   UNL A   1      31.089  27.138  25.758  1.00  0.00     0.046 A 
ATOM     18  C   UNL A   1      33.227  26.727  24.736  1.00  0.00     0.060 A 
ATOM     19  C   UNL A   1      30.471  26.516  24.670  1.00  0.00     0.005 A 
ATOM     20  C   UNL A   1      31.244  25.947  23.649  1.00  0.00     0.014 A 
BRANCH  16  21
ATOM     21  O   UNL A   1      33.070  27.689  26.935  1.00  0.00    -0.493 OA
BRANCH  21  22
ATOM     22  C   UNL A   1      32.826  29.054  27.325  1.00  0.00     0.232 C 
BRANCH  22  23
ATOM     23  C   UNL A   1      33.993  30.004  26.994  1.00  0.00     0.020 C 
ATOM     24  C   UNL A   1      33.863  31.343  27.728  1.00  0.00     0.011 C 
ATOM     25  C   UNL A   1      35.360  29.395  27.311  1.00  0.00     0.011 C 
ENDBRANCH  22  23
ENDBRANCH  21  22
ENDBRANCH  16  21
ENDBRANCH  12  15
ENDBRANCH   6  11
BRANCH  10  26
ATOM     26  O   UNL A   1      33.909  19.266  24.986  1.00  0.00    -0.507 OA
ATOM     27  H   UNL A   1      33.668  18.649  24.323  1.00  0.00     0.293 HD
ENDBRANCH  10  26
ENDBRANCH   3   5
ENDBRANCH   2   3
ENDBRANCH   1   2
BRANCH   1  28
ATOM     28  C   UNL A   1      39.492  22.157  26.561  1.00  0.00     0.275 C 
BRANCH  28  29
ATOM     29  O   UNL A   1      39.276  23.578  26.671  1.00  0.00    -0.458 OA
BRANCH  29  30
ATOM     30  C   UNL A   1      40.404  24.322  26.743  1.00  0.00     0.338 C 
ATOM     31  O   UNL A   1      41.490  24.046  26.251  1.00  0.00    -0.246 OA
BRANCH  30  32
ATOM     32  C   UNL A   1      40.181  25.583  27.473  1.00  0.00     0.060 A 
ATOM     33  C   UNL A   1      40.916  26.721  27.156  1.00  0.00     0.016 A 
ATOM     34  C   UNL A   1      39.410  25.563  28.632  1.00  0.00     0.016 A 
ATOM     35  C   UNL A   1      41.058  27.738  28.097  1.00  0.00     0.010 A 
ATOM     36  C   UNL A   1      39.404  26.677  29.479  1.00  0.00     0.010 A 
ATOM     37  C   UNL A   1      40.279  27.757  29.260  1.00  0.00    -0.014 A 
BRANCH  37  38
ATOM     38  C   UNL A   1      40.368  28.872  30.253  1.00  0.00     0.031 A 
ATOM     39  C   UNL A   1      41.399  28.818  31.359  1.00  0.00     0.074 A 
ATOM     40  C   UNL A   1      39.506  29.911  30.211  1.00  0.00     0.049 A 
ATOM     41  N   UNL A   1      41.431  29.467  32.496  1.00  0.00    -0.248 NA
ATOM     42  C   UNL A   1      42.525  27.886  31.174  1.00  0.00     0.031 C 
ATOM     43  C   UNL A   1      38.502  30.155  29.172  1.00  0.00     0.029 A 
ATOM     44  N   UNL A   1      39.326  30.959  31.083  1.00  0.00    -0.354 N 
ATOM     45  C   UNL A   1      42.524  28.960  33.195  1.00  0.00     0.074 A 
ATOM     46  C   UNL A   1      43.129  27.951  32.353  1.00  0.00     0.031 C 
ATOM     47  C   UNL A   1      37.843  31.290  29.442  1.00  0.00     0.029 A 
ATOM     48  C   UNL A   1      38.275  31.780  30.742  1.00  0.00     0.049 A 
ATOM     49  H   UNL A   1      39.893  31.107  31.874  1.00  0.00     0.167 HD
ATOM     50  C   UNL A   1      42.970  29.300  34.429  1.00  0.00     0.031 A 
ATOM     51  C   UNL A   1      37.662  32.769  31.420  1.00  0.00     0.031 A 
ATOM     52  C   UNL A   1      42.386  30.347  35.230  1.00  0.00     0.049 A 
ATOM     53  C   UNL A   1      38.132  33.093  32.808  1.00  0.00     0.074 A 
ATOM     54  C   UNL A   1      42.765  30.786  36.487  1.00  0.00     0.029 A 
ATOM     55  N   UNL A   1      41.310  31.134  34.841  1.00  0.00    -0.354 N 
ATOM     56  N   UNL A   1      39.110  32.551  33.492  1.00  0.00    -0.248 NA
ATOM     57  C   UNL A   1      37.406  34.152  33.520  1.00  0.00     0.031 C 
ATOM     58  C   UNL A   1      41.886  31.801  36.879  1.00  0.00     0.029 A 
ATOM     59  C   UNL A   1      41.004  32.044  35.839  1.00  0.00     0.049 A 
ATOM     60  H   UNL A   1      40.835  31.055  33.983  1.00  0.00     0.167 HD
ATOM     61  C   UNL A   1      39.136  33.223  34.707  1.00  0.00     0.074 A 
ATOM     62  C   UNL A   1      38.083  34.218  34.658  1.00  0.00     0.031 C 
ATOM     63  C   UNL A   1      39.958  33.034  35.768  1.00  0.00     0.031 A 
BRANCH  50  64
ATOM     64  C   UNL A   1      44.111  28.504  35.018  1.00  0.00    -0.014 A 
ATOM     65  C   UNL A   1      45.454  28.881  34.838  1.00  0.00     0.010 A 
ATOM     66  C   UNL A   1      43.825  27.372  35.806  1.00  0.00     0.010 A 
ATOM     67  C   UNL A   1      46.487  28.116  35.394  1.00  0.00     0.020 A 
ATOM     68  C   UNL A   1      44.852  26.624  36.391  1.00  0.00     0.020 A 
ATOM     69  C   UNL A   1      46.179  26.990  36.163  1.00  0.00     0.054 A 
BRANCH  69  70
ATOM     70  S   UNL A   1      47.537  26.024  36.882  1.00  0.00     0.124 S 
ATOM     71  O   UNL A   1      46.936  25.532  38.119  1.00  0.00    -0.237 OA
ATOM     72  O   UNL A   1      47.786  25.011  35.860  1.00  0.00    -0.237 OA
ATOM     73  O   UNL A   1      48.607  27.004  37.058  1.00  0.00    -0.744 OA
ENDBRANCH  69  70
ENDBRANCH  50  64
BRANCH  51  74
ATOM     74  C   UNL A   1      36.495  33.471  30.814  1.00  0.00    -0.014 A 
ATOM     75  C   UNL A   1      35.339  33.717  31.572  1.00  0.00     0.010 A 
ATOM     76  C   UNL A   1      36.551  33.932  29.484  1.00  0.00     0.010 A 
ATOM     77  C   UNL A   1      34.258  34.403  31.011  1.00  0.00     0.020 A 
ATOM     78  C   UNL A   1      35.488  34.651  28.932  1.00  0.00     0.020 A 
ATOM     79  C   UNL A   1      34.342  34.873  29.697  1.00  0.00     0.054 A 
BRANCH  79  80
ATOM     80  S   UNL A   1      32.952  35.818  29.016  1.00  0.00     0.124 S 
ATOM     81  O   UNL A   1      32.178  36.125  30.214  1.00  0.00    -0.237 OA
ATOM     82  O   UNL A   1      33.622  36.954  28.386  1.00  0.00    -0.237 OA
ATOM     83  O   UNL A   1      32.325  34.881  28.085  1.00  0.00    -0.744 OA
ENDBRANCH  79  80
ENDBRANCH  51  74
BRANCH  63  84
ATOM     84  C   UNL A   1      39.796  33.966  36.938  1.00  0.00    -0.014 A 
ATOM     85  C   UNL A   1      40.418  35.227  36.965  1.00  0.00     0.010 A 
ATOM     86  C   UNL A   1      38.965  33.585  38.007  1.00  0.00     0.010 A 
ATOM     87  C   UNL A   1      40.232  36.079  38.057  1.00  0.00     0.020 A 
ATOM     88  C   UNL A   1      38.752  34.447  39.085  1.00  0.00     0.020 A 
ATOM     89  C   UNL A   1      39.399  35.684  39.108  1.00  0.00     0.054 A 
BRANCH  89  90
ATOM     90  S   UNL A   1      39.134  36.830  40.488  1.00  0.00     0.124 S 
ATOM     91  O   UNL A   1      40.501  37.101  40.925  1.00  0.00    -0.237 OA
ATOM     92  O   UNL A   1      38.445  37.948  39.848  1.00  0.00    -0.237 OA
ATOM     93  O   UNL A   1      38.322  36.060  41.428  1.00  0.00    -0.744 OA
ENDBRANCH  89  90
ENDBRANCH  63  84
ENDBRANCH  37  38
ENDBRANCH  30  32
ENDBRANCH  29  30
ENDBRANCH  28  29
ENDBRANCH   1  28
TORSDOF 20
ENDMDL
MODEL 3
REMARK VINA RESULT:     -11.3      4.506      8.132
REMARK SMILES CC(C)COc1cccc(C(=O)Nc2ccc(O)c(C(=O)OCCOC(=O)c3ccc(-c4c5nc(c(-c6ccc(S(=O)(=O)[O-])cc6)c6ccc([nH]6)c(-c6ccc(S(=O)(=O)[O-])cc6)c6nc(c(-c7ccc(S(=O)(=O)[O-])cc7)c7ccc4[nH]7)C=C6)C=C5)cc3)c2)c1
REMARK SMILES IDX 23 1 22 2 20 3 21 4 19 5 14 6 15 7 88 8 16 9 17 10 13 11
REMARK SMILES IDX 11 12 12 13 10 15 6 16 7 17 89 18 8 19 9 20 5 21 4 22 2 23
REMARK SMILES IDX 1 24 3 25 18 26 24 28 25 29 26 30 27 31 28 32 29 33 87 34
REMARK SMILES IDX 30 35 86 36 31 37 32 38 33 39 80 40 34 41 85 42 79 43 81 44
REMARK SMILES IDX 35 45 84 46 78 47 77 48 36 50 66 51 47 52 65 53 48 54 51 55
REMARK SMILES IDX 64 56 82 57 49 58 50 59 63 61 83 62 52 63 37 64 38 65 46 66
REMARK SMILES IDX 39 67 45 68 40 69 41 70 42 71 43 72 44 73 67 74 68 75 76 76
REMARK SMILES IDX 69 77 75 78 70 79 71 80 72 81 73 82 74 83 53 84 54 85 62 86
REMARK SMILES IDX 55 87 61 88 56 89 57 90 58 91 59 92 60 93
REMARK H PARENT 13 14 18 27 81 49 51 60
REMARK Flexibility Score: inf
ROOT
ATOM      1  C   UNL A   1      35.047  33.209  28.378  1.00  0.00     0.275 C 
ENDROOT
BRANCH   1   2
ATOM      2  O   UNL A   1      34.708  33.783  29.659  1.00  0.00    -0.458 OA
BRANCH   2   3
ATOM      3  C   UNL A   1      33.624  34.591  29.641  1.00  0.00     0.342 C 
ATOM      4  O   UNL A   1      32.863  34.758  28.703  1.00  0.00    -0.246 OA
BRANCH   3   5
ATOM      5  C   UNL A   1      33.438  35.363  30.883  1.00  0.00     0.103 A 
ATOM      6  C   UNL A   1      33.972  35.479  33.220  1.00  0.00     0.042 A 
ATOM      7  C   UNL A   1      33.820  36.871  33.201  1.00  0.00     0.030 A 
ATOM      8  C   UNL A   1      33.623  34.717  32.105  1.00  0.00     0.045 A 
ATOM      9  C   UNL A   1      33.537  37.518  32.002  1.00  0.00     0.049 A 
ATOM     10  C   UNL A   1      33.434  36.767  30.840  1.00  0.00     0.130 A 
BRANCH   6  11
ATOM     11  N   UNL A   1      34.625  34.923  34.328  1.00  0.00    -0.322 N 
ATOM     12  C   UNL A   1      35.645  33.989  34.422  1.00  0.00     0.255 C 
ATOM     13  O   UNL A   1      35.896  33.532  35.541  1.00  0.00    -0.269 OA
ATOM     14  H   UNL A   1      34.301  35.256  35.196  1.00  0.00     0.170 HD
BRANCH  12  15
ATOM     15  C   UNL A   1      36.537  33.584  33.283  1.00  0.00     0.043 A 
ATOM     16  C   UNL A   1      38.453  33.903  31.799  1.00  0.00     0.120 A 
ATOM     17  C   UNL A   1      38.136  32.736  31.115  1.00  0.00     0.046 A 
ATOM     18  C   UNL A   1      37.677  34.292  32.891  1.00  0.00     0.060 A 
ATOM     19  C   UNL A   1      37.060  31.957  31.546  1.00  0.00     0.005 A 
ATOM     20  C   UNL A   1      36.259  32.384  32.614  1.00  0.00     0.014 A 
BRANCH  16  21
ATOM     21  O   UNL A   1      39.378  34.749  31.254  1.00  0.00    -0.493 OA
BRANCH  21  22
ATOM     22  C   UNL A   1      40.751  34.559  31.647  1.00  0.00     0.232 C 
BRANCH  22  23
ATOM     23  C   UNL A   1      41.726  34.494  30.456  1.00  0.00     0.020 C 
ATOM     24  C   UNL A   1      41.081  35.005  29.164  1.00  0.00     0.011 C 
ATOM     25  C   UNL A   1      43.020  35.271  30.706  1.00  0.00     0.011 C 
ENDBRANCH  22  23
ENDBRANCH  21  22
ENDBRANCH  16  21
ENDBRANCH  12  15
ENDBRANCH   6  11
BRANCH  10  26
ATOM     26  O   UNL A   1      33.463  37.482  29.678  1.00  0.00    -0.507 OA
ATOM     27  H   UNL A   1      32.727  38.010  29.435  1.00  0.00     0.293 HD
ENDBRANCH  10  26
ENDBRANCH   3   5
ENDBRANCH   2   3
ENDBRANCH   1   2
BRANCH   1  28
ATOM     28  C   UNL A   1      34.440  31.817  28.195  1.00  0.00     0.275 C 
BRANCH  28  29
ATOM     29  O   UNL A   1      35.133  30.833  28.990  1.00  0.00    -0.458 OA
BRANCH  29  30
ATOM     30  C   UNL A   1      35.672  29.810  28.288  1.00  0.00     0.338 C 
ATOM     31  O   UNL A   1      35.067  29.010  27.587  1.00  0.00    -0.246 OA
BRANCH  30  32
ATOM     32  C   UNL A   1      37.140  29.770  28.420  1.00  0.00     0.060 A 
ATOM     33  C   UNL A   1      37.954  30.000  27.315  1.00  0.00     0.016 A 
ATOM     34  C   UNL A   1      37.698  29.268  29.593  1.00  0.00     0.016 A 
ATOM     35  C   UNL A   1      39.263  29.521  27.308  1.00  0.00     0.010 A 
ATOM     36  C   UNL A   1      39.065  28.974  29.639  1.00  0.00     0.010 A 
ATOM     37  C   UNL A   1      39.857  29.033  28.477  1.00  0.00    -0.014 A 
BRANCH  37  38
ATOM     38  C   UNL A   1      41.280  28.575  28.509  1.00  0.00     0.031 A 
ATOM     39  C   UNL A   1      42.390  29.575  28.746  1.00  0.00     0.074 A 
ATOM     40  C   UNL A   1      41.601  27.283  28.281  1.00  0.00     0.049 A 
ATOM     41  N   UNL A   1      43.668  29.477  28.477  1.00  0.00    -0.248 NA
ATOM     42  C   UNL A   1      42.005  30.871  29.333  1.00  0.00     0.031 C 
ATOM     43  C   UNL A   1      40.653  26.178  28.110  1.00  0.00     0.029 A 
ATOM     44  N   UNL A   1      42.828  26.678  28.138  1.00  0.00    -0.354 N 
ATOM     45  C   UNL A   1      44.220  30.720  28.777  1.00  0.00     0.074 A 
ATOM     46  C   UNL A   1      43.137  31.556  29.251  1.00  0.00     0.031 C 
ATOM     47  C   UNL A   1      41.327  25.035  27.924  1.00  0.00     0.029 A 
ATOM     48  C   UNL A   1      42.745  25.341  27.822  1.00  0.00     0.049 A 
ATOM     49  H   UNL A   1      43.682  27.155  28.250  1.00  0.00     0.167 HD
ATOM     50  C   UNL A   1      45.507  31.125  28.657  1.00  0.00     0.031 A 
ATOM     51  C   UNL A   1      43.682  24.464  27.413  1.00  0.00     0.031 A 
ATOM     52  C   UNL A   1      46.581  30.261  28.235  1.00  0.00     0.049 A 
ATOM     53  C   UNL A   1      45.091  24.944  27.230  1.00  0.00     0.074 A 
ATOM     54  C   UNL A   1      47.925  30.561  28.091  1.00  0.00     0.029 A 
ATOM     55  N   UNL A   1      46.436  28.920  27.909  1.00  0.00    -0.354 N 
ATOM     56  N   UNL A   1      45.585  26.141  27.435  1.00  0.00    -0.248 NA
ATOM     57  C   UNL A   1      46.067  23.959  26.746  1.00  0.00     0.031 C 
ATOM     58  C   UNL A   1      48.582  29.416  27.628  1.00  0.00     0.029 A 
ATOM     59  C   UNL A   1      47.661  28.383  27.551  1.00  0.00     0.049 A 
ATOM     60  H   UNL A   1      45.586  28.423  27.928  1.00  0.00     0.167 HD
ATOM     61  C   UNL A   1      46.937  26.046  27.132  1.00  0.00     0.074 A 
ATOM     62  C   UNL A   1      47.183  24.672  26.741  1.00  0.00     0.031 C 
ATOM     63  C   UNL A   1      47.889  27.010  27.173  1.00  0.00     0.031 A 
BRANCH  50  64
ATOM     64  C   UNL A   1      45.826  32.576  28.932  1.00  0.00    -0.014 A 
ATOM     65  C   UNL A   1      46.230  33.023  30.203  1.00  0.00     0.010 A 
ATOM     66  C   UNL A   1      45.757  33.508  27.878  1.00  0.00     0.010 A 
ATOM     67  C   UNL A   1      46.512  34.377  30.424  1.00  0.00     0.020 A 
ATOM     68  C   UNL A   1      46.069  34.855  28.085  1.00  0.00     0.020 A 
ATOM     69  C   UNL A   1      46.426  35.285  29.365  1.00  0.00     0.054 A 
BRANCH  69  70
ATOM     70  S   UNL A   1      46.810  37.031  29.676  1.00  0.00     0.124 S 
ATOM     71  O   UNL A   1      45.586  37.693  29.230  1.00  0.00    -0.237 OA
ATOM     72  O   UNL A   1      47.045  37.055  31.118  1.00  0.00    -0.237 OA
ATOM     73  O   UNL A   1      47.989  37.282  28.851  1.00  0.00    -0.744 OA
ENDBRANCH  69  70
ENDBRANCH  50  64
BRANCH  51  74
ATOM     74  C   UNL A   1      43.292  23.062  27.088  1.00  0.00    -0.014 A 
ATOM     75  C   UNL A   1      43.464  22.558  25.789  1.00  0.00     0.010 A 
ATOM     76  C   UNL A   1      42.784  22.211  28.089  1.00  0.00     0.010 A 
ATOM     77  C   UNL A   1      43.128  21.233  25.494  1.00  0.00     0.020 A 
ATOM     78  C   UNL A   1      42.483  20.877  27.808  1.00  0.00     0.020 A 
ATOM     79  C   UNL A   1      42.647  20.398  26.507  1.00  0.00     0.054 A 
BRANCH  79  80
ATOM     80  S   UNL A   1      42.281  18.666  26.113  1.00  0.00     0.124 S 
ATOM     81  O   UNL A   1      42.620  17.993  27.362  1.00  0.00    -0.237 OA
ATOM     82  O   UNL A   1      40.859  18.712  25.782  1.00  0.00    -0.237 OA
ATOM     83  O   UNL A   1      43.165  18.378  24.985  1.00  0.00    -0.744 OA
ENDBRANCH  79  80
ENDBRANCH  51  74
BRANCH  63  84
ATOM     84  C   UNL A   1      49.300  26.598  26.852  1.00  0.00    -0.014 A 
ATOM     85  C   UNL A   1      50.170  26.119  27.847  1.00  0.00     0.010 A 
ATOM     86  C   UNL A   1      49.741  26.648  25.517  1.00  0.00     0.010 A 
ATOM     87  C   UNL A   1      51.469  25.724  27.514  1.00  0.00     0.020 A 
ATOM     88  C   UNL A   1      51.027  26.225  25.176  1.00  0.00     0.020 A 
ATOM     89  C   UNL A   1      51.887  25.777  26.181  1.00  0.00     0.054 A 
BRANCH  89  90
ATOM     90  S   UNL A   1      53.559  25.211  25.768  1.00  0.00     0.124 S 
ATOM     91  O   UNL A   1      54.277  25.445  27.018  1.00  0.00    -0.237 OA
ATOM     92  O   UNL A   1      53.344  23.808  25.420  1.00  0.00    -0.237 OA
ATOM     93  O   UNL A   1      53.953  26.071  24.654  1.00  0.00    -0.744 OA
ENDBRANCH  89  90
ENDBRANCH  63  84
ENDBRANCH  37  38
ENDBRANCH  30  32
ENDBRANCH  29  30
ENDBRANCH  28  29
ENDBRANCH   1  28
TORSDOF 20
ENDMDL
