MODEL 1
REMARK VINA RESULT:      -9.3      0.000      0.000
REMARK SMILES C[C@H](Nc1nc(CC(=O)OCCOC(=O)c2ccc(-c3c4nc(c(-c5ccc(S(=O)(=O)[O-])cc5)c5ccc([nH]5)c(-c5ccc(S(=O)(=O)[O-])cc5)c5nc(c(-c6ccc(S(=O)(=O)[O-])cc6)c6ccc3[nH]6)C=C5)C=C4)cc2)cs1)c1ccccc1
REMARK SMILES IDX 11 1 10 2 8 3 9 4 7 5 6 6 4 7 5 8 77 9 76 10 3 11 2 13 1 14
REMARK SMILES IDX 78 15 79 16 83 17 80 18 82 19 81 20 12 21 13 22 14 23 15 24
REMARK SMILES IDX 16 25 17 26 75 27 18 28 74 29 19 30 20 31 21 32 68 33 22 34
REMARK SMILES IDX 73 35 67 36 69 37 23 38 72 39 66 40 65 41 24 43 54 44 35 45
REMARK SMILES IDX 53 46 36 47 39 48 52 49 70 50 37 51 38 52 51 54 71 55 40 56
REMARK SMILES IDX 25 57 26 58 34 59 27 60 33 61 28 62 29 63 30 64 31 65 32 66
REMARK SMILES IDX 55 67 56 68 64 69 57 70 63 71 58 72 59 73 60 74 61 75 62 76
REMARK SMILES IDX 41 77 42 78 50 79 43 80 49 81 44 82 45 83 46 84 47 85 48 86
REMARK H PARENT 3 12 69 42 39 53
REMARK Flexibility Score: inf
ROOT
ATOM      1  C   UNL A   1      33.333  34.075  28.248  1.00  0.00     0.274 C 
ENDROOT
BRANCH   1   2
ATOM      2  O   UNL A   1      33.943  35.378  28.239  1.00  0.00    -0.462 OA
BRANCH   2   3
ATOM      3  C   UNL A   1      33.326  36.326  28.995  1.00  0.00     0.312 C 
ATOM      4  O   UNL A   1      33.432  37.536  28.814  1.00  0.00    -0.252 OA
BRANCH   3   5
ATOM      5  C   UNL A   1      32.538  35.757  30.144  1.00  0.00     0.179 C 
BRANCH   5   6
ATOM      6  C   UNL A   1      33.293  35.573  31.416  1.00  0.00     0.065 A 
ATOM      7  C   UNL A   1      34.741  34.444  32.663  1.00  0.00     0.183 A 
ATOM      8  N   UNL A   1      34.017  34.398  31.572  1.00  0.00    -0.225 NA
ATOM      9  S   UNL A   1      34.464  35.819  33.660  1.00  0.00    -0.105 S 
ATOM     10  C   UNL A   1      33.460  36.477  32.445  1.00  0.00     0.093 A 
BRANCH   7  11
ATOM     11  N   UNL A   1      35.691  33.571  33.031  1.00  0.00    -0.355 N 
ATOM     12  H   UNL A   1      35.405  32.651  33.232  1.00  0.00     0.163 HD
BRANCH  11  13
ATOM     13  C   UNL A   1      37.107  33.873  33.159  1.00  0.00     0.108 C 
ATOM     14  C   UNL A   1      37.854  32.918  34.101  1.00  0.00     0.036 C 
BRANCH  13  15
ATOM     15  C   UNL A   1      37.654  33.858  31.728  1.00  0.00    -0.026 A 
ATOM     16  C   UNL A   1      38.730  34.708  31.407  1.00  0.00     0.006 A 
ATOM     17  C   UNL A   1      37.041  33.144  30.686  1.00  0.00     0.006 A 
ATOM     18  C   UNL A   1      39.158  34.855  30.087  1.00  0.00     0.000 A 
ATOM     19  C   UNL A   1      37.481  33.280  29.368  1.00  0.00     0.000 A 
ATOM     20  C   UNL A   1      38.531  34.143  29.068  1.00  0.00     0.000 A 
ENDBRANCH  13  15
ENDBRANCH  11  13
ENDBRANCH   7  11
ENDBRANCH   5   6
ENDBRANCH   3   5
ENDBRANCH   2   3
ENDBRANCH   1   2
BRANCH   1  21
ATOM     21  C   UNL A   1      34.310  33.015  27.745  1.00  0.00     0.275 C 
BRANCH  21  22
ATOM     22  O   UNL A   1      34.301  31.880  28.628  1.00  0.00    -0.458 OA
BRANCH  22  23
ATOM     23  C   UNL A   1      34.481  30.679  28.038  1.00  0.00     0.338 C 
ATOM     24  O   UNL A   1      33.710  30.085  27.305  1.00  0.00    -0.246 OA
BRANCH  23  25
ATOM     25  C   UNL A   1      35.800  30.142  28.401  1.00  0.00     0.060 A 
ATOM     26  C   UNL A   1      36.048  29.687  29.699  1.00  0.00     0.016 A 
ATOM     27  C   UNL A   1      36.828  30.205  27.460  1.00  0.00     0.016 A 
ATOM     28  C   UNL A   1      37.344  29.327  30.070  1.00  0.00     0.010 A 
ATOM     29  C   UNL A   1      38.112  29.795  27.820  1.00  0.00     0.010 A 
ATOM     30  C   UNL A   1      38.387  29.374  29.132  1.00  0.00    -0.014 A 
BRANCH  30  31
ATOM     31  C   UNL A   1      39.773  29.004  29.509  1.00  0.00     0.031 A 
ATOM     32  C   UNL A   1      40.651  29.994  30.223  1.00  0.00     0.074 A 
ATOM     33  C   UNL A   1      40.258  27.794  29.172  1.00  0.00     0.049 A 
ATOM     34  N   UNL A   1      41.925  29.913  30.507  1.00  0.00    -0.248 NA
ATOM     35  C   UNL A   1      40.013  31.243  30.670  1.00  0.00     0.031 C 
ATOM     36  C   UNL A   1      39.502  26.734  28.502  1.00  0.00     0.029 A 
ATOM     37  N   UNL A   1      41.511  27.259  29.336  1.00  0.00    -0.354 N 
ATOM     38  C   UNL A   1      42.251  31.109  31.139  1.00  0.00     0.074 A 
ATOM     39  C   UNL A   1      41.040  31.902  31.186  1.00  0.00     0.031 C 
ATOM     40  C   UNL A   1      40.307  25.676  28.313  1.00  0.00     0.029 A 
ATOM     41  C   UNL A   1      41.644  26.000  28.799  1.00  0.00     0.049 A 
ATOM     42  H   UNL A   1      42.244  27.730  29.794  1.00  0.00     0.167 HD
ATOM     43  C   UNL A   1      43.448  31.509  31.632  1.00  0.00     0.031 A 
ATOM     44  C   UNL A   1      42.728  25.209  28.679  1.00  0.00     0.031 A 
ATOM     45  C   UNL A   1      44.648  30.717  31.588  1.00  0.00     0.049 A 
ATOM     46  C   UNL A   1      44.055  25.692  29.192  1.00  0.00     0.074 A 
ATOM     47  C   UNL A   1      45.905  31.029  32.075  1.00  0.00     0.029 A 
ATOM     48  N   UNL A   1      44.741  29.452  31.026  1.00  0.00    -0.354 N 
ATOM     49  N   UNL A   1      44.345  26.828  29.780  1.00  0.00    -0.248 NA
ATOM     50  C   UNL A   1      45.201  24.788  29.021  1.00  0.00     0.031 C 
ATOM     51  C   UNL A   1      46.768  29.970  31.772  1.00  0.00     0.029 A 
ATOM     52  C   UNL A   1      46.037  28.979  31.136  1.00  0.00     0.049 A 
ATOM     53  H   UNL A   1      43.996  28.964  30.608  1.00  0.00     0.167 HD
ATOM     54  C   UNL A   1      45.704  26.768  30.065  1.00  0.00     0.074 A 
ATOM     55  C   UNL A   1      46.175  25.480  29.597  1.00  0.00     0.031 C 
ATOM     56  C   UNL A   1      46.491  27.697  30.662  1.00  0.00     0.031 A 
BRANCH  43  57
ATOM     57  C   UNL A   1      43.523  32.885  32.234  1.00  0.00    -0.014 A 
ATOM     58  C   UNL A   1      43.303  33.093  33.607  1.00  0.00     0.010 A 
ATOM     59  C   UNL A   1      43.850  33.984  31.418  1.00  0.00     0.010 A 
ATOM     60  C   UNL A   1      43.371  34.381  34.147  1.00  0.00     0.020 A 
ATOM     61  C   UNL A   1      43.941  35.269  31.959  1.00  0.00     0.020 A 
ATOM     62  C   UNL A   1      43.683  35.462  33.317  1.00  0.00     0.054 A 
BRANCH  62  63
ATOM     63  S   UNL A   1      43.777  37.123  34.042  1.00  0.00     0.124 S 
ATOM     64  O   UNL A   1      43.485  37.972  32.889  1.00  0.00    -0.237 OA
ATOM     65  O   UNL A   1      42.742  37.085  35.072  1.00  0.00    -0.237 OA
ATOM     66  O   UNL A   1      45.146  37.204  34.545  1.00  0.00    -0.744 OA
ENDBRANCH  62  63
ENDBRANCH  43  57
BRANCH  44  67
ATOM     67  C   UNL A   1      42.601  23.883  28.019  1.00  0.00    -0.014 A 
ATOM     68  C   UNL A   1      42.697  23.771  26.622  1.00  0.00     0.010 A 
ATOM     69  C   UNL A   1      42.409  22.722  28.790  1.00  0.00     0.010 A 
ATOM     70  C   UNL A   1      42.594  22.521  26.005  1.00  0.00     0.020 A 
ATOM     71  C   UNL A   1      42.329  21.469  28.179  1.00  0.00     0.020 A 
ATOM     72  C   UNL A   1      42.413  21.377  26.788  1.00  0.00     0.054 A 
BRANCH  72  73
ATOM     73  S   UNL A   1      42.348  19.756  25.976  1.00  0.00     0.124 S 
ATOM     74  O   UNL A   1      43.417  19.868  24.989  1.00  0.00    -0.237 OA
ATOM     75  O   UNL A   1      42.600  18.835  27.081  1.00  0.00    -0.237 OA
ATOM     76  O   UNL A   1      40.993  19.703  25.431  1.00  0.00    -0.744 OA
ENDBRANCH  72  73
ENDBRANCH  44  67
BRANCH  56  77
ATOM     77  C   UNL A   1      47.938  27.343  30.867  1.00  0.00    -0.014 A 
ATOM     78  C   UNL A   1      48.890  27.565  29.857  1.00  0.00     0.010 A 
ATOM     79  C   UNL A   1      48.357  26.821  32.104  1.00  0.00     0.010 A 
ATOM     80  C   UNL A   1      50.234  27.247  30.071  1.00  0.00     0.020 A 
ATOM     81  C   UNL A   1      49.702  26.521  32.330  1.00  0.00     0.020 A 
ATOM     82  C   UNL A   1      50.631  26.723  31.306  1.00  0.00     0.054 A 
BRANCH  82  83
ATOM     83  S   UNL A   1      52.386  26.354  31.579  1.00  0.00     0.124 S 
ATOM     84  O   UNL A   1      52.398  24.894  31.547  1.00  0.00    -0.237 OA
ATOM     85  O   UNL A   1      53.035  27.012  30.448  1.00  0.00    -0.237 OA
ATOM     86  O   UNL A   1      52.665  26.952  32.883  1.00  0.00    -0.744 OA
ENDBRANCH  82  83
ENDBRANCH  56  77
ENDBRANCH  30  31
ENDBRANCH  23  25
ENDBRANCH  22  23
ENDBRANCH  21  22
ENDBRANCH   1  21
TORSDOF 18
ENDMDL
MODEL 2
REMARK VINA RESULT:      -9.0      3.325      6.009
REMARK SMILES C[C@H](Nc1nc(CC(=O)OCCOC(=O)c2ccc(-c3c4nc(c(-c5ccc(S(=O)(=O)[O-])cc5)c5ccc([nH]5)c(-c5ccc(S(=O)(=O)[O-])cc5)c5nc(c(-c6ccc(S(=O)(=O)[O-])cc6)c6ccc3[nH]6)C=C5)C=C4)cc2)cs1)c1ccccc1
REMARK SMILES IDX 11 1 10 2 8 3 9 4 7 5 6 6 4 7 5 8 77 9 76 10 3 11 2 13 1 14
REMARK SMILES IDX 78 15 79 16 83 17 80 18 82 19 81 20 12 21 13 22 14 23 15 24
REMARK SMILES IDX 16 25 17 26 75 27 18 28 74 29 19 30 20 31 21 32 68 33 22 34
REMARK SMILES IDX 73 35 67 36 69 37 23 38 72 39 66 40 65 41 24 43 54 44 35 45
REMARK SMILES IDX 53 46 36 47 39 48 52 49 70 50 37 51 38 52 51 54 71 55 40 56
REMARK SMILES IDX 25 57 26 58 34 59 27 60 33 61 28 62 29 63 30 64 31 65 32 66
REMARK SMILES IDX 55 67 56 68 64 69 57 70 63 71 58 72 59 73 60 74 61 75 62 76
REMARK SMILES IDX 41 77 42 78 50 79 43 80 49 81 44 82 45 83 46 84 47 85 48 86
REMARK H PARENT 3 12 69 42 39 53
REMARK Flexibility Score: inf
ROOT
ATOM      1  C   UNL A   1      32.819  29.595  25.330  1.00  0.00     0.274 C 
ENDROOT
BRANCH   1   2
ATOM      2  O   UNL A   1      31.510  29.700  24.743  1.00  0.00    -0.462 OA
BRANCH   2   3
ATOM      3  C   UNL A   1      31.263  28.871  23.693  1.00  0.00     0.312 C 
ATOM      4  O   UNL A   1      31.165  29.239  22.526  1.00  0.00    -0.252 OA
BRANCH   3   5
ATOM      5  C   UNL A   1      31.046  27.438  24.098  1.00  0.00     0.179 C 
BRANCH   5   6
ATOM      6  C   UNL A   1      31.896  26.433  23.396  1.00  0.00     0.065 A 
ATOM      7  C   UNL A   1      33.564  24.969  23.394  1.00  0.00     0.183 A 
ATOM      8  N   UNL A   1      33.006  25.943  24.070  1.00  0.00    -0.225 NA
ATOM      9  S   UNL A   1      32.900  24.701  21.828  1.00  0.00    -0.105 S 
ATOM     10  C   UNL A   1      31.668  25.831  22.175  1.00  0.00     0.093 A 
BRANCH   7  11
ATOM     11  N   UNL A   1      34.536  24.151  23.822  1.00  0.00    -0.355 N 
ATOM     12  H   UNL A   1      35.430  24.265  23.427  1.00  0.00     0.163 HD
BRANCH  11  13
ATOM     13  C   UNL A   1      34.377  23.107  24.822  1.00  0.00     0.108 C 
ATOM     14  C   UNL A   1      33.559  21.905  24.327  1.00  0.00     0.036 C 
BRANCH  13  15
ATOM     15  C   UNL A   1      35.801  22.733  25.246  1.00  0.00    -0.026 A 
ATOM     16  C   UNL A   1      36.613  23.722  25.833  1.00  0.00     0.006 A 
ATOM     17  C   UNL A   1      36.384  21.491  24.945  1.00  0.00     0.006 A 
ATOM     18  C   UNL A   1      37.965  23.484  26.086  1.00  0.00     0.000 A 
ATOM     19  C   UNL A   1      37.732  21.249  25.213  1.00  0.00     0.000 A 
ATOM     20  C   UNL A   1      38.524  22.248  25.772  1.00  0.00     0.000 A 
ENDBRANCH  13  15
ENDBRANCH  11  13
ENDBRANCH   7  11
ENDBRANCH   5   6
ENDBRANCH   3   5
ENDBRANCH   2   3
ENDBRANCH   1   2
BRANCH   1  21
ATOM     21  C   UNL A   1      32.724  29.181  26.796  1.00  0.00     0.275 C 
BRANCH  21  22
ATOM     22  O   UNL A   1      34.043  29.072  27.362  1.00  0.00    -0.458 OA
BRANCH  22  23
ATOM     23  C   UNL A   1      34.559  30.214  27.865  1.00  0.00     0.338 C 
ATOM     24  O   UNL A   1      33.998  31.288  28.004  1.00  0.00    -0.246 OA
BRANCH  23  25
ATOM     25  C   UNL A   1      35.958  29.996  28.256  1.00  0.00     0.060 A 
ATOM     26  C   UNL A   1      36.985  30.119  27.315  1.00  0.00     0.016 A 
ATOM     27  C   UNL A   1      36.228  29.551  29.550  1.00  0.00     0.016 A 
ATOM     28  C   UNL A   1      38.287  29.759  27.662  1.00  0.00     0.010 A 
ATOM     29  C   UNL A   1      37.540  29.241  29.908  1.00  0.00     0.010 A 
ATOM     30  C   UNL A   1      38.577  29.319  28.963  1.00  0.00    -0.014 A 
BRANCH  30  31
ATOM     31  C   UNL A   1      39.953  28.922  29.348  1.00  0.00     0.031 A 
ATOM     32  C   UNL A   1      40.855  29.902  30.047  1.00  0.00     0.074 A 
ATOM     33  C   UNL A   1      40.408  27.694  29.033  1.00  0.00     0.049 A 
ATOM     34  N   UNL A   1      42.126  29.794  30.334  1.00  0.00    -0.248 NA
ATOM     35  C   UNL A   1      40.247  31.174  30.470  1.00  0.00     0.031 C 
ATOM     36  C   UNL A   1      39.627  26.642  28.380  1.00  0.00     0.029 A 
ATOM     37  N   UNL A   1      41.647  27.131  29.208  1.00  0.00    -0.354 N 
ATOM     38  C   UNL A   1      42.481  30.992  30.945  1.00  0.00     0.074 A 
ATOM     39  C   UNL A   1      41.291  31.816  30.977  1.00  0.00     0.031 C 
ATOM     40  C   UNL A   1      40.404  25.561  28.210  1.00  0.00     0.029 A 
ATOM     41  C   UNL A   1      41.749  25.860  28.693  1.00  0.00     0.049 A 
ATOM     42  H   UNL A   1      42.391  27.592  29.659  1.00  0.00     0.167 HD
ATOM     43  C   UNL A   1      43.687  31.370  31.433  1.00  0.00     0.031 A 
ATOM     44  C   UNL A   1      42.812  25.040  28.589  1.00  0.00     0.031 A 
ATOM     45  C   UNL A   1      44.867  30.548  31.404  1.00  0.00     0.049 A 
ATOM     46  C   UNL A   1      44.151  25.499  29.095  1.00  0.00     0.074 A 
ATOM     47  C   UNL A   1      46.131  30.837  31.888  1.00  0.00     0.029 A 
ATOM     48  N   UNL A   1      44.929  29.272  30.864  1.00  0.00    -0.354 N 
ATOM     49  N   UNL A   1      44.469  26.637  29.664  1.00  0.00    -0.248 NA
ATOM     50  C   UNL A   1      45.274  24.564  28.942  1.00  0.00     0.031 C 
ATOM     51  C   UNL A   1      46.968  29.751  31.605  1.00  0.00     0.029 A 
ATOM     52  C   UNL A   1      46.213  28.768  30.985  1.00  0.00     0.049 A 
ATOM     53  H   UNL A   1      44.172  28.795  30.454  1.00  0.00     0.167 HD
ATOM     54  C   UNL A   1      45.826  26.548  29.952  1.00  0.00     0.074 A 
ATOM     55  C   UNL A   1      46.264  25.241  29.507  1.00  0.00     0.031 C 
ATOM     56  C   UNL A   1      46.635  27.467  30.534  1.00  0.00     0.031 A 
BRANCH  43  57
ATOM     57  C   UNL A   1      43.796  32.755  32.011  1.00  0.00    -0.014 A 
ATOM     58  C   UNL A   1      43.635  32.983  33.389  1.00  0.00     0.010 A 
ATOM     59  C   UNL A   1      44.096  33.839  31.166  1.00  0.00     0.010 A 
ATOM     60  C   UNL A   1      43.734  34.278  33.907  1.00  0.00     0.020 A 
ATOM     61  C   UNL A   1      44.217  35.132  31.684  1.00  0.00     0.020 A 
ATOM     62  C   UNL A   1      44.017  35.346  33.049  1.00  0.00     0.054 A 
BRANCH  62  63
ATOM     63  S   UNL A   1      44.152  37.016  33.745  1.00  0.00     0.124 S 
ATOM     64  O   UNL A   1      44.994  36.786  34.916  1.00  0.00    -0.237 OA
ATOM     65  O   UNL A   1      44.777  37.769  32.660  1.00  0.00    -0.237 OA
ATOM     66  O   UNL A   1      42.769  37.383  34.034  1.00  0.00    -0.744 OA
ENDBRANCH  62  63
ENDBRANCH  43  57
BRANCH  44  67
ATOM     67  C   UNL A   1      42.653  23.706  27.951  1.00  0.00    -0.014 A 
ATOM     68  C   UNL A   1      43.052  23.502  26.619  1.00  0.00     0.010 A 
ATOM     69  C   UNL A   1      42.126  22.628  28.685  1.00  0.00     0.010 A 
ATOM     70  C   UNL A   1      42.916  22.242  26.028  1.00  0.00     0.020 A 
ATOM     71  C   UNL A   1      42.010  21.363  28.105  1.00  0.00     0.020 A 
ATOM     72  C   UNL A   1      42.398  21.180  26.775  1.00  0.00     0.054 A 
BRANCH  72  73
ATOM     73  S   UNL A   1      42.291  19.537  26.012  1.00  0.00     0.124 S 
ATOM     74  O   UNL A   1      43.181  19.678  24.865  1.00  0.00    -0.237 OA
ATOM     75  O   UNL A   1      42.767  18.659  27.078  1.00  0.00    -0.237 OA
ATOM     76  O   UNL A   1      40.871  19.402  25.694  1.00  0.00    -0.744 OA
ENDBRANCH  72  73
ENDBRANCH  44  67
BRANCH  56  77
ATOM     77  C   UNL A   1      48.072  27.081  30.747  1.00  0.00    -0.014 A 
ATOM     78  C   UNL A   1      49.061  27.409  29.803  1.00  0.00     0.010 A 
ATOM     79  C   UNL A   1      48.445  26.418  31.931  1.00  0.00     0.010 A 
ATOM     80  C   UNL A   1      50.394  27.057  30.026  1.00  0.00     0.020 A 
ATOM     81  C   UNL A   1      49.780  26.084  32.168  1.00  0.00     0.020 A 
ATOM     82  C   UNL A   1      50.745  26.394  31.206  1.00  0.00     0.054 A 
BRANCH  82  83
ATOM     83  S   UNL A   1      52.488  25.982  31.496  1.00  0.00     0.124 S 
ATOM     84  O   UNL A   1      52.903  27.042  32.409  1.00  0.00    -0.237 OA
ATOM     85  O   UNL A   1      52.414  24.645  32.077  1.00  0.00    -0.237 OA
ATOM     86  O   UNL A   1      53.082  26.040  30.162  1.00  0.00    -0.744 OA
ENDBRANCH  82  83
ENDBRANCH  56  77
ENDBRANCH  30  31
ENDBRANCH  23  25
ENDBRANCH  22  23
ENDBRANCH  21  22
ENDBRANCH   1  21
TORSDOF 18
ENDMDL
MODEL 3
REMARK VINA RESULT:      -8.8      3.573      6.314
REMARK SMILES C[C@H](Nc1nc(CC(=O)OCCOC(=O)c2ccc(-c3c4nc(c(-c5ccc(S(=O)(=O)[O-])cc5)c5ccc([nH]5)c(-c5ccc(S(=O)(=O)[O-])cc5)c5nc(c(-c6ccc(S(=O)(=O)[O-])cc6)c6ccc3[nH]6)C=C5)C=C4)cc2)cs1)c1ccccc1
REMARK SMILES IDX 11 1 10 2 8 3 9 4 7 5 6 6 4 7 5 8 77 9 76 10 3 11 2 13 1 14
REMARK SMILES IDX 78 15 79 16 83 17 80 18 82 19 81 20 12 21 13 22 14 23 15 24
REMARK SMILES IDX 16 25 17 26 75 27 18 28 74 29 19 30 20 31 21 32 68 33 22 34
REMARK SMILES IDX 73 35 67 36 69 37 23 38 72 39 66 40 65 41 24 43 54 44 35 45
REMARK SMILES IDX 53 46 36 47 39 48 52 49 70 50 37 51 38 52 51 54 71 55 40 56
REMARK SMILES IDX 25 57 26 58 34 59 27 60 33 61 28 62 29 63 30 64 31 65 32 66
REMARK SMILES IDX 55 67 56 68 64 69 57 70 63 71 58 72 59 73 60 74 61 75 62 76
REMARK SMILES IDX 41 77 42 78 50 79 43 80 49 81 44 82 45 83 46 84 47 85 48 86
REMARK H PARENT 3 12 69 42 39 53
REMARK Flexibility Score: inf
ROOT
ATOM      1  C   UNL A   1      31.750  29.501  26.832  1.00  0.00     0.274 C 
ENDROOT
BRANCH   1   2
ATOM      2  O   UNL A   1      32.395  28.616  25.898  1.00  0.00    -0.462 OA
BRANCH   2   3
ATOM      3  C   UNL A   1      31.594  27.687  25.312  1.00  0.00     0.312 C 
ATOM      4  O   UNL A   1      31.143  27.775  24.174  1.00  0.00    -0.252 OA
BRANCH   3   5
ATOM      5  C   UNL A   1      31.240  26.541  26.223  1.00  0.00     0.179 C 
BRANCH   5   6
ATOM      6  C   UNL A   1      32.131  25.349  26.137  1.00  0.00     0.065 A 
ATOM      7  C   UNL A   1      34.077  24.418  25.613  1.00  0.00     0.183 A 
ATOM      8  N   UNL A   1      33.344  25.496  25.478  1.00  0.00    -0.225 NA
ATOM      9  S   UNL A   1      33.287  23.097  26.384  1.00  0.00    -0.105 S 
ATOM     10  C   UNL A   1      31.958  24.113  26.728  1.00  0.00     0.093 A 
BRANCH   7  11
ATOM     11  N   UNL A   1      35.365  24.276  25.267  1.00  0.00    -0.355 N 
ATOM     12  H   UNL A   1      35.945  25.067  25.348  1.00  0.00     0.163 HD
BRANCH  11  13
ATOM     13  C   UNL A   1      35.974  23.049  24.780  1.00  0.00     0.108 C 
ATOM     14  C   UNL A   1      36.178  23.029  23.258  1.00  0.00     0.036 C 
BRANCH  13  15
ATOM     15  C   UNL A   1      37.282  22.909  25.565  1.00  0.00    -0.026 A 
ATOM     16  C   UNL A   1      37.780  24.032  26.254  1.00  0.00     0.006 A 
ATOM     17  C   UNL A   1      38.083  21.757  25.512  1.00  0.00     0.006 A 
ATOM     18  C   UNL A   1      39.045  24.008  26.845  1.00  0.00     0.000 A 
ATOM     19  C   UNL A   1      39.340  21.729  26.118  1.00  0.00     0.000 A 
ATOM     20  C   UNL A   1      39.825  22.858  26.774  1.00  0.00     0.000 A 
ENDBRANCH  13  15
ENDBRANCH  11  13
ENDBRANCH   7  11
ENDBRANCH   5   6
ENDBRANCH   3   5
ENDBRANCH   2   3
ENDBRANCH   1   2
BRANCH   1  21
ATOM     21  C   UNL A   1      32.494  30.832  26.920  1.00  0.00     0.275 C 
BRANCH  21  22
ATOM     22  O   UNL A   1      33.906  30.596  27.062  1.00  0.00    -0.458 OA
BRANCH  22  23
ATOM     23  C   UNL A   1      34.596  31.557  27.713  1.00  0.00     0.338 C 
ATOM     24  O   UNL A   1      34.294  32.730  27.847  1.00  0.00    -0.246 OA
BRANCH  23  25
ATOM     25  C   UNL A   1      35.827  30.987  28.279  1.00  0.00     0.060 A 
ATOM     26  C   UNL A   1      35.834  29.688  28.794  1.00  0.00     0.016 A 
ATOM     27  C   UNL A   1      36.948  31.807  28.398  1.00  0.00     0.016 A 
ATOM     28  C   UNL A   1      36.962  29.217  29.466  1.00  0.00     0.010 A 
ATOM     29  C   UNL A   1      38.092  31.315  29.026  1.00  0.00     0.010 A 
ATOM     30  C   UNL A   1      38.103  30.026  29.585  1.00  0.00    -0.014 A 
BRANCH  30  31
ATOM     31  C   UNL A   1      39.309  29.548  30.305  1.00  0.00     0.031 A 
ATOM     32  C   UNL A   1      39.760  30.237  31.564  1.00  0.00     0.074 A 
ATOM     33  C   UNL A   1      40.024  28.521  29.806  1.00  0.00     0.049 A 
ATOM     34  N   UNL A   1      40.858  30.062  32.252  1.00  0.00    -0.248 NA
ATOM     35  C   UNL A   1      38.860  31.262  32.115  1.00  0.00     0.031 C 
ATOM     36  C   UNL A   1      39.680  27.752  28.609  1.00  0.00     0.029 A 
ATOM     37  N   UNL A   1      41.199  27.959  30.239  1.00  0.00    -0.354 N 
ATOM     38  C   UNL A   1      40.798  30.973  33.301  1.00  0.00     0.074 A 
ATOM     39  C   UNL A   1      39.558  31.706  33.150  1.00  0.00     0.031 C 
ATOM     40  C   UNL A   1      40.622  26.818  28.404  1.00  0.00     0.029 A 
ATOM     41  C   UNL A   1      41.660  26.956  29.420  1.00  0.00     0.049 A 
ATOM     42  H   UNL A   1      41.666  28.247  31.056  1.00  0.00     0.167 HD
ATOM     43  C   UNL A   1      41.694  31.181  34.296  1.00  0.00     0.031 A 
ATOM     44  C   UNL A   1      42.806  26.250  29.462  1.00  0.00     0.031 A 
ATOM     45  C   UNL A   1      42.922  30.448  34.446  1.00  0.00     0.049 A 
ATOM     46  C   UNL A   1      43.806  26.528  30.548  1.00  0.00     0.074 A 
ATOM     47  C   UNL A   1      43.887  30.575  35.430  1.00  0.00     0.029 A 
ATOM     48  N   UNL A   1      43.357  29.447  33.589  1.00  0.00    -0.354 N 
ATOM     49  N   UNL A   1      43.736  27.398  31.527  1.00  0.00    -0.248 NA
ATOM     50  C   UNL A   1      45.042  25.733  30.532  1.00  0.00     0.031 C 
ATOM     51  C   UNL A   1      44.924  29.678  35.147  1.00  0.00     0.029 A 
ATOM     52  C   UNL A   1      44.583  28.962  34.011  1.00  0.00     0.049 A 
ATOM     53  H   UNL A   1      42.866  29.130  32.797  1.00  0.00     0.167 HD
ATOM     54  C   UNL A   1      44.911  27.243  32.254  1.00  0.00     0.074 A 
ATOM     55  C   UNL A   1      45.666  26.188  31.610  1.00  0.00     0.031 C 
ATOM     56  C   UNL A   1      45.324  27.915  33.357  1.00  0.00     0.031 A 
BRANCH  43  57
ATOM     57  C   UNL A   1      41.390  32.273  35.285  1.00  0.00    -0.014 A 
ATOM     58  C   UNL A   1      40.710  32.000  36.485  1.00  0.00     0.010 A 
ATOM     59  C   UNL A   1      41.818  33.587  35.022  1.00  0.00     0.010 A 
ATOM     60  C   UNL A   1      40.431  33.029  37.389  1.00  0.00     0.020 A 
ATOM     61  C   UNL A   1      41.559  34.615  35.933  1.00  0.00     0.020 A 
ATOM     62  C   UNL A   1      40.851  34.333  37.103  1.00  0.00     0.054 A 
BRANCH  62  63
ATOM     63  S   UNL A   1      40.488  35.651  38.296  1.00  0.00     0.124 S 
ATOM     64  O   UNL A   1      41.771  35.803  38.976  1.00  0.00    -0.237 OA
ATOM     65  O   UNL A   1      40.096  36.766  37.437  1.00  0.00    -0.237 OA
ATOM     66  O   UNL A   1      39.412  35.092  39.111  1.00  0.00    -0.744 OA
ENDBRANCH  62  63
ENDBRANCH  43  57
BRANCH  44  67
ATOM     67  C   UNL A   1      43.077  25.225  28.419  1.00  0.00    -0.014 A 
ATOM     68  C   UNL A   1      43.623  25.597  27.179  1.00  0.00     0.010 A 
ATOM     69  C   UNL A   1      42.812  23.867  28.674  1.00  0.00     0.010 A 
ATOM     70  C   UNL A   1      43.892  24.629  26.207  1.00  0.00     0.020 A 
ATOM     71  C   UNL A   1      43.101  22.895  27.714  1.00  0.00     0.020 A 
ATOM     72  C   UNL A   1      43.631  23.284  26.481  1.00  0.00     0.054 A 
BRANCH  72  73
ATOM     73  S   UNL A   1      44.048  22.034  25.233  1.00  0.00     0.124 S 
ATOM     74  O   UNL A   1      45.430  21.714  25.574  1.00  0.00    -0.237 OA
ATOM     75  O   UNL A   1      43.071  20.981  25.497  1.00  0.00    -0.237 OA
ATOM     76  O   UNL A   1      43.861  22.742  23.968  1.00  0.00    -0.744 OA
ENDBRANCH  72  73
ENDBRANCH  44  67
BRANCH  56  77
ATOM     77  C   UNL A   1      46.644  27.509  33.953  1.00  0.00    -0.014 A 
ATOM     78  C   UNL A   1      46.723  26.485  34.913  1.00  0.00     0.010 A 
ATOM     79  C   UNL A   1      47.826  28.132  33.512  1.00  0.00     0.010 A 
ATOM     80  C   UNL A   1      47.960  26.109  35.444  1.00  0.00     0.020 A 
ATOM     81  C   UNL A   1      49.067  27.745  34.024  1.00  0.00     0.020 A 
ATOM     82  C   UNL A   1      49.124  26.744  34.997  1.00  0.00     0.054 A 
BRANCH  82  83
ATOM     83  S   UNL A   1      50.724  26.213  35.669  1.00  0.00     0.124 S 
ATOM     84  O   UNL A   1      51.633  26.521  34.568  1.00  0.00    -0.237 OA
ATOM     85  O   UNL A   1      50.871  27.049  36.857  1.00  0.00    -0.237 OA
ATOM     86  O   UNL A   1      50.530  24.790  35.937  1.00  0.00    -0.744 OA
ENDBRANCH  82  83
ENDBRANCH  56  77
ENDBRANCH  30  31
ENDBRANCH  23  25
ENDBRANCH  22  23
ENDBRANCH  21  22
ENDBRANCH   1  21
TORSDOF 18
ENDMDL
