MODEL 1
REMARK VINA RESULT:     -10.6      0.000      0.000
REMARK SMILES CC[C@@H](C(=O)OCCOC(=O)c1ccc(-c2c3nc(c(-c4ccc(S(=O)(=O)[O-])cc4)c4ccc([nH]4)c(-c4ccc(S(=O)(=O)[O-])cc4)c4nc(c(-c5ccc(S(=O)(=O)[O-])cc5)c5ccc2[nH]5)C=C4)C=C3)cc1)N(C)C(=O)N(C)C[C@@H]1CCC[N@H+]1C
REMARK SMILES IDX 7 1 6 2 4 3 5 4 3 5 2 6 1 7 72 8 73 9 74 10 75 11 76 12
REMARK SMILES IDX 77 13 78 14 79 15 80 16 83 17 81 18 82 19 84 20 8 22 9 23
REMARK SMILES IDX 10 24 11 25 12 26 13 27 71 28 14 29 70 30 15 31 16 32 17 33
REMARK SMILES IDX 64 34 18 35 69 36 63 37 65 38 19 39 68 40 62 41 61 42 20 44
REMARK SMILES IDX 50 45 31 46 49 47 32 48 35 49 48 50 66 51 33 52 34 53 47 55
REMARK SMILES IDX 67 56 36 57 21 58 22 59 30 60 23 61 29 62 24 63 25 64 26 65
REMARK SMILES IDX 27 66 28 67 51 68 52 69 60 70 53 71 59 72 54 73 55 74 56 75
REMARK SMILES IDX 57 76 58 77 37 78 38 79 46 80 39 81 45 82 40 83 41 84 42 85
REMARK SMILES IDX 43 86 44 87
REMARK H PARENT 83 21 65 43 35 54
REMARK Flexibility Score: inf
ROOT
ATOM      1  C   UNL A   1      32.740  27.948  27.118  1.00  0.00     0.274 C 
ENDROOT
BRANCH   1   2
ATOM      2  O   UNL A   1      32.458  27.574  25.753  1.00  0.00    -0.461 OA
BRANCH   2   3
ATOM      3  C   UNL A   1      31.482  26.628  25.603  1.00  0.00     0.329 C 
ATOM      4  O   UNL A   1      30.801  26.217  26.516  1.00  0.00    -0.250 OA
BRANCH   3   5
ATOM      5  C   UNL A   1      31.345  26.086  24.157  1.00  0.00     0.196 C 
BRANCH   5   6
ATOM      6  C   UNL A   1      30.119  26.513  23.339  1.00  0.00     0.034 C 
ATOM      7  C   UNL A   1      29.755  27.990  23.522  1.00  0.00     0.007 C 
ENDBRANCH   5   6
BRANCH   5   8
ATOM      8  N   UNL A   1      31.812  24.666  23.968  1.00  0.00    -0.314 N 
ATOM      9  C   UNL A   1      30.715  23.822  23.464  1.00  0.00     0.149 C 
BRANCH   8  10
ATOM     10  C   UNL A   1      33.190  24.306  24.152  1.00  0.00     0.320 C 
ATOM     11  O   UNL A   1      34.070  24.848  23.483  1.00  0.00    -0.248 OA
BRANCH  10  12
ATOM     12  N   UNL A   1      33.554  23.406  25.212  1.00  0.00    -0.322 N 
ATOM     13  C   UNL A   1      33.985  24.100  26.413  1.00  0.00     0.149 C 
BRANCH  12  14
ATOM     14  C   UNL A   1      34.253  22.012  24.939  1.00  0.00     0.185 C 
BRANCH  14  15
ATOM     15  C   UNL A   1      33.834  20.417  24.365  1.00  0.00     0.203 C 
ATOM     16  C   UNL A   1      32.479  19.637  24.133  1.00  0.00     0.073 C 
ATOM     17  N   UNL A   1      34.610  19.307  24.990  1.00  0.00    -0.333 N 
ATOM     18  C   UNL A   1      32.672  18.149  24.293  1.00  0.00     0.068 C 
ATOM     19  C   UNL A   1      34.153  18.027  24.410  1.00  0.00     0.262 C 
ATOM     20  C   UNL A   1      36.051  19.399  24.822  1.00  0.00     0.333 C 
ATOM     21  H   UNL A   1      34.435  19.371  25.992  1.00  0.00     0.348 HD
ENDBRANCH  14  15
ENDBRANCH  12  14
ENDBRANCH  10  12
ENDBRANCH   8  10
ENDBRANCH   5   8
ENDBRANCH   3   5
ENDBRANCH   2   3
ENDBRANCH   1   2
BRANCH   1  22
ATOM     22  C   UNL A   1      32.795  29.468  27.305  1.00  0.00     0.275 C 
BRANCH  22  23
ATOM     23  O   UNL A   1      34.090  29.995  26.914  1.00  0.00    -0.458 OA
BRANCH  23  24
ATOM     24  C   UNL A   1      34.757  30.502  27.974  1.00  0.00     0.338 C 
ATOM     25  O   UNL A   1      34.343  31.468  28.614  1.00  0.00    -0.246 OA
BRANCH  24  26
ATOM     26  C   UNL A   1      36.046  29.866  28.377  1.00  0.00     0.060 A 
ATOM     27  C   UNL A   1      36.564  29.535  29.636  1.00  0.00     0.016 A 
ATOM     28  C   UNL A   1      36.953  29.902  27.357  1.00  0.00     0.016 A 
ATOM     29  C   UNL A   1      38.004  29.339  29.840  1.00  0.00     0.010 A 
ATOM     30  C   UNL A   1      38.316  29.795  27.639  1.00  0.00     0.010 A 
ATOM     31  C   UNL A   1      38.971  29.504  28.822  1.00  0.00    -0.014 A 
BRANCH  31  32
ATOM     32  C   UNL A   1      40.516  29.177  28.837  1.00  0.00     0.031 A 
ATOM     33  C   UNL A   1      41.821  30.092  28.964  1.00  0.00     0.074 A 
ATOM     34  C   UNL A   1      40.863  27.934  28.455  1.00  0.00     0.049 A 
ATOM     35  N   UNL A   1      42.969  30.086  28.286  1.00  0.00    -0.248 NA
ATOM     36  C   UNL A   1      41.913  31.055  30.048  1.00  0.00     0.031 C 
ATOM     37  C   UNL A   1      39.941  26.837  28.203  1.00  0.00     0.029 A 
ATOM     38  N   UNL A   1      42.108  27.405  28.196  1.00  0.00    -0.354 N 
ATOM     39  C   UNL A   1      43.716  31.228  28.683  1.00  0.00     0.074 A 
ATOM     40  C   UNL A   1      42.959  31.823  29.754  1.00  0.00     0.031 C 
ATOM     41  C   UNL A   1      40.645  25.746  27.890  1.00  0.00     0.029 A 
ATOM     42  C   UNL A   1      42.062  26.093  27.812  1.00  0.00     0.049 A 
ATOM     43  H   UNL A   1      42.944  27.918  28.280  1.00  0.00     0.167 HD
ATOM     44  C   UNL A   1      44.945  31.703  28.297  1.00  0.00     0.031 A 
ATOM     45  C   UNL A   1      43.019  25.243  27.402  1.00  0.00     0.031 A 
ATOM     46  C   UNL A   1      45.964  30.874  27.687  1.00  0.00     0.049 A 
ATOM     47  C   UNL A   1      44.453  25.643  27.266  1.00  0.00     0.074 A 
ATOM     48  C   UNL A   1      47.268  31.204  27.334  1.00  0.00     0.029 A 
ATOM     49  N   UNL A   1      45.852  29.511  27.519  1.00  0.00    -0.354 N 
ATOM     50  N   UNL A   1      44.988  26.834  27.330  1.00  0.00    -0.248 NA
ATOM     51  C   UNL A   1      45.413  24.560  27.008  1.00  0.00     0.031 C 
ATOM     52  C   UNL A   1      47.954  30.032  26.993  1.00  0.00     0.029 A 
ATOM     53  C   UNL A   1      47.080  28.977  27.167  1.00  0.00     0.049 A 
ATOM     54  H   UNL A   1      45.022  28.992  27.635  1.00  0.00     0.167 HD
ATOM     55  C   UNL A   1      46.351  26.639  27.125  1.00  0.00     0.074 A 
ATOM     56  C   UNL A   1      46.563  25.220  26.968  1.00  0.00     0.031 C 
ATOM     57  C   UNL A   1      47.330  27.570  27.056  1.00  0.00     0.031 A 
BRANCH  44  58
ATOM     58  C   UNL A   1      45.359  33.172  28.503  1.00  0.00    -0.014 A 
ATOM     59  C   UNL A   1      46.203  33.645  29.520  1.00  0.00     0.010 A 
ATOM     60  C   UNL A   1      45.014  34.094  27.480  1.00  0.00     0.010 A 
ATOM     61  C   UNL A   1      46.622  34.994  29.549  1.00  0.00     0.020 A 
ATOM     62  C   UNL A   1      45.442  35.428  27.486  1.00  0.00     0.020 A 
ATOM     63  C   UNL A   1      46.228  35.880  28.539  1.00  0.00     0.054 A 
BRANCH  63  64
ATOM     64  S   UNL A   1      46.807  37.605  28.555  1.00  0.00     0.124 S 
ATOM     65  O   UNL A   1      47.203  37.803  27.163  1.00  0.00    -0.237 OA
ATOM     66  O   UNL A   1      45.624  38.351  28.980  1.00  0.00    -0.237 OA
ATOM     67  O   UNL A   1      47.906  37.591  29.518  1.00  0.00    -0.744 OA
ENDBRANCH  63  64
ENDBRANCH  44  58
BRANCH  45  68
ATOM     68  C   UNL A   1      42.602  23.851  27.140  1.00  0.00    -0.014 A 
ATOM     69  C   UNL A   1      42.423  23.434  25.811  1.00  0.00     0.010 A 
ATOM     70  C   UNL A   1      42.528  22.923  28.193  1.00  0.00     0.010 A 
ATOM     71  C   UNL A   1      42.174  22.095  25.536  1.00  0.00     0.020 A 
ATOM     72  C   UNL A   1      42.311  21.577  27.913  1.00  0.00     0.020 A 
ATOM     73  C   UNL A   1      42.128  21.174  26.587  1.00  0.00     0.054 A 
BRANCH  73  74
ATOM     74  S   UNL A   1      41.915  19.421  26.195  1.00  0.00     0.124 S 
ATOM     75  O   UNL A   1      42.781  19.269  25.030  1.00  0.00    -0.237 OA
ATOM     76  O   UNL A   1      42.374  18.762  27.415  1.00  0.00    -0.237 OA
ATOM     77  O   UNL A   1      40.482  19.305  25.935  1.00  0.00    -0.744 OA
ENDBRANCH  73  74
ENDBRANCH  45  68
BRANCH  57  78
ATOM     78  C   UNL A   1      48.747  27.100  26.885  1.00  0.00    -0.014 A 
ATOM     79  C   UNL A   1      49.602  26.949  27.990  1.00  0.00     0.010 A 
ATOM     80  C   UNL A   1      49.218  26.777  25.601  1.00  0.00     0.010 A 
ATOM     81  C   UNL A   1      50.920  26.518  27.807  1.00  0.00     0.020 A 
ATOM     82  C   UNL A   1      50.530  26.332  25.415  1.00  0.00     0.020 A 
ATOM     83  C   UNL A   1      51.379  26.221  26.520  1.00  0.00     0.054 A 
BRANCH  83  84
ATOM     84  S   UNL A   1      53.089  25.653  26.311  1.00  0.00     0.124 S 
ATOM     85  O   UNL A   1      53.621  26.631  25.367  1.00  0.00    -0.237 OA
ATOM     86  O   UNL A   1      53.623  25.735  27.669  1.00  0.00    -0.237 OA
ATOM     87  O   UNL A   1      52.943  24.297  25.787  1.00  0.00    -0.744 OA
ENDBRANCH  83  84
ENDBRANCH  57  78
ENDBRANCH  31  32
ENDBRANCH  24  26
ENDBRANCH  23  24
ENDBRANCH  22  23
ENDBRANCH   1  22
TORSDOF 20
ENDMDL
MODEL 2
REMARK VINA RESULT:      -9.7      2.824      8.446
REMARK SMILES CC[C@@H](C(=O)OCCOC(=O)c1ccc(-c2c3nc(c(-c4ccc(S(=O)(=O)[O-])cc4)c4ccc([nH]4)c(-c4ccc(S(=O)(=O)[O-])cc4)c4nc(c(-c5ccc(S(=O)(=O)[O-])cc5)c5ccc2[nH]5)C=C4)C=C3)cc1)N(C)C(=O)N(C)C[C@@H]1CCC[N@H+]1C
REMARK SMILES IDX 7 1 6 2 4 3 5 4 3 5 2 6 1 7 72 8 73 9 74 10 75 11 76 12
REMARK SMILES IDX 77 13 78 14 79 15 80 16 83 17 81 18 82 19 84 20 8 22 9 23
REMARK SMILES IDX 10 24 11 25 12 26 13 27 71 28 14 29 70 30 15 31 16 32 17 33
REMARK SMILES IDX 64 34 18 35 69 36 63 37 65 38 19 39 68 40 62 41 61 42 20 44
REMARK SMILES IDX 50 45 31 46 49 47 32 48 35 49 48 50 66 51 33 52 34 53 47 55
REMARK SMILES IDX 67 56 36 57 21 58 22 59 30 60 23 61 29 62 24 63 25 64 26 65
REMARK SMILES IDX 27 66 28 67 51 68 52 69 60 70 53 71 59 72 54 73 55 74 56 75
REMARK SMILES IDX 57 76 58 77 37 78 38 79 46 80 39 81 45 82 40 83 41 84 42 85
REMARK SMILES IDX 43 86 44 87
REMARK H PARENT 83 21 65 43 35 54
REMARK Flexibility Score: inf
ROOT
ATOM      1  C   UNL A   1      35.899  23.239  23.522  1.00  0.00     0.274 C 
ENDROOT
BRANCH   1   2
ATOM      2  O   UNL A   1      34.836  22.988  22.578  1.00  0.00    -0.461 OA
BRANCH   2   3
ATOM      3  C   UNL A   1      33.755  23.816  22.693  1.00  0.00     0.329 C 
ATOM      4  O   UNL A   1      33.627  24.843  22.063  1.00  0.00    -0.250 OA
BRANCH   3   5
ATOM      5  C   UNL A   1      32.710  23.351  23.740  1.00  0.00     0.196 C 
BRANCH   5   6
ATOM      6  C   UNL A   1      32.263  21.884  23.710  1.00  0.00     0.034 C 
ATOM      7  C   UNL A   1      32.353  21.196  25.076  1.00  0.00     0.007 C 
ENDBRANCH   5   6
BRANCH   5   8
ATOM      8  N   UNL A   1      31.647  24.367  24.067  1.00  0.00    -0.314 N 
ATOM      9  C   UNL A   1      30.401  24.064  23.344  1.00  0.00     0.149 C 
BRANCH   8  10
ATOM     10  C   UNL A   1      31.868  25.380  25.061  1.00  0.00     0.320 C 
ATOM     11  O   UNL A   1      31.416  25.246  26.198  1.00  0.00    -0.248 OA
BRANCH  10  12
ATOM     12  N   UNL A   1      32.729  26.492  24.763  1.00  0.00    -0.322 N 
ATOM     13  C   UNL A   1      33.701  26.744  25.813  1.00  0.00     0.149 C 
BRANCH  12  14
ATOM     14  C   UNL A   1      32.225  27.769  23.977  1.00  0.00     0.185 C 
BRANCH  14  15
ATOM     15  C   UNL A   1      30.755  28.684  23.752  1.00  0.00     0.203 C 
ATOM     16  C   UNL A   1      29.692  28.818  22.589  1.00  0.00     0.073 C 
ATOM     17  N   UNL A   1      30.862  30.130  24.104  1.00  0.00    -0.333 N 
ATOM     18  C   UNL A   1      29.042  30.180  22.598  1.00  0.00     0.068 C 
ATOM     19  C   UNL A   1      29.552  30.772  23.867  1.00  0.00     0.262 C 
ATOM     20  C   UNL A   1      31.263  30.397  25.475  1.00  0.00     0.333 C 
ATOM     21  H   UNL A   1      31.600  30.510  23.512  1.00  0.00     0.348 HD
ENDBRANCH  14  15
ENDBRANCH  12  14
ENDBRANCH  10  12
ENDBRANCH   8  10
ENDBRANCH   5   8
ENDBRANCH   3   5
ENDBRANCH   2   3
ENDBRANCH   1   2
BRANCH   1  22
ATOM     22  C   UNL A   1      35.952  22.182  24.631  1.00  0.00     0.275 C 
BRANCH  22  23
ATOM     23  O   UNL A   1      36.675  22.677  25.789  1.00  0.00    -0.458 OA
BRANCH  23  24
ATOM     24  C   UNL A   1      37.923  22.162  25.848  1.00  0.00     0.338 C 
ATOM     25  O   UNL A   1      38.180  21.014  25.488  1.00  0.00    -0.246 OA
BRANCH  24  26
ATOM     26  C   UNL A   1      39.024  23.020  26.374  1.00  0.00     0.060 A 
ATOM     27  C   UNL A   1      40.077  22.741  27.255  1.00  0.00     0.016 A 
ATOM     28  C   UNL A   1      38.755  24.344  26.177  1.00  0.00     0.016 A 
ATOM     29  C   UNL A   1      40.769  23.814  27.981  1.00  0.00     0.010 A 
ATOM     30  C   UNL A   1      39.390  25.304  26.967  1.00  0.00     0.010 A 
ATOM     31  C   UNL A   1      40.413  25.179  27.890  1.00  0.00    -0.014 A 
BRANCH  31  32
ATOM     32  C   UNL A   1      41.146  26.452  28.468  1.00  0.00     0.031 A 
ATOM     33  C   UNL A   1      40.650  27.682  29.360  1.00  0.00     0.074 A 
ATOM     34  C   UNL A   1      42.366  26.714  27.964  1.00  0.00     0.049 A 
ATOM     35  N   UNL A   1      40.868  28.993  29.250  1.00  0.00    -0.248 NA
ATOM     36  C   UNL A   1      39.918  27.422  30.589  1.00  0.00     0.031 C 
ATOM     37  C   UNL A   1      43.121  25.842  27.078  1.00  0.00     0.029 A 
ATOM     38  N   UNL A   1      43.170  27.821  28.127  1.00  0.00    -0.354 N 
ATOM     39  C   UNL A   1      40.043  29.654  30.201  1.00  0.00     0.074 A 
ATOM     40  C   UNL A   1      39.430  28.600  30.967  1.00  0.00     0.031 C 
ATOM     41  C   UNL A   1      44.305  26.407  26.823  1.00  0.00     0.029 A 
ATOM     42  C   UNL A   1      44.349  27.731  27.438  1.00  0.00     0.049 A 
ATOM     43  H   UNL A   1      42.922  28.595  28.682  1.00  0.00     0.167 HD
ATOM     44  C   UNL A   1      39.869  30.982  30.502  1.00  0.00     0.031 A 
ATOM     45  C   UNL A   1      45.357  28.604  27.267  1.00  0.00     0.031 A 
ATOM     46  C   UNL A   1      40.844  32.005  30.187  1.00  0.00     0.049 A 
ATOM     47  C   UNL A   1      45.346  29.978  27.853  1.00  0.00     0.074 A 
ATOM     48  C   UNL A   1      40.834  33.358  30.512  1.00  0.00     0.029 A 
ATOM     49  N   UNL A   1      42.086  31.748  29.647  1.00  0.00    -0.354 N 
ATOM     50  N   UNL A   1      44.369  30.621  28.436  1.00  0.00    -0.248 NA
ATOM     51  C   UNL A   1      46.599  30.742  27.755  1.00  0.00     0.031 C 
ATOM     52  C   UNL A   1      42.084  33.906  30.204  1.00  0.00     0.029 A 
ATOM     53  C   UNL A   1      42.876  32.883  29.719  1.00  0.00     0.049 A 
ATOM     54  H   UNL A   1      42.370  30.885  29.267  1.00  0.00     0.167 HD
ATOM     55  C   UNL A   1      44.895  31.862  28.781  1.00  0.00     0.074 A 
ATOM     56  C   UNL A   1      46.279  31.872  28.371  1.00  0.00     0.031 C 
ATOM     57  C   UNL A   1      44.265  32.906  29.370  1.00  0.00     0.031 A 
BRANCH  44  58
ATOM     58  C   UNL A   1      38.616  31.501  31.230  1.00  0.00    -0.014 A 
ATOM     59  C   UNL A   1      38.527  31.778  32.604  1.00  0.00     0.010 A 
ATOM     60  C   UNL A   1      37.519  31.909  30.425  1.00  0.00     0.010 A 
ATOM     61  C   UNL A   1      37.368  32.368  33.153  1.00  0.00     0.020 A 
ATOM     62  C   UNL A   1      36.373  32.516  30.957  1.00  0.00     0.020 A 
ATOM     63  C   UNL A   1      36.293  32.722  32.329  1.00  0.00     0.054 A 
BRANCH  63  64
ATOM     64  S   UNL A   1      34.820  33.525  33.033  1.00  0.00     0.124 S 
ATOM     65  O   UNL A   1      34.960  34.894  32.545  1.00  0.00    -0.237 OA
ATOM     66  O   UNL A   1      33.715  32.764  32.454  1.00  0.00    -0.237 OA
ATOM     67  O   UNL A   1      34.993  33.358  34.475  1.00  0.00    -0.744 OA
ENDBRANCH  63  64
ENDBRANCH  44  58
BRANCH  45  68
ATOM     68  C   UNL A   1      46.528  28.121  26.508  1.00  0.00    -0.014 A 
ATOM     69  C   UNL A   1      46.525  28.233  25.108  1.00  0.00     0.010 A 
ATOM     70  C   UNL A   1      47.684  27.694  27.184  1.00  0.00     0.010 A 
ATOM     71  C   UNL A   1      47.671  27.922  24.388  1.00  0.00     0.020 A 
ATOM     72  C   UNL A   1      48.842  27.415  26.464  1.00  0.00     0.020 A 
ATOM     73  C   UNL A   1      48.825  27.524  25.071  1.00  0.00     0.054 A 
BRANCH  73  74
ATOM     74  S   UNL A   1      50.337  27.233  24.122  1.00  0.00     0.124 S 
ATOM     75  O   UNL A   1      49.805  26.714  22.866  1.00  0.00    -0.237 OA
ATOM     76  O   UNL A   1      50.934  28.565  24.055  1.00  0.00    -0.237 OA
ATOM     77  O   UNL A   1      51.071  26.273  24.942  1.00  0.00    -0.744 OA
ENDBRANCH  73  74
ENDBRANCH  45  68
BRANCH  57  78
ATOM     78  C   UNL A   1      45.072  34.130  29.696  1.00  0.00    -0.014 A 
ATOM     79  C   UNL A   1      45.235  35.165  28.760  1.00  0.00     0.010 A 
ATOM     80  C   UNL A   1      45.652  34.257  30.971  1.00  0.00     0.010 A 
ATOM     81  C   UNL A   1      45.998  36.292  29.082  1.00  0.00     0.020 A 
ATOM     82  C   UNL A   1      46.404  35.388  31.302  1.00  0.00     0.020 A 
ATOM     83  C   UNL A   1      46.585  36.393  30.347  1.00  0.00     0.054 A 
BRANCH  83  84
ATOM     84  S   UNL A   1      47.560  37.870  30.743  1.00  0.00     0.124 S 
ATOM     85  O   UNL A   1      47.698  38.503  29.434  1.00  0.00    -0.237 OA
ATOM     86  O   UNL A   1      46.705  38.575  31.695  1.00  0.00    -0.237 OA
ATOM     87  O   UNL A   1      48.796  37.330  31.306  1.00  0.00    -0.744 OA
ENDBRANCH  83  84
ENDBRANCH  57  78
ENDBRANCH  31  32
ENDBRANCH  24  26
ENDBRANCH  23  24
ENDBRANCH  22  23
ENDBRANCH   1  22
TORSDOF 20
ENDMDL
MODEL 3
REMARK VINA RESULT:      -9.7      2.783      8.328
REMARK SMILES CC[C@@H](C(=O)OCCOC(=O)c1ccc(-c2c3nc(c(-c4ccc(S(=O)(=O)[O-])cc4)c4ccc([nH]4)c(-c4ccc(S(=O)(=O)[O-])cc4)c4nc(c(-c5ccc(S(=O)(=O)[O-])cc5)c5ccc2[nH]5)C=C4)C=C3)cc1)N(C)C(=O)N(C)C[C@@H]1CCC[N@H+]1C
REMARK SMILES IDX 7 1 6 2 4 3 5 4 3 5 2 6 1 7 72 8 73 9 74 10 75 11 76 12
REMARK SMILES IDX 77 13 78 14 79 15 80 16 83 17 81 18 82 19 84 20 8 22 9 23
REMARK SMILES IDX 10 24 11 25 12 26 13 27 71 28 14 29 70 30 15 31 16 32 17 33
REMARK SMILES IDX 64 34 18 35 69 36 63 37 65 38 19 39 68 40 62 41 61 42 20 44
REMARK SMILES IDX 50 45 31 46 49 47 32 48 35 49 48 50 66 51 33 52 34 53 47 55
REMARK SMILES IDX 67 56 36 57 21 58 22 59 30 60 23 61 29 62 24 63 25 64 26 65
REMARK SMILES IDX 27 66 28 67 51 68 52 69 60 70 53 71 59 72 54 73 55 74 56 75
REMARK SMILES IDX 57 76 58 77 37 78 38 79 46 80 39 81 45 82 40 83 41 84 42 85
REMARK SMILES IDX 43 86 44 87
REMARK H PARENT 83 21 65 43 35 54
REMARK Flexibility Score: inf
ROOT
ATOM      1  C   UNL A   1      34.512  22.477  24.219  1.00  0.00     0.274 C 
ENDROOT
BRANCH   1   2
ATOM      2  O   UNL A   1      33.564  21.400  24.058  1.00  0.00    -0.461 OA
BRANCH   2   3
ATOM      3  C   UNL A   1      32.573  21.359  24.999  1.00  0.00     0.329 C 
ATOM      4  O   UNL A   1      31.796  20.438  25.114  1.00  0.00    -0.250 OA
BRANCH   3   5
ATOM      5  C   UNL A   1      32.498  22.624  25.893  1.00  0.00     0.196 C 
BRANCH   5   6
ATOM      6  C   UNL A   1      32.956  22.505  27.352  1.00  0.00     0.034 C 
ATOM      7  C   UNL A   1      34.061  21.464  27.556  1.00  0.00     0.007 C 
ENDBRANCH   5   6
BRANCH   5   8
ATOM      8  N   UNL A   1      31.305  23.509  25.637  1.00  0.00    -0.314 N 
ATOM      9  C   UNL A   1      30.145  23.052  26.419  1.00  0.00     0.149 C 
BRANCH   8  10
ATOM     10  C   UNL A   1      31.416  24.691  24.829  1.00  0.00     0.320 C 
ATOM     11  O   UNL A   1      32.140  24.699  23.833  1.00  0.00    -0.248 OA
BRANCH  10  12
ATOM     12  N   UNL A   1      30.578  25.825  25.110  1.00  0.00    -0.322 N 
ATOM     13  C   UNL A   1      29.626  26.094  24.046  1.00  0.00     0.149 C 
BRANCH  12  14
ATOM     14  C   UNL A   1      31.103  27.094  25.896  1.00  0.00     0.185 C 
BRANCH  14  15
ATOM     15  C   UNL A   1      32.545  28.072  26.008  1.00  0.00     0.203 C 
ATOM     16  C   UNL A   1      33.980  27.873  26.640  1.00  0.00     0.073 C 
ATOM     17  N   UNL A   1      32.311  29.475  26.457  1.00  0.00    -0.333 N 
ATOM     18  C   UNL A   1      34.578  29.193  27.064  1.00  0.00     0.068 C 
ATOM     19  C   UNL A   1      33.611  30.179  26.503  1.00  0.00     0.262 C 
ATOM     20  C   UNL A   1      31.404  30.242  25.620  1.00  0.00     0.333 C 
ATOM     21  H   UNL A   1      31.867  29.408  27.372  1.00  0.00     0.348 HD
ENDBRANCH  14  15
ENDBRANCH  12  14
ENDBRANCH  10  12
ENDBRANCH   8  10
ENDBRANCH   5   8
ENDBRANCH   3   5
ENDBRANCH   2   3
ENDBRANCH   1   2
BRANCH   1  22
ATOM     22  C   UNL A   1      35.953  21.969  24.337  1.00  0.00     0.275 C 
BRANCH  22  23
ATOM     23  O   UNL A   1      36.651  22.625  25.428  1.00  0.00    -0.458 OA
BRANCH  23  24
ATOM     24  C   UNL A   1      37.857  22.058  25.654  1.00  0.00     0.338 C 
ATOM     25  O   UNL A   1      38.095  20.883  25.379  1.00  0.00    -0.246 OA
BRANCH  24  26
ATOM     26  C   UNL A   1      38.934  22.892  26.263  1.00  0.00     0.060 A 
ATOM     27  C   UNL A   1      39.979  22.564  27.137  1.00  0.00     0.016 A 
ATOM     28  C   UNL A   1      38.643  24.222  26.164  1.00  0.00     0.016 A 
ATOM     29  C   UNL A   1      40.638  23.589  27.955  1.00  0.00     0.010 A 
ATOM     30  C   UNL A   1      39.248  25.129  27.037  1.00  0.00     0.010 A 
ATOM     31  C   UNL A   1      40.258  24.951  27.963  1.00  0.00    -0.014 A 
BRANCH  31  32
ATOM     32  C   UNL A   1      40.959  26.188  28.650  1.00  0.00     0.031 A 
ATOM     33  C   UNL A   1      40.393  27.484  29.395  1.00  0.00     0.074 A 
ATOM     34  C   UNL A   1      42.272  26.341  28.399  1.00  0.00     0.049 A 
ATOM     35  N   UNL A   1      40.732  28.771  29.303  1.00  0.00    -0.248 NA
ATOM     36  C   UNL A   1      39.410  27.325  30.454  1.00  0.00     0.031 C 
ATOM     37  C   UNL A   1      43.119  25.383  27.705  1.00  0.00     0.029 A 
ATOM     38  N   UNL A   1      43.112  27.391  28.698  1.00  0.00    -0.354 N 
ATOM     39  C   UNL A   1      39.787  29.526  30.051  1.00  0.00     0.074 A 
ATOM     40  C   UNL A   1      38.951  28.549  30.699  1.00  0.00     0.031 C 
ATOM     41  C   UNL A   1      44.370  25.850  27.684  1.00  0.00     0.029 A 
ATOM     42  C   UNL A   1      44.395  27.190  28.266  1.00  0.00     0.049 A 
ATOM     43  H   UNL A   1      42.820  28.202  29.173  1.00  0.00     0.167 HD
ATOM     44  C   UNL A   1      39.662  30.873  30.280  1.00  0.00     0.031 A 
ATOM     45  C   UNL A   1      45.482  27.979  28.284  1.00  0.00     0.031 A 
ATOM     46  C   UNL A   1      40.758  31.810  30.148  1.00  0.00     0.049 A 
ATOM     47  C   UNL A   1      45.463  29.373  28.824  1.00  0.00     0.074 A 
ATOM     48  C   UNL A   1      40.790  33.171  30.433  1.00  0.00     0.029 A 
ATOM     49  N   UNL A   1      42.059  31.443  29.878  1.00  0.00    -0.354 N 
ATOM     50  N   UNL A   1      44.442  30.106  29.182  1.00  0.00    -0.248 NA
ATOM     51  C   UNL A   1      46.766  30.038  28.966  1.00  0.00     0.031 C 
ATOM     52  C   UNL A   1      42.116  33.614  30.374  1.00  0.00     0.029 A 
ATOM     53  C   UNL A   1      42.905  32.518  30.084  1.00  0.00     0.049 A 
ATOM     54  H   UNL A   1      42.345  30.547  29.582  1.00  0.00     0.167 HD
ATOM     55  C   UNL A   1      44.985  31.318  29.599  1.00  0.00     0.074 A 
ATOM     56  C   UNL A   1      46.419  31.211  29.479  1.00  0.00     0.031 C 
ATOM     57  C   UNL A   1      44.334  32.426  30.024  1.00  0.00     0.031 A 
BRANCH  44  58
ATOM     58  C   UNL A   1      38.333  31.510  30.726  1.00  0.00    -0.014 A 
ATOM     59  C   UNL A   1      38.048  31.982  32.017  1.00  0.00     0.010 A 
ATOM     60  C   UNL A   1      37.386  31.814  29.713  1.00  0.00     0.010 A 
ATOM     61  C   UNL A   1      36.841  32.662  32.293  1.00  0.00     0.020 A 
ATOM     62  C   UNL A   1      36.196  32.508  29.971  1.00  0.00     0.020 A 
ATOM     63  C   UNL A   1      35.917  32.909  31.271  1.00  0.00     0.054 A 
BRANCH  63  64
ATOM     64  S   UNL A   1      34.385  33.827  31.621  1.00  0.00     0.124 S 
ATOM     65  O   UNL A   1      33.802  33.960  30.288  1.00  0.00    -0.237 OA
ATOM     66  O   UNL A   1      33.665  32.940  32.532  1.00  0.00    -0.237 OA
ATOM     67  O   UNL A   1      34.859  35.073  32.220  1.00  0.00    -0.744 OA
ENDBRANCH  63  64
ENDBRANCH  44  58
BRANCH  45  68
ATOM     68  C   UNL A   1      46.740  27.384  27.791  1.00  0.00    -0.014 A 
ATOM     69  C   UNL A   1      47.126  27.615  26.460  1.00  0.00     0.010 A 
ATOM     70  C   UNL A   1      47.607  26.724  28.677  1.00  0.00     0.010 A 
ATOM     71  C   UNL A   1      48.372  27.189  26.018  1.00  0.00     0.020 A 
ATOM     72  C   UNL A   1      48.869  26.327  28.242  1.00  0.00     0.020 A 
ATOM     73  C   UNL A   1      49.239  26.556  26.914  1.00  0.00     0.054 A 
BRANCH  73  74
ATOM     74  S   UNL A   1      50.899  26.112  26.347  1.00  0.00     0.124 S 
ATOM     75  O   UNL A   1      51.020  24.740  26.829  1.00  0.00    -0.237 OA
ATOM     76  O   UNL A   1      50.795  26.269  24.899  1.00  0.00    -0.237 OA
ATOM     77  O   UNL A   1      51.755  27.092  27.011  1.00  0.00    -0.744 OA
ENDBRANCH  73  74
ENDBRANCH  45  68
BRANCH  57  78
ATOM     78  C   UNL A   1      45.154  33.600  30.480  1.00  0.00    -0.014 A 
ATOM     79  C   UNL A   1      45.616  33.694  31.803  1.00  0.00     0.010 A 
ATOM     80  C   UNL A   1      45.489  34.609  29.560  1.00  0.00     0.010 A 
ATOM     81  C   UNL A   1      46.371  34.800  32.209  1.00  0.00     0.020 A 
ATOM     82  C   UNL A   1      46.255  35.709  29.957  1.00  0.00     0.020 A 
ATOM     83  C   UNL A   1      46.678  35.805  31.286  1.00  0.00     0.054 A 
BRANCH  83  84
ATOM     84  S   UNL A   1      47.667  37.222  31.835  1.00  0.00     0.124 S 
ATOM     85  O   UNL A   1      46.671  38.040  32.523  1.00  0.00    -0.237 OA
ATOM     86  O   UNL A   1      48.672  36.600  32.695  1.00  0.00    -0.237 OA
ATOM     87  O   UNL A   1      48.185  37.788  30.591  1.00  0.00    -0.744 OA
ENDBRANCH  83  84
ENDBRANCH  57  78
ENDBRANCH  31  32
ENDBRANCH  24  26
ENDBRANCH  23  24
ENDBRANCH  22  23
ENDBRANCH   1  22
TORSDOF 20
ENDMDL
