MODEL 1
REMARK VINA RESULT:     -11.7      0.000      0.000
REMARK SMILES O=C(OCCOC(=O)[C@H]1Cc2ccc(Cl)cc2C[N@@H+]1Cc1ccc(Cl)cc1)c1ccc(-c2c3nc(c(-c4ccc(S(=O)(=O)[O-])cc4)c4ccc([nH]4)c(-c4ccc(S(=O)(=O)[O-])cc4)c4nc(c(-c5ccc(S(=O)(=O)[O-])cc5)c5ccc2[nH]5)C=C4)C=C3)cc1
REMARK SMILES IDX 4 1 3 2 2 3 1 4 28 5 29 6 87 7 30 8 86 9 31 10 32 11 33 12
REMARK SMILES IDX 80 13 34 14 85 15 79 16 81 17 35 18 84 19 78 20 77 21 36 23
REMARK SMILES IDX 66 24 47 25 65 26 48 27 51 28 64 29 82 30 49 31 50 32 63 34
REMARK SMILES IDX 83 35 52 36 37 37 38 38 46 39 39 40 45 41 40 42 41 43 42 44
REMARK SMILES IDX 43 45 44 46 67 47 68 48 76 49 69 50 75 51 70 52 71 53 72 54
REMARK SMILES IDX 73 55 74 56 53 57 54 58 62 59 55 60 61 61 56 62 57 63 58 64
REMARK SMILES IDX 59 65 60 66 5 67 6 68 7 69 8 70 9 71 10 72 19 73 11 74 18 75
REMARK SMILES IDX 12 77 17 78 13 79 16 80 14 81 15 82 20 83 21 84 22 85 27 86
REMARK SMILES IDX 23 87 26 88 24 89 25 90
REMARK H PARENT 81 22 51 33 19 76
REMARK Flexibility Score: inf
ROOT
ATOM      1  C   UNL A   1      36.304  22.256  25.639  1.00  0.00     0.275 C 
ENDROOT
BRANCH   1   2
ATOM      2  O   UNL A   1      37.547  22.914  25.350  1.00  0.00    -0.458 OA
BRANCH   2   3
ATOM      3  C   UNL A   1      38.689  22.966  26.075  1.00  0.00     0.338 C 
ATOM      4  O   UNL A   1      39.379  21.947  26.132  1.00  0.00    -0.246 OA
BRANCH   3   5
ATOM      5  C   UNL A   1      39.126  24.155  26.878  1.00  0.00     0.060 A 
ATOM      6  C   UNL A   1      40.000  25.033  26.227  1.00  0.00     0.016 A 
ATOM      7  C   UNL A   1      38.730  24.493  28.176  1.00  0.00     0.016 A 
ATOM      8  C   UNL A   1      40.546  26.134  26.891  1.00  0.00     0.010 A 
ATOM      9  C   UNL A   1      39.262  25.620  28.839  1.00  0.00     0.010 A 
ATOM     10  C   UNL A   1      40.197  26.446  28.214  1.00  0.00    -0.014 A 
BRANCH  10  11
ATOM     11  C   UNL A   1      40.678  27.729  28.802  1.00  0.00     0.031 A 
ATOM     12  C   UNL A   1      42.076  27.962  29.306  1.00  0.00     0.074 A 
ATOM     13  C   UNL A   1      39.812  28.758  28.828  1.00  0.00     0.049 A 
ATOM     14  N   UNL A   1      42.736  29.090  29.399  1.00  0.00    -0.248 NA
ATOM     15  C   UNL A   1      42.862  26.800  29.722  1.00  0.00     0.031 C 
ATOM     16  C   UNL A   1      38.414  28.690  28.393  1.00  0.00     0.029 A 
ATOM     17  N   UNL A   1      39.976  30.055  29.233  1.00  0.00    -0.354 N 
ATOM     18  C   UNL A   1      44.046  28.748  29.720  1.00  0.00     0.074 A 
ATOM     19  C   UNL A   1      44.082  27.313  29.866  1.00  0.00     0.031 C 
ATOM     20  C   UNL A   1      37.854  29.896  28.538  1.00  0.00     0.029 A 
ATOM     21  C   UNL A   1      38.827  30.797  29.144  1.00  0.00     0.049 A 
ATOM     22  H   UNL A   1      40.833  30.417  29.555  1.00  0.00     0.167 HD
ATOM     23  C   UNL A   1      45.108  29.564  29.916  1.00  0.00     0.031 A 
ATOM     24  C   UNL A   1      38.564  32.053  29.549  1.00  0.00     0.031 A 
ATOM     25  C   UNL A   1      44.968  30.975  30.172  1.00  0.00     0.049 A 
ATOM     26  C   UNL A   1      39.683  32.873  30.108  1.00  0.00     0.074 A 
ATOM     27  C   UNL A   1      45.946  31.885  30.530  1.00  0.00     0.029 A 
ATOM     28  N   UNL A   1      43.754  31.644  30.239  1.00  0.00    -0.354 N 
ATOM     29  N   UNL A   1      40.958  32.574  30.175  1.00  0.00    -0.248 NA
ATOM     30  C   UNL A   1      39.336  34.191  30.649  1.00  0.00     0.031 C 
ATOM     31  C   UNL A   1      45.306  33.051  30.964  1.00  0.00     0.029 A 
ATOM     32  C   UNL A   1      43.941  32.911  30.761  1.00  0.00     0.049 A 
ATOM     33  H   UNL A   1      42.887  31.272  29.956  1.00  0.00     0.167 HD
ATOM     34  C   UNL A   1      41.575  33.672  30.759  1.00  0.00     0.074 A 
ATOM     35  C   UNL A   1      40.530  34.647  31.012  1.00  0.00     0.031 C 
ATOM     36  C   UNL A   1      42.886  33.854  31.051  1.00  0.00     0.031 A 
BRANCH  23  37
ATOM     37  C   UNL A   1      46.498  28.976  29.966  1.00  0.00    -0.014 A 
ATOM     38  C   UNL A   1      47.216  28.718  28.784  1.00  0.00     0.010 A 
ATOM     39  C   UNL A   1      47.011  28.501  31.188  1.00  0.00     0.010 A 
ATOM     40  C   UNL A   1      48.399  27.968  28.818  1.00  0.00     0.020 A 
ATOM     41  C   UNL A   1      48.200  27.760  31.228  1.00  0.00     0.020 A 
ATOM     42  C   UNL A   1      48.875  27.480  30.038  1.00  0.00     0.054 A 
BRANCH  42  43
ATOM     43  S   UNL A   1      50.371  26.447  30.044  1.00  0.00     0.124 S 
ATOM     44  O   UNL A   1      50.687  26.366  31.467  1.00  0.00    -0.237 OA
ATOM     45  O   UNL A   1      49.898  25.208  29.431  1.00  0.00    -0.237 OA
ATOM     46  O   UNL A   1      51.318  27.211  29.236  1.00  0.00    -0.744 OA
ENDBRANCH  42  43
ENDBRANCH  23  37
BRANCH  24  47
ATOM     47  C   UNL A   1      37.159  32.528  29.456  1.00  0.00    -0.014 A 
ATOM     48  C   UNL A   1      36.685  33.043  28.229  1.00  0.00     0.010 A 
ATOM     49  C   UNL A   1      36.361  32.648  30.602  1.00  0.00     0.010 A 
ATOM     50  C   UNL A   1      35.490  33.758  28.173  1.00  0.00     0.020 A 
ATOM     51  C   UNL A   1      35.142  33.333  30.540  1.00  0.00     0.020 A 
ATOM     52  C   UNL A   1      34.738  33.919  29.336  1.00  0.00     0.054 A 
BRANCH  52  53
ATOM     53  S   UNL A   1      33.243  34.944  29.263  1.00  0.00     0.124 S 
ATOM     54  O   UNL A   1      33.782  36.225  28.812  1.00  0.00    -0.237 OA
ATOM     55  O   UNL A   1      32.416  34.233  28.291  1.00  0.00    -0.237 OA
ATOM     56  O   UNL A   1      32.746  34.922  30.635  1.00  0.00    -0.744 OA
ENDBRANCH  52  53
ENDBRANCH  24  47
BRANCH  36  57
ATOM     57  C   UNL A   1      43.282  35.137  31.730  1.00  0.00    -0.014 A 
ATOM     58  C   UNL A   1      43.020  35.312  33.101  1.00  0.00     0.010 A 
ATOM     59  C   UNL A   1      43.795  36.214  30.985  1.00  0.00     0.010 A 
ATOM     60  C   UNL A   1      43.217  36.553  33.706  1.00  0.00     0.020 A 
ATOM     61  C   UNL A   1      44.028  37.448  31.596  1.00  0.00     0.020 A 
ATOM     62  C   UNL A   1      43.709  37.617  32.945  1.00  0.00     0.054 A 
BRANCH  62  63
ATOM     63  S   UNL A   1      43.921  39.233  33.739  1.00  0.00     0.124 S 
ATOM     64  O   UNL A   1      44.414  38.862  35.062  1.00  0.00    -0.237 OA
ATOM     65  O   UNL A   1      44.888  39.895  32.869  1.00  0.00    -0.237 OA
ATOM     66  O   UNL A   1      42.577  39.806  33.712  1.00  0.00    -0.744 OA
ENDBRANCH  62  63
ENDBRANCH  36  57
ENDBRANCH  10  11
ENDBRANCH   3   5
ENDBRANCH   2   3
ENDBRANCH   1   2
BRANCH   1  67
ATOM     67  C   UNL A   1      35.221  23.176  26.194  1.00  0.00     0.274 C 
BRANCH  67  68
ATOM     68  O   UNL A   1      35.219  24.466  25.566  1.00  0.00    -0.458 OA
BRANCH  68  69
ATOM     69  C   UNL A   1      34.426  24.622  24.466  1.00  0.00     0.365 C 
ATOM     70  O   UNL A   1      34.706  24.183  23.358  1.00  0.00    -0.245 OA
BRANCH  69  71
ATOM     71  C   UNL A   1      33.126  25.404  24.740  1.00  0.00     0.300 C 
ATOM     72  C   UNL A   1      33.199  26.722  23.920  1.00  0.00     0.113 C 
ATOM     73  N   UNL A   1      31.880  24.625  24.499  1.00  0.00    -0.315 N 
ATOM     74  C   UNL A   1      31.869  27.360  23.579  1.00  0.00    -0.033 A 
ATOM     75  C   UNL A   1      30.710  25.478  24.779  1.00  0.00     0.300 C 
ATOM     76  H   UNL A   1      31.898  24.352  23.516  1.00  0.00     0.349 HD
ATOM     77  C   UNL A   1      31.812  28.542  22.827  1.00  0.00     0.006 A 
ATOM     78  C   UNL A   1      30.673  26.732  23.952  1.00  0.00     0.011 A 
ATOM     79  C   UNL A   1      30.579  29.097  22.468  1.00  0.00     0.021 A 
ATOM     80  C   UNL A   1      29.436  27.299  23.602  1.00  0.00     0.030 A 
ATOM     81  C   UNL A   1      29.396  28.476  22.861  1.00  0.00     0.041 A 
ATOM     82  Cl  UNL A   1      27.881  29.165  22.428  1.00  0.00    -0.084 Cl
BRANCH  73  83
ATOM     83  C   UNL A   1      31.792  23.346  25.229  1.00  0.00     0.300 C 
BRANCH  83  84
ATOM     84  C   UNL A   1      32.038  22.084  24.444  1.00  0.00     0.006 A 
ATOM     85  C   UNL A   1      31.926  22.082  23.044  1.00  0.00     0.011 A 
ATOM     86  C   UNL A   1      32.369  20.896  25.104  1.00  0.00     0.011 A 
ATOM     87  C   UNL A   1      32.011  20.893  22.327  1.00  0.00     0.021 A 
ATOM     88  C   UNL A   1      32.490  19.710  24.382  1.00  0.00     0.021 A 
ATOM     89  C   UNL A   1      32.273  19.707  23.004  1.00  0.00     0.041 A 
ATOM     90  Cl  UNL A   1      32.309  18.220  22.144  1.00  0.00    -0.084 Cl
ENDBRANCH  83  84
ENDBRANCH  73  83
ENDBRANCH  69  71
ENDBRANCH  68  69
ENDBRANCH  67  68
ENDBRANCH   1  67
TORSDOF 16
ENDMDL
MODEL 2
REMARK VINA RESULT:     -11.7      2.733      9.483
REMARK SMILES O=C(OCCOC(=O)[C@H]1Cc2ccc(Cl)cc2C[N@@H+]1Cc1ccc(Cl)cc1)c1ccc(-c2c3nc(c(-c4ccc(S(=O)(=O)[O-])cc4)c4ccc([nH]4)c(-c4ccc(S(=O)(=O)[O-])cc4)c4nc(c(-c5ccc(S(=O)(=O)[O-])cc5)c5ccc2[nH]5)C=C4)C=C3)cc1
REMARK SMILES IDX 4 1 3 2 2 3 1 4 28 5 29 6 87 7 30 8 86 9 31 10 32 11 33 12
REMARK SMILES IDX 80 13 34 14 85 15 79 16 81 17 35 18 84 19 78 20 77 21 36 23
REMARK SMILES IDX 66 24 47 25 65 26 48 27 51 28 64 29 82 30 49 31 50 32 63 34
REMARK SMILES IDX 83 35 52 36 37 37 38 38 46 39 39 40 45 41 40 42 41 43 42 44
REMARK SMILES IDX 43 45 44 46 67 47 68 48 76 49 69 50 75 51 70 52 71 53 72 54
REMARK SMILES IDX 73 55 74 56 53 57 54 58 62 59 55 60 61 61 56 62 57 63 58 64
REMARK SMILES IDX 59 65 60 66 5 67 6 68 7 69 8 70 9 71 10 72 19 73 11 74 18 75
REMARK SMILES IDX 12 77 17 78 13 79 16 80 14 81 15 82 20 83 21 84 22 85 27 86
REMARK SMILES IDX 23 87 26 88 24 89 25 90
REMARK H PARENT 81 22 51 33 19 76
REMARK Flexibility Score: inf
ROOT
ATOM      1  C   UNL A   1      33.034  28.708  27.188  1.00  0.00     0.275 C 
ENDROOT
BRANCH   1   2
ATOM      2  O   UNL A   1      33.555  30.020  26.924  1.00  0.00    -0.458 OA
BRANCH   2   3
ATOM      3  C   UNL A   1      34.430  30.764  27.639  1.00  0.00     0.338 C 
ATOM      4  O   UNL A   1      34.174  31.959  27.794  1.00  0.00    -0.246 OA
BRANCH   3   5
ATOM      5  C   UNL A   1      35.728  30.248  28.187  1.00  0.00     0.060 A 
ATOM      6  C   UNL A   1      36.801  30.247  27.290  1.00  0.00     0.016 A 
ATOM      7  C   UNL A   1      35.984  29.810  29.490  1.00  0.00     0.016 A 
ATOM      8  C   UNL A   1      38.042  29.717  27.649  1.00  0.00     0.010 A 
ATOM      9  C   UNL A   1      37.244  29.297  29.861  1.00  0.00     0.010 A 
ATOM     10  C   UNL A   1      38.289  29.220  28.938  1.00  0.00    -0.014 A 
BRANCH  10  11
ATOM     11  C   UNL A   1      39.681  28.833  29.307  1.00  0.00     0.031 A 
ATOM     12  C   UNL A   1      40.632  29.712  30.073  1.00  0.00     0.074 A 
ATOM     13  C   UNL A   1      40.084  27.592  28.978  1.00  0.00     0.049 A 
ATOM     14  N   UNL A   1      41.640  29.361  30.833  1.00  0.00    -0.248 NA
ATOM     15  C   UNL A   1      40.422  31.159  30.028  1.00  0.00     0.031 C 
ATOM     16  C   UNL A   1      39.287  26.624  28.221  1.00  0.00     0.029 A 
ATOM     17  N   UNL A   1      41.255  26.935  29.238  1.00  0.00    -0.354 N 
ATOM     18  C   UNL A   1      42.065  30.521  31.475  1.00  0.00     0.074 A 
ATOM     19  C   UNL A   1      41.248  31.600  30.974  1.00  0.00     0.031 C 
ATOM     20  C   UNL A   1      39.986  25.491  28.092  1.00  0.00     0.029 A 
ATOM     21  C   UNL A   1      41.302  25.680  28.690  1.00  0.00     0.049 A 
ATOM     22  H   UNL A   1      41.990  27.325  29.765  1.00  0.00     0.167 HD
ATOM     23  C   UNL A   1      43.072  30.672  32.366  1.00  0.00     0.031 A 
ATOM     24  C   UNL A   1      42.309  24.789  28.629  1.00  0.00     0.031 A 
ATOM     25  C   UNL A   1      44.116  29.693  32.533  1.00  0.00     0.049 A 
ATOM     26  C   UNL A   1      43.588  25.107  29.336  1.00  0.00     0.074 A 
ATOM     27  C   UNL A   1      45.268  29.788  33.292  1.00  0.00     0.029 A 
ATOM     28  N   UNL A   1      44.202  28.507  31.818  1.00  0.00    -0.354 N 
ATOM     29  N   UNL A   1      43.854  26.121  30.124  1.00  0.00    -0.248 NA
ATOM     30  C   UNL A   1      44.702  24.172  29.149  1.00  0.00     0.031 C 
ATOM     31  C   UNL A   1      46.115  28.740  32.914  1.00  0.00     0.029 A 
ATOM     32  C   UNL A   1      45.443  27.927  32.013  1.00  0.00     0.049 A 
ATOM     33  H   UNL A   1      43.485  28.133  31.256  1.00  0.00     0.167 HD
ATOM     34  C   UNL A   1      45.168  25.946  30.538  1.00  0.00     0.074 A 
ATOM     35  C   UNL A   1      45.634  24.718  29.922  1.00  0.00     0.031 C 
ATOM     36  C   UNL A   1      45.911  26.729  31.357  1.00  0.00     0.031 A 
BRANCH  23  37
ATOM     37  C   UNL A   1      43.175  31.953  33.159  1.00  0.00    -0.014 A 
ATOM     38  C   UNL A   1      42.412  32.145  34.325  1.00  0.00     0.010 A 
ATOM     39  C   UNL A   1      43.894  33.043  32.633  1.00  0.00     0.010 A 
ATOM     40  C   UNL A   1      42.335  33.407  34.927  1.00  0.00     0.020 A 
ATOM     41  C   UNL A   1      43.829  34.305  33.238  1.00  0.00     0.020 A 
ATOM     42  C   UNL A   1      43.032  34.484  34.371  1.00  0.00     0.054 A 
BRANCH  42  43
ATOM     43  S   UNL A   1      42.855  36.127  35.129  1.00  0.00     0.124 S 
ATOM     44  O   UNL A   1      41.616  35.987  35.887  1.00  0.00    -0.237 OA
ATOM     45  O   UNL A   1      44.075  36.236  35.925  1.00  0.00    -0.237 OA
ATOM     46  O   UNL A   1      42.787  37.028  33.980  1.00  0.00    -0.744 OA
ENDBRANCH  42  43
ENDBRANCH  23  37
BRANCH  24  47
ATOM     47  C   UNL A   1      42.098  23.563  27.817  1.00  0.00    -0.014 A 
ATOM     48  C   UNL A   1      41.250  22.547  28.311  1.00  0.00     0.010 A 
ATOM     49  C   UNL A   1      42.865  23.316  26.670  1.00  0.00     0.010 A 
ATOM     50  C   UNL A   1      41.252  21.278  27.735  1.00  0.00     0.020 A 
ATOM     51  C   UNL A   1      42.839  22.053  26.066  1.00  0.00     0.020 A 
ATOM     52  C   UNL A   1      42.066  21.033  26.630  1.00  0.00     0.054 A 
BRANCH  52  53
ATOM     53  S   UNL A   1      42.134  19.347  25.965  1.00  0.00     0.124 S 
ATOM     54  O   UNL A   1      43.009  19.518  24.808  1.00  0.00    -0.237 OA
ATOM     55  O   UNL A   1      42.703  18.588  27.076  1.00  0.00    -0.237 OA
ATOM     56  O   UNL A   1      40.740  19.045  25.657  1.00  0.00    -0.744 OA
ENDBRANCH  52  53
ENDBRANCH  24  47
BRANCH  36  57
ATOM     57  C   UNL A   1      47.338  26.325  31.609  1.00  0.00    -0.014 A 
ATOM     58  C   UNL A   1      47.657  25.557  32.745  1.00  0.00     0.010 A 
ATOM     59  C   UNL A   1      48.377  26.811  30.794  1.00  0.00     0.010 A 
ATOM     60  C   UNL A   1      48.988  25.323  33.090  1.00  0.00     0.020 A 
ATOM     61  C   UNL A   1      49.710  26.546  31.117  1.00  0.00     0.020 A 
ATOM     62  C   UNL A   1      50.007  25.830  32.278  1.00  0.00     0.054 A 
BRANCH  62  63
ATOM     63  S   UNL A   1      51.730  25.550  32.765  1.00  0.00     0.124 S 
ATOM     64  O   UNL A   1      51.612  25.343  34.205  1.00  0.00    -0.237 OA
ATOM     65  O   UNL A   1      52.096  24.370  31.986  1.00  0.00    -0.237 OA
ATOM     66  O   UNL A   1      52.404  26.783  32.364  1.00  0.00    -0.744 OA
ENDBRANCH  62  63
ENDBRANCH  36  57
ENDBRANCH  10  11
ENDBRANCH   3   5
ENDBRANCH   2   3
ENDBRANCH   1   2
BRANCH   1  67
ATOM     67  C   UNL A   1      33.086  27.760  25.994  1.00  0.00     0.274 C 
BRANCH  67  68
ATOM     68  O   UNL A   1      33.485  26.432  26.362  1.00  0.00    -0.458 OA
BRANCH  68  69
ATOM     69  C   UNL A   1      32.572  25.434  26.179  1.00  0.00     0.365 C 
ATOM     70  O   UNL A   1      31.506  25.369  26.779  1.00  0.00    -0.245 OA
BRANCH  69  71
ATOM     71  C   UNL A   1      32.997  24.383  25.135  1.00  0.00     0.300 C 
ATOM     72  C   UNL A   1      32.977  22.998  25.840  1.00  0.00     0.113 C 
ATOM     73  N   UNL A   1      32.206  24.416  23.874  1.00  0.00    -0.315 N 
ATOM     74  C   UNL A   1      32.803  21.800  24.932  1.00  0.00    -0.033 A 
ATOM     75  C   UNL A   1      32.693  23.363  22.965  1.00  0.00     0.300 C 
ATOM     76  H   UNL A   1      31.236  24.243  24.139  1.00  0.00     0.349 HD
ATOM     77  C   UNL A   1      32.751  20.501  25.459  1.00  0.00     0.006 A 
ATOM     78  C   UNL A   1      32.617  21.983  23.555  1.00  0.00     0.011 A 
ATOM     79  C   UNL A   1      32.535  19.402  24.621  1.00  0.00     0.021 A 
ATOM     80  C   UNL A   1      32.414  20.876  22.714  1.00  0.00     0.030 A 
ATOM     81  C   UNL A   1      32.372  19.593  23.251  1.00  0.00     0.041 A 
ATOM     82  Cl  UNL A   1      32.116  18.239  22.221  1.00  0.00    -0.084 Cl
BRANCH  73  83
ATOM     83  C   UNL A   1      32.168  25.727  23.196  1.00  0.00     0.300 C 
BRANCH  83  84
ATOM     84  C   UNL A   1      30.844  26.445  23.156  1.00  0.00     0.006 A 
ATOM     85  C   UNL A   1      30.737  27.708  22.547  1.00  0.00     0.011 A 
ATOM     86  C   UNL A   1      29.710  25.867  23.734  1.00  0.00     0.011 A 
ATOM     87  C   UNL A   1      29.555  28.437  22.633  1.00  0.00     0.021 A 
ATOM     88  C   UNL A   1      28.515  26.583  23.787  1.00  0.00     0.021 A 
ATOM     89  C   UNL A   1      28.453  27.877  23.271  1.00  0.00     0.041 A 
ATOM     90  Cl  UNL A   1      27.010  28.792  23.449  1.00  0.00    -0.084 Cl
ENDBRANCH  83  84
ENDBRANCH  73  83
ENDBRANCH  69  71
ENDBRANCH  68  69
ENDBRANCH  67  68
ENDBRANCH   1  67
TORSDOF 16
ENDMDL
MODEL 3
REMARK VINA RESULT:     -11.6      2.446      8.784
REMARK SMILES O=C(OCCOC(=O)[C@H]1Cc2ccc(Cl)cc2C[N@@H+]1Cc1ccc(Cl)cc1)c1ccc(-c2c3nc(c(-c4ccc(S(=O)(=O)[O-])cc4)c4ccc([nH]4)c(-c4ccc(S(=O)(=O)[O-])cc4)c4nc(c(-c5ccc(S(=O)(=O)[O-])cc5)c5ccc2[nH]5)C=C4)C=C3)cc1
REMARK SMILES IDX 4 1 3 2 2 3 1 4 28 5 29 6 87 7 30 8 86 9 31 10 32 11 33 12
REMARK SMILES IDX 80 13 34 14 85 15 79 16 81 17 35 18 84 19 78 20 77 21 36 23
REMARK SMILES IDX 66 24 47 25 65 26 48 27 51 28 64 29 82 30 49 31 50 32 63 34
REMARK SMILES IDX 83 35 52 36 37 37 38 38 46 39 39 40 45 41 40 42 41 43 42 44
REMARK SMILES IDX 43 45 44 46 67 47 68 48 76 49 69 50 75 51 70 52 71 53 72 54
REMARK SMILES IDX 73 55 74 56 53 57 54 58 62 59 55 60 61 61 56 62 57 63 58 64
REMARK SMILES IDX 59 65 60 66 5 67 6 68 7 69 8 70 9 71 10 72 19 73 11 74 18 75
REMARK SMILES IDX 12 77 17 78 13 79 16 80 14 81 15 82 20 83 21 84 22 85 27 86
REMARK SMILES IDX 23 87 26 88 24 89 25 90
REMARK H PARENT 81 22 51 33 19 76
REMARK Flexibility Score: inf
ROOT
ATOM      1  C   UNL A   1      35.977  23.790  25.665  1.00  0.00     0.275 C 
ENDROOT
BRANCH   1   2
ATOM      2  O   UNL A   1      37.077  22.893  25.449  1.00  0.00    -0.458 OA
BRANCH   2   3
ATOM      3  C   UNL A   1      38.304  22.873  26.020  1.00  0.00     0.338 C 
ATOM      4  O   UNL A   1      38.905  21.799  26.052  1.00  0.00    -0.246 OA
BRANCH   3   5
ATOM      5  C   UNL A   1      38.944  24.054  26.688  1.00  0.00     0.060 A 
ATOM      6  C   UNL A   1      39.696  24.885  25.851  1.00  0.00     0.016 A 
ATOM      7  C   UNL A   1      38.839  24.427  28.032  1.00  0.00     0.016 A 
ATOM      8  C   UNL A   1      40.409  25.971  26.362  1.00  0.00     0.010 A 
ATOM      9  C   UNL A   1      39.539  25.539  28.544  1.00  0.00     0.010 A 
ATOM     10  C   UNL A   1      40.356  26.316  27.721  1.00  0.00    -0.014 A 
BRANCH  10  11
ATOM     11  C   UNL A   1      40.996  27.587  28.168  1.00  0.00     0.031 A 
ATOM     12  C   UNL A   1      40.241  28.829  28.554  1.00  0.00     0.074 A 
ATOM     13  C   UNL A   1      42.337  27.594  28.285  1.00  0.00     0.049 A 
ATOM     14  N   UNL A   1      40.607  29.793  29.363  1.00  0.00    -0.248 NA
ATOM     15  C   UNL A   1      38.895  29.015  28.010  1.00  0.00     0.031 C 
ATOM     16  C   UNL A   1      43.216  26.475  27.934  1.00  0.00     0.029 A 
ATOM     17  N   UNL A   1      43.190  28.567  28.729  1.00  0.00    -0.354 N 
ATOM     18  C   UNL A   1      39.483  30.593  29.547  1.00  0.00     0.074 A 
ATOM     19  C   UNL A   1      38.436  30.043  28.720  1.00  0.00     0.031 C 
ATOM     20  C   UNL A   1      44.482  26.819  28.194  1.00  0.00     0.029 A 
ATOM     21  C   UNL A   1      44.509  28.203  28.654  1.00  0.00     0.049 A 
ATOM     22  H   UNL A   1      42.886  29.440  29.067  1.00  0.00     0.167 HD
ATOM     23  C   UNL A   1      39.355  31.708  30.303  1.00  0.00     0.031 A 
ATOM     24  C   UNL A   1      45.628  28.915  28.884  1.00  0.00     0.031 A 
ATOM     25  C   UNL A   1      40.489  32.460  30.776  1.00  0.00     0.049 A 
ATOM     26  C   UNL A   1      45.492  30.311  29.403  1.00  0.00     0.074 A 
ATOM     27  C   UNL A   1      40.499  33.682  31.425  1.00  0.00     0.029 A 
ATOM     28  N   UNL A   1      41.813  32.131  30.521  1.00  0.00    -0.354 N 
ATOM     29  N   UNL A   1      44.403  30.939  29.778  1.00  0.00    -0.248 NA
ATOM     30  C   UNL A   1      46.723  31.097  29.527  1.00  0.00     0.031 C 
ATOM     31  C   UNL A   1      41.814  34.159  31.417  1.00  0.00     0.029 A 
ATOM     32  C   UNL A   1      42.638  33.183  30.875  1.00  0.00     0.049 A 
ATOM     33  H   UNL A   1      42.119  31.274  30.143  1.00  0.00     0.167 HD
ATOM     34  C   UNL A   1      44.816  32.198  30.195  1.00  0.00     0.074 A 
ATOM     35  C   UNL A   1      46.258  32.233  30.036  1.00  0.00     0.031 C 
ATOM     36  C   UNL A   1      44.067  33.223  30.669  1.00  0.00     0.031 A 
BRANCH  23  37
ATOM     37  C   UNL A   1      37.978  32.254  30.594  1.00  0.00    -0.014 A 
ATOM     38  C   UNL A   1      37.450  33.321  29.846  1.00  0.00     0.010 A 
ATOM     39  C   UNL A   1      37.287  31.826  31.744  1.00  0.00     0.010 A 
ATOM     40  C   UNL A   1      36.281  33.973  30.259  1.00  0.00     0.020 A 
ATOM     41  C   UNL A   1      36.111  32.467  32.156  1.00  0.00     0.020 A 
ATOM     42  C   UNL A   1      35.627  33.552  31.421  1.00  0.00     0.054 A 
BRANCH  42  43
ATOM     43  S   UNL A   1      34.154  34.462  31.976  1.00  0.00     0.124 S 
ATOM     44  O   UNL A   1      33.554  33.531  32.926  1.00  0.00    -0.237 OA
ATOM     45  O   UNL A   1      34.734  35.671  32.556  1.00  0.00    -0.237 OA
ATOM     46  O   UNL A   1      33.398  34.672  30.743  1.00  0.00    -0.744 OA
ENDBRANCH  42  43
ENDBRANCH  23  37
BRANCH  24  47
ATOM     47  C   UNL A   1      46.930  28.278  28.559  1.00  0.00    -0.014 A 
ATOM     48  C   UNL A   1      47.428  28.360  27.240  1.00  0.00     0.010 A 
ATOM     49  C   UNL A   1      47.576  27.444  29.483  1.00  0.00     0.010 A 
ATOM     50  C   UNL A   1      48.479  27.545  26.825  1.00  0.00     0.020 A 
ATOM     51  C   UNL A   1      48.657  26.653  29.079  1.00  0.00     0.020 A 
ATOM     52  C   UNL A   1      49.071  26.678  27.743  1.00  0.00     0.054 A 
BRANCH  52  53
ATOM     53  S   UNL A   1      50.364  25.549  27.155  1.00  0.00     0.124 S 
ATOM     54  O   UNL A   1      51.576  26.211  27.632  1.00  0.00    -0.237 OA
ATOM     55  O   UNL A   1      50.025  24.298  27.828  1.00  0.00    -0.237 OA
ATOM     56  O   UNL A   1      50.180  25.545  25.707  1.00  0.00    -0.744 OA
ENDBRANCH  52  53
ENDBRANCH  24  47
BRANCH  36  57
ATOM     57  C   UNL A   1      44.772  34.507  31.011  1.00  0.00    -0.014 A 
ATOM     58  C   UNL A   1      45.229  34.725  32.324  1.00  0.00     0.010 A 
ATOM     59  C   UNL A   1      44.867  35.547  30.068  1.00  0.00     0.010 A 
ATOM     60  C   UNL A   1      45.724  35.973  32.703  1.00  0.00     0.020 A 
ATOM     61  C   UNL A   1      45.397  36.786  30.435  1.00  0.00     0.020 A 
ATOM     62  C   UNL A   1      45.793  37.000  31.757  1.00  0.00     0.054 A 
BRANCH  62  63
ATOM     63  S   UNL A   1      46.402  38.626  32.278  1.00  0.00     0.124 S 
ATOM     64  O   UNL A   1      47.061  38.315  33.543  1.00  0.00    -0.237 OA
ATOM     65  O   UNL A   1      47.288  39.004  31.181  1.00  0.00    -0.237 OA
ATOM     66  O   UNL A   1      45.185  39.427  32.389  1.00  0.00    -0.744 OA
ENDBRANCH  62  63
ENDBRANCH  36  57
ENDBRANCH  10  11
ENDBRANCH   3   5
ENDBRANCH   2   3
ENDBRANCH   1   2
BRANCH   1  67
ATOM     67  C   UNL A   1      35.030  23.919  24.477  1.00  0.00     0.274 C 
BRANCH  67  68
ATOM     68  O   UNL A   1      34.477  25.237  24.354  1.00  0.00    -0.458 OA
BRANCH  68  69
ATOM     69  C   UNL A   1      33.120  25.356  24.452  1.00  0.00     0.365 C 
ATOM     70  O   UNL A   1      32.330  24.604  23.895  1.00  0.00    -0.245 OA
BRANCH  69  71
ATOM     71  C   UNL A   1      32.658  26.528  25.340  1.00  0.00     0.300 C 
ATOM     72  C   UNL A   1      33.890  26.995  26.164  1.00  0.00     0.113 C 
ATOM     73  N   UNL A   1      31.990  27.632  24.598  1.00  0.00    -0.315 N 
ATOM     74  C   UNL A   1      33.849  28.426  26.656  1.00  0.00    -0.033 A 
ATOM     75  C   UNL A   1      31.608  28.696  25.545  1.00  0.00     0.300 C 
ATOM     76  H   UNL A   1      32.672  27.979  23.924  1.00  0.00     0.349 HD
ATOM     77  C   UNL A   1      34.913  28.963  27.394  1.00  0.00     0.006 A 
ATOM     78  C   UNL A   1      32.772  29.255  26.314  1.00  0.00     0.011 A 
ATOM     79  C   UNL A   1      34.894  30.302  27.799  1.00  0.00     0.021 A 
ATOM     80  C   UNL A   1      32.749  30.596  26.735  1.00  0.00     0.030 A 
ATOM     81  C   UNL A   1      33.810  31.112  27.472  1.00  0.00     0.041 A 
ATOM     82  Cl  UNL A   1      33.782  32.755  27.980  1.00  0.00    -0.084 Cl
BRANCH  73  83
ATOM     83  C   UNL A   1      30.839  27.221  23.770  1.00  0.00     0.300 C 
BRANCH  83  84
ATOM     84  C   UNL A   1      30.048  28.311  23.096  1.00  0.00     0.006 A 
ATOM     85  C   UNL A   1      28.650  28.364  23.228  1.00  0.00     0.011 A 
ATOM     86  C   UNL A   1      30.697  29.278  22.321  1.00  0.00     0.011 A 
ATOM     87  C   UNL A   1      27.903  29.279  22.494  1.00  0.00     0.021 A 
ATOM     88  C   UNL A   1      29.950  30.219  21.615  1.00  0.00     0.021 A 
ATOM     89  C   UNL A   1      28.558  30.192  21.674  1.00  0.00     0.041 A 
ATOM     90  Cl  UNL A   1      27.647  31.281  20.706  1.00  0.00    -0.084 Cl
ENDBRANCH  83  84
ENDBRANCH  73  83
ENDBRANCH  69  71
ENDBRANCH  68  69
ENDBRANCH  67  68
ENDBRANCH   1  67
TORSDOF 16
ENDMDL
