MODEL 1
REMARK VINA RESULT:     -12.0      0.000      0.000
REMARK SMILES O=C(OCCOC(=O)[C@H]1CCCN(c2cc(-c3ccccn3)nc(-c3ccccc3F)n2)C1)c1ccc(-c2c3nc(c(-c4ccc(S(=O)(=O)[O-])cc4)c4ccc([nH]4)c(-c4ccc(S(=O)(=O)[O-])cc4)c4nc(c(-c5ccc(S(=O)(=O)[O-])cc5)c5ccc2[nH]5)C=C4)C=C3)cc1
REMARK SMILES IDX 4 1 3 2 2 3 1 4 34 5 35 6 93 7 36 8 92 9 37 10 38 11 39 12
REMARK SMILES IDX 86 13 40 14 91 15 85 16 87 17 41 18 90 19 84 20 83 21 42 23
REMARK SMILES IDX 72 24 53 25 71 26 54 27 57 28 70 29 88 30 55 31 56 32 69 34
REMARK SMILES IDX 89 35 58 36 43 37 44 38 52 39 45 40 51 41 46 42 47 43 48 44
REMARK SMILES IDX 49 45 50 46 73 47 74 48 82 49 75 50 81 51 76 52 77 53 78 54
REMARK SMILES IDX 79 55 80 56 59 57 60 58 68 59 61 60 67 61 62 62 63 63 64 64
REMARK SMILES IDX 65 65 66 66 5 67 6 68 7 69 8 70 9 71 10 72 33 73 11 74 13 75
REMARK SMILES IDX 12 76 14 77 15 78 32 79 16 80 24 81 23 82 17 83 18 84 22 85
REMARK SMILES IDX 19 86 21 87 20 88 25 89 26 90 30 91 27 92 29 93 31 94 28 95
REMARK H PARENT 87 22 57 33
REMARK Flexibility Score: inf
ROOT
ATOM      1  C   UNL A   1      32.785  28.818  27.105  1.00  0.00     0.275 C 
ENDROOT
BRANCH   1   2
ATOM      2  O   UNL A   1      34.025  29.514  26.906  1.00  0.00    -0.458 OA
BRANCH   2   3
ATOM      3  C   UNL A   1      34.720  30.321  27.742  1.00  0.00     0.338 C 
ATOM      4  O   UNL A   1      34.248  31.436  27.973  1.00  0.00    -0.246 OA
BRANCH   3   5
ATOM      5  C   UNL A   1      36.080  30.012  28.310  1.00  0.00     0.060 A 
ATOM      6  C   UNL A   1      36.394  29.626  29.621  1.00  0.00     0.016 A 
ATOM      7  C   UNL A   1      37.131  30.014  27.373  1.00  0.00     0.016 A 
ATOM      8  C   UNL A   1      37.667  29.131  29.968  1.00  0.00     0.010 A 
ATOM      9  C   UNL A   1      38.386  29.493  27.702  1.00  0.00     0.010 A 
ATOM     10  C   UNL A   1      38.663  29.021  29.002  1.00  0.00    -0.014 A 
BRANCH  10  11
ATOM     11  C   UNL A   1      40.059  28.604  29.307  1.00  0.00     0.031 A 
ATOM     12  C   UNL A   1      41.004  29.712  29.656  1.00  0.00     0.074 A 
ATOM     13  C   UNL A   1      40.522  27.344  29.150  1.00  0.00     0.049 A 
ATOM     14  N   UNL A   1      42.305  29.702  29.732  1.00  0.00    -0.248 NA
ATOM     15  C   UNL A   1      40.385  31.024  29.927  1.00  0.00     0.031 C 
ATOM     16  C   UNL A   1      39.721  26.151  28.890  1.00  0.00     0.029 A 
ATOM     17  N   UNL A   1      41.816  26.873  29.102  1.00  0.00    -0.354 N 
ATOM     18  C   UNL A   1      42.650  30.997  30.084  1.00  0.00     0.074 A 
ATOM     19  C   UNL A   1      41.449  31.796  30.045  1.00  0.00     0.031 C 
ATOM     20  C   UNL A   1      40.533  25.127  28.563  1.00  0.00     0.029 A 
ATOM     21  C   UNL A   1      41.917  25.581  28.624  1.00  0.00     0.049 A 
ATOM     22  H   UNL A   1      42.596  27.406  29.380  1.00  0.00     0.167 HD
ATOM     23  C   UNL A   1      43.847  31.465  30.498  1.00  0.00     0.031 A 
ATOM     24  C   UNL A   1      42.996  24.857  28.261  1.00  0.00     0.031 A 
ATOM     25  C   UNL A   1      45.033  30.667  30.523  1.00  0.00     0.049 A 
ATOM     26  C   UNL A   1      44.361  25.431  28.548  1.00  0.00     0.074 A 
ATOM     27  C   UNL A   1      46.294  31.003  30.969  1.00  0.00     0.029 A 
ATOM     28  N   UNL A   1      45.096  29.362  30.055  1.00  0.00    -0.354 N 
ATOM     29  N   UNL A   1      44.666  26.624  29.001  1.00  0.00    -0.248 NA
ATOM     30  C   UNL A   1      45.517  24.544  28.362  1.00  0.00     0.031 C 
ATOM     31  C   UNL A   1      47.136  29.912  30.724  1.00  0.00     0.029 A 
ATOM     32  C   UNL A   1      46.382  28.878  30.183  1.00  0.00     0.049 A 
ATOM     33  H   UNL A   1      44.336  28.855  29.688  1.00  0.00     0.167 HD
ATOM     34  C   UNL A   1      46.034  26.597  29.250  1.00  0.00     0.074 A 
ATOM     35  C   UNL A   1      46.505  25.287  28.845  1.00  0.00     0.031 C 
ATOM     36  C   UNL A   1      46.815  27.555  29.807  1.00  0.00     0.031 A 
BRANCH  23  37
ATOM     37  C   UNL A   1      43.863  32.892  30.967  1.00  0.00    -0.014 A 
ATOM     38  C   UNL A   1      43.919  33.946  30.030  1.00  0.00     0.010 A 
ATOM     39  C   UNL A   1      43.950  33.184  32.337  1.00  0.00     0.010 A 
ATOM     40  C   UNL A   1      44.170  35.251  30.450  1.00  0.00     0.020 A 
ATOM     41  C   UNL A   1      44.163  34.497  32.762  1.00  0.00     0.020 A 
ATOM     42  C   UNL A   1      44.308  35.514  31.815  1.00  0.00     0.054 A 
BRANCH  42  43
ATOM     43  S   UNL A   1      44.703  37.207  32.329  1.00  0.00     0.124 S 
ATOM     44  O   UNL A   1      44.190  37.989  31.207  1.00  0.00    -0.237 OA
ATOM     45  O   UNL A   1      43.961  37.343  33.580  1.00  0.00    -0.237 OA
ATOM     46  O   UNL A   1      46.157  37.194  32.467  1.00  0.00    -0.744 OA
ENDBRANCH  42  43
ENDBRANCH  23  37
BRANCH  24  47
ATOM     47  C   UNL A   1      42.849  23.497  27.658  1.00  0.00    -0.014 A 
ATOM     48  C   UNL A   1      42.524  22.388  28.459  1.00  0.00     0.010 A 
ATOM     49  C   UNL A   1      43.046  23.297  26.277  1.00  0.00     0.010 A 
ATOM     50  C   UNL A   1      42.411  21.109  27.899  1.00  0.00     0.020 A 
ATOM     51  C   UNL A   1      42.922  22.020  25.709  1.00  0.00     0.020 A 
ATOM     52  C   UNL A   1      42.606  20.932  26.525  1.00  0.00     0.054 A 
BRANCH  52  53
ATOM     53  S   UNL A   1      42.400  19.263  25.830  1.00  0.00     0.124 S 
ATOM     54  O   UNL A   1      43.178  19.342  24.599  1.00  0.00    -0.237 OA
ATOM     55  O   UNL A   1      42.959  18.419  26.882  1.00  0.00    -0.237 OA
ATOM     56  O   UNL A   1      40.955  19.138  25.648  1.00  0.00    -0.744 OA
ENDBRANCH  52  53
ENDBRANCH  24  47
BRANCH  36  57
ATOM     57  C   UNL A   1      48.241  27.209  30.126  1.00  0.00    -0.014 A 
ATOM     58  C   UNL A   1      49.296  27.565  29.273  1.00  0.00     0.010 A 
ATOM     59  C   UNL A   1      48.527  26.655  31.390  1.00  0.00     0.010 A 
ATOM     60  C   UNL A   1      50.619  27.389  29.687  1.00  0.00     0.020 A 
ATOM     61  C   UNL A   1      49.845  26.505  31.817  1.00  0.00     0.020 A 
ATOM     62  C   UNL A   1      50.884  26.876  30.963  1.00  0.00     0.054 A 
BRANCH  62  63
ATOM     63  S   UNL A   1      52.605  26.784  31.528  1.00  0.00     0.124 S 
ATOM     64  O   UNL A   1      52.841  25.343  31.546  1.00  0.00    -0.237 OA
ATOM     65  O   UNL A   1      53.319  27.526  30.492  1.00  0.00    -0.237 OA
ATOM     66  O   UNL A   1      52.574  27.429  32.839  1.00  0.00    -0.744 OA
ENDBRANCH  62  63
ENDBRANCH  36  57
ENDBRANCH  10  11
ENDBRANCH   3   5
ENDBRANCH   2   3
ENDBRANCH   1   2
BRANCH   1  67
ATOM     67  C   UNL A   1      32.693  27.484  26.357  1.00  0.00     0.274 C 
BRANCH  67  68
ATOM     68  O   UNL A   1      33.061  27.609  24.975  1.00  0.00    -0.462 OA
BRANCH  68  69
ATOM     69  C   UNL A   1      32.400  26.839  24.061  1.00  0.00     0.310 C 
ATOM     70  O   UNL A   1      31.915  27.276  23.018  1.00  0.00    -0.252 OA
BRANCH  69  71
ATOM     71  C   UNL A   1      32.342  25.366  24.462  1.00  0.00     0.118 C 
ATOM     72  C   UNL A   1      30.912  24.917  24.731  1.00  0.00     0.019 C 
ATOM     73  C   UNL A   1      32.983  24.500  23.383  1.00  0.00     0.133 C 
ATOM     74  C   UNL A   1      30.770  23.428  24.972  1.00  0.00     0.022 C 
ATOM     75  N   UNL A   1      32.619  23.089  23.497  1.00  0.00    -0.356 N 
ATOM     76  C   UNL A   1      31.230  22.722  23.716  1.00  0.00     0.118 C 
BRANCH  75  77
ATOM     77  C   UNL A   1      33.512  22.145  23.968  1.00  0.00     0.133 A 
ATOM     78  C   UNL A   1      34.777  22.594  24.253  1.00  0.00     0.077 A 
ATOM     79  N   UNL A   1      33.177  20.857  24.085  1.00  0.00    -0.211 NA
ATOM     80  C   UNL A   1      35.700  21.696  24.737  1.00  0.00     0.095 A 
ATOM     81  C   UNL A   1      34.160  20.026  24.493  1.00  0.00     0.165 A 
ATOM     82  N   UNL A   1      35.414  20.383  24.841  1.00  0.00    -0.226 NA
BRANCH  80  83
ATOM     83  C   UNL A   1      36.988  22.229  25.208  1.00  0.00     0.089 A 
ATOM     84  C   UNL A   1      38.065  21.349  25.399  1.00  0.00     0.030 A 
ATOM     85  N   UNL A   1      37.035  23.523  25.615  1.00  0.00    -0.255 NA
ATOM     86  C   UNL A   1      39.194  21.781  26.076  1.00  0.00     0.004 A 
ATOM     87  C   UNL A   1      38.157  23.913  26.266  1.00  0.00     0.112 A 
ATOM     88  C   UNL A   1      39.241  23.088  26.527  1.00  0.00     0.020 A 
ENDBRANCH  80  83
BRANCH  81  89
ATOM     89  C   UNL A   1      33.815  18.613  24.579  1.00  0.00     0.055 A 
ATOM     90  C   UNL A   1      34.186  17.695  23.579  1.00  0.00     0.015 A 
ATOM     91  C   UNL A   1      33.069  18.137  25.660  1.00  0.00     0.134 A 
ATOM     92  C   UNL A   1      33.824  16.345  23.673  1.00  0.00     0.001 A 
ATOM     93  C   UNL A   1      32.701  16.796  25.758  1.00  0.00     0.040 A 
ATOM     94  F   UNL A   1      32.664  18.976  26.626  1.00  0.00    -0.206 F 
ATOM     95  C   UNL A   1      33.079  15.897  24.764  1.00  0.00     0.003 A 
ENDBRANCH  81  89
ENDBRANCH  75  77
ENDBRANCH  69  71
ENDBRANCH  68  69
ENDBRANCH  67  68
ENDBRANCH   1  67
TORSDOF 17
ENDMDL
MODEL 2
REMARK VINA RESULT:     -12.0      3.503     10.008
REMARK SMILES O=C(OCCOC(=O)[C@H]1CCCN(c2cc(-c3ccccn3)nc(-c3ccccc3F)n2)C1)c1ccc(-c2c3nc(c(-c4ccc(S(=O)(=O)[O-])cc4)c4ccc([nH]4)c(-c4ccc(S(=O)(=O)[O-])cc4)c4nc(c(-c5ccc(S(=O)(=O)[O-])cc5)c5ccc2[nH]5)C=C4)C=C3)cc1
REMARK SMILES IDX 4 1 3 2 2 3 1 4 34 5 35 6 93 7 36 8 92 9 37 10 38 11 39 12
REMARK SMILES IDX 86 13 40 14 91 15 85 16 87 17 41 18 90 19 84 20 83 21 42 23
REMARK SMILES IDX 72 24 53 25 71 26 54 27 57 28 70 29 88 30 55 31 56 32 69 34
REMARK SMILES IDX 89 35 58 36 43 37 44 38 52 39 45 40 51 41 46 42 47 43 48 44
REMARK SMILES IDX 49 45 50 46 73 47 74 48 82 49 75 50 81 51 76 52 77 53 78 54
REMARK SMILES IDX 79 55 80 56 59 57 60 58 68 59 61 60 67 61 62 62 63 63 64 64
REMARK SMILES IDX 65 65 66 66 5 67 6 68 7 69 8 70 9 71 10 72 33 73 11 74 13 75
REMARK SMILES IDX 12 76 14 77 15 78 32 79 16 80 24 81 23 82 17 83 18 84 22 85
REMARK SMILES IDX 19 86 21 87 20 88 25 89 26 90 30 91 27 92 29 93 31 94 28 95
REMARK H PARENT 87 22 57 33
REMARK Flexibility Score: inf
ROOT
ATOM      1  C   UNL A   1      36.609  23.651  25.015  1.00  0.00     0.275 C 
ENDROOT
BRANCH   1   2
ATOM      2  O   UNL A   1      37.441  22.928  25.935  1.00  0.00    -0.458 OA
BRANCH   2   3
ATOM      3  C   UNL A   1      38.772  23.016  26.166  1.00  0.00     0.338 C 
ATOM      4  O   UNL A   1      39.445  21.998  25.986  1.00  0.00    -0.246 OA
BRANCH   3   5
ATOM      5  C   UNL A   1      39.473  24.217  26.744  1.00  0.00     0.060 A 
ATOM      6  C   UNL A   1      40.305  25.127  26.075  1.00  0.00     0.016 A 
ATOM      7  C   UNL A   1      39.158  24.502  28.085  1.00  0.00     0.016 A 
ATOM      8  C   UNL A   1      40.705  26.343  26.665  1.00  0.00     0.010 A 
ATOM      9  C   UNL A   1      39.523  25.722  28.664  1.00  0.00     0.010 A 
ATOM     10  C   UNL A   1      40.284  26.670  27.950  1.00  0.00    -0.014 A 
BRANCH  10  11
ATOM     11  C   UNL A   1      40.741  27.885  28.679  1.00  0.00     0.031 A 
ATOM     12  C   UNL A   1      41.984  27.718  29.499  1.00  0.00     0.074 A 
ATOM     13  C   UNL A   1      40.039  29.037  28.744  1.00  0.00     0.049 A 
ATOM     14  N   UNL A   1      42.485  28.496  30.415  1.00  0.00    -0.248 NA
ATOM     15  C   UNL A   1      42.746  26.476  29.266  1.00  0.00     0.031 C 
ATOM     16  C   UNL A   1      38.860  29.380  27.952  1.00  0.00     0.029 A 
ATOM     17  N   UNL A   1      40.173  30.114  29.593  1.00  0.00    -0.354 N 
ATOM     18  C   UNL A   1      43.632  27.847  30.844  1.00  0.00     0.074 A 
ATOM     19  C   UNL A   1      43.662  26.549  30.213  1.00  0.00     0.031 C 
ATOM     20  C   UNL A   1      38.296  30.499  28.448  1.00  0.00     0.029 A 
ATOM     21  C   UNL A   1      39.092  30.973  29.572  1.00  0.00     0.049 A 
ATOM     22  H   UNL A   1      40.964  30.257  30.163  1.00  0.00     0.167 HD
ATOM     23  C   UNL A   1      44.628  28.323  31.622  1.00  0.00     0.031 A 
ATOM     24  C   UNL A   1      38.774  32.009  30.377  1.00  0.00     0.031 A 
ATOM     25  C   UNL A   1      44.582  29.607  32.251  1.00  0.00     0.049 A 
ATOM     26  C   UNL A   1      39.799  32.460  31.387  1.00  0.00     0.074 A 
ATOM     27  C   UNL A   1      45.545  30.230  33.018  1.00  0.00     0.029 A 
ATOM     28  N   UNL A   1      43.488  30.458  32.191  1.00  0.00    -0.354 N 
ATOM     29  N   UNL A   1      40.944  31.897  31.695  1.00  0.00    -0.248 NA
ATOM     30  C   UNL A   1      39.538  33.721  32.095  1.00  0.00     0.031 C 
ATOM     31  C   UNL A   1      45.010  31.443  33.467  1.00  0.00     0.029 A 
ATOM     32  C   UNL A   1      43.741  31.599  32.926  1.00  0.00     0.049 A 
ATOM     33  H   UNL A   1      42.656  30.277  31.698  1.00  0.00     0.167 HD
ATOM     34  C   UNL A   1      41.584  32.786  32.553  1.00  0.00     0.074 A 
ATOM     35  C   UNL A   1      40.675  33.895  32.757  1.00  0.00     0.031 C 
ATOM     36  C   UNL A   1      42.830  32.707  33.082  1.00  0.00     0.031 A 
BRANCH  23  37
ATOM     37  C   UNL A   1      45.823  27.427  31.774  1.00  0.00    -0.014 A 
ATOM     38  C   UNL A   1      45.911  26.543  32.871  1.00  0.00     0.010 A 
ATOM     39  C   UNL A   1      46.915  27.552  30.902  1.00  0.00     0.010 A 
ATOM     40  C   UNL A   1      47.106  25.883  33.151  1.00  0.00     0.020 A 
ATOM     41  C   UNL A   1      48.101  26.861  31.159  1.00  0.00     0.020 A 
ATOM     42  C   UNL A   1      48.200  26.061  32.302  1.00  0.00     0.054 A 
BRANCH  42  43
ATOM     43  S   UNL A   1      49.763  25.248  32.728  1.00  0.00     0.124 S 
ATOM     44  O   UNL A   1      50.506  26.338  33.357  1.00  0.00    -0.237 OA
ATOM     45  O   UNL A   1      49.334  24.181  33.628  1.00  0.00    -0.237 OA
ATOM     46  O   UNL A   1      50.282  24.803  31.438  1.00  0.00    -0.744 OA
ENDBRANCH  42  43
ENDBRANCH  23  37
BRANCH  24  47
ATOM     47  C   UNL A   1      37.476  32.735  30.227  1.00  0.00    -0.014 A 
ATOM     48  C   UNL A   1      36.399  32.466  31.092  1.00  0.00     0.010 A 
ATOM     49  C   UNL A   1      37.300  33.693  29.208  1.00  0.00     0.010 A 
ATOM     50  C   UNL A   1      35.174  33.127  30.936  1.00  0.00     0.020 A 
ATOM     51  C   UNL A   1      36.078  34.367  29.057  1.00  0.00     0.020 A 
ATOM     52  C   UNL A   1      35.021  34.078  29.922  1.00  0.00     0.054 A 
BRANCH  52  53
ATOM     53  S   UNL A   1      33.430  34.950  29.787  1.00  0.00     0.124 S 
ATOM     54  O   UNL A   1      33.822  36.216  29.178  1.00  0.00    -0.237 OA
ATOM     55  O   UNL A   1      32.655  34.049  28.938  1.00  0.00    -0.237 OA
ATOM     56  O   UNL A   1      32.964  35.041  31.169  1.00  0.00    -0.744 OA
ENDBRANCH  52  53
ENDBRANCH  24  47
BRANCH  36  57
ATOM     57  C   UNL A   1      43.352  33.890  33.845  1.00  0.00    -0.014 A 
ATOM     58  C   UNL A   1      43.808  35.046  33.194  1.00  0.00     0.010 A 
ATOM     59  C   UNL A   1      43.226  33.888  35.249  1.00  0.00     0.010 A 
ATOM     60  C   UNL A   1      44.114  36.190  33.936  1.00  0.00     0.020 A 
ATOM     61  C   UNL A   1      43.503  35.037  35.988  1.00  0.00     0.020 A 
ATOM     62  C   UNL A   1      43.943  36.182  35.325  1.00  0.00     0.054 A 
BRANCH  62  63
ATOM     63  S   UNL A   1      44.217  37.720  36.248  1.00  0.00     0.124 S 
ATOM     64  O   UNL A   1      43.171  37.654  37.265  1.00  0.00    -0.237 OA
ATOM     65  O   UNL A   1      45.583  37.558  36.737  1.00  0.00    -0.237 OA
ATOM     66  O   UNL A   1      44.043  38.764  35.240  1.00  0.00    -0.744 OA
ENDBRANCH  62  63
ENDBRANCH  36  57
ENDBRANCH  10  11
ENDBRANCH   3   5
ENDBRANCH   2   3
ENDBRANCH   1   2
BRANCH   1  67
ATOM     67  C   UNL A   1      35.179  23.876  25.515  1.00  0.00     0.274 C 
BRANCH  67  68
ATOM     68  O   UNL A   1      34.357  22.710  25.355  1.00  0.00    -0.462 OA
BRANCH  68  69
ATOM     69  C   UNL A   1      33.000  22.872  25.363  1.00  0.00     0.310 C 
ATOM     70  O   UNL A   1      32.221  22.099  25.917  1.00  0.00    -0.252 OA
BRANCH  69  71
ATOM     71  C   UNL A   1      32.552  24.130  24.623  1.00  0.00     0.118 C 
ATOM     72  C   UNL A   1      32.044  23.804  23.225  1.00  0.00     0.019 C 
ATOM     73  C   UNL A   1      31.482  24.861  25.427  1.00  0.00     0.133 C 
ATOM     74  C   UNL A   1      31.431  24.987  22.502  1.00  0.00     0.022 C 
ATOM     75  N   UNL A   1      30.732  25.828  24.627  1.00  0.00    -0.356 N 
ATOM     76  C   UNL A   1      30.240  25.444  23.314  1.00  0.00     0.118 C 
BRANCH  75  77
ATOM     77  C   UNL A   1      30.935  27.189  24.755  1.00  0.00     0.133 A 
ATOM     78  C   UNL A   1      30.184  27.994  23.934  1.00  0.00     0.077 A 
ATOM     79  N   UNL A   1      31.849  27.689  25.590  1.00  0.00    -0.211 NA
ATOM     80  C   UNL A   1      30.339  29.357  24.031  1.00  0.00     0.095 A 
ATOM     81  C   UNL A   1      31.995  29.031  25.571  1.00  0.00     0.165 A 
ATOM     82  N   UNL A   1      31.270  29.903  24.837  1.00  0.00    -0.226 NA
BRANCH  80  83
ATOM     83  C   UNL A   1      29.399  30.205  23.280  1.00  0.00     0.089 A 
ATOM     84  C   UNL A   1      29.078  29.866  21.956  1.00  0.00     0.030 A 
ATOM     85  N   UNL A   1      29.019  31.384  23.833  1.00  0.00    -0.255 NA
ATOM     86  C   UNL A   1      28.406  30.777  21.157  1.00  0.00     0.004 A 
ATOM     87  C   UNL A   1      28.357  32.248  23.025  1.00  0.00     0.112 A 
ATOM     88  C   UNL A   1      28.043  31.998  21.698  1.00  0.00     0.020 A 
ENDBRANCH  80  83
BRANCH  81  89
ATOM     89  C   UNL A   1      33.022  29.580  26.446  1.00  0.00     0.055 A 
ATOM     90  C   UNL A   1      32.937  30.885  26.967  1.00  0.00     0.015 A 
ATOM     91  C   UNL A   1      34.149  28.820  26.768  1.00  0.00     0.134 A 
ATOM     92  C   UNL A   1      33.948  31.398  27.789  1.00  0.00     0.001 A 
ATOM     93  C   UNL A   1      35.163  29.326  27.581  1.00  0.00     0.040 A 
ATOM     94  F   UNL A   1      34.295  27.580  26.274  1.00  0.00    -0.206 F 
ATOM     95  C   UNL A   1      35.063  30.617  28.094  1.00  0.00     0.003 A 
ENDBRANCH  81  89
ENDBRANCH  75  77
ENDBRANCH  69  71
ENDBRANCH  68  69
ENDBRANCH  67  68
ENDBRANCH   1  67
TORSDOF 17
ENDMDL
MODEL 3
REMARK VINA RESULT:     -11.9      0.903      2.995
REMARK SMILES O=C(OCCOC(=O)[C@H]1CCCN(c2cc(-c3ccccn3)nc(-c3ccccc3F)n2)C1)c1ccc(-c2c3nc(c(-c4ccc(S(=O)(=O)[O-])cc4)c4ccc([nH]4)c(-c4ccc(S(=O)(=O)[O-])cc4)c4nc(c(-c5ccc(S(=O)(=O)[O-])cc5)c5ccc2[nH]5)C=C4)C=C3)cc1
REMARK SMILES IDX 4 1 3 2 2 3 1 4 34 5 35 6 93 7 36 8 92 9 37 10 38 11 39 12
REMARK SMILES IDX 86 13 40 14 91 15 85 16 87 17 41 18 90 19 84 20 83 21 42 23
REMARK SMILES IDX 72 24 53 25 71 26 54 27 57 28 70 29 88 30 55 31 56 32 69 34
REMARK SMILES IDX 89 35 58 36 43 37 44 38 52 39 45 40 51 41 46 42 47 43 48 44
REMARK SMILES IDX 49 45 50 46 73 47 74 48 82 49 75 50 81 51 76 52 77 53 78 54
REMARK SMILES IDX 79 55 80 56 59 57 60 58 68 59 61 60 67 61 62 62 63 63 64 64
REMARK SMILES IDX 65 65 66 66 5 67 6 68 7 69 8 70 9 71 10 72 33 73 11 74 13 75
REMARK SMILES IDX 12 76 14 77 15 78 32 79 16 80 24 81 23 82 17 83 18 84 22 85
REMARK SMILES IDX 19 86 21 87 20 88 25 89 26 90 30 91 27 92 29 93 31 94 28 95
REMARK H PARENT 87 22 57 33
REMARK Flexibility Score: inf
ROOT
ATOM      1  C   UNL A   1      32.435  29.246  26.475  1.00  0.00     0.275 C 
ENDROOT
BRANCH   1   2
ATOM      2  O   UNL A   1      33.603  29.184  27.307  1.00  0.00    -0.458 OA
BRANCH   2   3
ATOM      3  C   UNL A   1      34.445  30.165  27.709  1.00  0.00     0.338 C 
ATOM      4  O   UNL A   1      34.089  31.329  27.515  1.00  0.00    -0.246 OA
BRANCH   3   5
ATOM      5  C   UNL A   1      35.830  29.945  28.257  1.00  0.00     0.060 A 
ATOM      6  C   UNL A   1      36.195  29.696  29.589  1.00  0.00     0.016 A 
ATOM      7  C   UNL A   1      36.850  29.880  27.290  1.00  0.00     0.016 A 
ATOM      8  C   UNL A   1      37.492  29.268  29.938  1.00  0.00     0.010 A 
ATOM      9  C   UNL A   1      38.129  29.423  27.626  1.00  0.00     0.010 A 
ATOM     10  C   UNL A   1      38.459  29.087  28.955  1.00  0.00    -0.014 A 
BRANCH  10  11
ATOM     11  C   UNL A   1      39.874  28.734  29.251  1.00  0.00     0.031 A 
ATOM     12  C   UNL A   1      40.770  29.885  29.596  1.00  0.00     0.074 A 
ATOM     13  C   UNL A   1      40.394  27.498  29.091  1.00  0.00     0.049 A 
ATOM     14  N   UNL A   1      42.070  29.934  29.665  1.00  0.00    -0.248 NA
ATOM     15  C   UNL A   1      40.092  31.167  29.872  1.00  0.00     0.031 C 
ATOM     16  C   UNL A   1      39.647  26.269  28.834  1.00  0.00     0.029 A 
ATOM     17  N   UNL A   1      41.708  27.086  29.035  1.00  0.00    -0.354 N 
ATOM     18  C   UNL A   1      42.356  31.244  30.016  1.00  0.00     0.074 A 
ATOM     19  C   UNL A   1      41.120  31.987  29.985  1.00  0.00     0.031 C 
ATOM     20  C   UNL A   1      40.504  25.284  28.502  1.00  0.00     0.029 A 
ATOM     21  C   UNL A   1      41.865  25.800  28.555  1.00  0.00     0.049 A 
ATOM     22  H   UNL A   1      42.465  27.654  29.309  1.00  0.00     0.167 HD
ATOM     23  C   UNL A   1      43.533  31.766  30.424  1.00  0.00     0.031 A 
ATOM     24  C   UNL A   1      42.975  25.127  28.186  1.00  0.00     0.031 A 
ATOM     25  C   UNL A   1      44.755  31.023  30.441  1.00  0.00     0.049 A 
ATOM     26  C   UNL A   1      44.314  25.764  28.465  1.00  0.00     0.074 A 
ATOM     27  C   UNL A   1      46.002  31.417  30.881  1.00  0.00     0.029 A 
ATOM     28  N   UNL A   1      44.875  29.723  29.972  1.00  0.00    -0.354 N 
ATOM     29  N   UNL A   1      44.566  26.969  28.918  1.00  0.00    -0.248 NA
ATOM     30  C   UNL A   1      45.508  24.930  28.271  1.00  0.00     0.031 C 
ATOM     31  C   UNL A   1      46.891  30.366  30.630  1.00  0.00     0.029 A 
ATOM     32  C   UNL A   1      46.183  29.299  30.093  1.00  0.00     0.049 A 
ATOM     33  H   UNL A   1      44.137  29.182  29.609  1.00  0.00     0.167 HD
ATOM     34  C   UNL A   1      45.935  27.005  29.158  1.00  0.00     0.074 A 
ATOM     35  C   UNL A   1      46.463  25.719  28.750  1.00  0.00     0.031 C 
ATOM     36  C   UNL A   1      46.675  27.997  29.712  1.00  0.00     0.031 A 
BRANCH  23  37
ATOM     37  C   UNL A   1      43.486  33.192  30.895  1.00  0.00    -0.014 A 
ATOM     38  C   UNL A   1      43.830  34.240  30.015  1.00  0.00     0.010 A 
ATOM     39  C   UNL A   1      43.224  33.482  32.242  1.00  0.00     0.010 A 
ATOM     40  C   UNL A   1      44.017  35.534  30.498  1.00  0.00     0.020 A 
ATOM     41  C   UNL A   1      43.373  34.786  32.721  1.00  0.00     0.020 A 
ATOM     42  C   UNL A   1      43.804  35.794  31.854  1.00  0.00     0.054 A 
BRANCH  42  43
ATOM     43  S   UNL A   1      44.122  37.468  32.470  1.00  0.00     0.124 S 
ATOM     44  O   UNL A   1      45.546  37.403  32.794  1.00  0.00    -0.237 OA
ATOM     45  O   UNL A   1      43.779  38.303  31.322  1.00  0.00    -0.237 OA
ATOM     46  O   UNL A   1      43.227  37.589  33.617  1.00  0.00    -0.744 OA
ENDBRANCH  42  43
ENDBRANCH  23  37
BRANCH  24  47
ATOM     47  C   UNL A   1      42.887  23.763  27.582  1.00  0.00    -0.014 A 
ATOM     48  C   UNL A   1      42.638  22.636  28.386  1.00  0.00     0.010 A 
ATOM     49  C   UNL A   1      43.066  23.575  26.196  1.00  0.00     0.010 A 
ATOM     50  C   UNL A   1      42.580  21.355  27.825  1.00  0.00     0.020 A 
ATOM     51  C   UNL A   1      42.997  22.294  25.627  1.00  0.00     0.020 A 
ATOM     52  C   UNL A   1      42.756  21.190  26.447  1.00  0.00     0.054 A 
BRANCH  52  53
ATOM     53  S   UNL A   1      42.623  19.514  25.752  1.00  0.00     0.124 S 
ATOM     54  O   UNL A   1      41.209  19.435  25.401  1.00  0.00    -0.237 OA
ATOM     55  O   UNL A   1      43.555  19.571  24.628  1.00  0.00    -0.237 OA
ATOM     56  O   UNL A   1      43.042  18.647  26.851  1.00  0.00    -0.744 OA
ENDBRANCH  52  53
ENDBRANCH  24  47
BRANCH  36  57
ATOM     57  C   UNL A   1      48.117  27.717  30.023  1.00  0.00    -0.014 A 
ATOM     58  C   UNL A   1      49.142  28.035  29.120  1.00  0.00     0.010 A 
ATOM     59  C   UNL A   1      48.446  27.271  31.319  1.00  0.00     0.010 A 
ATOM     60  C   UNL A   1      50.478  27.928  29.515  1.00  0.00     0.020 A 
ATOM     61  C   UNL A   1      49.777  27.192  31.725  1.00  0.00     0.020 A 
ATOM     62  C   UNL A   1      50.785  27.524  30.820  1.00  0.00     0.054 A 
BRANCH  62  63
ATOM     63  S   UNL A   1      52.520  27.524  31.348  1.00  0.00     0.124 S 
ATOM     64  O   UNL A   1      52.853  28.945  31.295  1.00  0.00    -0.237 OA
ATOM     65  O   UNL A   1      52.445  26.944  32.687  1.00  0.00    -0.237 OA
ATOM     66  O   UNL A   1      53.187  26.689  30.351  1.00  0.00    -0.744 OA
ENDBRANCH  62  63
ENDBRANCH  36  57
ENDBRANCH  10  11
ENDBRANCH   3   5
ENDBRANCH   2   3
ENDBRANCH   1   2
BRANCH   1  67
ATOM     67  C   UNL A   1      32.722  29.039  24.984  1.00  0.00     0.274 C 
BRANCH  67  68
ATOM     68  O   UNL A   1      31.870  28.041  24.400  1.00  0.00    -0.462 OA
BRANCH  68  69
ATOM     69  C   UNL A   1      32.446  27.082  23.616  1.00  0.00     0.310 C 
ATOM     70  O   UNL A   1      32.916  27.300  22.500  1.00  0.00    -0.252 OA
BRANCH  69  71
ATOM     71  C   UNL A   1      32.462  25.707  24.280  1.00  0.00     0.118 C 
ATOM     72  C   UNL A   1      31.107  25.364  24.885  1.00  0.00     0.019 C 
ATOM     73  C   UNL A   1      32.888  24.641  23.277  1.00  0.00     0.133 C 
ATOM     74  C   UNL A   1      31.011  23.946  25.413  1.00  0.00     0.022 C 
ATOM     75  N   UNL A   1      32.551  23.286  23.709  1.00  0.00    -0.356 N 
ATOM     76  C   UNL A   1      31.226  23.013  24.243  1.00  0.00     0.118 C 
BRANCH  75  77
ATOM     77  C   UNL A   1      33.514  22.410  24.171  1.00  0.00     0.133 A 
ATOM     78  C   UNL A   1      33.145  21.090  24.254  1.00  0.00     0.077 A 
ATOM     79  N   UNL A   1      34.717  22.832  24.568  1.00  0.00    -0.211 NA
ATOM     80  C   UNL A   1      34.071  20.175  24.695  1.00  0.00     0.095 A 
ATOM     81  C   UNL A   1      35.543  21.884  25.060  1.00  0.00     0.165 A 
ATOM     82  N   UNL A   1      35.285  20.561  25.134  1.00  0.00    -0.226 NA
BRANCH  80  83
ATOM     83  C   UNL A   1      33.719  18.749  24.602  1.00  0.00     0.089 A 
ATOM     84  C   UNL A   1      32.461  18.323  25.055  1.00  0.00     0.030 A 
ATOM     85  N   UNL A   1      34.692  17.871  24.250  1.00  0.00    -0.255 NA
ATOM     86  C   UNL A   1      32.209  16.969  25.212  1.00  0.00     0.004 A 
ATOM     87  C   UNL A   1      34.409  16.556  24.409  1.00  0.00     0.112 A 
ATOM     88  C   UNL A   1      33.205  16.064  24.890  1.00  0.00     0.020 A 
ENDBRANCH  80  83
BRANCH  81  89
ATOM     89  C   UNL A   1      36.840  22.344  25.538  1.00  0.00     0.055 A 
ATOM     90  C   UNL A   1      37.034  23.652  26.020  1.00  0.00     0.015 A 
ATOM     91  C   UNL A   1      37.946  21.491  25.499  1.00  0.00     0.134 A 
ATOM     92  C   UNL A   1      38.296  24.078  26.453  1.00  0.00     0.001 A 
ATOM     93  C   UNL A   1      39.206  21.910  25.924  1.00  0.00     0.040 A 
ATOM     94  F   UNL A   1      37.823  20.243  25.021  1.00  0.00    -0.206 F 
ATOM     95  C   UNL A   1      39.382  23.205  26.404  1.00  0.00     0.003 A 
ENDBRANCH  81  89
ENDBRANCH  75  77
ENDBRANCH  69  71
ENDBRANCH  68  69
ENDBRANCH  67  68
ENDBRANCH   1  67
TORSDOF 17
ENDMDL
