MODEL 1
REMARK VINA RESULT:     -11.2      0.000      0.000
REMARK SMILES C[C@@H](NC(=O)[C@H]1CC=CC[C@@H]1C(=O)OCCOC(=O)c1ccc(-c2c3nc(c(-c4ccc(S(=O)(=O)[O-])cc4)c4ccc([nH]4)c(-c4ccc(S(=O)(=O)[O-])cc4)c4nc(c(-c5ccc(S(=O)(=O)[O-])cc5)c5ccc2[nH]5)C=C4)C=C3)cc1)c1ccc(-n2ccnc2)cc1
REMARK SMILES IDX 15 1 14 2 12 3 13 4 11 5 6 6 7 7 8 8 10 9 9 10 4 11 3 12
REMARK SMILES IDX 5 14 2 15 1 16 80 17 81 18 90 19 82 20 89 21 83 22 84 23
REMARK SMILES IDX 85 24 88 25 86 26 87 27 16 28 17 29 18 30 19 31 20 32 21 33
REMARK SMILES IDX 79 34 22 35 78 36 23 37 24 38 25 39 72 40 26 41 77 42 71 43
REMARK SMILES IDX 73 44 27 45 76 46 70 47 69 48 28 50 58 51 39 52 57 53 40 54
REMARK SMILES IDX 43 55 56 56 74 57 41 58 42 59 55 61 75 62 44 63 29 64 30 65
REMARK SMILES IDX 38 66 31 67 37 68 32 69 33 70 34 71 35 72 36 73 59 74 60 75
REMARK SMILES IDX 68 76 61 77 67 78 62 79 63 80 64 81 65 82 66 83 45 84 46 85
REMARK SMILES IDX 54 86 47 87 53 88 48 89 49 90 50 91 51 92 52 93
REMARK H PARENT 3 13 73 49 43 60
REMARK Flexibility Score: inf
ROOT
ATOM      1  C   UNL A   1      36.999  22.117  25.454  1.00  0.00     0.274 C 
ENDROOT
BRANCH   1   2
ATOM      2  O   UNL A   1      36.778  23.292  24.655  1.00  0.00    -0.462 OA
BRANCH   2   3
ATOM      3  C   UNL A   1      36.043  23.078  23.528  1.00  0.00     0.310 C 
ATOM      4  O   UNL A   1      36.539  22.841  22.431  1.00  0.00    -0.252 OA
BRANCH   3   5
ATOM      5  C   UNL A   1      34.604  23.484  23.674  1.00  0.00     0.115 C 
ATOM      6  C   UNL A   1      34.273  24.909  23.991  1.00  0.00     0.097 C 
ATOM      7  C   UNL A   1      34.062  25.119  25.514  1.00  0.00     0.041 C 
ATOM      8  C   UNL A   1      33.426  23.974  26.251  1.00  0.00    -0.030 C 
ATOM      9  C   UNL A   1      33.625  22.480  24.295  1.00  0.00     0.043 C 
ATOM     10  C   UNL A   1      33.212  22.780  25.691  1.00  0.00    -0.030 C 
BRANCH   6  11
ATOM     11  C   UNL A   1      33.143  25.413  23.065  1.00  0.00     0.224 C 
ATOM     12  N   UNL A   1      31.810  25.503  23.398  1.00  0.00    -0.349 N 
ATOM     13  H   UNL A   1      31.282  24.982  22.749  1.00  0.00     0.164 HD
ATOM     14  O   UNL A   1      33.372  25.516  21.851  1.00  0.00    -0.275 OA
BRANCH  12  15
ATOM     15  C   UNL A   1      30.860  26.127  24.420  1.00  0.00     0.109 C 
ATOM     16  C   UNL A   1      29.445  26.172  23.836  1.00  0.00     0.036 C 
BRANCH  15  17
ATOM     17  C   UNL A   1      31.224  27.373  25.256  1.00  0.00    -0.026 A 
ATOM     18  C   UNL A   1      31.376  28.658  24.691  1.00  0.00     0.008 A 
ATOM     19  C   UNL A   1      31.488  27.267  26.631  1.00  0.00     0.008 A 
ATOM     20  C   UNL A   1      31.990  29.714  25.395  1.00  0.00     0.027 A 
ATOM     21  C   UNL A   1      32.033  28.343  27.363  1.00  0.00     0.027 A 
ATOM     22  C   UNL A   1      32.403  29.535  26.718  1.00  0.00     0.046 A 
BRANCH  22  23
ATOM     23  N   UNL A   1      33.357  30.427  27.322  1.00  0.00    -0.306 N 
ATOM     24  C   UNL A   1      34.682  30.164  27.621  1.00  0.00     0.113 A 
ATOM     25  C   UNL A   1      33.208  31.784  27.558  1.00  0.00     0.204 A 
ATOM     26  C   UNL A   1      35.259  31.372  27.938  1.00  0.00     0.131 A 
ATOM     27  N   UNL A   1      34.327  32.365  27.939  1.00  0.00    -0.245 NA
ENDBRANCH  22  23
ENDBRANCH  15  17
ENDBRANCH  12  15
ENDBRANCH   6  11
ENDBRANCH   3   5
ENDBRANCH   2   3
ENDBRANCH   1   2
BRANCH   1  28
ATOM     28  C   UNL A   1      38.356  21.446  25.265  1.00  0.00     0.275 C 
BRANCH  28  29
ATOM     29  O   UNL A   1      39.119  21.425  26.479  1.00  0.00    -0.458 OA
BRANCH  29  30
ATOM     30  C   UNL A   1      40.208  22.224  26.431  1.00  0.00     0.338 C 
ATOM     31  O   UNL A   1      41.172  22.088  25.690  1.00  0.00    -0.246 OA
BRANCH  30  32
ATOM     32  C   UNL A   1      40.099  23.401  27.309  1.00  0.00     0.060 A 
ATOM     33  C   UNL A   1      39.296  24.467  26.929  1.00  0.00     0.016 A 
ATOM     34  C   UNL A   1      41.088  23.597  28.267  1.00  0.00     0.016 A 
ATOM     35  C   UNL A   1      39.662  25.758  27.268  1.00  0.00     0.010 A 
ATOM     36  C   UNL A   1      41.338  24.885  28.743  1.00  0.00     0.010 A 
ATOM     37  C   UNL A   1      40.706  25.996  28.158  1.00  0.00    -0.014 A 
BRANCH  37  38
ATOM     38  C   UNL A   1      41.235  27.374  28.363  1.00  0.00     0.031 A 
ATOM     39  C   UNL A   1      42.679  27.656  28.025  1.00  0.00     0.074 A 
ATOM     40  C   UNL A   1      40.454  28.393  28.774  1.00  0.00     0.049 A 
ATOM     41  N   UNL A   1      43.452  28.624  28.440  1.00  0.00    -0.248 NA
ATOM     42  C   UNL A   1      43.349  26.701  27.124  1.00  0.00     0.031 C 
ATOM     43  C   UNL A   1      39.005  28.346  28.987  1.00  0.00     0.029 A 
ATOM     44  N   UNL A   1      40.782  29.693  29.077  1.00  0.00    -0.354 N 
ATOM     45  C   UNL A   1      44.722  28.327  27.955  1.00  0.00     0.074 A 
ATOM     46  C   UNL A   1      44.609  27.106  27.189  1.00  0.00     0.031 C 
ATOM     47  C   UNL A   1      38.564  29.568  29.310  1.00  0.00     0.029 A 
ATOM     48  C   UNL A   1      39.712  30.438  29.511  1.00  0.00     0.049 A 
ATOM     49  H   UNL A   1      41.694  30.054  28.991  1.00  0.00     0.167 HD
ATOM     50  C   UNL A   1      45.877  29.004  28.165  1.00  0.00     0.031 A 
ATOM     51  C   UNL A   1      39.660  31.647  30.102  1.00  0.00     0.031 A 
ATOM     52  C   UNL A   1      45.939  30.259  28.870  1.00  0.00     0.049 A 
ATOM     53  C   UNL A   1      40.950  32.345  30.414  1.00  0.00     0.074 A 
ATOM     54  C   UNL A   1      47.046  31.036  29.157  1.00  0.00     0.029 A 
ATOM     55  N   UNL A   1      44.835  30.931  29.376  1.00  0.00    -0.354 N 
ATOM     56  N   UNL A   1      42.174  31.986  30.109  1.00  0.00    -0.248 NA
ATOM     57  C   UNL A   1      40.854  33.588  31.188  1.00  0.00     0.031 C 
ATOM     58  C   UNL A   1      46.617  32.151  29.887  1.00  0.00     0.029 A 
ATOM     59  C   UNL A   1      45.236  32.102  29.995  1.00  0.00     0.049 A 
ATOM     60  H   UNL A   1      43.904  30.620  29.306  1.00  0.00     0.167 HD
ATOM     61  C   UNL A   1      42.998  32.969  30.645  1.00  0.00     0.074 A 
ATOM     62  C   UNL A   1      42.128  33.943  31.276  1.00  0.00     0.031 C 
ATOM     63  C   UNL A   1      44.351  33.054  30.620  1.00  0.00     0.031 A 
BRANCH  50  64
ATOM     64  C   UNL A   1      47.164  28.352  27.723  1.00  0.00    -0.014 A 
ATOM     65  C   UNL A   1      47.770  28.627  26.484  1.00  0.00     0.010 A 
ATOM     66  C   UNL A   1      47.782  27.430  28.590  1.00  0.00     0.010 A 
ATOM     67  C   UNL A   1      48.933  27.948  26.099  1.00  0.00     0.020 A 
ATOM     68  C   UNL A   1      48.962  26.776  28.225  1.00  0.00     0.020 A 
ATOM     69  C   UNL A   1      49.517  27.021  26.969  1.00  0.00     0.054 A 
BRANCH  69  70
ATOM     70  S   UNL A   1      51.016  26.145  26.444  1.00  0.00     0.124 S 
ATOM     71  O   UNL A   1      52.071  26.996  26.990  1.00  0.00    -0.237 OA
ATOM     72  O   UNL A   1      50.868  24.841  27.086  1.00  0.00    -0.237 OA
ATOM     73  O   UNL A   1      50.920  26.133  24.987  1.00  0.00    -0.744 OA
ENDBRANCH  69  70
ENDBRANCH  50  64
BRANCH  51  74
ATOM     74  C   UNL A   1      38.346  32.201  30.530  1.00  0.00    -0.014 A 
ATOM     75  C   UNL A   1      37.738  31.762  31.717  1.00  0.00     0.010 A 
ATOM     76  C   UNL A   1      37.723  33.221  29.781  1.00  0.00     0.010 A 
ATOM     77  C   UNL A   1      36.545  32.343  32.157  1.00  0.00     0.020 A 
ATOM     78  C   UNL A   1      36.553  33.830  30.237  1.00  0.00     0.020 A 
ATOM     79  C   UNL A   1      35.968  33.383  31.422  1.00  0.00     0.054 A 
BRANCH  79  80
ATOM     80  S   UNL A   1      34.478  34.190  32.069  1.00  0.00     0.124 S 
ATOM     81  O   UNL A   1      35.037  35.330  32.789  1.00  0.00    -0.237 OA
ATOM     82  O   UNL A   1      33.739  34.511  30.850  1.00  0.00    -0.237 OA
ATOM     83  O   UNL A   1      33.865  33.159  32.905  1.00  0.00    -0.744 OA
ENDBRANCH  79  80
ENDBRANCH  51  74
BRANCH  63  84
ATOM     84  C   UNL A   1      44.968  34.271  31.253  1.00  0.00    -0.014 A 
ATOM     85  C   UNL A   1      45.448  34.247  32.573  1.00  0.00     0.010 A 
ATOM     86  C   UNL A   1      45.099  35.449  30.493  1.00  0.00     0.010 A 
ATOM     87  C   UNL A   1      46.018  35.391  33.135  1.00  0.00     0.020 A 
ATOM     88  C   UNL A   1      45.696  36.585  31.041  1.00  0.00     0.020 A 
ATOM     89  C   UNL A   1      46.139  36.553  32.365  1.00  0.00     0.054 A 
BRANCH  89  90
ATOM     90  S   UNL A   1      46.919  38.012  33.105  1.00  0.00     0.124 S 
ATOM     91  O   UNL A   1      45.983  39.073  32.744  1.00  0.00    -0.237 OA
ATOM     92  O   UNL A   1      46.963  37.667  34.524  1.00  0.00    -0.237 OA
ATOM     93  O   UNL A   1      48.222  38.080  32.446  1.00  0.00    -0.744 OA
ENDBRANCH  89  90
ENDBRANCH  63  84
ENDBRANCH  37  38
ENDBRANCH  30  32
ENDBRANCH  29  30
ENDBRANCH  28  29
ENDBRANCH   1  28
TORSDOF 18
ENDMDL
MODEL 2
REMARK VINA RESULT:     -11.2      2.791      9.749
REMARK SMILES C[C@@H](NC(=O)[C@H]1CC=CC[C@@H]1C(=O)OCCOC(=O)c1ccc(-c2c3nc(c(-c4ccc(S(=O)(=O)[O-])cc4)c4ccc([nH]4)c(-c4ccc(S(=O)(=O)[O-])cc4)c4nc(c(-c5ccc(S(=O)(=O)[O-])cc5)c5ccc2[nH]5)C=C4)C=C3)cc1)c1ccc(-n2ccnc2)cc1
REMARK SMILES IDX 15 1 14 2 12 3 13 4 11 5 6 6 7 7 8 8 10 9 9 10 4 11 3 12
REMARK SMILES IDX 5 14 2 15 1 16 80 17 81 18 90 19 82 20 89 21 83 22 84 23
REMARK SMILES IDX 85 24 88 25 86 26 87 27 16 28 17 29 18 30 19 31 20 32 21 33
REMARK SMILES IDX 79 34 22 35 78 36 23 37 24 38 25 39 72 40 26 41 77 42 71 43
REMARK SMILES IDX 73 44 27 45 76 46 70 47 69 48 28 50 58 51 39 52 57 53 40 54
REMARK SMILES IDX 43 55 56 56 74 57 41 58 42 59 55 61 75 62 44 63 29 64 30 65
REMARK SMILES IDX 38 66 31 67 37 68 32 69 33 70 34 71 35 72 36 73 59 74 60 75
REMARK SMILES IDX 68 76 61 77 67 78 62 79 63 80 64 81 65 82 66 83 45 84 46 85
REMARK SMILES IDX 54 86 47 87 53 88 48 89 49 90 50 91 51 92 52 93
REMARK H PARENT 3 13 73 49 43 60
REMARK Flexibility Score: inf
ROOT
ATOM      1  C   UNL A   1      33.731  30.679  27.188  1.00  0.00     0.274 C 
ENDROOT
BRANCH   1   2
ATOM      2  O   UNL A   1      32.406  30.119  27.203  1.00  0.00    -0.462 OA
BRANCH   2   3
ATOM      3  C   UNL A   1      31.725  30.250  26.031  1.00  0.00     0.310 C 
ATOM      4  O   UNL A   1      31.081  31.251  25.730  1.00  0.00    -0.252 OA
BRANCH   3   5
ATOM      5  C   UNL A   1      31.557  28.952  25.295  1.00  0.00     0.115 C 
ATOM      6  C   UNL A   1      32.489  27.817  25.589  1.00  0.00     0.097 C 
ATOM      7  C   UNL A   1      33.663  27.769  24.575  1.00  0.00     0.041 C 
ATOM      8  C   UNL A   1      33.332  28.180  23.168  1.00  0.00    -0.030 C 
ATOM      9  C   UNL A   1      31.099  28.998  23.832  1.00  0.00     0.043 C 
ATOM     10  C   UNL A   1      32.159  28.723  22.828  1.00  0.00    -0.030 C 
BRANCH   6  11
ATOM     11  C   UNL A   1      31.691  26.508  25.779  1.00  0.00     0.224 C 
ATOM     12  N   UNL A   1      31.396  25.594  24.792  1.00  0.00    -0.349 N 
ATOM     13  H   UNL A   1      30.420  25.469  24.752  1.00  0.00     0.164 HD
ATOM     14  O   UNL A   1      31.040  26.355  26.823  1.00  0.00    -0.275 OA
BRANCH  12  15
ATOM     15  C   UNL A   1      32.052  24.705  23.735  1.00  0.00     0.109 C 
ATOM     16  C   UNL A   1      31.784  25.291  22.344  1.00  0.00     0.036 C 
BRANCH  15  17
ATOM     17  C   UNL A   1      31.993  23.163  23.778  1.00  0.00    -0.026 A 
ATOM     18  C   UNL A   1      32.131  22.422  24.972  1.00  0.00     0.008 A 
ATOM     19  C   UNL A   1      31.862  22.414  22.597  1.00  0.00     0.008 A 
ATOM     20  C   UNL A   1      32.372  21.033  24.965  1.00  0.00     0.027 A 
ATOM     21  C   UNL A   1      32.028  21.012  22.590  1.00  0.00     0.027 A 
ATOM     22  C   UNL A   1      32.408  20.330  23.758  1.00  0.00     0.046 A 
BRANCH  22  23
ATOM     23  N   UNL A   1      33.021  19.031  23.677  1.00  0.00    -0.306 N 
ATOM     24  C   UNL A   1      33.915  18.466  24.570  1.00  0.00     0.113 A 
ATOM     25  C   UNL A   1      32.708  18.005  22.801  1.00  0.00     0.204 A 
ATOM     26  C   UNL A   1      34.024  17.138  24.228  1.00  0.00     0.131 A 
ATOM     27  N   UNL A   1      33.305  16.870  23.103  1.00  0.00    -0.245 NA
ENDBRANCH  22  23
ENDBRANCH  15  17
ENDBRANCH  12  15
ENDBRANCH   6  11
ENDBRANCH   3   5
ENDBRANCH   2   3
ENDBRANCH   1   2
BRANCH   1  28
ATOM     28  C   UNL A   1      33.906  31.960  27.999  1.00  0.00     0.275 C 
BRANCH  28  29
ATOM     29  O   UNL A   1      34.365  31.694  29.332  1.00  0.00    -0.458 OA
BRANCH  29  30
ATOM     30  C   UNL A   1      35.679  31.964  29.500  1.00  0.00     0.338 C 
ATOM     31  O   UNL A   1      36.155  33.026  29.875  1.00  0.00    -0.246 OA
BRANCH  30  32
ATOM     32  C   UNL A   1      36.541  30.790  29.288  1.00  0.00     0.060 A 
ATOM     33  C   UNL A   1      37.036  30.097  30.383  1.00  0.00     0.016 A 
ATOM     34  C   UNL A   1      37.161  30.648  28.051  1.00  0.00     0.016 A 
ATOM     35  C   UNL A   1      38.291  29.517  30.320  1.00  0.00     0.010 A 
ATOM     36  C   UNL A   1      38.341  29.907  27.955  1.00  0.00     0.010 A 
ATOM     37  C   UNL A   1      38.982  29.434  29.114  1.00  0.00    -0.014 A 
BRANCH  37  38
ATOM     38  C   UNL A   1      40.407  29.003  29.078  1.00  0.00     0.031 A 
ATOM     39  C   UNL A   1      41.476  29.991  29.478  1.00  0.00     0.074 A 
ATOM     40  C   UNL A   1      40.772  27.743  28.767  1.00  0.00     0.049 A 
ATOM     41  N   UNL A   1      42.751  29.991  29.193  1.00  0.00    -0.248 NA
ATOM     42  C   UNL A   1      41.044  31.149  30.280  1.00  0.00     0.031 C 
ATOM     43  C   UNL A   1      39.871  26.614  28.518  1.00  0.00     0.029 A 
ATOM     44  N   UNL A   1      42.024  27.194  28.621  1.00  0.00    -0.354 N 
ATOM     45  C   UNL A   1      43.245  31.202  29.670  1.00  0.00     0.074 A 
ATOM     46  C   UNL A   1      42.138  31.896  30.290  1.00  0.00     0.031 C 
ATOM     47  C   UNL A   1      40.594  25.503  28.325  1.00  0.00     0.029 A 
ATOM     48  C   UNL A   1      41.999  25.871  28.250  1.00  0.00     0.049 A 
ATOM     49  H   UNL A   1      42.856  27.700  28.768  1.00  0.00     0.167 HD
ATOM     50  C   UNL A   1      44.503  31.691  29.564  1.00  0.00     0.031 A 
ATOM     51  C   UNL A   1      42.977  25.063  27.798  1.00  0.00     0.031 A 
ATOM     52  C   UNL A   1      45.599  30.940  29.008  1.00  0.00     0.049 A 
ATOM     53  C   UNL A   1      44.346  25.641  27.597  1.00  0.00     0.074 A 
ATOM     54  C   UNL A   1      46.915  31.326  28.835  1.00  0.00     0.029 A 
ATOM     55  N   UNL A   1      45.504  29.631  28.556  1.00  0.00    -0.354 N 
ATOM     56  N   UNL A   1      44.781  26.844  27.887  1.00  0.00    -0.248 NA
ATOM     57  C   UNL A   1      45.342  24.768  26.966  1.00  0.00     0.031 C 
ATOM     58  C   UNL A   1      47.603  30.270  28.227  1.00  0.00     0.029 A 
ATOM     59  C   UNL A   1      46.731  29.202  28.083  1.00  0.00     0.049 A 
ATOM     60  H   UNL A   1      44.683  29.087  28.569  1.00  0.00     0.167 HD
ATOM     61  C   UNL A   1      46.111  26.870  27.485  1.00  0.00     0.074 A 
ATOM     62  C   UNL A   1      46.408  25.555  26.949  1.00  0.00     0.031 C 
ATOM     63  C   UNL A   1      47.002  27.889  27.550  1.00  0.00     0.031 A 
BRANCH  50  64
ATOM     64  C   UNL A   1      44.733  33.130  29.959  1.00  0.00    -0.014 A 
ATOM     65  C   UNL A   1      45.116  33.511  31.257  1.00  0.00     0.010 A 
ATOM     66  C   UNL A   1      44.555  34.130  28.983  1.00  0.00     0.010 A 
ATOM     67  C   UNL A   1      45.257  34.866  31.584  1.00  0.00     0.020 A 
ATOM     68  C   UNL A   1      44.729  35.481  29.295  1.00  0.00     0.020 A 
ATOM     69  C   UNL A   1      45.055  35.842  30.603  1.00  0.00     0.054 A 
BRANCH  69  70
ATOM     70  S   UNL A   1      45.232  37.591  31.052  1.00  0.00     0.124 S 
ATOM     71  O   UNL A   1      43.977  37.850  31.757  1.00  0.00    -0.237 OA
ATOM     72  O   UNL A   1      46.430  37.588  31.888  1.00  0.00    -0.237 OA
ATOM     73  O   UNL A   1      45.374  38.269  29.767  1.00  0.00    -0.744 OA
ENDBRANCH  69  70
ENDBRANCH  50  64
BRANCH  51  74
ATOM     74  C   UNL A   1      42.653  23.663  27.407  1.00  0.00    -0.014 A 
ATOM     75  C   UNL A   1      42.333  23.351  26.076  1.00  0.00     0.010 A 
ATOM     76  C   UNL A   1      42.724  22.621  28.355  1.00  0.00     0.010 A 
ATOM     77  C   UNL A   1      42.109  22.024  25.695  1.00  0.00     0.020 A 
ATOM     78  C   UNL A   1      42.540  21.292  27.971  1.00  0.00     0.020 A 
ATOM     79  C   UNL A   1      42.229  21.002  26.643  1.00  0.00     0.054 A 
BRANCH  79  80
ATOM     80  S   UNL A   1      42.037  19.281  26.102  1.00  0.00     0.124 S 
ATOM     81  O   UNL A   1      40.618  19.223  25.769  1.00  0.00    -0.237 OA
ATOM     82  O   UNL A   1      42.958  19.202  24.970  1.00  0.00    -0.237 OA
ATOM     83  O   UNL A   1      42.439  18.506  27.275  1.00  0.00    -0.744 OA
ENDBRANCH  79  80
ENDBRANCH  51  74
BRANCH  63  84
ATOM     84  C   UNL A   1      48.400  27.603  27.073  1.00  0.00    -0.014 A 
ATOM     85  C   UNL A   1      48.782  27.837  25.741  1.00  0.00     0.010 A 
ATOM     86  C   UNL A   1      49.354  27.123  27.990  1.00  0.00     0.010 A 
ATOM     87  C   UNL A   1      50.087  27.564  25.326  1.00  0.00     0.020 A 
ATOM     88  C   UNL A   1      50.667  26.878  27.586  1.00  0.00     0.020 A 
ATOM     89  C   UNL A   1      51.022  27.087  26.252  1.00  0.00     0.054 A 
BRANCH  89  90
ATOM     90  S   UNL A   1      52.719  26.779  25.697  1.00  0.00     0.124 S 
ATOM     91  O   UNL A   1      52.932  25.398  26.123  1.00  0.00    -0.237 OA
ATOM     92  O   UNL A   1      52.627  26.984  24.254  1.00  0.00    -0.237 OA
ATOM     93  O   UNL A   1      53.506  27.780  26.414  1.00  0.00    -0.744 OA
ENDBRANCH  89  90
ENDBRANCH  63  84
ENDBRANCH  37  38
ENDBRANCH  30  32
ENDBRANCH  29  30
ENDBRANCH  28  29
ENDBRANCH   1  28
TORSDOF 18
ENDMDL
MODEL 3
REMARK VINA RESULT:     -10.9      5.036      7.565
REMARK SMILES C[C@@H](NC(=O)[C@H]1CC=CC[C@@H]1C(=O)OCCOC(=O)c1ccc(-c2c3nc(c(-c4ccc(S(=O)(=O)[O-])cc4)c4ccc([nH]4)c(-c4ccc(S(=O)(=O)[O-])cc4)c4nc(c(-c5ccc(S(=O)(=O)[O-])cc5)c5ccc2[nH]5)C=C4)C=C3)cc1)c1ccc(-n2ccnc2)cc1
REMARK SMILES IDX 15 1 14 2 12 3 13 4 11 5 6 6 7 7 8 8 10 9 9 10 4 11 3 12
REMARK SMILES IDX 5 14 2 15 1 16 80 17 81 18 90 19 82 20 89 21 83 22 84 23
REMARK SMILES IDX 85 24 88 25 86 26 87 27 16 28 17 29 18 30 19 31 20 32 21 33
REMARK SMILES IDX 79 34 22 35 78 36 23 37 24 38 25 39 72 40 26 41 77 42 71 43
REMARK SMILES IDX 73 44 27 45 76 46 70 47 69 48 28 50 58 51 39 52 57 53 40 54
REMARK SMILES IDX 43 55 56 56 74 57 41 58 42 59 55 61 75 62 44 63 29 64 30 65
REMARK SMILES IDX 38 66 31 67 37 68 32 69 33 70 34 71 35 72 36 73 59 74 60 75
REMARK SMILES IDX 68 76 61 77 67 78 62 79 63 80 64 81 65 82 66 83 45 84 46 85
REMARK SMILES IDX 54 86 47 87 53 88 48 89 49 90 50 91 51 92 52 93
REMARK H PARENT 3 13 73 49 43 60
REMARK Flexibility Score: inf
ROOT
ATOM      1  C   UNL A   1      32.542  28.873  26.647  1.00  0.00     0.274 C 
ENDROOT
BRANCH   1   2
ATOM      2  O   UNL A   1      32.540  27.508  27.098  1.00  0.00    -0.462 OA
BRANCH   2   3
ATOM      3  C   UNL A   1      31.573  26.729  26.535  1.00  0.00     0.310 C 
ATOM      4  O   UNL A   1      30.403  26.733  26.901  1.00  0.00    -0.252 OA
BRANCH   3   5
ATOM      5  C   UNL A   1      32.126  25.637  25.665  1.00  0.00     0.115 C 
ATOM      6  C   UNL A   1      31.407  24.326  25.590  1.00  0.00     0.097 C 
ATOM      7  C   UNL A   1      32.013  23.288  26.574  1.00  0.00     0.041 C 
ATOM      8  C   UNL A   1      33.499  23.368  26.777  1.00  0.00    -0.030 C 
ATOM      9  C   UNL A   1      33.649  25.502  25.545  1.00  0.00     0.043 C 
ATOM     10  C   UNL A   1      34.245  24.366  26.294  1.00  0.00    -0.030 C 
BRANCH   6  11
ATOM     11  C   UNL A   1      31.268  23.877  24.118  1.00  0.00     0.224 C 
ATOM     12  N   UNL A   1      32.220  23.198  23.390  1.00  0.00    -0.349 N 
ATOM     13  H   UNL A   1      32.431  23.714  22.579  1.00  0.00     0.164 HD
ATOM     14  O   UNL A   1      30.355  24.360  23.433  1.00  0.00    -0.275 OA
BRANCH  12  15
ATOM     15  C   UNL A   1      33.066  21.925  23.400  1.00  0.00     0.109 C 
ATOM     16  C   UNL A   1      32.245  20.776  23.996  1.00  0.00     0.036 C 
BRANCH  15  17
ATOM     17  C   UNL A   1      34.552  21.905  23.820  1.00  0.00    -0.026 A 
ATOM     18  C   UNL A   1      35.071  20.990  24.763  1.00  0.00     0.008 A 
ATOM     19  C   UNL A   1      35.455  22.855  23.318  1.00  0.00     0.008 A 
ATOM     20  C   UNL A   1      36.339  21.168  25.354  1.00  0.00     0.027 A 
ATOM     21  C   UNL A   1      36.755  22.993  23.852  1.00  0.00     0.027 A 
ATOM     22  C   UNL A   1      37.159  22.229  24.960  1.00  0.00     0.046 A 
BRANCH  22  23
ATOM     23  N   UNL A   1      38.253  22.664  25.786  1.00  0.00    -0.306 N 
ATOM     24  C   UNL A   1      38.391  23.884  26.425  1.00  0.00     0.113 A 
ATOM     25  C   UNL A   1      39.299  21.896  26.270  1.00  0.00     0.204 A 
ATOM     26  C   UNL A   1      39.448  23.753  27.296  1.00  0.00     0.131 A 
ATOM     27  N   UNL A   1      40.033  22.531  27.161  1.00  0.00    -0.245 NA
ENDBRANCH  22  23
ENDBRANCH  15  17
ENDBRANCH  12  15
ENDBRANCH   6  11
ENDBRANCH   3   5
ENDBRANCH   2   3
ENDBRANCH   1   2
BRANCH   1  28
ATOM     28  C   UNL A   1      33.921  29.518  26.529  1.00  0.00     0.275 C 
BRANCH  28  29
ATOM     29  O   UNL A   1      33.890  30.916  26.846  1.00  0.00    -0.458 OA
BRANCH  29  30
ATOM     30  C   UNL A   1      34.542  31.210  27.993  1.00  0.00     0.338 C 
ATOM     31  O   UNL A   1      34.055  31.726  28.989  1.00  0.00    -0.246 OA
BRANCH  30  32
ATOM     32  C   UNL A   1      35.938  30.742  27.998  1.00  0.00     0.060 A 
ATOM     33  C   UNL A   1      36.215  29.419  28.311  1.00  0.00     0.016 A 
ATOM     34  C   UNL A   1      36.947  31.694  28.095  1.00  0.00     0.016 A 
ATOM     35  C   UNL A   1      37.379  29.102  28.990  1.00  0.00     0.010 A 
ATOM     36  C   UNL A   1      38.189  31.328  28.619  1.00  0.00     0.010 A 
ATOM     37  C   UNL A   1      38.377  30.054  29.183  1.00  0.00    -0.014 A 
BRANCH  37  38
ATOM     38  C   UNL A   1      39.530  29.779  30.086  1.00  0.00     0.031 A 
ATOM     39  C   UNL A   1      40.645  28.890  29.590  1.00  0.00     0.074 A 
ATOM     40  C   UNL A   1      39.647  30.350  31.302  1.00  0.00     0.049 A 
ATOM     41  N   UNL A   1      41.537  28.223  30.273  1.00  0.00    -0.248 NA
ATOM     42  C   UNL A   1      40.749  28.705  28.132  1.00  0.00     0.031 C 
ATOM     43  C   UNL A   1      38.755  31.360  31.876  1.00  0.00     0.029 A 
ATOM     44  N   UNL A   1      40.594  30.162  32.280  1.00  0.00    -0.354 N 
ATOM     45  C   UNL A   1      42.221  27.446  29.343  1.00  0.00     0.074 A 
ATOM     46  C   UNL A   1      41.663  27.750  28.044  1.00  0.00     0.031 C 
ATOM     47  C   UNL A   1      39.235  31.753  33.063  1.00  0.00     0.029 A 
ATOM     48  C   UNL A   1      40.355  30.896  33.418  1.00  0.00     0.049 A 
ATOM     49  H   UNL A   1      41.367  29.561  32.176  1.00  0.00     0.167 HD
ATOM     50  C   UNL A   1      43.204  26.542  29.570  1.00  0.00     0.031 A 
ATOM     51  C   UNL A   1      40.901  30.822  34.646  1.00  0.00     0.031 A 
ATOM     52  C   UNL A   1      43.789  26.321  30.868  1.00  0.00     0.049 A 
ATOM     53  C   UNL A   1      41.921  29.755  34.911  1.00  0.00     0.074 A 
ATOM     54  C   UNL A   1      44.780  25.428  31.230  1.00  0.00     0.029 A 
ATOM     55  N   UNL A   1      43.446  27.025  32.014  1.00  0.00    -0.354 N 
ATOM     56  N   UNL A   1      42.452  28.899  34.072  1.00  0.00    -0.248 NA
ATOM     57  C   UNL A   1      42.381  29.616  36.297  1.00  0.00     0.031 C 
ATOM     58  C   UNL A   1      44.997  25.553  32.607  1.00  0.00     0.029 A 
ATOM     59  C   UNL A   1      44.190  26.571  33.089  1.00  0.00     0.049 A 
ATOM     60  H   UNL A   1      42.772  27.741  32.056  1.00  0.00     0.167 HD
ATOM     61  C   UNL A   1      43.323  28.123  34.828  1.00  0.00     0.074 A 
ATOM     62  C   UNL A   1      43.257  28.628  36.186  1.00  0.00     0.031 C 
ATOM     63  C   UNL A   1      44.103  27.086  34.434  1.00  0.00     0.031 A 
BRANCH  50  64
ATOM     64  C   UNL A   1      43.627  25.659  28.421  1.00  0.00    -0.014 A 
ATOM     65  C   UNL A   1      43.015  24.424  28.146  1.00  0.00     0.010 A 
ATOM     66  C   UNL A   1      44.680  26.094  27.593  1.00  0.00     0.010 A 
ATOM     67  C   UNL A   1      43.487  23.617  27.103  1.00  0.00     0.020 A 
ATOM     68  C   UNL A   1      45.132  25.308  26.529  1.00  0.00     0.020 A 
ATOM     69  C   UNL A   1      44.548  24.061  26.306  1.00  0.00     0.054 A 
BRANCH  69  70
ATOM     70  S   UNL A   1      45.151  22.994  24.969  1.00  0.00     0.124 S 
ATOM     71  O   UNL A   1      45.908  21.984  25.706  1.00  0.00    -0.237 OA
ATOM     72  O   UNL A   1      43.913  22.522  24.352  1.00  0.00    -0.237 OA
ATOM     73  O   UNL A   1      45.953  23.891  24.142  1.00  0.00    -0.744 OA
ENDBRANCH  69  70
ENDBRANCH  50  64
BRANCH  51  74
ATOM     74  C   UNL A   1      40.403  31.716  35.728  1.00  0.00    -0.014 A 
ATOM     75  C   UNL A   1      39.114  31.545  36.257  1.00  0.00     0.010 A 
ATOM     76  C   UNL A   1      41.242  32.706  36.281  1.00  0.00     0.010 A 
ATOM     77  C   UNL A   1      38.679  32.333  37.328  1.00  0.00     0.020 A 
ATOM     78  C   UNL A   1      40.826  33.466  37.374  1.00  0.00     0.020 A 
ATOM     79  C   UNL A   1      39.544  33.278  37.889  1.00  0.00     0.054 A 
BRANCH  79  80
ATOM     80  S   UNL A   1      38.994  34.212  39.343  1.00  0.00     0.124 S 
ATOM     81  O   UNL A   1      37.796  33.480  39.740  1.00  0.00    -0.237 OA
ATOM     82  O   UNL A   1      40.138  34.094  40.244  1.00  0.00    -0.237 OA
ATOM     83  O   UNL A   1      38.762  35.557  38.819  1.00  0.00    -0.744 OA
ENDBRANCH  79  80
ENDBRANCH  51  74
BRANCH  63  84
ATOM     84  C   UNL A   1      44.985  26.462  35.480  1.00  0.00    -0.014 A 
ATOM     85  C   UNL A   1      44.554  25.362  36.241  1.00  0.00     0.010 A 
ATOM     86  C   UNL A   1      46.283  26.969  35.676  1.00  0.00     0.010 A 
ATOM     87  C   UNL A   1      45.395  24.800  37.204  1.00  0.00     0.020 A 
ATOM     88  C   UNL A   1      47.137  26.391  36.616  1.00  0.00     0.020 A 
ATOM     89  C   UNL A   1      46.682  25.319  37.385  1.00  0.00     0.054 A 
BRANCH  89  90
ATOM     90  S   UNL A   1      47.768  24.546  38.614  1.00  0.00     0.124 S 
ATOM     91  O   UNL A   1      46.889  24.448  39.776  1.00  0.00    -0.237 OA
ATOM     92  O   UNL A   1      48.117  23.278  37.981  1.00  0.00    -0.237 OA
ATOM     93  O   UNL A   1      48.871  25.495  38.746  1.00  0.00    -0.744 OA
ENDBRANCH  89  90
ENDBRANCH  63  84
ENDBRANCH  37  38
ENDBRANCH  30  32
ENDBRANCH  29  30
ENDBRANCH  28  29
ENDBRANCH   1  28
TORSDOF 18
ENDMDL
