MODEL 1
REMARK VINA RESULT:     -10.0      0.000      0.000
REMARK SMILES CCOc1ccccc1NC(=O)N[C@@](C)(CC)C(=O)OCCOC(=O)c1ccc(-c2c3nc(c(-c4ccc(S(=O)(=O)[O-])cc4)c4ccc([nH]4)c(-c4ccc(S(=O)(=O)[O-])cc4)c4nc(c(-c5ccc(S(=O)(=O)[O-])cc5)c5ccc2[nH]5)C=C4)C=C3)cc1
REMARK SMILES IDX 21 1 20 2 18 3 19 4 14 5 15 6 13 7 10 8 11 9 12 11 9 13 4 14
REMARK SMILES IDX 5 15 6 16 8 17 7 18 3 19 2 20 1 21 16 22 17 23 22 24 23 25
REMARK SMILES IDX 24 26 25 27 26 28 27 29 85 30 28 31 84 32 29 33 30 34 31 35
REMARK SMILES IDX 78 36 32 37 83 38 77 39 79 40 33 41 82 42 76 43 75 44 34 46
REMARK SMILES IDX 64 47 45 48 63 49 46 50 49 51 62 52 80 53 47 54 48 55 61 57
REMARK SMILES IDX 81 58 50 59 35 60 36 61 44 62 37 63 43 64 38 65 39 66 40 67
REMARK SMILES IDX 41 68 42 69 65 70 66 71 74 72 67 73 73 74 68 75 69 76 70 77
REMARK SMILES IDX 71 78 72 79 51 80 52 81 60 82 53 83 59 84 54 85 55 86 56 87
REMARK SMILES IDX 57 88 58 89
REMARK H PARENT 10 10 13 12 79 45 49 56
REMARK Flexibility Score: inf
ROOT
ATOM      1  C   UNL A   1      32.702  27.661  24.789  1.00  0.00     0.274 C 
ENDROOT
BRANCH   1   2
ATOM      2  O   UNL A   1      32.993  26.272  25.092  1.00  0.00    -0.460 OA
BRANCH   2   3
ATOM      3  C   UNL A   1      31.923  25.589  25.576  1.00  0.00     0.331 C 
ATOM      4  O   UNL A   1      31.493  25.780  26.697  1.00  0.00    -0.249 OA
BRANCH   3   5
ATOM      5  C   UNL A   1      31.247  24.616  24.588  1.00  0.00     0.136 C 
ATOM      6  C   UNL A   1      32.203  23.812  23.696  1.00  0.00     0.047 C 
BRANCH   5   7
ATOM      7  N   UNL A   1      30.383  23.653  25.339  1.00  0.00    -0.322 N 
ATOM      8  N   UNL A   1      31.759  22.386  26.823  1.00  0.00    -0.305 N 
ATOM      9  C   UNL A   1      30.584  22.634  26.209  1.00  0.00     0.320 C 
ATOM     10  H   UNL A   1      31.650  22.229  27.788  1.00  0.00     0.172 HD
ATOM     11  O   UNL A   1      29.563  22.083  26.633  1.00  0.00    -0.248 OA
ATOM     12  H   UNL A   1      29.427  23.795  25.154  1.00  0.00     0.166 HD
BRANCH   8  13
ATOM     13  C   UNL A   1      33.100  22.297  26.416  1.00  0.00     0.085 A 
ATOM     14  C   UNL A   1      33.486  21.188  25.636  1.00  0.00     0.142 A 
ATOM     15  C   UNL A   1      34.817  20.998  25.262  1.00  0.00     0.048 A 
ATOM     16  C   UNL A   1      35.773  21.940  25.634  1.00  0.00     0.004 A 
ATOM     17  C   UNL A   1      34.047  23.270  26.705  1.00  0.00     0.030 A 
ATOM     18  C   UNL A   1      35.385  23.081  26.340  1.00  0.00     0.002 A 
BRANCH  14  19
ATOM     19  O   UNL A   1      32.590  20.168  25.447  1.00  0.00    -0.492 OA
BRANCH  19  20
ATOM     20  C   UNL A   1      33.149  19.040  24.777  1.00  0.00     0.226 C 
ATOM     21  C   UNL A   1      32.575  17.805  25.448  1.00  0.00     0.049 C 
ENDBRANCH  19  20
ENDBRANCH  14  19
ENDBRANCH   8  13
ENDBRANCH   5   7
BRANCH   5  22
ATOM     22  C   UNL A   1      30.358  25.453  23.604  1.00  0.00     0.037 C 
ATOM     23  C   UNL A   1      29.185  26.229  24.185  1.00  0.00     0.007 C 
ENDBRANCH   5  22
ENDBRANCH   3   5
ENDBRANCH   2   3
ENDBRANCH   1   2
BRANCH   1  24
ATOM     24  C   UNL A   1      33.694  28.720  25.320  1.00  0.00     0.275 C 
BRANCH  24  25
ATOM     25  O   UNL A   1      34.077  28.515  26.700  1.00  0.00    -0.458 OA
BRANCH  25  26
ATOM     26  C   UNL A   1      34.196  29.637  27.454  1.00  0.00     0.338 C 
ATOM     27  O   UNL A   1      33.291  30.401  27.757  1.00  0.00    -0.246 OA
BRANCH  26  28
ATOM     28  C   UNL A   1      35.565  29.807  27.996  1.00  0.00     0.060 A 
ATOM     29  C   UNL A   1      36.599  30.109  27.100  1.00  0.00     0.016 A 
ATOM     30  C   UNL A   1      35.876  29.475  29.312  1.00  0.00     0.016 A 
ATOM     31  C   UNL A   1      37.934  30.061  27.483  1.00  0.00     0.010 A 
ATOM     32  C   UNL A   1      37.224  29.404  29.702  1.00  0.00     0.010 A 
ATOM     33  C   UNL A   1      38.258  29.658  28.777  1.00  0.00    -0.014 A 
BRANCH  33  34
ATOM     34  C   UNL A   1      39.662  29.293  29.080  1.00  0.00     0.031 A 
ATOM     35  C   UNL A   1      40.536  30.322  29.742  1.00  0.00     0.074 A 
ATOM     36  C   UNL A   1      40.132  28.053  28.853  1.00  0.00     0.049 A 
ATOM     37  N   UNL A   1      41.821  30.288  29.985  1.00  0.00    -0.248 NA
ATOM     38  C   UNL A   1      39.867  31.552  30.202  1.00  0.00     0.031 C 
ATOM     39  C   UNL A   1      39.343  26.926  28.359  1.00  0.00     0.029 A 
ATOM     40  N   UNL A   1      41.392  27.534  29.014  1.00  0.00    -0.354 N 
ATOM     41  C   UNL A   1      42.118  31.500  30.596  1.00  0.00     0.074 A 
ATOM     42  C   UNL A   1      40.883  32.247  30.691  1.00  0.00     0.031 C 
ATOM     43  C   UNL A   1      40.143  25.853  28.236  1.00  0.00     0.029 A 
ATOM     44  C   UNL A   1      41.507  26.231  28.594  1.00  0.00     0.049 A 
ATOM     45  H   UNL A   1      42.142  28.048  29.395  1.00  0.00     0.167 HD
ATOM     46  C   UNL A   1      43.317  31.955  31.030  1.00  0.00     0.031 A 
ATOM     47  C   UNL A   1      42.598  25.448  28.474  1.00  0.00     0.031 A 
ATOM     48  C   UNL A   1      44.541  31.208  30.920  1.00  0.00     0.049 A 
ATOM     49  C   UNL A   1      43.943  26.012  28.855  1.00  0.00     0.074 A 
ATOM     50  C   UNL A   1      45.823  31.595  31.264  1.00  0.00     0.029 A 
ATOM     51  N   UNL A   1      44.628  29.913  30.429  1.00  0.00    -0.354 N 
ATOM     52  N   UNL A   1      44.231  27.191  29.356  1.00  0.00    -0.248 NA
ATOM     53  C   UNL A   1      45.112  25.147  28.645  1.00  0.00     0.031 C 
ATOM     54  C   UNL A   1      46.694  30.547  30.942  1.00  0.00     0.029 A 
ATOM     55  C   UNL A   1      45.944  29.490  30.446  1.00  0.00     0.049 A 
ATOM     56  H   UNL A   1      43.866  29.376  30.116  1.00  0.00     0.167 HD
ATOM     57  C   UNL A   1      45.609  27.202  29.537  1.00  0.00     0.074 A 
ATOM     58  C   UNL A   1      46.097  25.907  29.105  1.00  0.00     0.031 C 
ATOM     59  C   UNL A   1      46.402  28.193  30.015  1.00  0.00     0.031 A 
BRANCH  46  60
ATOM     60  C   UNL A   1      43.361  33.352  31.585  1.00  0.00    -0.014 A 
ATOM     61  C   UNL A   1      43.717  34.452  30.783  1.00  0.00     0.010 A 
ATOM     62  C   UNL A   1      43.055  33.564  32.941  1.00  0.00     0.010 A 
ATOM     63  C   UNL A   1      43.813  35.730  31.339  1.00  0.00     0.020 A 
ATOM     64  C   UNL A   1      43.128  34.845  33.497  1.00  0.00     0.020 A 
ATOM     65  C   UNL A   1      43.529  35.916  32.697  1.00  0.00     0.054 A 
BRANCH  65  66
ATOM     66  S   UNL A   1      43.672  37.581  33.402  1.00  0.00     0.124 S 
ATOM     67  O   UNL A   1      44.955  37.504  34.098  1.00  0.00    -0.237 OA
ATOM     68  O   UNL A   1      43.652  38.437  32.219  1.00  0.00    -0.237 OA
ATOM     69  O   UNL A   1      42.502  37.694  34.268  1.00  0.00    -0.744 OA
ENDBRANCH  65  66
ENDBRANCH  46  60
BRANCH  47  70
ATOM     70  C   UNL A   1      42.476  24.077  27.906  1.00  0.00    -0.014 A 
ATOM     71  C   UNL A   1      42.541  23.858  26.519  1.00  0.00     0.010 A 
ATOM     72  C   UNL A   1      42.283  22.974  28.761  1.00  0.00     0.010 A 
ATOM     73  C   UNL A   1      42.402  22.566  25.998  1.00  0.00     0.020 A 
ATOM     74  C   UNL A   1      42.170  21.680  28.246  1.00  0.00     0.020 A 
ATOM     75  C   UNL A   1      42.216  21.485  26.865  1.00  0.00     0.054 A 
BRANCH  75  76
ATOM     76  S   UNL A   1      42.081  19.811  26.175  1.00  0.00     0.124 S 
ATOM     77  O   UNL A   1      43.059  19.850  25.093  1.00  0.00    -0.237 OA
ATOM     78  O   UNL A   1      42.432  18.967  27.314  1.00  0.00    -0.237 OA
ATOM     79  O   UNL A   1      40.685  19.726  25.754  1.00  0.00    -0.744 OA
ENDBRANCH  75  76
ENDBRANCH  47  70
BRANCH  59  80
ATOM     80  C   UNL A   1      47.874  27.908  30.127  1.00  0.00    -0.014 A 
ATOM     81  C   UNL A   1      48.750  28.181  29.063  1.00  0.00     0.010 A 
ATOM     82  C   UNL A   1      48.397  27.436  31.347  1.00  0.00     0.010 A 
ATOM     83  C   UNL A   1      50.123  27.969  29.208  1.00  0.00     0.020 A 
ATOM     84  C   UNL A   1      49.771  27.244  31.502  1.00  0.00     0.020 A 
ATOM     85  C   UNL A   1      50.625  27.503  30.428  1.00  0.00     0.054 A 
BRANCH  85  86
ATOM     86  S   UNL A   1      52.418  27.297  30.615  1.00  0.00     0.124 S 
ATOM     87  O   UNL A   1      52.676  26.118  29.794  1.00  0.00    -0.237 OA
ATOM     88  O   UNL A   1      52.944  28.556  30.091  1.00  0.00    -0.237 OA
ATOM     89  O   UNL A   1      52.596  27.107  32.053  1.00  0.00    -0.744 OA
ENDBRANCH  85  86
ENDBRANCH  59  80
ENDBRANCH  33  34
ENDBRANCH  26  28
ENDBRANCH  25  26
ENDBRANCH  24  25
ENDBRANCH   1  24
TORSDOF 19
ENDMDL
MODEL 2
REMARK VINA RESULT:      -9.8      1.457      2.264
REMARK SMILES CCOc1ccccc1NC(=O)N[C@@](C)(CC)C(=O)OCCOC(=O)c1ccc(-c2c3nc(c(-c4ccc(S(=O)(=O)[O-])cc4)c4ccc([nH]4)c(-c4ccc(S(=O)(=O)[O-])cc4)c4nc(c(-c5ccc(S(=O)(=O)[O-])cc5)c5ccc2[nH]5)C=C4)C=C3)cc1
REMARK SMILES IDX 21 1 20 2 18 3 19 4 14 5 15 6 13 7 10 8 11 9 12 11 9 13 4 14
REMARK SMILES IDX 5 15 6 16 8 17 7 18 3 19 2 20 1 21 16 22 17 23 22 24 23 25
REMARK SMILES IDX 24 26 25 27 26 28 27 29 85 30 28 31 84 32 29 33 30 34 31 35
REMARK SMILES IDX 78 36 32 37 83 38 77 39 79 40 33 41 82 42 76 43 75 44 34 46
REMARK SMILES IDX 64 47 45 48 63 49 46 50 49 51 62 52 80 53 47 54 48 55 61 57
REMARK SMILES IDX 81 58 50 59 35 60 36 61 44 62 37 63 43 64 38 65 39 66 40 67
REMARK SMILES IDX 41 68 42 69 65 70 66 71 74 72 67 73 73 74 68 75 69 76 70 77
REMARK SMILES IDX 71 78 72 79 51 80 52 81 60 82 53 83 59 84 54 85 55 86 56 87
REMARK SMILES IDX 57 88 58 89
REMARK H PARENT 10 10 13 12 79 45 49 56
REMARK Flexibility Score: inf
ROOT
ATOM      1  C   UNL A   1      32.000  30.531  26.246  1.00  0.00     0.274 C 
ENDROOT
BRANCH   1   2
ATOM      2  O   UNL A   1      32.529  29.809  25.105  1.00  0.00    -0.460 OA
BRANCH   2   3
ATOM      3  C   UNL A   1      31.630  28.965  24.535  1.00  0.00     0.331 C 
ATOM      4  O   UNL A   1      30.684  29.374  23.891  1.00  0.00    -0.249 OA
BRANCH   3   5
ATOM      5  C   UNL A   1      31.931  27.459  24.693  1.00  0.00     0.136 C 
ATOM      6  C   UNL A   1      33.263  27.123  25.380  1.00  0.00     0.047 C 
BRANCH   5   7
ATOM      7  N   UNL A   1      30.828  26.801  25.459  1.00  0.00    -0.322 N 
ATOM      8  N   UNL A   1      31.345  24.484  25.710  1.00  0.00    -0.305 N 
ATOM      9  C   UNL A   1      30.505  25.534  25.812  1.00  0.00     0.320 C 
ATOM     10  H   UNL A   1      31.360  23.937  26.528  1.00  0.00     0.172 HD
ATOM     11  O   UNL A   1      29.481  25.413  26.492  1.00  0.00    -0.248 OA
ATOM     12  H   UNL A   1      30.171  27.455  25.791  1.00  0.00     0.166 HD
BRANCH   8  13
ATOM     13  C   UNL A   1      32.202  23.984  24.716  1.00  0.00     0.085 A 
ATOM     14  C   UNL A   1      33.547  23.738  25.062  1.00  0.00     0.142 A 
ATOM     15  C   UNL A   1      34.470  23.313  24.104  1.00  0.00     0.048 A 
ATOM     16  C   UNL A   1      34.046  23.094  22.796  1.00  0.00     0.004 A 
ATOM     17  C   UNL A   1      31.778  23.680  23.430  1.00  0.00     0.030 A 
ATOM     18  C   UNL A   1      32.700  23.262  22.464  1.00  0.00     0.002 A 
BRANCH  14  19
ATOM     19  O   UNL A   1      34.000  24.144  26.289  1.00  0.00    -0.492 OA
BRANCH  19  20
ATOM     20  C   UNL A   1      34.666  23.114  27.016  1.00  0.00     0.226 C 
ATOM     21  C   UNL A   1      33.672  21.976  27.170  1.00  0.00     0.049 C 
ENDBRANCH  19  20
ENDBRANCH  14  19
ENDBRANCH   8  13
ENDBRANCH   5   7
BRANCH   5  22
ATOM     22  C   UNL A   1      32.023  26.824  23.263  1.00  0.00     0.037 C 
ATOM     23  C   UNL A   1      33.296  27.048  22.460  1.00  0.00     0.007 C 
ENDBRANCH   5  22
ENDBRANCH   3   5
ENDBRANCH   2   3
ENDBRANCH   1   2
BRANCH   1  24
ATOM     24  C   UNL A   1      33.008  31.333  27.101  1.00  0.00     0.275 C 
BRANCH  24  25
ATOM     25  O   UNL A   1      33.715  30.526  28.071  1.00  0.00    -0.458 OA
BRANCH  25  26
ATOM     26  C   UNL A   1      34.778  31.120  28.672  1.00  0.00     0.338 C 
ATOM     27  O   UNL A   1      34.760  32.177  29.286  1.00  0.00    -0.246 OA
BRANCH  26  28
ATOM     28  C   UNL A   1      35.999  30.283  28.611  1.00  0.00     0.060 A 
ATOM     29  C   UNL A   1      36.466  29.707  29.800  1.00  0.00     0.016 A 
ATOM     30  C   UNL A   1      36.792  30.229  27.467  1.00  0.00     0.016 A 
ATOM     31  C   UNL A   1      37.715  29.103  29.876  1.00  0.00     0.010 A 
ATOM     32  C   UNL A   1      38.065  29.638  27.542  1.00  0.00     0.010 A 
ATOM     33  C   UNL A   1      38.546  29.109  28.757  1.00  0.00    -0.014 A 
BRANCH  33  34
ATOM     34  C   UNL A   1      39.977  28.767  28.930  1.00  0.00     0.031 A 
ATOM     35  C   UNL A   1      40.899  29.823  29.478  1.00  0.00     0.074 A 
ATOM     36  C   UNL A   1      40.439  27.528  28.688  1.00  0.00     0.049 A 
ATOM     37  N   UNL A   1      42.201  29.809  29.595  1.00  0.00    -0.248 NA
ATOM     38  C   UNL A   1      40.261  31.056  29.972  1.00  0.00     0.031 C 
ATOM     39  C   UNL A   1      39.621  26.380  28.301  1.00  0.00     0.029 A 
ATOM     40  N   UNL A   1      41.716  27.027  28.737  1.00  0.00    -0.354 N 
ATOM     41  C   UNL A   1      42.540  31.039  30.145  1.00  0.00     0.074 A 
ATOM     42  C   UNL A   1      41.310  31.774  30.342  1.00  0.00     0.031 C 
ATOM     43  C   UNL A   1      40.419  25.313  28.125  1.00  0.00     0.029 A 
ATOM     44  C   UNL A   1      41.807  25.715  28.339  1.00  0.00     0.049 A 
ATOM     45  H   UNL A   1      42.493  27.558  29.030  1.00  0.00     0.167 HD
ATOM     46  C   UNL A   1      43.770  31.518  30.448  1.00  0.00     0.031 A 
ATOM     47  C   UNL A   1      42.891  24.941  28.131  1.00  0.00     0.031 A 
ATOM     48  C   UNL A   1      44.987  30.782  30.236  1.00  0.00     0.049 A 
ATOM     49  C   UNL A   1      44.260  25.529  28.365  1.00  0.00     0.074 A 
ATOM     50  C   UNL A   1      46.292  31.191  30.444  1.00  0.00     0.029 A 
ATOM     51  N   UNL A   1      45.043  29.476  29.771  1.00  0.00    -0.354 N 
ATOM     52  N   UNL A   1      44.579  26.723  28.807  1.00  0.00    -0.248 NA
ATOM     53  C   UNL A   1      45.414  24.671  28.062  1.00  0.00     0.031 C 
ATOM     54  C   UNL A   1      47.140  30.144  30.064  1.00  0.00     0.029 A 
ATOM     55  C   UNL A   1      46.360  29.067  29.669  1.00  0.00     0.049 A 
ATOM     56  H   UNL A   1      44.261  28.922  29.547  1.00  0.00     0.167 HD
ATOM     57  C   UNL A   1      45.968  26.754  28.852  1.00  0.00     0.074 A 
ATOM     58  C   UNL A   1      46.429  25.454  28.405  1.00  0.00     0.031 C 
ATOM     59  C   UNL A   1      46.791  27.765  29.226  1.00  0.00     0.031 A 
BRANCH  46  60
ATOM     60  C   UNL A   1      43.849  32.929  30.962  1.00  0.00    -0.014 A 
ATOM     61  C   UNL A   1      43.950  34.026  30.088  1.00  0.00     0.010 A 
ATOM     62  C   UNL A   1      43.838  33.157  32.351  1.00  0.00     0.010 A 
ATOM     63  C   UNL A   1      44.089  35.321  30.594  1.00  0.00     0.020 A 
ATOM     64  C   UNL A   1      43.953  34.454  32.860  1.00  0.00     0.020 A 
ATOM     65  C   UNL A   1      44.100  35.525  31.978  1.00  0.00     0.054 A 
BRANCH  65  66
ATOM     66  S   UNL A   1      44.294  37.213  32.614  1.00  0.00     0.124 S 
ATOM     67  O   UNL A   1      44.008  38.016  31.427  1.00  0.00    -0.237 OA
ATOM     68  O   UNL A   1      43.288  37.279  33.671  1.00  0.00    -0.237 OA
ATOM     69  O   UNL A   1      45.679  37.255  33.074  1.00  0.00    -0.744 OA
ENDBRANCH  65  66
ENDBRANCH  46  60
BRANCH  47  70
ATOM     70  C   UNL A   1      42.733  23.554  27.612  1.00  0.00    -0.014 A 
ATOM     71  C   UNL A   1      42.471  22.480  28.480  1.00  0.00     0.010 A 
ATOM     72  C   UNL A   1      42.854  23.300  26.232  1.00  0.00     0.010 A 
ATOM     73  C   UNL A   1      42.348  21.178  27.980  1.00  0.00     0.020 A 
ATOM     74  C   UNL A   1      42.706  22.006  25.726  1.00  0.00     0.020 A 
ATOM     75  C   UNL A   1      42.467  20.949  26.606  1.00  0.00     0.054 A 
BRANCH  75  76
ATOM     76  S   UNL A   1      42.260  19.262  25.970  1.00  0.00     0.124 S 
ATOM     77  O   UNL A   1      43.035  19.306  24.734  1.00  0.00    -0.237 OA
ATOM     78  O   UNL A   1      42.825  18.445  27.041  1.00  0.00    -0.237 OA
ATOM     79  O   UNL A   1      40.815  19.136  25.798  1.00  0.00    -0.744 OA
ENDBRANCH  75  76
ENDBRANCH  47  70
BRANCH  59  80
ATOM     80  C   UNL A   1      48.271  27.499  29.201  1.00  0.00    -0.014 A 
ATOM     81  C   UNL A   1      49.056  27.870  28.096  1.00  0.00     0.010 A 
ATOM     82  C   UNL A   1      48.893  26.943  30.334  1.00  0.00     0.010 A 
ATOM     83  C   UNL A   1      50.439  27.673  28.117  1.00  0.00     0.020 A 
ATOM     84  C   UNL A   1      50.278  26.764  30.366  1.00  0.00     0.020 A 
ATOM     85  C   UNL A   1      51.041  27.122  29.253  1.00  0.00     0.054 A 
BRANCH  85  86
ATOM     86  S   UNL A   1      52.846  26.935  29.283  1.00  0.00     0.124 S 
ATOM     87  O   UNL A   1      53.060  26.262  30.560  1.00  0.00    -0.237 OA
ATOM     88  O   UNL A   1      53.107  26.127  28.094  1.00  0.00    -0.237 OA
ATOM     89  O   UNL A   1      53.336  28.309  29.213  1.00  0.00    -0.744 OA
ENDBRANCH  85  86
ENDBRANCH  59  80
ENDBRANCH  33  34
ENDBRANCH  26  28
ENDBRANCH  25  26
ENDBRANCH  24  25
ENDBRANCH   1  24
TORSDOF 19
ENDMDL
MODEL 3
REMARK VINA RESULT:      -9.6      2.697      8.908
REMARK SMILES CCOc1ccccc1NC(=O)N[C@@](C)(CC)C(=O)OCCOC(=O)c1ccc(-c2c3nc(c(-c4ccc(S(=O)(=O)[O-])cc4)c4ccc([nH]4)c(-c4ccc(S(=O)(=O)[O-])cc4)c4nc(c(-c5ccc(S(=O)(=O)[O-])cc5)c5ccc2[nH]5)C=C4)C=C3)cc1
REMARK SMILES IDX 21 1 20 2 18 3 19 4 14 5 15 6 13 7 10 8 11 9 12 11 9 13 4 14
REMARK SMILES IDX 5 15 6 16 8 17 7 18 3 19 2 20 1 21 16 22 17 23 22 24 23 25
REMARK SMILES IDX 24 26 25 27 26 28 27 29 85 30 28 31 84 32 29 33 30 34 31 35
REMARK SMILES IDX 78 36 32 37 83 38 77 39 79 40 33 41 82 42 76 43 75 44 34 46
REMARK SMILES IDX 64 47 45 48 63 49 46 50 49 51 62 52 80 53 47 54 48 55 61 57
REMARK SMILES IDX 81 58 50 59 35 60 36 61 44 62 37 63 43 64 38 65 39 66 40 67
REMARK SMILES IDX 41 68 42 69 65 70 66 71 74 72 67 73 73 74 68 75 69 76 70 77
REMARK SMILES IDX 71 78 72 79 51 80 52 81 60 82 53 83 59 84 54 85 55 86 56 87
REMARK SMILES IDX 57 88 58 89
REMARK H PARENT 10 10 13 12 79 45 49 56
REMARK Flexibility Score: inf
ROOT
ATOM      1  C   UNL A   1      36.389  20.355  25.003  1.00  0.00     0.274 C 
ENDROOT
BRANCH   1   2
ATOM      2  O   UNL A   1      35.430  21.075  25.819  1.00  0.00    -0.460 OA
BRANCH   2   3
ATOM      3  C   UNL A   1      34.150  20.960  25.377  1.00  0.00     0.331 C 
ATOM      4  O   UNL A   1      33.567  19.892  25.367  1.00  0.00    -0.249 OA
BRANCH   3   5
ATOM      5  C   UNL A   1      33.462  22.279  24.966  1.00  0.00     0.136 C 
ATOM      6  C   UNL A   1      32.728  22.247  23.618  1.00  0.00     0.047 C 
BRANCH   5   7
ATOM      7  N   UNL A   1      32.486  22.689  26.023  1.00  0.00    -0.322 N 
ATOM      8  N   UNL A   1      31.311  24.626  25.270  1.00  0.00    -0.305 N 
ATOM      9  C   UNL A   1      31.642  23.730  26.222  1.00  0.00     0.320 C 
ATOM     10  H   UNL A   1      30.341  24.787  25.230  1.00  0.00     0.172 HD
ATOM     11  O   UNL A   1      30.966  23.681  27.254  1.00  0.00    -0.248 OA
ATOM     12  H   UNL A   1      32.447  22.038  26.760  1.00  0.00     0.166 HD
BRANCH   8  13
ATOM     13  C   UNL A   1      32.018  25.386  24.323  1.00  0.00     0.085 A 
ATOM     14  C   UNL A   1      32.969  26.314  24.793  1.00  0.00     0.142 A 
ATOM     15  C   UNL A   1      33.652  27.154  23.911  1.00  0.00     0.048 A 
ATOM     16  C   UNL A   1      33.415  27.047  22.542  1.00  0.00     0.004 A 
ATOM     17  C   UNL A   1      31.855  25.232  22.953  1.00  0.00     0.030 A 
ATOM     18  C   UNL A   1      32.530  26.077  22.065  1.00  0.00     0.002 A 
BRANCH  14  19
ATOM     19  O   UNL A   1      33.051  26.555  26.139  1.00  0.00    -0.492 OA
BRANCH  19  20
ATOM     20  C   UNL A   1      33.162  27.940  26.460  1.00  0.00     0.226 C 
ATOM     21  C   UNL A   1      31.897  28.317  27.211  1.00  0.00     0.049 C 
ENDBRANCH  19  20
ENDBRANCH  14  19
ENDBRANCH   8  13
ENDBRANCH   5   7
BRANCH   5  22
ATOM     22  C   UNL A   1      34.564  23.383  24.819  1.00  0.00     0.037 C 
ATOM     23  C   UNL A   1      35.199  23.582  23.450  1.00  0.00     0.007 C 
ENDBRANCH   5  22
ENDBRANCH   3   5
ENDBRANCH   2   3
ENDBRANCH   1   2
BRANCH   1  24
ATOM     24  C   UNL A   1      37.775  21.009  24.804  1.00  0.00     0.275 C 
BRANCH  24  25
ATOM     25  O   UNL A   1      38.081  22.028  25.783  1.00  0.00    -0.458 OA
BRANCH  25  26
ATOM     26  C   UNL A   1      39.372  22.082  26.197  1.00  0.00     0.338 C 
ATOM     27  O   UNL A   1      40.255  21.288  25.907  1.00  0.00    -0.246 OA
BRANCH  26  28
ATOM     28  C   UNL A   1      39.662  23.307  26.978  1.00  0.00     0.060 A 
ATOM     29  C   UNL A   1      38.997  24.489  26.626  1.00  0.00     0.016 A 
ATOM     30  C   UNL A   1      40.709  23.359  27.896  1.00  0.00     0.016 A 
ATOM     31  C   UNL A   1      39.373  25.721  27.149  1.00  0.00     0.010 A 
ATOM     32  C   UNL A   1      41.107  24.603  28.413  1.00  0.00     0.010 A 
ATOM     33  C   UNL A   1      40.466  25.791  28.010  1.00  0.00    -0.014 A 
BRANCH  33  34
ATOM     34  C   UNL A   1      41.060  27.118  28.301  1.00  0.00     0.031 A 
ATOM     35  C   UNL A   1      42.536  27.300  28.072  1.00  0.00     0.074 A 
ATOM     36  C   UNL A   1      40.301  28.162  28.677  1.00  0.00     0.049 A 
ATOM     37  N   UNL A   1      43.304  28.314  28.374  1.00  0.00    -0.248 NA
ATOM     38  C   UNL A   1      43.237  26.191  27.401  1.00  0.00     0.031 C 
ATOM     39  C   UNL A   1      38.844  28.154  28.785  1.00  0.00     0.029 A 
ATOM     40  N   UNL A   1      40.656  29.438  29.036  1.00  0.00    -0.354 N 
ATOM     41  C   UNL A   1      44.580  27.954  27.960  1.00  0.00     0.074 A 
ATOM     42  C   UNL A   1      44.486  26.631  27.383  1.00  0.00     0.031 C 
ATOM     43  C   UNL A   1      38.429  29.362  29.205  1.00  0.00     0.029 A 
ATOM     44  C   UNL A   1      39.594  30.210  29.442  1.00  0.00     0.049 A 
ATOM     45  H   UNL A   1      41.584  29.769  29.004  1.00  0.00     0.167 HD
ATOM     46  C   UNL A   1      45.732  28.659  28.063  1.00  0.00     0.031 A 
ATOM     47  C   UNL A   1      39.572  31.445  29.983  1.00  0.00     0.031 A 
ATOM     48  C   UNL A   1      45.815  29.969  28.649  1.00  0.00     0.049 A 
ATOM     49  C   UNL A   1      40.877  32.170  30.195  1.00  0.00     0.074 A 
ATOM     50  C   UNL A   1      46.937  30.749  28.866  1.00  0.00     0.029 A 
ATOM     51  N   UNL A   1      44.725  30.694  29.109  1.00  0.00    -0.354 N 
ATOM     52  N   UNL A   1      42.092  31.789  29.877  1.00  0.00    -0.248 NA
ATOM     53  C   UNL A   1      40.810  33.484  30.849  1.00  0.00     0.031 C 
ATOM     54  C   UNL A   1      46.528  31.931  29.496  1.00  0.00     0.029 A 
ATOM     55  C   UNL A   1      45.146  31.906  29.623  1.00  0.00     0.049 A 
ATOM     56  H   UNL A   1      43.790  30.390  29.073  1.00  0.00     0.167 HD
ATOM     57  C   UNL A   1      42.931  32.823  30.274  1.00  0.00     0.074 A 
ATOM     58  C   UNL A   1      42.085  33.852  30.844  1.00  0.00     0.031 C 
ATOM     59  C   UNL A   1      44.281  32.915  30.180  1.00  0.00     0.031 A 
BRANCH  46  60
ATOM     60  C   UNL A   1      46.993  27.984  27.599  1.00  0.00    -0.014 A 
ATOM     61  C   UNL A   1      47.745  27.162  28.458  1.00  0.00     0.010 A 
ATOM     62  C   UNL A   1      47.441  28.191  26.282  1.00  0.00     0.010 A 
ATOM     63  C   UNL A   1      48.948  26.600  28.022  1.00  0.00     0.020 A 
ATOM     64  C   UNL A   1      48.632  27.611  25.835  1.00  0.00     0.020 A 
ATOM     65  C   UNL A   1      49.389  26.838  26.715  1.00  0.00     0.054 A 
BRANCH  65  66
ATOM     66  S   UNL A   1      50.960  26.108  26.174  1.00  0.00     0.124 S 
ATOM     67  O   UNL A   1      51.928  27.097  26.642  1.00  0.00    -0.237 OA
ATOM     68  O   UNL A   1      50.982  24.829  26.877  1.00  0.00    -0.237 OA
ATOM     69  O   UNL A   1      50.818  26.016  24.724  1.00  0.00    -0.744 OA
ENDBRANCH  65  66
ENDBRANCH  46  60
BRANCH  47  70
ATOM     70  C   UNL A   1      38.283  32.044  30.426  1.00  0.00    -0.014 A 
ATOM     71  C   UNL A   1      37.517  32.842  29.557  1.00  0.00     0.010 A 
ATOM     72  C   UNL A   1      37.817  31.825  31.737  1.00  0.00     0.010 A 
ATOM     73  C   UNL A   1      36.318  33.418  29.995  1.00  0.00     0.020 A 
ATOM     74  C   UNL A   1      36.608  32.378  32.169  1.00  0.00     0.020 A 
ATOM     75  C   UNL A   1      35.872  33.183  31.299  1.00  0.00     0.054 A 
BRANCH  75  76
ATOM     76  S   UNL A   1      34.294  33.902  31.835  1.00  0.00     0.124 S 
ATOM     77  O   UNL A   1      33.671  32.781  32.532  1.00  0.00    -0.237 OA
ATOM     78  O   UNL A   1      34.720  35.013  32.681  1.00  0.00    -0.237 OA
ATOM     79  O   UNL A   1      33.653  34.294  30.582  1.00  0.00    -0.744 OA
ENDBRANCH  75  76
ENDBRANCH  47  70
BRANCH  59  80
ATOM     80  C   UNL A   1      44.925  34.181  30.673  1.00  0.00    -0.014 A 
ATOM     81  C   UNL A   1      45.072  35.297  29.832  1.00  0.00     0.010 A 
ATOM     82  C   UNL A   1      45.317  34.279  32.022  1.00  0.00     0.010 A 
ATOM     83  C   UNL A   1      45.616  36.485  30.325  1.00  0.00     0.020 A 
ATOM     84  C   UNL A   1      45.841  35.471  32.524  1.00  0.00     0.020 A 
ATOM     85  C   UNL A   1      45.997  36.565  31.669  1.00  0.00     0.054 A 
BRANCH  85  86
ATOM     86  S   UNL A   1      46.640  38.138  32.304  1.00  0.00     0.124 S 
ATOM     87  O   UNL A   1      46.331  38.040  33.728  1.00  0.00    -0.237 OA
ATOM     88  O   UNL A   1      48.059  38.068  31.963  1.00  0.00    -0.237 OA
ATOM     89  O   UNL A   1      45.878  39.145  31.569  1.00  0.00    -0.744 OA
ENDBRANCH  85  86
ENDBRANCH  59  80
ENDBRANCH  33  34
ENDBRANCH  26  28
ENDBRANCH  25  26
ENDBRANCH  24  25
ENDBRANCH   1  24
TORSDOF 19
ENDMDL
