MODEL 1
REMARK VINA RESULT:     -10.0      0.000      0.000
REMARK SMILES CC(C)(C)OC(=O)[C@@H]1[NH2+][C@H](C(=O)OCCOC(=O)c2ccc(-c3c4nc(c(-c5ccc(S(=O)(=O)[O-])cc5)c5ccc([nH]5)c(-c5ccc(S(=O)(=O)[O-])cc5)c5nc(c(-c6ccc(S(=O)(=O)[O-])cc6)c6ccc3[nH]6)C=C5)C=C4)cc2)C(C)(C)S1
REMARK SMILES IDX 14 1 13 2 11 3 12 4 10 5 8 6 9 7 82 8 79 11 80 12 81 13 6 14
REMARK SMILES IDX 7 15 5 16 2 17 1 18 3 19 4 20 15 21 16 22 17 23 18 24 19 25
REMARK SMILES IDX 20 26 78 27 21 28 77 29 22 30 23 31 24 32 71 33 25 34 76 35
REMARK SMILES IDX 70 36 72 37 26 38 75 39 69 40 68 41 27 43 57 44 38 45 56 46
REMARK SMILES IDX 39 47 42 48 55 49 73 50 40 51 41 52 54 54 74 55 43 56 28 57
REMARK SMILES IDX 29 58 37 59 30 60 36 61 31 62 32 63 33 64 34 65 35 66 58 67
REMARK SMILES IDX 59 68 67 69 60 70 66 71 61 72 62 73 63 74 64 75 65 76 44 77
REMARK SMILES IDX 45 78 53 79 46 80 52 81 47 82 48 83 49 84 50 85 51 86
REMARK H PARENT 9 9 9 10 72 42 42 53
REMARK Flexibility Score: inf
ROOT
ATOM      1  C   UNL A   1      33.311  27.378  26.336  1.00  0.00     0.274 C 
ENDROOT
BRANCH   1   2
ATOM      2  O   UNL A   1      32.239  27.331  25.376  1.00  0.00    -0.458 OA
BRANCH   2   3
ATOM      3  C   UNL A   1      31.164  26.583  25.728  1.00  0.00     0.366 C 
ATOM      4  O   UNL A   1      30.717  26.543  26.872  1.00  0.00    -0.245 OA
BRANCH   3   5
ATOM      5  C   UNL A   1      30.464  25.872  24.556  1.00  0.00     0.310 C 
ATOM      6  C   UNL A   1      30.391  27.279  22.611  1.00  0.00     0.354 C 
ATOM      7  N   UNL A   1      29.585  26.728  23.709  1.00  0.00    -0.313 N 
ATOM      8  S   UNL A   1      31.759  26.140  22.266  1.00  0.00    -0.074 SA
ATOM      9  H   UNL A   1      28.822  26.168  23.328  1.00  0.00     0.348 HD
ATOM     10  H   UNL A   1      29.189  27.485  24.267  1.00  0.00     0.348 HD
ATOM     11  C   UNL A   1      31.383  25.018  23.660  1.00  0.00     0.079 C 
ATOM     12  C   UNL A   1      30.612  23.791  23.132  1.00  0.00     0.030 C 
ATOM     13  C   UNL A   1      32.687  24.530  24.294  1.00  0.00     0.030 C 
BRANCH   6  14
ATOM     14  C   UNL A   1      30.847  28.711  22.954  1.00  0.00     0.376 C 
ATOM     15  O   UNL A   1      31.929  29.211  22.679  1.00  0.00    -0.244 OA
BRANCH  14  16
ATOM     16  O   UNL A   1      29.842  29.330  23.651  1.00  0.00    -0.455 OA
BRANCH  16  17
ATOM     17  C   UNL A   1      28.898  30.233  23.020  1.00  0.00     0.104 C 
ATOM     18  C   UNL A   1      29.406  30.386  21.578  1.00  0.00     0.056 C 
ATOM     19  C   UNL A   1      28.852  31.616  23.676  1.00  0.00     0.056 C 
ATOM     20  C   UNL A   1      27.512  29.589  22.978  1.00  0.00     0.056 C 
ENDBRANCH  16  17
ENDBRANCH  14  16
ENDBRANCH   6  14
ENDBRANCH   3   5
ENDBRANCH   2   3
ENDBRANCH   1   2
BRANCH   1  21
ATOM     21  C   UNL A   1      33.787  28.818  26.547  1.00  0.00     0.275 C 
BRANCH  21  22
ATOM     22  O   UNL A   1      34.074  29.080  27.934  1.00  0.00    -0.458 OA
BRANCH  22  23
ATOM     23  C   UNL A   1      34.695  30.257  28.186  1.00  0.00     0.338 C 
ATOM     24  O   UNL A   1      34.185  31.358  28.289  1.00  0.00    -0.246 OA
BRANCH  23  25
ATOM     25  C   UNL A   1      36.112  30.003  28.492  1.00  0.00     0.060 A 
ATOM     26  C   UNL A   1      37.036  30.114  27.451  1.00  0.00     0.016 A 
ATOM     27  C   UNL A   1      36.526  29.609  29.761  1.00  0.00     0.016 A 
ATOM     28  C   UNL A   1      38.375  29.828  27.655  1.00  0.00     0.010 A 
ATOM     29  C   UNL A   1      37.878  29.330  29.976  1.00  0.00     0.010 A 
ATOM     30  C   UNL A   1      38.805  29.431  28.921  1.00  0.00    -0.014 A 
BRANCH  30  31
ATOM     31  C   UNL A   1      40.223  29.072  29.116  1.00  0.00     0.031 A 
ATOM     32  C   UNL A   1      41.170  30.102  29.654  1.00  0.00     0.074 A 
ATOM     33  C   UNL A   1      40.638  27.823  28.837  1.00  0.00     0.049 A 
ATOM     34  N   UNL A   1      42.466  30.035  29.794  1.00  0.00    -0.248 NA
ATOM     35  C   UNL A   1      40.579  31.379  30.090  1.00  0.00     0.031 C 
ATOM     36  C   UNL A   1      39.777  26.725  28.388  1.00  0.00     0.029 A 
ATOM     37  N   UNL A   1      41.889  27.267  28.889  1.00  0.00    -0.354 N 
ATOM     38  C   UNL A   1      42.854  31.270  30.297  1.00  0.00     0.074 A 
ATOM     39  C   UNL A   1      41.657  32.070  30.434  1.00  0.00     0.031 C 
ATOM     40  C   UNL A   1      40.530  25.628  28.203  1.00  0.00     0.029 A 
ATOM     41  C   UNL A   1      41.926  25.963  28.456  1.00  0.00     0.049 A 
ATOM     42  H   UNL A   1      42.683  27.754  29.205  1.00  0.00     0.167 HD
ATOM     43  C   UNL A   1      44.101  31.693  30.608  1.00  0.00     0.031 A 
ATOM     44  C   UNL A   1      42.976  25.147  28.247  1.00  0.00     0.031 A 
ATOM     45  C   UNL A   1      45.277  30.877  30.464  1.00  0.00     0.049 A 
ATOM     46  C   UNL A   1      44.360  25.672  28.518  1.00  0.00     0.074 A 
ATOM     47  C   UNL A   1      46.589  31.200  30.757  1.00  0.00     0.029 A 
ATOM     48  N   UNL A   1      45.282  29.576  29.981  1.00  0.00    -0.354 N 
ATOM     49  N   UNL A   1      44.719  26.846  28.988  1.00  0.00    -0.248 NA
ATOM     50  C   UNL A   1      45.481  24.770  28.229  1.00  0.00     0.031 C 
ATOM     51  C   UNL A   1      47.395  30.117  30.393  1.00  0.00     0.029 A 
ATOM     52  C   UNL A   1      46.578  29.094  29.937  1.00  0.00     0.049 A 
ATOM     53  H   UNL A   1      44.482  29.071  29.709  1.00  0.00     0.167 HD
ATOM     54  C   UNL A   1      46.105  26.812  29.073  1.00  0.00     0.074 A 
ATOM     55  C   UNL A   1      46.518  25.497  28.621  1.00  0.00     0.031 C 
ATOM     56  C   UNL A   1      46.961  27.778  29.487  1.00  0.00     0.031 A 
BRANCH  43  57
ATOM     57  C   UNL A   1      44.261  33.115  31.074  1.00  0.00    -0.014 A 
ATOM     58  C   UNL A   1      44.452  34.171  30.166  1.00  0.00     0.010 A 
ATOM     59  C   UNL A   1      44.183  33.401  32.450  1.00  0.00     0.010 A 
ATOM     60  C   UNL A   1      44.598  35.482  30.629  1.00  0.00     0.020 A 
ATOM     61  C   UNL A   1      44.301  34.713  32.914  1.00  0.00     0.020 A 
ATOM     62  C   UNL A   1      44.524  35.745  32.000  1.00  0.00     0.054 A 
BRANCH  62  63
ATOM     63  S   UNL A   1      44.691  37.459  32.570  1.00  0.00     0.124 S 
ATOM     64  O   UNL A   1      45.672  37.324  33.644  1.00  0.00    -0.237 OA
ATOM     65  O   UNL A   1      45.161  38.149  31.372  1.00  0.00    -0.237 OA
ATOM     66  O   UNL A   1      43.341  37.815  33.002  1.00  0.00    -0.744 OA
ENDBRANCH  62  63
ENDBRANCH  43  57
BRANCH  44  67
ATOM     67  C   UNL A   1      42.763  23.774  27.712  1.00  0.00    -0.014 A 
ATOM     68  C   UNL A   1      42.327  22.737  28.552  1.00  0.00     0.010 A 
ATOM     69  C   UNL A   1      42.995  23.499  26.351  1.00  0.00     0.010 A 
ATOM     70  C   UNL A   1      42.148  21.445  28.048  1.00  0.00     0.020 A 
ATOM     71  C   UNL A   1      42.786  22.216  25.836  1.00  0.00     0.020 A 
ATOM     72  C   UNL A   1      42.378  21.193  26.692  1.00  0.00     0.054 A 
BRANCH  72  73
ATOM     73  S   UNL A   1      42.103  19.517  26.054  1.00  0.00     0.124 S 
ATOM     74  O   UNL A   1      42.957  19.499  24.872  1.00  0.00    -0.237 OA
ATOM     75  O   UNL A   1      42.544  18.680  27.167  1.00  0.00    -0.237 OA
ATOM     76  O   UNL A   1      40.667  19.483  25.790  1.00  0.00    -0.744 OA
ENDBRANCH  72  73
ENDBRANCH  44  67
BRANCH  56  77
ATOM     77  C   UNL A   1      48.427  27.438  29.511  1.00  0.00    -0.014 A 
ATOM     78  C   UNL A   1      49.292  27.869  28.490  1.00  0.00     0.010 A 
ATOM     79  C   UNL A   1      48.954  26.734  30.610  1.00  0.00     0.010 A 
ATOM     80  C   UNL A   1      50.658  27.580  28.557  1.00  0.00     0.020 A 
ATOM     81  C   UNL A   1      50.322  26.470  30.694  1.00  0.00     0.020 A 
ATOM     82  C   UNL A   1      51.164  26.886  29.661  1.00  0.00     0.054 A 
BRANCH  82  83
ATOM     83  S   UNL A   1      52.948  26.577  29.752  1.00  0.00     0.124 S 
ATOM     84  O   UNL A   1      53.053  25.752  30.953  1.00  0.00    -0.237 OA
ATOM     85  O   UNL A   1      53.218  25.889  28.491  1.00  0.00    -0.237 OA
ATOM     86  O   UNL A   1      53.527  27.913  29.862  1.00  0.00    -0.744 OA
ENDBRANCH  82  83
ENDBRANCH  56  77
ENDBRANCH  30  31
ENDBRANCH  23  25
ENDBRANCH  22  23
ENDBRANCH  21  22
ENDBRANCH   1  21
TORSDOF 17
ENDMDL
MODEL 2
REMARK VINA RESULT:      -9.8      3.256      9.291
REMARK SMILES CC(C)(C)OC(=O)[C@@H]1[NH2+][C@H](C(=O)OCCOC(=O)c2ccc(-c3c4nc(c(-c5ccc(S(=O)(=O)[O-])cc5)c5ccc([nH]5)c(-c5ccc(S(=O)(=O)[O-])cc5)c5nc(c(-c6ccc(S(=O)(=O)[O-])cc6)c6ccc3[nH]6)C=C5)C=C4)cc2)C(C)(C)S1
REMARK SMILES IDX 14 1 13 2 11 3 12 4 10 5 8 6 9 7 82 8 79 11 80 12 81 13 6 14
REMARK SMILES IDX 7 15 5 16 2 17 1 18 3 19 4 20 15 21 16 22 17 23 18 24 19 25
REMARK SMILES IDX 20 26 78 27 21 28 77 29 22 30 23 31 24 32 71 33 25 34 76 35
REMARK SMILES IDX 70 36 72 37 26 38 75 39 69 40 68 41 27 43 57 44 38 45 56 46
REMARK SMILES IDX 39 47 42 48 55 49 73 50 40 51 41 52 54 54 74 55 43 56 28 57
REMARK SMILES IDX 29 58 37 59 30 60 36 61 31 62 32 63 33 64 34 65 35 66 58 67
REMARK SMILES IDX 59 68 67 69 60 70 66 71 61 72 62 73 63 74 64 75 65 76 44 77
REMARK SMILES IDX 45 78 53 79 46 80 52 81 47 82 48 83 49 84 50 85 51 86
REMARK H PARENT 9 9 9 10 72 42 42 53
REMARK Flexibility Score: inf
ROOT
ATOM      1  C   UNL A   1      36.008  22.195  24.300  1.00  0.00     0.274 C 
ENDROOT
BRANCH   1   2
ATOM      2  O   UNL A   1      35.084  22.567  23.260  1.00  0.00    -0.458 OA
BRANCH   2   3
ATOM      3  C   UNL A   1      33.781  22.644  23.630  1.00  0.00     0.366 C 
ATOM      4  O   UNL A   1      32.851  22.334  22.890  1.00  0.00    -0.245 OA
BRANCH   3   5
ATOM      5  C   UNL A   1      33.553  23.040  25.100  1.00  0.00     0.310 C 
ATOM      6  C   UNL A   1      31.526  24.303  25.350  1.00  0.00     0.354 C 
ATOM      7  N   UNL A   1      32.991  24.402  25.326  1.00  0.00    -0.313 N 
ATOM      8  S   UNL A   1      31.065  22.637  25.901  1.00  0.00    -0.074 SA
ATOM      9  H   UNL A   1      33.326  24.769  26.218  1.00  0.00     0.348 HD
ATOM     10  H   UNL A   1      33.287  25.032  24.581  1.00  0.00     0.348 HD
ATOM     11  C   UNL A   1      32.781  22.008  25.948  1.00  0.00     0.079 C 
ATOM     12  C   UNL A   1      33.293  22.032  27.402  1.00  0.00     0.030 C 
ATOM     13  C   UNL A   1      32.812  20.561  25.450  1.00  0.00     0.030 C 
BRANCH   6  14
ATOM     14  C   UNL A   1      30.945  24.685  23.974  1.00  0.00     0.376 C 
ATOM     15  O   UNL A   1      30.236  23.981  23.268  1.00  0.00    -0.244 OA
BRANCH  14  16
ATOM     16  O   UNL A   1      31.384  25.943  23.653  1.00  0.00    -0.455 OA
BRANCH  16  17
ATOM     17  C   UNL A   1      30.525  27.110  23.731  1.00  0.00     0.104 C 
ATOM     18  C   UNL A   1      30.535  27.700  22.313  1.00  0.00     0.056 C 
ATOM     19  C   UNL A   1      31.035  28.172  24.710  1.00  0.00     0.056 C 
ATOM     20  C   UNL A   1      29.097  26.681  24.067  1.00  0.00     0.056 C 
ENDBRANCH  16  17
ENDBRANCH  14  16
ENDBRANCH   6  14
ENDBRANCH   3   5
ENDBRANCH   2   3
ENDBRANCH   1   2
BRANCH   1  21
ATOM     21  C   UNL A   1      37.214  23.138  24.316  1.00  0.00     0.275 C 
BRANCH  21  22
ATOM     22  O   UNL A   1      37.448  23.671  25.634  1.00  0.00    -0.458 OA
BRANCH  22  23
ATOM     23  C   UNL A   1      38.617  23.304  26.210  1.00  0.00     0.338 C 
ATOM     24  O   UNL A   1      39.200  22.241  26.093  1.00  0.00    -0.246 OA
BRANCH  23  25
ATOM     25  C   UNL A   1      39.204  24.463  26.901  1.00  0.00     0.060 A 
ATOM     26  C   UNL A   1      38.850  24.678  28.235  1.00  0.00     0.016 A 
ATOM     27  C   UNL A   1      40.044  25.357  26.243  1.00  0.00     0.016 A 
ATOM     28  C   UNL A   1      39.316  25.784  28.925  1.00  0.00     0.010 A 
ATOM     29  C   UNL A   1      40.526  26.469  26.938  1.00  0.00     0.010 A 
ATOM     30  C   UNL A   1      40.157  26.689  28.279  1.00  0.00    -0.014 A 
BRANCH  30  31
ATOM     31  C   UNL A   1      40.603  27.895  29.003  1.00  0.00     0.031 A 
ATOM     32  C   UNL A   1      41.967  27.912  29.624  1.00  0.00     0.074 A 
ATOM     33  C   UNL A   1      39.794  28.968  29.070  1.00  0.00     0.049 A 
ATOM     34  N   UNL A   1      42.509  28.816  30.394  1.00  0.00    -0.248 NA
ATOM     35  C   UNL A   1      42.836  26.757  29.341  1.00  0.00     0.031 C 
ATOM     36  C   UNL A   1      38.481  29.081  28.429  1.00  0.00     0.029 A 
ATOM     37  N   UNL A   1      39.956  30.168  29.712  1.00  0.00    -0.354 N 
ATOM     38  C   UNL A   1      43.766  28.324  30.722  1.00  0.00     0.074 A 
ATOM     39  C   UNL A   1      43.906  27.040  30.071  1.00  0.00     0.031 C 
ATOM     40  C   UNL A   1      37.958  30.285  28.713  1.00  0.00     0.029 A 
ATOM     41  C   UNL A   1      38.865  30.996  29.606  1.00  0.00     0.049 A 
ATOM     42  H   UNL A   1      40.774  30.412  30.202  1.00  0.00     0.167 HD
ATOM     43  C   UNL A   1      44.711  28.896  31.503  1.00  0.00     0.031 A 
ATOM     44  C   UNL A   1      38.610  32.178  30.200  1.00  0.00     0.031 A 
ATOM     45  C   UNL A   1      44.549  30.176  32.140  1.00  0.00     0.049 A 
ATOM     46  C   UNL A   1      39.643  32.750  31.133  1.00  0.00     0.074 A 
ATOM     47  C   UNL A   1      45.445  30.856  32.945  1.00  0.00     0.029 A 
ATOM     48  N   UNL A   1      43.413  30.968  32.046  1.00  0.00    -0.354 N 
ATOM     49  N   UNL A   1      40.827  32.275  31.443  1.00  0.00    -0.248 NA
ATOM     50  C   UNL A   1      39.306  34.014  31.800  1.00  0.00     0.031 C 
ATOM     51  C   UNL A   1      44.826  32.029  33.389  1.00  0.00     0.029 A 
ATOM     52  C   UNL A   1      43.572  32.114  32.805  1.00  0.00     0.049 A 
ATOM     53  H   UNL A   1      42.612  30.746  31.518  1.00  0.00     0.167 HD
ATOM     54  C   UNL A   1      41.386  33.194  32.322  1.00  0.00     0.074 A 
ATOM     55  C   UNL A   1      40.416  34.261  32.481  1.00  0.00     0.031 C 
ATOM     56  C   UNL A   1      42.591  33.163  32.942  1.00  0.00     0.031 A 
BRANCH  43  57
ATOM     57  C   UNL A   1      45.972  28.116  31.760  1.00  0.00    -0.014 A 
ATOM     58  C   UNL A   1      46.090  27.245  32.857  1.00  0.00     0.010 A 
ATOM     59  C   UNL A   1      47.049  28.235  30.863  1.00  0.00     0.010 A 
ATOM     60  C   UNL A   1      47.274  26.533  33.070  1.00  0.00     0.020 A 
ATOM     61  C   UNL A   1      48.225  27.505  31.056  1.00  0.00     0.020 A 
ATOM     62  C   UNL A   1      48.335  26.670  32.169  1.00  0.00     0.054 A 
BRANCH  62  63
ATOM     63  S   UNL A   1      49.851  25.715  32.456  1.00  0.00     0.124 S 
ATOM     64  O   UNL A   1      50.711  26.704  33.102  1.00  0.00    -0.237 OA
ATOM     65  O   UNL A   1      49.387  24.629  33.315  1.00  0.00    -0.237 OA
ATOM     66  O   UNL A   1      50.266  25.311  31.115  1.00  0.00    -0.744 OA
ENDBRANCH  62  63
ENDBRANCH  43  57
BRANCH  44  67
ATOM     67  C   UNL A   1      37.312  32.868  29.968  1.00  0.00    -0.014 A 
ATOM     68  C   UNL A   1      36.255  32.737  30.884  1.00  0.00     0.010 A 
ATOM     69  C   UNL A   1      37.128  33.666  28.823  1.00  0.00     0.010 A 
ATOM     70  C   UNL A   1      35.032  33.373  30.650  1.00  0.00     0.020 A 
ATOM     71  C   UNL A   1      35.917  34.329  28.600  1.00  0.00     0.020 A 
ATOM     72  C   UNL A   1      34.871  34.166  29.509  1.00  0.00     0.054 A 
BRANCH  72  73
ATOM     73  S   UNL A   1      33.286  35.010  29.246  1.00  0.00     0.124 S 
ATOM     74  O   UNL A   1      32.627  34.125  28.292  1.00  0.00    -0.237 OA
ATOM     75  O   UNL A   1      32.715  35.032  30.590  1.00  0.00    -0.237 OA
ATOM     76  O   UNL A   1      33.678  36.316  28.722  1.00  0.00    -0.744 OA
ENDBRANCH  72  73
ENDBRANCH  44  67
BRANCH  56  77
ATOM     77  C   UNL A   1      42.949  34.333  33.818  1.00  0.00    -0.014 A 
ATOM     78  C   UNL A   1      42.692  34.315  35.200  1.00  0.00     0.010 A 
ATOM     79  C   UNL A   1      43.612  35.438  33.255  1.00  0.00     0.010 A 
ATOM     80  C   UNL A   1      43.075  35.394  36.001  1.00  0.00     0.020 A 
ATOM     81  C   UNL A   1      44.022  36.505  34.056  1.00  0.00     0.020 A 
ATOM     82  C   UNL A   1      43.741  36.481  35.423  1.00  0.00     0.054 A 
BRANCH  82  83
ATOM     83  S   UNL A   1      44.279  37.842  36.494  1.00  0.00     0.124 S 
ATOM     84  O   UNL A   1      45.658  37.468  36.792  1.00  0.00    -0.237 OA
ATOM     85  O   UNL A   1      44.116  39.011  35.632  1.00  0.00    -0.237 OA
ATOM     86  O   UNL A   1      43.357  37.778  37.626  1.00  0.00    -0.744 OA
ENDBRANCH  82  83
ENDBRANCH  56  77
ENDBRANCH  30  31
ENDBRANCH  23  25
ENDBRANCH  22  23
ENDBRANCH  21  22
ENDBRANCH   1  21
TORSDOF 17
ENDMDL
MODEL 3
REMARK VINA RESULT:      -9.5      2.441      8.781
REMARK SMILES CC(C)(C)OC(=O)[C@@H]1[NH2+][C@H](C(=O)OCCOC(=O)c2ccc(-c3c4nc(c(-c5ccc(S(=O)(=O)[O-])cc5)c5ccc([nH]5)c(-c5ccc(S(=O)(=O)[O-])cc5)c5nc(c(-c6ccc(S(=O)(=O)[O-])cc6)c6ccc3[nH]6)C=C5)C=C4)cc2)C(C)(C)S1
REMARK SMILES IDX 14 1 13 2 11 3 12 4 10 5 8 6 9 7 82 8 79 11 80 12 81 13 6 14
REMARK SMILES IDX 7 15 5 16 2 17 1 18 3 19 4 20 15 21 16 22 17 23 18 24 19 25
REMARK SMILES IDX 20 26 78 27 21 28 77 29 22 30 23 31 24 32 71 33 25 34 76 35
REMARK SMILES IDX 70 36 72 37 26 38 75 39 69 40 68 41 27 43 57 44 38 45 56 46
REMARK SMILES IDX 39 47 42 48 55 49 73 50 40 51 41 52 54 54 74 55 43 56 28 57
REMARK SMILES IDX 29 58 37 59 30 60 36 61 31 62 32 63 33 64 34 65 35 66 58 67
REMARK SMILES IDX 59 68 67 69 60 70 66 71 61 72 62 73 63 74 64 75 65 76 44 77
REMARK SMILES IDX 45 78 53 79 46 80 52 81 47 82 48 83 49 84 50 85 51 86
REMARK H PARENT 9 9 9 10 72 42 42 53
REMARK Flexibility Score: inf
ROOT
ATOM      1  C   UNL A   1      34.400  28.616  26.532  1.00  0.00     0.274 C 
ENDROOT
BRANCH   1   2
ATOM      2  O   UNL A   1      33.259  27.763  26.741  1.00  0.00    -0.458 OA
BRANCH   2   3
ATOM      3  C   UNL A   1      32.753  27.173  25.630  1.00  0.00     0.366 C 
ATOM      4  O   UNL A   1      33.304  27.217  24.533  1.00  0.00    -0.245 OA
BRANCH   3   5
ATOM      5  C   UNL A   1      31.485  26.333  25.870  1.00  0.00     0.310 C 
ATOM      6  C   UNL A   1      30.022  26.415  23.967  1.00  0.00     0.354 C 
ATOM      7  N   UNL A   1      30.216  26.907  25.337  1.00  0.00    -0.313 N 
ATOM      8  S   UNL A   1      30.852  24.811  23.803  1.00  0.00    -0.074 SA
ATOM      9  H   UNL A   1      29.433  26.613  25.923  1.00  0.00     0.348 HD
ATOM     10  H   UNL A   1      30.263  27.925  25.340  1.00  0.00     0.348 HD
ATOM     11  C   UNL A   1      31.594  24.847  25.473  1.00  0.00     0.079 C 
ATOM     12  C   UNL A   1      30.745  23.983  26.426  1.00  0.00     0.030 C 
ATOM     13  C   UNL A   1      33.007  24.260  25.421  1.00  0.00     0.030 C 
BRANCH   6  14
ATOM     14  C   UNL A   1      30.504  27.470  22.951  1.00  0.00     0.376 C 
ATOM     15  O   UNL A   1      30.984  27.246  21.848  1.00  0.00    -0.244 OA
BRANCH  14  16
ATOM     16  O   UNL A   1      30.333  28.712  23.504  1.00  0.00    -0.455 OA
BRANCH  16  17
ATOM     17  C   UNL A   1      29.340  29.651  23.017  1.00  0.00     0.104 C 
ATOM     18  C   UNL A   1      29.846  30.075  21.631  1.00  0.00     0.056 C 
ATOM     19  C   UNL A   1      29.204  30.899  23.895  1.00  0.00     0.056 C 
ATOM     20  C   UNL A   1      27.996  28.942  22.846  1.00  0.00     0.056 C 
ENDBRANCH  16  17
ENDBRANCH  14  16
ENDBRANCH   6  14
ENDBRANCH   3   5
ENDBRANCH   2   3
ENDBRANCH   1   2
BRANCH   1  21
ATOM     21  C   UNL A   1      34.653  29.493  27.762  1.00  0.00     0.275 C 
BRANCH  21  22
ATOM     22  O   UNL A   1      36.016  29.959  27.805  1.00  0.00    -0.458 OA
BRANCH  22  23
ATOM     23  C   UNL A   1      36.660  29.757  28.978  1.00  0.00     0.338 C 
ATOM     24  O   UNL A   1      36.165  29.617  30.082  1.00  0.00    -0.246 OA
BRANCH  23  25
ATOM     25  C   UNL A   1      38.096  29.561  28.718  1.00  0.00     0.060 A 
ATOM     26  C   UNL A   1      38.523  29.546  27.388  1.00  0.00     0.016 A 
ATOM     27  C   UNL A   1      39.002  29.341  29.751  1.00  0.00     0.016 A 
ATOM     28  C   UNL A   1      39.848  29.303  27.070  1.00  0.00     0.010 A 
ATOM     29  C   UNL A   1      40.343  29.106  29.436  1.00  0.00     0.010 A 
ATOM     30  C   UNL A   1      40.768  29.080  28.094  1.00  0.00    -0.014 A 
BRANCH  30  31
ATOM     31  C   UNL A   1      42.167  28.764  27.744  1.00  0.00     0.031 A 
ATOM     32  C   UNL A   1      42.536  27.350  27.416  1.00  0.00     0.074 A 
ATOM     33  C   UNL A   1      43.079  29.752  27.697  1.00  0.00     0.049 A 
ATOM     34  N   UNL A   1      43.717  26.838  27.196  1.00  0.00    -0.248 NA
ATOM     35  C   UNL A   1      41.430  26.382  27.326  1.00  0.00     0.031 C 
ATOM     36  C   UNL A   1      42.802  31.173  27.918  1.00  0.00     0.029 A 
ATOM     37  N   UNL A   1      44.426  29.709  27.448  1.00  0.00    -0.354 N 
ATOM     38  C   UNL A   1      43.504  25.482  26.979  1.00  0.00     0.074 A 
ATOM     39  C   UNL A   1      42.081  25.249  27.099  1.00  0.00     0.031 C 
ATOM     40  C   UNL A   1      43.946  31.866  27.798  1.00  0.00     0.029 A 
ATOM     41  C   UNL A   1      45.041  30.933  27.558  1.00  0.00     0.049 A 
ATOM     42  H   UNL A   1      44.906  28.882  27.215  1.00  0.00     0.167 HD
ATOM     43  C   UNL A   1      44.420  24.523  26.712  1.00  0.00     0.031 A 
ATOM     44  C   UNL A   1      46.348  31.256  27.512  1.00  0.00     0.031 A 
ATOM     45  C   UNL A   1      45.830  24.780  26.596  1.00  0.00     0.049 A 
ATOM     46  C   UNL A   1      47.353  30.156  27.300  1.00  0.00     0.074 A 
ATOM     47  C   UNL A   1      46.848  23.885  26.319  1.00  0.00     0.029 A 
ATOM     48  N   UNL A   1      46.423  26.025  26.757  1.00  0.00    -0.354 N 
ATOM     49  N   UNL A   1      47.143  28.874  27.103  1.00  0.00    -0.248 NA
ATOM     50  C   UNL A   1      48.769  30.541  27.308  1.00  0.00     0.031 C 
ATOM     51  C   UNL A   1      48.061  24.578  26.373  1.00  0.00     0.029 A 
ATOM     52  C   UNL A   1      47.795  25.916  26.616  1.00  0.00     0.049 A 
ATOM     53  H   UNL A   1      45.938  26.862  26.943  1.00  0.00     0.167 HD
ATOM     54  C   UNL A   1      48.400  28.306  26.939  1.00  0.00     0.074 A 
ATOM     55  C   UNL A   1      49.362  29.385  27.045  1.00  0.00     0.031 C 
ATOM     56  C   UNL A   1      48.730  27.009  26.721  1.00  0.00     0.031 A 
BRANCH  43  57
ATOM     57  C   UNL A   1      43.931  23.105  26.588  1.00  0.00    -0.014 A 
ATOM     58  C   UNL A   1      43.124  22.515  27.577  1.00  0.00     0.010 A 
ATOM     59  C   UNL A   1      44.262  22.361  25.441  1.00  0.00     0.010 A 
ATOM     60  C   UNL A   1      42.685  21.195  27.434  1.00  0.00     0.020 A 
ATOM     61  C   UNL A   1      43.803  21.051  25.282  1.00  0.00     0.020 A 
ATOM     62  C   UNL A   1      43.030  20.470  26.289  1.00  0.00     0.054 A 
BRANCH  62  63
ATOM     63  S   UNL A   1      42.425  18.769  26.119  1.00  0.00     0.124 S 
ATOM     64  O   UNL A   1      41.034  18.982  25.728  1.00  0.00    -0.237 OA
ATOM     65  O   UNL A   1      43.293  18.223  25.079  1.00  0.00    -0.237 OA
ATOM     66  O   UNL A   1      42.617  18.197  27.450  1.00  0.00    -0.744 OA
ENDBRANCH  62  63
ENDBRANCH  43  57
BRANCH  44  67
ATOM     67  C   UNL A   1      46.778  32.666  27.717  1.00  0.00    -0.014 A 
ATOM     68  C   UNL A   1      47.048  33.154  29.006  1.00  0.00     0.010 A 
ATOM     69  C   UNL A   1      46.922  33.531  26.616  1.00  0.00     0.010 A 
ATOM     70  C   UNL A   1      47.434  34.485  29.193  1.00  0.00     0.020 A 
ATOM     71  C   UNL A   1      47.338  34.854  26.795  1.00  0.00     0.020 A 
ATOM     72  C   UNL A   1      47.577  35.326  28.085  1.00  0.00     0.054 A 
BRANCH  72  73
ATOM     73  S   UNL A   1      48.113  37.040  28.350  1.00  0.00     0.124 S 
ATOM     74  O   UNL A   1      49.519  36.866  28.696  1.00  0.00    -0.237 OA
ATOM     75  O   UNL A   1      47.850  37.656  27.052  1.00  0.00    -0.237 OA
ATOM     76  O   UNL A   1      47.253  37.502  29.437  1.00  0.00    -0.744 OA
ENDBRANCH  72  73
ENDBRANCH  44  67
BRANCH  56  77
ATOM     77  C   UNL A   1      50.190  26.690  26.540  1.00  0.00    -0.014 A 
ATOM     78  C   UNL A   1      50.782  26.682  25.265  1.00  0.00     0.010 A 
ATOM     79  C   UNL A   1      50.991  26.461  27.673  1.00  0.00     0.010 A 
ATOM     80  C   UNL A   1      52.149  26.427  25.126  1.00  0.00     0.020 A 
ATOM     81  C   UNL A   1      52.363  26.236  27.541  1.00  0.00     0.020 A 
ATOM     82  C   UNL A   1      52.931  26.210  26.266  1.00  0.00     0.054 A 
BRANCH  82  83
ATOM     83  S   UNL A   1      54.712  25.940  26.063  1.00  0.00     0.124 S 
ATOM     84  O   UNL A   1      55.103  25.470  27.389  1.00  0.00    -0.237 OA
ATOM     85  O   UNL A   1      54.765  24.939  24.999  1.00  0.00    -0.237 OA
ATOM     86  O   UNL A   1      55.223  27.258  25.693  1.00  0.00    -0.744 OA
ENDBRANCH  82  83
ENDBRANCH  56  77
ENDBRANCH  30  31
ENDBRANCH  23  25
ENDBRANCH  22  23
ENDBRANCH  21  22
ENDBRANCH   1  21
TORSDOF 17
ENDMDL
