MODEL 1
REMARK VINA RESULT:     -11.4      0.000      0.000
REMARK SMILES CCn1ncc(NC(=O)[C@@H]2CCCC[C@@H]2C(=O)OCCOC(=O)c2ccc(-c3c4nc(c(-c5ccc(S(=O)(=O)[O-])cc5)c5ccc([nH]5)c(-c5ccc(S(=O)(=O)[O-])cc5)c5nc(c(-c6ccc(S(=O)(=O)[O-])cc6)c6ccc3[nH]6)C=C5)C=C4)cc2)c1C(=O)Nc1cnn(C)c1C
REMARK SMILES IDX 19 1 18 2 16 3 17 4 15 5 10 6 11 7 12 8 14 9 13 10 8 11 7 12
REMARK SMILES IDX 9 14 6 15 3 16 4 17 84 18 5 19 2 20 1 21 85 22 86 23 87 24
REMARK SMILES IDX 88 26 89 27 93 28 90 29 91 30 94 31 92 32 20 33 21 34 22 35
REMARK SMILES IDX 23 36 24 37 25 38 83 39 26 40 82 41 27 42 28 43 29 44 76 45
REMARK SMILES IDX 30 46 81 47 75 48 77 49 31 50 80 51 74 52 73 53 32 55 62 56
REMARK SMILES IDX 43 57 61 58 44 59 47 60 60 61 78 62 45 63 46 64 59 66 79 67
REMARK SMILES IDX 48 68 33 69 34 70 42 71 35 72 41 73 36 74 37 75 38 76 39 77
REMARK SMILES IDX 40 78 63 79 64 80 72 81 65 82 71 83 66 84 67 85 68 86 69 87
REMARK SMILES IDX 70 88 49 89 50 90 58 91 51 92 57 93 52 94 53 95 54 96 55 97
REMARK SMILES IDX 56 98
REMARK H PARENT 7 13 87 25 77 54 47 65
REMARK Flexibility Score: inf
ROOT
ATOM      1  C   UNL A   1      36.082  20.815  25.291  1.00  0.00     0.274 C 
ENDROOT
BRANCH   1   2
ATOM      2  O   UNL A   1      35.641  22.026  24.647  1.00  0.00    -0.462 OA
BRANCH   2   3
ATOM      3  C   UNL A   1      34.876  22.889  25.363  1.00  0.00     0.309 C 
ATOM      4  O   UNL A   1      35.234  23.433  26.404  1.00  0.00    -0.252 OA
BRANCH   3   5
ATOM      5  C   UNL A   1      33.491  23.126  24.759  1.00  0.00     0.111 C 
ATOM      6  C   UNL A   1      32.287  22.582  25.511  1.00  0.00     0.093 C 
ATOM      7  C   UNL A   1      32.205  21.061  25.516  1.00  0.00     0.014 C 
ATOM      8  C   UNL A   1      32.178  20.488  24.099  1.00  0.00     0.001 C 
ATOM      9  C   UNL A   1      33.344  22.719  23.292  1.00  0.00     0.016 C 
ATOM     10  C   UNL A   1      32.927  21.266  23.013  1.00  0.00     0.001 C 
BRANCH   6  11
ATOM     11  C   UNL A   1      32.122  23.258  26.847  1.00  0.00     0.228 C 
ATOM     12  N   UNL A   1      31.668  24.532  26.942  1.00  0.00    -0.322 N 
ATOM     13  H   UNL A   1      31.595  24.836  27.875  1.00  0.00     0.170 HD
ATOM     14  O   UNL A   1      32.343  22.676  27.912  1.00  0.00    -0.274 OA
BRANCH  12  15
ATOM     15  C   UNL A   1      31.283  25.506  26.038  1.00  0.00     0.092 A 
ATOM     16  N   UNL A   1      30.923  27.006  24.483  1.00  0.00    -0.258 N 
ATOM     17  N   UNL A   1      29.707  26.470  24.696  1.00  0.00    -0.178 NA
ATOM     18  C   UNL A   1      31.901  26.568  25.370  1.00  0.00     0.150 A 
ATOM     19  C   UNL A   1      29.925  25.575  25.645  1.00  0.00     0.162 A 
BRANCH  16  20
ATOM     20  C   UNL A   1      30.998  27.973  23.406  1.00  0.00     0.142 C 
ATOM     21  C   UNL A   1      30.035  29.130  23.586  1.00  0.00     0.029 C 
ENDBRANCH  16  20
BRANCH  18  22
ATOM     22  C   UNL A   1      33.146  27.291  25.624  1.00  0.00     0.276 C 
ATOM     23  O   UNL A   1      34.171  26.727  26.009  1.00  0.00    -0.267 OA
ATOM     24  N   UNL A   1      33.151  28.633  25.308  1.00  0.00    -0.318 N 
ATOM     25  H   UNL A   1      33.206  28.886  24.358  1.00  0.00     0.170 HD
BRANCH  24  26
ATOM     26  C   UNL A   1      33.082  29.642  26.246  1.00  0.00     0.082 A 
ATOM     27  C   UNL A   1      32.073  30.595  26.475  1.00  0.00     0.161 A 
ATOM     28  C   UNL A   1      34.119  30.004  27.085  1.00  0.00     0.059 A 
ATOM     29  N   UNL A   1      32.506  31.604  27.234  1.00  0.00    -0.179 NA
ATOM     30  N   UNL A   1      33.775  31.261  27.532  1.00  0.00    -0.271 N 
ATOM     31  C   UNL A   1      35.438  29.380  27.375  1.00  0.00     0.068 C 
ATOM     32  C   UNL A   1      34.676  32.298  27.989  1.00  0.00     0.174 C 
ENDBRANCH  24  26
ENDBRANCH  18  22
ENDBRANCH  12  15
ENDBRANCH   6  11
ENDBRANCH   3   5
ENDBRANCH   2   3
ENDBRANCH   1   2
BRANCH   1  33
ATOM     33  C   UNL A   1      37.482  20.391  24.856  1.00  0.00     0.275 C 
BRANCH  33  34
ATOM     34  O   UNL A   1      38.488  21.072  25.604  1.00  0.00    -0.458 OA
BRANCH  34  35
ATOM     35  C   UNL A   1      39.598  20.323  25.780  1.00  0.00     0.338 C 
ATOM     36  O   UNL A   1      39.718  19.129  25.567  1.00  0.00    -0.246 OA
BRANCH  35  37
ATOM     37  C   UNL A   1      40.652  21.105  26.413  1.00  0.00     0.060 A 
ATOM     38  C   UNL A   1      40.588  21.295  27.799  1.00  0.00     0.016 A 
ATOM     39  C   UNL A   1      41.459  21.890  25.593  1.00  0.00     0.016 A 
ATOM     40  C   UNL A   1      41.198  22.388  28.363  1.00  0.00     0.010 A 
ATOM     41  C   UNL A   1      42.065  22.988  26.152  1.00  0.00     0.010 A 
ATOM     42  C   UNL A   1      41.858  23.263  27.511  1.00  0.00    -0.014 A 
BRANCH  42  43
ATOM     43  C   UNL A   1      42.381  24.497  28.066  1.00  0.00     0.031 A 
ATOM     44  C   UNL A   1      41.441  25.647  28.019  1.00  0.00     0.074 A 
ATOM     45  C   UNL A   1      43.530  24.435  28.770  1.00  0.00     0.049 A 
ATOM     46  N   UNL A   1      41.690  26.891  27.768  1.00  0.00    -0.248 NA
ATOM     47  C   UNL A   1      40.005  25.347  28.196  1.00  0.00     0.031 C 
ATOM     48  C   UNL A   1      44.321  23.224  29.036  1.00  0.00     0.029 A 
ATOM     49  N   UNL A   1      44.104  25.367  29.579  1.00  0.00    -0.354 N 
ATOM     50  C   UNL A   1      40.479  27.554  27.957  1.00  0.00     0.074 A 
ATOM     51  C   UNL A   1      39.456  26.548  28.060  1.00  0.00     0.031 C 
ATOM     52  C   UNL A   1      45.053  23.421  30.150  1.00  0.00     0.029 A 
ATOM     53  C   UNL A   1      44.848  24.786  30.604  1.00  0.00     0.049 A 
ATOM     54  H   UNL A   1      44.006  26.338  29.454  1.00  0.00     0.167 HD
ATOM     55  C   UNL A   1      40.411  28.869  28.289  1.00  0.00     0.031 A 
ATOM     56  C   UNL A   1      45.141  25.334  31.809  1.00  0.00     0.031 A 
ATOM     57  C   UNL A   1      41.600  29.590  27.939  1.00  0.00     0.049 A 
ATOM     58  C   UNL A   1      44.888  26.792  31.716  1.00  0.00     0.074 A 
ATOM     59  C   UNL A   1      42.267  29.826  26.754  1.00  0.00     0.029 A 
ATOM     60  N   UNL A   1      42.480  29.901  28.947  1.00  0.00    -0.354 N 
ATOM     61  N   UNL A   1      45.582  27.605  30.972  1.00  0.00    -0.248 NA
ATOM     62  C   UNL A   1      43.595  27.303  32.149  1.00  0.00     0.031 C 
ATOM     63  C   UNL A   1      43.647  29.847  27.099  1.00  0.00     0.029 A 
ATOM     64  C   UNL A   1      43.746  29.652  28.479  1.00  0.00     0.049 A 
ATOM     65  H   UNL A   1      42.247  30.241  29.841  1.00  0.00     0.167 HD
ATOM     66  C   UNL A   1      44.665  28.534  30.503  1.00  0.00     0.074 A 
ATOM     67  C   UNL A   1      43.496  28.376  31.361  1.00  0.00     0.031 C 
ATOM     68  C   UNL A   1      44.832  29.139  29.289  1.00  0.00     0.031 A 
BRANCH  55  69
ATOM     69  C   UNL A   1      39.410  29.374  29.296  1.00  0.00    -0.014 A 
ATOM     70  C   UNL A   1      38.526  30.406  28.939  1.00  0.00     0.010 A 
ATOM     71  C   UNL A   1      39.505  29.052  30.670  1.00  0.00     0.010 A 
ATOM     72  C   UNL A   1      37.818  31.118  29.917  1.00  0.00     0.020 A 
ATOM     73  C   UNL A   1      38.770  29.720  31.646  1.00  0.00     0.020 A 
ATOM     74  C   UNL A   1      37.963  30.781  31.266  1.00  0.00     0.054 A 
BRANCH  74  75
ATOM     75  S   UNL A   1      37.161  31.793  32.532  1.00  0.00     0.124 S 
ATOM     76  O   UNL A   1      35.775  31.794  32.075  1.00  0.00    -0.237 OA
ATOM     77  O   UNL A   1      37.428  31.037  33.752  1.00  0.00    -0.237 OA
ATOM     78  O   UNL A   1      37.856  33.074  32.434  1.00  0.00    -0.744 OA
ENDBRANCH  74  75
ENDBRANCH  55  69
BRANCH  56  79
ATOM     79  C   UNL A   1      45.301  24.620  33.102  1.00  0.00    -0.014 A 
ATOM     80  C   UNL A   1      44.346  23.683  33.531  1.00  0.00     0.010 A 
ATOM     81  C   UNL A   1      46.513  24.692  33.823  1.00  0.00     0.010 A 
ATOM     82  C   UNL A   1      44.608  22.828  34.616  1.00  0.00     0.020 A 
ATOM     83  C   UNL A   1      46.775  23.859  34.915  1.00  0.00     0.020 A 
ATOM     84  C   UNL A   1      45.827  22.916  35.295  1.00  0.00     0.054 A 
BRANCH  84  85
ATOM     85  S   UNL A   1      46.217  21.713  36.599  1.00  0.00     0.124 S 
ATOM     86  O   UNL A   1      45.747  22.396  37.800  1.00  0.00    -0.237 OA
ATOM     87  O   UNL A   1      45.445  20.543  36.192  1.00  0.00    -0.237 OA
ATOM     88  O   UNL A   1      47.668  21.558  36.502  1.00  0.00    -0.744 OA
ENDBRANCH  84  85
ENDBRANCH  56  79
BRANCH  68  89
ATOM     89  C   UNL A   1      46.174  29.006  28.602  1.00  0.00    -0.014 A 
ATOM     90  C   UNL A   1      47.205  29.957  28.737  1.00  0.00     0.010 A 
ATOM     91  C   UNL A   1      46.460  27.803  27.932  1.00  0.00     0.010 A 
ATOM     92  C   UNL A   1      48.476  29.724  28.195  1.00  0.00     0.020 A 
ATOM     93  C   UNL A   1      47.732  27.556  27.407  1.00  0.00     0.020 A 
ATOM     94  C   UNL A   1      48.732  28.522  27.534  1.00  0.00     0.054 A 
BRANCH  94  95
ATOM     95  S   UNL A   1      50.400  28.199  26.898  1.00  0.00     0.124 S 
ATOM     96  O   UNL A   1      51.230  28.360  28.090  1.00  0.00    -0.237 OA
ATOM     97  O   UNL A   1      50.298  26.835  26.386  1.00  0.00    -0.237 OA
ATOM     98  O   UNL A   1      50.587  29.223  25.872  1.00  0.00    -0.744 OA
ENDBRANCH  94  95
ENDBRANCH  68  89
ENDBRANCH  42  43
ENDBRANCH  35  37
ENDBRANCH  34  35
ENDBRANCH  33  34
ENDBRANCH   1  33
TORSDOF 19
ENDMDL
MODEL 2
REMARK VINA RESULT:     -11.2      4.574     10.564
REMARK SMILES CCn1ncc(NC(=O)[C@@H]2CCCC[C@@H]2C(=O)OCCOC(=O)c2ccc(-c3c4nc(c(-c5ccc(S(=O)(=O)[O-])cc5)c5ccc([nH]5)c(-c5ccc(S(=O)(=O)[O-])cc5)c5nc(c(-c6ccc(S(=O)(=O)[O-])cc6)c6ccc3[nH]6)C=C5)C=C4)cc2)c1C(=O)Nc1cnn(C)c1C
REMARK SMILES IDX 19 1 18 2 16 3 17 4 15 5 10 6 11 7 12 8 14 9 13 10 8 11 7 12
REMARK SMILES IDX 9 14 6 15 3 16 4 17 84 18 5 19 2 20 1 21 85 22 86 23 87 24
REMARK SMILES IDX 88 26 89 27 93 28 90 29 91 30 94 31 92 32 20 33 21 34 22 35
REMARK SMILES IDX 23 36 24 37 25 38 83 39 26 40 82 41 27 42 28 43 29 44 76 45
REMARK SMILES IDX 30 46 81 47 75 48 77 49 31 50 80 51 74 52 73 53 32 55 62 56
REMARK SMILES IDX 43 57 61 58 44 59 47 60 60 61 78 62 45 63 46 64 59 66 79 67
REMARK SMILES IDX 48 68 33 69 34 70 42 71 35 72 41 73 36 74 37 75 38 76 39 77
REMARK SMILES IDX 40 78 63 79 64 80 72 81 65 82 71 83 66 84 67 85 68 86 69 87
REMARK SMILES IDX 70 88 49 89 50 90 58 91 51 92 57 93 52 94 53 95 54 96 55 97
REMARK SMILES IDX 56 98
REMARK H PARENT 7 13 87 25 77 54 47 65
REMARK Flexibility Score: inf
ROOT
ATOM      1  C   UNL A   1      32.818  29.787  25.185  1.00  0.00     0.274 C 
ENDROOT
BRANCH   1   2
ATOM      2  O   UNL A   1      33.664  28.627  25.311  1.00  0.00    -0.462 OA
BRANCH   2   3
ATOM      3  C   UNL A   1      33.628  27.699  24.322  1.00  0.00     0.309 C 
ATOM      4  O   UNL A   1      33.829  27.942  23.135  1.00  0.00    -0.252 OA
BRANCH   3   5
ATOM      5  C   UNL A   1      33.298  26.290  24.816  1.00  0.00     0.111 C 
ATOM      6  C   UNL A   1      32.290  25.477  24.021  1.00  0.00     0.093 C 
ATOM      7  C   UNL A   1      30.867  26.017  24.105  1.00  0.00     0.014 C 
ATOM      8  C   UNL A   1      30.375  26.101  25.549  1.00  0.00     0.001 C 
ATOM      9  C   UNL A   1      32.910  26.193  26.292  1.00  0.00     0.016 C 
ATOM     10  C   UNL A   1      31.422  26.376  26.633  1.00  0.00     0.001 C 
BRANCH   6  11
ATOM     11  C   UNL A   1      32.800  25.169  22.638  1.00  0.00     0.228 C 
ATOM     12  N   UNL A   1      33.767  24.241  22.432  1.00  0.00    -0.322 N 
ATOM     13  H   UNL A   1      33.988  24.134  21.479  1.00  0.00     0.170 HD
ATOM     14  O   UNL A   1      32.334  25.705  21.629  1.00  0.00    -0.274 OA
BRANCH  12  15
ATOM     15  C   UNL A   1      34.515  23.409  23.245  1.00  0.00     0.092 A 
ATOM     16  N   UNL A   1      35.540  21.881  24.433  1.00  0.00    -0.258 N 
ATOM     17  N   UNL A   1      36.518  22.751  24.121  1.00  0.00    -0.178 NA
ATOM     18  C   UNL A   1      34.268  22.296  24.055  1.00  0.00     0.150 A 
ATOM     19  C   UNL A   1      35.893  23.679  23.417  1.00  0.00     0.162 A 
BRANCH  16  20
ATOM     20  C   UNL A   1      35.967  20.691  25.143  1.00  0.00     0.142 C 
ATOM     21  C   UNL A   1      37.432  20.368  24.923  1.00  0.00     0.029 C 
ENDBRANCH  16  20
BRANCH  18  22
ATOM     22  C   UNL A   1      33.036  21.766  24.639  1.00  0.00     0.276 C 
ATOM     23  O   UNL A   1      32.493  22.282  25.617  1.00  0.00    -0.267 OA
ATOM     24  N   UNL A   1      32.447  20.711  23.974  1.00  0.00    -0.318 N 
ATOM     25  H   UNL A   1      31.960  20.903  23.140  1.00  0.00     0.170 HD
BRANCH  24  26
ATOM     26  C   UNL A   1      32.500  19.404  24.409  1.00  0.00     0.082 A 
ATOM     27  C   UNL A   1      32.682  18.890  25.706  1.00  0.00     0.161 A 
ATOM     28  C   UNL A   1      32.529  18.302  23.576  1.00  0.00     0.059 A 
ATOM     29  N   UNL A   1      33.014  17.598  25.687  1.00  0.00    -0.179 NA
ATOM     30  N   UNL A   1      32.988  17.279  24.377  1.00  0.00    -0.271 N 
ATOM     31  C   UNL A   1      32.332  18.148  22.110  1.00  0.00     0.068 C 
ATOM     32  C   UNL A   1      33.685  16.085  23.949  1.00  0.00     0.174 C 
ENDBRANCH  24  26
ENDBRANCH  18  22
ENDBRANCH  12  15
ENDBRANCH   6  11
ENDBRANCH   3   5
ENDBRANCH   2   3
ENDBRANCH   1   2
BRANCH   1  33
ATOM     33  C   UNL A   1      32.259  30.259  26.525  1.00  0.00     0.275 C 
BRANCH  33  34
ATOM     34  O   UNL A   1      33.302  30.652  27.414  1.00  0.00    -0.458 OA
BRANCH  34  35
ATOM     35  C   UNL A   1      33.253  31.966  27.720  1.00  0.00     0.338 C 
ATOM     36  O   UNL A   1      32.409  32.771  27.364  1.00  0.00    -0.246 OA
BRANCH  35  37
ATOM     37  C   UNL A   1      34.450  32.372  28.446  1.00  0.00     0.060 A 
ATOM     38  C   UNL A   1      35.497  32.949  27.717  1.00  0.00     0.016 A 
ATOM     39  C   UNL A   1      34.629  31.870  29.732  1.00  0.00     0.016 A 
ATOM     40  C   UNL A   1      36.781  32.873  28.199  1.00  0.00     0.010 A 
ATOM     41  C   UNL A   1      35.912  31.786  30.214  1.00  0.00     0.010 A 
ATOM     42  C   UNL A   1      36.975  32.215  29.405  1.00  0.00    -0.014 A 
BRANCH  42  43
ATOM     43  C   UNL A   1      38.335  31.996  29.856  1.00  0.00     0.031 A 
ATOM     44  C   UNL A   1      38.876  30.643  29.564  1.00  0.00     0.074 A 
ATOM     45  C   UNL A   1      39.045  33.068  30.262  1.00  0.00     0.049 A 
ATOM     46  N   UNL A   1      39.633  29.894  30.297  1.00  0.00    -0.248 NA
ATOM     47  C   UNL A   1      38.439  30.004  28.306  1.00  0.00     0.031 C 
ATOM     48  C   UNL A   1      38.574  34.461  30.295  1.00  0.00     0.029 A 
ATOM     49  N   UNL A   1      40.381  33.185  30.502  1.00  0.00    -0.354 N 
ATOM     50  C   UNL A   1      39.930  28.785  29.508  1.00  0.00     0.074 A 
ATOM     51  C   UNL A   1      39.051  28.827  28.370  1.00  0.00     0.031 C 
ATOM     52  C   UNL A   1      39.641  35.281  30.233  1.00  0.00     0.029 A 
ATOM     53  C   UNL A   1      40.849  34.473  30.251  1.00  0.00     0.049 A 
ATOM     54  H   UNL A   1      40.949  32.446  30.817  1.00  0.00     0.167 HD
ATOM     55  C   UNL A   1      41.054  28.043  29.683  1.00  0.00     0.031 A 
ATOM     56  C   UNL A   1      42.115  34.830  29.925  1.00  0.00     0.031 A 
ATOM     57  C   UNL A   1      41.607  28.181  30.999  1.00  0.00     0.049 A 
ATOM     58  C   UNL A   1      43.006  33.695  30.264  1.00  0.00     0.074 A 
ATOM     59  C   UNL A   1      41.133  27.937  32.271  1.00  0.00     0.029 A 
ATOM     60  N   UNL A   1      42.718  28.976  31.145  1.00  0.00    -0.354 N 
ATOM     61  N   UNL A   1      43.238  33.290  31.480  1.00  0.00    -0.248 NA
ATOM     62  C   UNL A   1      43.341  32.737  29.220  1.00  0.00     0.031 C 
ATOM     63  C   UNL A   1      41.715  28.947  33.087  1.00  0.00     0.029 A 
ATOM     64  C   UNL A   1      42.535  29.733  32.275  1.00  0.00     0.049 A 
ATOM     65  H   UNL A   1      43.502  28.999  30.551  1.00  0.00     0.167 HD
ATOM     66  C   UNL A   1      43.346  31.910  31.385  1.00  0.00     0.074 A 
ATOM     67  C   UNL A   1      43.532  31.644  29.962  1.00  0.00     0.031 C 
ATOM     68  C   UNL A   1      42.988  31.101  32.425  1.00  0.00     0.031 A 
BRANCH  55  69
ATOM     69  C   UNL A   1      41.843  27.523  28.510  1.00  0.00    -0.014 A 
ATOM     70  C   UNL A   1      42.580  26.334  28.640  1.00  0.00     0.010 A 
ATOM     71  C   UNL A   1      42.101  28.321  27.371  1.00  0.00     0.010 A 
ATOM     72  C   UNL A   1      43.569  25.994  27.707  1.00  0.00     0.020 A 
ATOM     73  C   UNL A   1      43.047  27.968  26.411  1.00  0.00     0.020 A 
ATOM     74  C   UNL A   1      43.807  26.826  26.609  1.00  0.00     0.054 A 
BRANCH  74  75
ATOM     75  S   UNL A   1      45.177  26.459  25.488  1.00  0.00     0.124 S 
ATOM     76  O   UNL A   1      44.632  25.351  24.709  1.00  0.00    -0.237 OA
ATOM     77  O   UNL A   1      45.341  27.720  24.771  1.00  0.00    -0.237 OA
ATOM     78  O   UNL A   1      46.272  26.113  26.391  1.00  0.00    -0.744 OA
ENDBRANCH  74  75
ENDBRANCH  55  69
BRANCH  56  79
ATOM     79  C   UNL A   1      42.529  35.951  29.042  1.00  0.00    -0.014 A 
ATOM     80  C   UNL A   1      41.847  36.214  27.842  1.00  0.00     0.010 A 
ATOM     81  C   UNL A   1      43.466  36.912  29.484  1.00  0.00     0.010 A 
ATOM     82  C   UNL A   1      42.067  37.408  27.133  1.00  0.00     0.020 A 
ATOM     83  C   UNL A   1      43.705  38.092  28.774  1.00  0.00     0.020 A 
ATOM     84  C   UNL A   1      42.988  38.344  27.610  1.00  0.00     0.054 A 
BRANCH  84  85
ATOM     85  S   UNL A   1      43.159  39.945  26.769  1.00  0.00     0.124 S 
ATOM     86  O   UNL A   1      44.359  39.744  25.964  1.00  0.00    -0.237 OA
ATOM     87  O   UNL A   1      41.907  40.047  26.024  1.00  0.00    -0.237 OA
ATOM     88  O   UNL A   1      43.301  40.899  27.868  1.00  0.00    -0.744 OA
ENDBRANCH  84  85
ENDBRANCH  56  79
BRANCH  68  89
ATOM     89  C   UNL A   1      42.756  31.737  33.779  1.00  0.00    -0.014 A 
ATOM     90  C   UNL A   1      41.558  32.393  34.125  1.00  0.00     0.010 A 
ATOM     91  C   UNL A   1      43.713  31.521  34.787  1.00  0.00     0.010 A 
ATOM     92  C   UNL A   1      41.334  32.845  35.432  1.00  0.00     0.020 A 
ATOM     93  C   UNL A   1      43.487  31.951  36.098  1.00  0.00     0.020 A 
ATOM     94  C   UNL A   1      42.302  32.619  36.413  1.00  0.00     0.054 A 
BRANCH  94  95
ATOM     95  S   UNL A   1      41.973  33.143  38.118  1.00  0.00     0.124 S 
ATOM     96  O   UNL A   1      42.102  31.893  38.864  1.00  0.00    -0.237 OA
ATOM     97  O   UNL A   1      43.021  34.131  38.365  1.00  0.00    -0.237 OA
ATOM     98  O   UNL A   1      40.619  33.691  38.060  1.00  0.00    -0.744 OA
ENDBRANCH  94  95
ENDBRANCH  68  89
ENDBRANCH  42  43
ENDBRANCH  35  37
ENDBRANCH  34  35
ENDBRANCH  33  34
ENDBRANCH   1  33
TORSDOF 19
ENDMDL
MODEL 3
REMARK VINA RESULT:     -11.0      4.543     10.113
REMARK SMILES CCn1ncc(NC(=O)[C@@H]2CCCC[C@@H]2C(=O)OCCOC(=O)c2ccc(-c3c4nc(c(-c5ccc(S(=O)(=O)[O-])cc5)c5ccc([nH]5)c(-c5ccc(S(=O)(=O)[O-])cc5)c5nc(c(-c6ccc(S(=O)(=O)[O-])cc6)c6ccc3[nH]6)C=C5)C=C4)cc2)c1C(=O)Nc1cnn(C)c1C
REMARK SMILES IDX 19 1 18 2 16 3 17 4 15 5 10 6 11 7 12 8 14 9 13 10 8 11 7 12
REMARK SMILES IDX 9 14 6 15 3 16 4 17 84 18 5 19 2 20 1 21 85 22 86 23 87 24
REMARK SMILES IDX 88 26 89 27 93 28 90 29 91 30 94 31 92 32 20 33 21 34 22 35
REMARK SMILES IDX 23 36 24 37 25 38 83 39 26 40 82 41 27 42 28 43 29 44 76 45
REMARK SMILES IDX 30 46 81 47 75 48 77 49 31 50 80 51 74 52 73 53 32 55 62 56
REMARK SMILES IDX 43 57 61 58 44 59 47 60 60 61 78 62 45 63 46 64 59 66 79 67
REMARK SMILES IDX 48 68 33 69 34 70 42 71 35 72 41 73 36 74 37 75 38 76 39 77
REMARK SMILES IDX 40 78 63 79 64 80 72 81 65 82 71 83 66 84 67 85 68 86 69 87
REMARK SMILES IDX 70 88 49 89 50 90 58 91 51 92 57 93 52 94 53 95 54 96 55 97
REMARK SMILES IDX 56 98
REMARK H PARENT 7 13 87 25 77 54 47 65
REMARK Flexibility Score: inf
ROOT
ATOM      1  C   UNL A   1      31.226  31.069  25.258  1.00  0.00     0.274 C 
ENDROOT
BRANCH   1   2
ATOM      2  O   UNL A   1      30.723  29.759  24.930  1.00  0.00    -0.462 OA
BRANCH   2   3
ATOM      3  C   UNL A   1      31.171  29.168  23.793  1.00  0.00     0.309 C 
ATOM      4  O   UNL A   1      30.881  29.539  22.659  1.00  0.00    -0.252 OA
BRANCH   3   5
ATOM      5  C   UNL A   1      32.080  27.965  24.045  1.00  0.00     0.111 C 
ATOM      6  C   UNL A   1      31.592  26.897  25.010  1.00  0.00     0.093 C 
ATOM      7  C   UNL A   1      31.531  27.364  26.460  1.00  0.00     0.014 C 
ATOM      8  C   UNL A   1      32.888  27.863  26.953  1.00  0.00     0.001 C 
ATOM      9  C   UNL A   1      33.522  28.308  24.426  1.00  0.00     0.016 C 
ATOM     10  C   UNL A   1      33.816  28.511  25.921  1.00  0.00     0.001 C 
BRANCH   6  11
ATOM     11  C   UNL A   1      30.361  26.204  24.486  1.00  0.00     0.228 C 
ATOM     12  N   UNL A   1      30.095  24.910  24.791  1.00  0.00    -0.322 N 
ATOM     13  H   UNL A   1      29.251  24.597  24.394  1.00  0.00     0.170 HD
ATOM     14  O   UNL A   1      29.517  26.788  23.801  1.00  0.00    -0.274 OA
BRANCH  12  15
ATOM     15  C   UNL A   1      30.730  23.927  25.528  1.00  0.00     0.092 A 
ATOM     16  N   UNL A   1      31.977  22.475  26.594  1.00  0.00    -0.258 N 
ATOM     17  N   UNL A   1      30.958  22.704  27.443  1.00  0.00    -0.178 NA
ATOM     18  C   UNL A   1      31.825  23.075  25.349  1.00  0.00     0.150 A 
ATOM     19  C   UNL A   1      30.200  23.569  26.791  1.00  0.00     0.162 A 
BRANCH  16  20
ATOM     20  C   UNL A   1      33.027  21.613  27.099  1.00  0.00     0.142 C 
ATOM     21  C   UNL A   1      34.160  22.383  27.747  1.00  0.00     0.029 C 
ENDBRANCH  16  20
BRANCH  18  22
ATOM     22  C   UNL A   1      32.542  22.644  24.150  1.00  0.00     0.276 C 
ATOM     23  O   UNL A   1      32.360  21.542  23.631  1.00  0.00    -0.267 OA
ATOM     24  N   UNL A   1      33.364  23.580  23.557  1.00  0.00    -0.318 N 
ATOM     25  H   UNL A   1      32.944  24.304  23.038  1.00  0.00     0.170 HD
BRANCH  24  26
ATOM     26  C   UNL A   1      34.740  23.562  23.652  1.00  0.00     0.082 A 
ATOM     27  C   UNL A   1      35.687  22.840  22.904  1.00  0.00     0.161 A 
ATOM     28  C   UNL A   1      35.464  24.179  24.655  1.00  0.00     0.059 A 
ATOM     29  N   UNL A   1      36.881  22.820  23.500  1.00  0.00    -0.179 NA
ATOM     30  N   UNL A   1      36.703  23.578  24.600  1.00  0.00    -0.271 N 
ATOM     31  C   UNL A   1      35.077  25.129  25.731  1.00  0.00     0.068 C 
ATOM     32  C   UNL A   1      37.653  23.446  25.684  1.00  0.00     0.174 C 
ENDBRANCH  24  26
ENDBRANCH  18  22
ENDBRANCH  12  15
ENDBRANCH   6  11
ENDBRANCH   3   5
ENDBRANCH   2   3
ENDBRANCH   1   2
BRANCH   1  33
ATOM     33  C   UNL A   1      31.415  31.271  26.758  1.00  0.00     0.275 C 
BRANCH  33  34
ATOM     34  O   UNL A   1      32.743  31.693  27.063  1.00  0.00    -0.458 OA
BRANCH  34  35
ATOM     35  C   UNL A   1      32.783  32.934  27.593  1.00  0.00     0.338 C 
ATOM     36  O   UNL A   1      31.992  33.841  27.397  1.00  0.00    -0.246 OA
BRANCH  35  37
ATOM     37  C   UNL A   1      34.008  33.129  28.358  1.00  0.00     0.060 A 
ATOM     38  C   UNL A   1      35.181  33.431  27.655  1.00  0.00     0.016 A 
ATOM     39  C   UNL A   1      34.028  32.683  29.676  1.00  0.00     0.016 A 
ATOM     40  C   UNL A   1      36.400  33.123  28.205  1.00  0.00     0.010 A 
ATOM     41  C   UNL A   1      35.245  32.367  30.228  1.00  0.00     0.010 A 
ATOM     42  C   UNL A   1      36.404  32.516  29.453  1.00  0.00    -0.014 A 
BRANCH  42  43
ATOM     43  C   UNL A   1      37.670  32.051  29.985  1.00  0.00     0.031 A 
ATOM     44  C   UNL A   1      37.984  30.629  29.689  1.00  0.00     0.074 A 
ATOM     45  C   UNL A   1      38.529  32.972  30.468  1.00  0.00     0.049 A 
ATOM     46  N   UNL A   1      38.544  29.744  30.447  1.00  0.00    -0.248 NA
ATOM     47  C   UNL A   1      37.529  30.100  28.387  1.00  0.00     0.031 C 
ATOM     48  C   UNL A   1      38.309  34.426  30.512  1.00  0.00     0.029 A 
ATOM     49  N   UNL A   1      39.844  32.845  30.799  1.00  0.00    -0.354 N 
ATOM     50  C   UNL A   1      38.694  28.614  29.646  1.00  0.00     0.074 A 
ATOM     51  C   UNL A   1      37.918  28.832  28.455  1.00  0.00     0.031 C 
ATOM     52  C   UNL A   1      39.506  35.044  30.544  1.00  0.00     0.029 A 
ATOM     53  C   UNL A   1      40.548  34.034  30.617  1.00  0.00     0.049 A 
ATOM     54  H   UNL A   1      40.249  32.011  31.128  1.00  0.00     0.167 HD
ATOM     55  C   UNL A   1      39.654  27.681  29.873  1.00  0.00     0.031 A 
ATOM     56  C   UNL A   1      41.877  34.166  30.385  1.00  0.00     0.031 A 
ATOM     57  C   UNL A   1      40.130  27.695  31.225  1.00  0.00     0.049 A 
ATOM     58  C   UNL A   1      42.529  32.884  30.747  1.00  0.00     0.074 A 
ATOM     59  C   UNL A   1      39.534  27.516  32.456  1.00  0.00     0.029 A 
ATOM     60  N   UNL A   1      41.352  28.277  31.467  1.00  0.00    -0.354 N 
ATOM     61  N   UNL A   1      42.600  32.423  31.963  1.00  0.00    -0.248 NA
ATOM     62  C   UNL A   1      42.761  31.901  29.699  1.00  0.00     0.031 C 
ATOM     63  C   UNL A   1      40.227  28.392  33.338  1.00  0.00     0.029 A 
ATOM     64  C   UNL A   1      41.227  29.034  32.605  1.00  0.00     0.049 A 
ATOM     65  H   UNL A   1      42.166  28.170  30.926  1.00  0.00     0.167 HD
ATOM     66  C   UNL A   1      42.469  31.048  31.834  1.00  0.00     0.074 A 
ATOM     67  C   UNL A   1      42.704  30.778  30.419  1.00  0.00     0.031 C 
ATOM     68  C   UNL A   1      41.903  30.297  32.825  1.00  0.00     0.031 A 
BRANCH  55  69
ATOM     69  C   UNL A   1      40.419  27.049  28.738  1.00  0.00    -0.014 A 
ATOM     70  C   UNL A   1      40.175  25.708  28.397  1.00  0.00     0.010 A 
ATOM     71  C   UNL A   1      41.569  27.657  28.183  1.00  0.00     0.010 A 
ATOM     72  C   UNL A   1      41.072  24.996  27.588  1.00  0.00     0.020 A 
ATOM     73  C   UNL A   1      42.440  26.974  27.338  1.00  0.00     0.020 A 
ATOM     74  C   UNL A   1      42.208  25.632  27.081  1.00  0.00     0.054 A 
BRANCH  74  75
ATOM     75  S   UNL A   1      43.433  24.674  26.159  1.00  0.00     0.124 S 
ATOM     76  O   UNL A   1      43.212  25.146  24.796  1.00  0.00    -0.237 OA
ATOM     77  O   UNL A   1      44.687  25.088  26.780  1.00  0.00    -0.237 OA
ATOM     78  O   UNL A   1      43.044  23.289  26.415  1.00  0.00    -0.744 OA
ENDBRANCH  74  75
ENDBRANCH  55  69
BRANCH  56  79
ATOM     79  C   UNL A   1      42.543  35.210  29.564  1.00  0.00    -0.014 A 
ATOM     80  C   UNL A   1      42.180  35.412  28.222  1.00  0.00     0.010 A 
ATOM     81  C   UNL A   1      43.390  36.168  30.163  1.00  0.00     0.010 A 
ATOM     82  C   UNL A   1      42.619  36.548  27.518  1.00  0.00     0.020 A 
ATOM     83  C   UNL A   1      43.847  37.290  29.464  1.00  0.00     0.020 A 
ATOM     84  C   UNL A   1      43.442  37.485  28.149  1.00  0.00     0.054 A 
BRANCH  84  85
ATOM     85  S   UNL A   1      43.885  39.019  27.282  1.00  0.00     0.124 S 
ATOM     86  O   UNL A   1      42.684  39.288  26.497  1.00  0.00    -0.237 OA
ATOM     87  O   UNL A   1      44.142  39.942  28.383  1.00  0.00    -0.237 OA
ATOM     88  O   UNL A   1      45.064  38.645  26.502  1.00  0.00    -0.744 OA
ENDBRANCH  84  85
ENDBRANCH  56  79
BRANCH  68  89
ATOM     89  C   UNL A   1      41.693  30.940  34.179  1.00  0.00    -0.014 A 
ATOM     90  C   UNL A   1      42.649  30.882  35.213  1.00  0.00     0.010 A 
ATOM     91  C   UNL A   1      40.569  31.766  34.354  1.00  0.00     0.010 A 
ATOM     92  C   UNL A   1      42.471  31.607  36.399  1.00  0.00     0.020 A 
ATOM     93  C   UNL A   1      40.397  32.508  35.527  1.00  0.00     0.020 A 
ATOM     94  C   UNL A   1      41.345  32.418  36.548  1.00  0.00     0.054 A 
BRANCH  94  95
ATOM     95  S   UNL A   1      41.160  33.409  38.056  1.00  0.00     0.124 S 
ATOM     96  O   UNL A   1      39.811  33.953  37.915  1.00  0.00    -0.237 OA
ATOM     97  O   UNL A   1      41.330  32.422  39.120  1.00  0.00    -0.237 OA
ATOM     98  O   UNL A   1      42.237  34.394  37.961  1.00  0.00    -0.744 OA
ENDBRANCH  94  95
ENDBRANCH  68  89
ENDBRANCH  42  43
ENDBRANCH  35  37
ENDBRANCH  34  35
ENDBRANCH  33  34
ENDBRANCH   1  33
TORSDOF 19
ENDMDL
