MODEL 1
REMARK VINA RESULT:     -10.4      0.000      0.000
REMARK SMILES C[C@@H](CNc1cccc(F)c1C(=O)OCCOC(=O)c1ccc(-c2c3nc(c(-c4ccc(S(=O)(=O)[O-])cc4)c4ccc([nH]4)c(-c4ccc(S(=O)(=O)[O-])cc4)c4nc(c(-c5ccc(S(=O)(=O)[O-])cc5)c5ccc2[nH]5)C=C4)C=C3)cc1)[NH+]1CCCCC1
REMARK SMILES IDX 15 1 14 2 12 3 13 4 11 5 5 6 6 7 7 8 9 9 8 10 10 11 4 12
REMARK SMILES IDX 3 14 2 15 1 16 80 17 81 18 85 19 82 21 84 22 83 23 16 24
REMARK SMILES IDX 17 25 18 26 19 27 20 28 21 29 79 30 22 31 78 32 23 33 24 34
REMARK SMILES IDX 25 35 72 36 26 37 77 38 71 39 73 40 27 41 76 42 70 43 69 44
REMARK SMILES IDX 28 46 58 47 39 48 57 49 40 50 43 51 56 52 74 53 41 54 42 55
REMARK SMILES IDX 55 57 75 58 44 59 29 60 30 61 38 62 31 63 37 64 32 65 33 66
REMARK SMILES IDX 34 67 35 68 36 69 59 70 60 71 68 72 61 73 67 74 62 75 63 76
REMARK SMILES IDX 64 77 65 78 66 79 45 80 46 81 54 82 47 83 53 84 48 85 49 86
REMARK SMILES IDX 50 87 51 88 52 89
REMARK H PARENT 4 13 80 20 73 45 43 56
REMARK Flexibility Score: inf
ROOT
ATOM      1  C   UNL A   1      31.725  28.301  26.201  1.00  0.00     0.275 C 
ENDROOT
BRANCH   1   2
ATOM      2  O   UNL A   1      32.172  26.957  26.494  1.00  0.00    -0.458 OA
BRANCH   2   3
ATOM      3  C   UNL A   1      31.439  26.002  25.859  1.00  0.00     0.343 C 
ATOM      4  O   UNL A   1      30.419  25.572  26.332  1.00  0.00    -0.246 OA
BRANCH   3   5
ATOM      5  C   UNL A   1      31.960  25.547  24.541  1.00  0.00     0.118 A 
ATOM      6  C   UNL A   1      31.247  25.889  23.358  1.00  0.00     0.052 A 
ATOM      7  C   UNL A   1      31.828  25.573  22.119  1.00  0.00     0.027 A 
ATOM      8  C   UNL A   1      33.041  24.887  22.036  1.00  0.00     0.005 A 
ATOM      9  C   UNL A   1      33.149  24.818  24.442  1.00  0.00     0.139 A 
ATOM     10  C   UNL A   1      33.691  24.492  23.200  1.00  0.00     0.040 A 
ATOM     11  F   UNL A   1      33.829  24.418  25.528  1.00  0.00    -0.206 F 
BRANCH   6  12
ATOM     12  N   UNL A   1      30.142  26.726  23.372  1.00  0.00    -0.378 N 
ATOM     13  H   UNL A   1      29.327  26.376  23.800  1.00  0.00     0.160 HD
BRANCH  12  14
ATOM     14  C   UNL A   1      30.067  28.067  22.821  1.00  0.00     0.177 C 
BRANCH  14  15
ATOM     15  C   UNL A   1      28.836  28.932  23.290  1.00  0.00     0.200 C 
ATOM     16  C   UNL A   1      27.457  28.248  23.349  1.00  0.00     0.077 C 
BRANCH  15  17
ATOM     17  N   UNL A   1      28.836  30.241  22.590  1.00  0.00    -0.331 N 
ATOM     18  C   UNL A   1      27.940  30.333  21.433  1.00  0.00     0.262 C 
ATOM     19  C   UNL A   1      28.554  31.339  23.525  1.00  0.00     0.262 C 
ATOM     20  H   UNL A   1      29.781  30.326  22.215  1.00  0.00     0.348 HD
ATOM     21  C   UNL A   1      28.256  31.596  20.650  1.00  0.00     0.062 C 
ATOM     22  C   UNL A   1      28.788  32.689  22.848  1.00  0.00     0.062 C 
ATOM     23  C   UNL A   1      28.036  32.819  21.525  1.00  0.00     0.012 C 
ENDBRANCH  15  17
ENDBRANCH  14  15
ENDBRANCH  12  14
ENDBRANCH   6  12
ENDBRANCH   3   5
ENDBRANCH   2   3
ENDBRANCH   1   2
BRANCH   1  24
ATOM     24  C   UNL A   1      32.303  29.395  27.124  1.00  0.00     0.275 C 
BRANCH  24  25
ATOM     25  O   UNL A   1      33.723  29.262  27.382  1.00  0.00    -0.458 OA
BRANCH  25  26
ATOM     26  C   UNL A   1      34.353  30.376  27.838  1.00  0.00     0.338 C 
ATOM     27  O   UNL A   1      33.840  31.472  28.010  1.00  0.00    -0.246 OA
BRANCH  26  28
ATOM     28  C   UNL A   1      35.740  30.085  28.293  1.00  0.00     0.060 A 
ATOM     29  C   UNL A   1      36.738  30.090  27.312  1.00  0.00     0.016 A 
ATOM     30  C   UNL A   1      36.081  29.745  29.602  1.00  0.00     0.016 A 
ATOM     31  C   UNL A   1      38.083  29.851  27.638  1.00  0.00     0.010 A 
ATOM     32  C   UNL A   1      37.430  29.464  29.924  1.00  0.00     0.010 A 
ATOM     33  C   UNL A   1      38.451  29.543  28.950  1.00  0.00    -0.014 A 
BRANCH  33  34
ATOM     34  C   UNL A   1      39.860  29.147  29.255  1.00  0.00     0.031 A 
ATOM     35  C   UNL A   1      40.766  30.181  29.852  1.00  0.00     0.074 A 
ATOM     36  C   UNL A   1      40.346  27.896  29.098  1.00  0.00     0.049 A 
ATOM     37  N   UNL A   1      42.025  30.073  30.182  1.00  0.00    -0.248 NA
ATOM     38  C   UNL A   1      40.156  31.478  30.181  1.00  0.00     0.031 C 
ATOM     39  C   UNL A   1      39.558  26.714  28.803  1.00  0.00     0.029 A 
ATOM     40  N   UNL A   1      41.627  27.395  29.159  1.00  0.00    -0.354 N 
ATOM     41  C   UNL A   1      42.353  31.276  30.787  1.00  0.00     0.074 A 
ATOM     42  C   UNL A   1      41.169  32.108  30.754  1.00  0.00     0.031 C 
ATOM     43  C   UNL A   1      40.351  25.665  28.553  1.00  0.00     0.029 A 
ATOM     44  C   UNL A   1      41.728  26.085  28.734  1.00  0.00     0.049 A 
ATOM     45  H   UNL A   1      42.397  27.920  29.475  1.00  0.00     0.167 HD
ATOM     46  C   UNL A   1      43.536  31.648  31.326  1.00  0.00     0.031 A 
ATOM     47  C   UNL A   1      42.795  25.291  28.518  1.00  0.00     0.031 A 
ATOM     48  C   UNL A   1      44.724  30.839  31.308  1.00  0.00     0.049 A 
ATOM     49  C   UNL A   1      44.143  25.798  28.929  1.00  0.00     0.074 A 
ATOM     50  C   UNL A   1      45.984  31.156  31.783  1.00  0.00     0.029 A 
ATOM     51  N   UNL A   1      44.811  29.567  30.760  1.00  0.00    -0.354 N 
ATOM     52  N   UNL A   1      44.438  26.946  29.490  1.00  0.00    -0.248 NA
ATOM     53  C   UNL A   1      45.286  24.899  28.738  1.00  0.00     0.031 C 
ATOM     54  C   UNL A   1      46.849  30.105  31.459  1.00  0.00     0.029 A 
ATOM     55  C   UNL A   1      46.114  29.103  30.842  1.00  0.00     0.049 A 
ATOM     56  H   UNL A   1      44.057  29.067  30.371  1.00  0.00     0.167 HD
ATOM     57  C   UNL A   1      45.797  26.890  29.764  1.00  0.00     0.074 A 
ATOM     58  C   UNL A   1      46.263  25.596  29.304  1.00  0.00     0.031 C 
ATOM     59  C   UNL A   1      46.575  27.824  30.362  1.00  0.00     0.031 A 
BRANCH  46  60
ATOM     60  C   UNL A   1      43.604  33.037  31.893  1.00  0.00    -0.014 A 
ATOM     61  C   UNL A   1      43.301  33.298  33.242  1.00  0.00     0.010 A 
ATOM     62  C   UNL A   1      43.943  34.104  31.043  1.00  0.00     0.010 A 
ATOM     63  C   UNL A   1      43.291  34.612  33.717  1.00  0.00     0.020 A 
ATOM     64  C   UNL A   1      43.957  35.414  31.521  1.00  0.00     0.020 A 
ATOM     65  C   UNL A   1      43.610  35.661  32.850  1.00  0.00     0.054 A 
BRANCH  65  66
ATOM     66  S   UNL A   1      43.575  37.360  33.484  1.00  0.00     0.124 S 
ATOM     67  O   UNL A   1      44.784  37.402  34.301  1.00  0.00    -0.237 OA
ATOM     68  O   UNL A   1      43.613  38.159  32.262  1.00  0.00    -0.237 OA
ATOM     69  O   UNL A   1      42.319  37.426  34.228  1.00  0.00    -0.744 OA
ENDBRANCH  65  66
ENDBRANCH  46  60
BRANCH  47  70
ATOM     70  C   UNL A   1      42.618  23.947  27.895  1.00  0.00    -0.014 A 
ATOM     71  C   UNL A   1      42.710  23.760  26.506  1.00  0.00     0.010 A 
ATOM     72  C   UNL A   1      42.366  22.829  28.715  1.00  0.00     0.010 A 
ATOM     73  C   UNL A   1      42.536  22.487  25.948  1.00  0.00     0.020 A 
ATOM     74  C   UNL A   1      42.212  21.552  28.164  1.00  0.00     0.020 A 
ATOM     75  C   UNL A   1      42.289  21.390  26.780  1.00  0.00     0.054 A 
BRANCH  75  76
ATOM     76  S   UNL A   1      42.110  19.744  26.036  1.00  0.00     0.124 S 
ATOM     77  O   UNL A   1      43.022  19.823  24.898  1.00  0.00    -0.237 OA
ATOM     78  O   UNL A   1      42.528  18.861  27.122  1.00  0.00    -0.237 OA
ATOM     79  O   UNL A   1      40.691  19.672  25.697  1.00  0.00    -0.744 OA
ENDBRANCH  75  76
ENDBRANCH  47  70
BRANCH  59  80
ATOM     80  C   UNL A   1      48.022  27.476  30.567  1.00  0.00    -0.014 A 
ATOM     81  C   UNL A   1      48.422  26.604  31.595  1.00  0.00     0.010 A 
ATOM     82  C   UNL A   1      48.990  27.988  29.683  1.00  0.00     0.010 A 
ATOM     83  C   UNL A   1      49.768  26.273  31.752  1.00  0.00     0.020 A 
ATOM     84  C   UNL A   1      50.333  27.634  29.819  1.00  0.00     0.020 A 
ATOM     85  C   UNL A   1      50.715  26.788  30.862  1.00  0.00     0.054 A 
BRANCH  85  86
ATOM     86  S   UNL A   1      52.449  26.298  31.055  1.00  0.00     0.124 S 
ATOM     87  O   UNL A   1      52.332  25.062  31.824  1.00  0.00    -0.237 OA
ATOM     88  O   UNL A   1      52.893  26.138  29.673  1.00  0.00    -0.237 OA
ATOM     89  O   UNL A   1      53.050  27.422  31.770  1.00  0.00    -0.744 OA
ENDBRANCH  85  86
ENDBRANCH  59  80
ENDBRANCH  33  34
ENDBRANCH  26  28
ENDBRANCH  25  26
ENDBRANCH  24  25
ENDBRANCH   1  24
TORSDOF 18
ENDMDL
MODEL 2
REMARK VINA RESULT:     -10.3      1.701      3.888
REMARK SMILES C[C@@H](CNc1cccc(F)c1C(=O)OCCOC(=O)c1ccc(-c2c3nc(c(-c4ccc(S(=O)(=O)[O-])cc4)c4ccc([nH]4)c(-c4ccc(S(=O)(=O)[O-])cc4)c4nc(c(-c5ccc(S(=O)(=O)[O-])cc5)c5ccc2[nH]5)C=C4)C=C3)cc1)[NH+]1CCCCC1
REMARK SMILES IDX 15 1 14 2 12 3 13 4 11 5 5 6 6 7 7 8 9 9 8 10 10 11 4 12
REMARK SMILES IDX 3 14 2 15 1 16 80 17 81 18 85 19 82 21 84 22 83 23 16 24
REMARK SMILES IDX 17 25 18 26 19 27 20 28 21 29 79 30 22 31 78 32 23 33 24 34
REMARK SMILES IDX 25 35 72 36 26 37 77 38 71 39 73 40 27 41 76 42 70 43 69 44
REMARK SMILES IDX 28 46 58 47 39 48 57 49 40 50 43 51 56 52 74 53 41 54 42 55
REMARK SMILES IDX 55 57 75 58 44 59 29 60 30 61 38 62 31 63 37 64 32 65 33 66
REMARK SMILES IDX 34 67 35 68 36 69 59 70 60 71 68 72 61 73 67 74 62 75 63 76
REMARK SMILES IDX 64 77 65 78 66 79 45 80 46 81 54 82 47 83 53 84 48 85 49 86
REMARK SMILES IDX 50 87 51 88 52 89
REMARK H PARENT 4 13 80 20 73 45 43 56
REMARK Flexibility Score: inf
ROOT
ATOM      1  C   UNL A   1      33.878  28.697  24.679  1.00  0.00     0.275 C 
ENDROOT
BRANCH   1   2
ATOM      2  O   UNL A   1      33.715  27.346  24.188  1.00  0.00    -0.458 OA
BRANCH   2   3
ATOM      3  C   UNL A   1      33.027  27.286  23.016  1.00  0.00     0.343 C 
ATOM      4  O   UNL A   1      33.591  27.292  21.952  1.00  0.00    -0.246 OA
BRANCH   3   5
ATOM      5  C   UNL A   1      31.546  27.186  23.132  1.00  0.00     0.118 A 
ATOM      6  C   UNL A   1      30.969  25.979  23.617  1.00  0.00     0.052 A 
ATOM      7  C   UNL A   1      29.584  25.954  23.852  1.00  0.00     0.027 A 
ATOM      8  C   UNL A   1      28.775  27.055  23.563  1.00  0.00     0.005 A 
ATOM      9  C   UNL A   1      30.717  28.263  22.801  1.00  0.00     0.139 A 
ATOM     10  C   UNL A   1      29.341  28.203  23.018  1.00  0.00     0.040 A 
ATOM     11  F   UNL A   1      31.205  29.401  22.284  1.00  0.00    -0.206 F 
BRANCH   6  12
ATOM     12  N   UNL A   1      31.735  24.927  24.093  1.00  0.00    -0.378 N 
ATOM     13  H   UNL A   1      32.679  25.124  24.294  1.00  0.00     0.160 HD
BRANCH  12  14
ATOM     14  C   UNL A   1      31.286  23.566  24.326  1.00  0.00     0.177 C 
BRANCH  14  15
ATOM     15  C   UNL A   1      31.579  22.985  25.760  1.00  0.00     0.200 C 
ATOM     16  C   UNL A   1      31.660  23.976  26.937  1.00  0.00     0.077 C 
BRANCH  15  17
ATOM     17  N   UNL A   1      32.707  22.020  25.700  1.00  0.00    -0.331 N 
ATOM     18  C   UNL A   1      32.786  21.226  24.470  1.00  0.00     0.262 C 
ATOM     19  C   UNL A   1      33.991  22.694  25.940  1.00  0.00     0.262 C 
ATOM     20  H   UNL A   1      32.508  21.355  26.447  1.00  0.00     0.348 HD
ATOM     21  C   UNL A   1      33.783  20.097  24.663  1.00  0.00     0.062 C 
ATOM     22  C   UNL A   1      35.108  21.666  26.108  1.00  0.00     0.062 C 
ATOM     23  C   UNL A   1      35.162  20.664  24.957  1.00  0.00     0.012 C 
ENDBRANCH  15  17
ENDBRANCH  14  15
ENDBRANCH  12  14
ENDBRANCH   6  12
ENDBRANCH   3   5
ENDBRANCH   2   3
ENDBRANCH   1   2
BRANCH   1  24
ATOM     24  C   UNL A   1      32.926  29.091  25.829  1.00  0.00     0.275 C 
BRANCH  24  25
ATOM     25  O   UNL A   1      33.527  29.015  27.146  1.00  0.00    -0.458 OA
BRANCH  25  26
ATOM     26  C   UNL A   1      34.120  30.151  27.597  1.00  0.00     0.338 C 
ATOM     27  O   UNL A   1      33.579  31.238  27.736  1.00  0.00    -0.246 OA
BRANCH  26  28
ATOM     28  C   UNL A   1      35.501  29.899  28.091  1.00  0.00     0.060 A 
ATOM     29  C   UNL A   1      36.527  29.937  27.140  1.00  0.00     0.016 A 
ATOM     30  C   UNL A   1      35.814  29.564  29.409  1.00  0.00     0.016 A 
ATOM     31  C   UNL A   1      37.868  29.736  27.504  1.00  0.00     0.010 A 
ATOM     32  C   UNL A   1      37.161  29.322  29.769  1.00  0.00     0.010 A 
ATOM     33  C   UNL A   1      38.207  29.435  28.826  1.00  0.00    -0.014 A 
BRANCH  33  34
ATOM     34  C   UNL A   1      39.617  29.079  29.171  1.00  0.00     0.031 A 
ATOM     35  C   UNL A   1      40.478  30.141  29.786  1.00  0.00     0.074 A 
ATOM     36  C   UNL A   1      40.141  27.841  29.033  1.00  0.00     0.049 A 
ATOM     37  N   UNL A   1      41.730  30.070  30.150  1.00  0.00    -0.248 NA
ATOM     38  C   UNL A   1      39.824  31.423  30.090  1.00  0.00     0.031 C 
ATOM     39  C   UNL A   1      39.395  26.637  28.725  1.00  0.00     0.029 A 
ATOM     40  N   UNL A   1      41.434  27.376  29.132  1.00  0.00    -0.354 N 
ATOM     41  C   UNL A   1      42.009  31.284  30.756  1.00  0.00     0.074 A 
ATOM     42  C   UNL A   1      40.804  32.083  30.687  1.00  0.00     0.031 C 
ATOM     43  C   UNL A   1      40.222  25.609  28.502  1.00  0.00     0.029 A 
ATOM     44  C   UNL A   1      41.582  26.068  28.717  1.00  0.00     0.049 A 
ATOM     45  H   UNL A   1      42.181  27.925  29.466  1.00  0.00     0.167 HD
ATOM     46  C   UNL A   1      43.166  31.692  31.325  1.00  0.00     0.031 A 
ATOM     47  C   UNL A   1      42.676  25.303  28.535  1.00  0.00     0.031 A 
ATOM     48  C   UNL A   1      44.376  30.916  31.343  1.00  0.00     0.049 A 
ATOM     49  C   UNL A   1      43.998  25.849  28.979  1.00  0.00     0.074 A 
ATOM     50  C   UNL A   1      45.614  31.270  31.851  1.00  0.00     0.029 A 
ATOM     51  N   UNL A   1      44.513  29.644  30.805  1.00  0.00    -0.354 N 
ATOM     52  N   UNL A   1      44.247  27.007  29.541  1.00  0.00    -0.248 NA
ATOM     53  C   UNL A   1      45.170  24.980  28.823  1.00  0.00     0.031 C 
ATOM     54  C   UNL A   1      46.515  30.242  31.556  1.00  0.00     0.029 A 
ATOM     55  C   UNL A   1      45.825  29.217  30.925  1.00  0.00     0.049 A 
ATOM     56  H   UNL A   1      43.783  29.121  30.399  1.00  0.00     0.167 HD
ATOM     57  C   UNL A   1      45.598  26.991  29.851  1.00  0.00     0.074 A 
ATOM     58  C   UNL A   1      46.112  25.708  29.411  1.00  0.00     0.031 C 
ATOM     59  C   UNL A   1      46.334  27.948  30.465  1.00  0.00     0.031 A 
BRANCH  46  60
ATOM     60  C   UNL A   1      43.180  33.085  31.886  1.00  0.00    -0.014 A 
ATOM     61  C   UNL A   1      43.423  34.205  31.070  1.00  0.00     0.010 A 
ATOM     62  C   UNL A   1      42.981  33.266  33.265  1.00  0.00     0.010 A 
ATOM     63  C   UNL A   1      43.514  35.479  31.636  1.00  0.00     0.020 A 
ATOM     64  C   UNL A   1      43.048  34.539  33.830  1.00  0.00     0.020 A 
ATOM     65  C   UNL A   1      43.335  35.635  33.014  1.00  0.00     0.054 A 
BRANCH  65  66
ATOM     66  S   UNL A   1      43.474  37.296  33.730  1.00  0.00     0.124 S 
ATOM     67  O   UNL A   1      44.617  37.142  34.626  1.00  0.00    -0.237 OA
ATOM     68  O   UNL A   1      43.703  38.133  32.556  1.00  0.00    -0.237 OA
ATOM     69  O   UNL A   1      42.187  37.496  34.393  1.00  0.00    -0.744 OA
ENDBRANCH  65  66
ENDBRANCH  46  60
BRANCH  47  70
ATOM     70  C   UNL A   1      42.553  23.951  27.915  1.00  0.00    -0.014 A 
ATOM     71  C   UNL A   1      42.664  23.763  26.527  1.00  0.00     0.010 A 
ATOM     72  C   UNL A   1      42.333  22.827  28.737  1.00  0.00     0.010 A 
ATOM     73  C   UNL A   1      42.542  22.483  25.972  1.00  0.00     0.020 A 
ATOM     74  C   UNL A   1      42.230  21.544  28.188  1.00  0.00     0.020 A 
ATOM     75  C   UNL A   1      42.326  21.380  26.806  1.00  0.00     0.054 A 
BRANCH  75  76
ATOM     76  S   UNL A   1      42.213  19.727  26.066  1.00  0.00     0.124 S 
ATOM     77  O   UNL A   1      42.623  18.868  27.173  1.00  0.00    -0.237 OA
ATOM     78  O   UNL A   1      40.804  19.647  25.690  1.00  0.00    -0.237 OA
ATOM     79  O   UNL A   1      43.146  19.788  24.943  1.00  0.00    -0.744 OA
ENDBRANCH  75  76
ENDBRANCH  47  70
BRANCH  59  80
ATOM     80  C   UNL A   1      47.784  27.641  30.710  1.00  0.00    -0.014 A 
ATOM     81  C   UNL A   1      48.775  28.033  29.793  1.00  0.00     0.010 A 
ATOM     82  C   UNL A   1      48.164  26.998  31.902  1.00  0.00     0.010 A 
ATOM     83  C   UNL A   1      50.119  27.761  30.051  1.00  0.00     0.020 A 
ATOM     84  C   UNL A   1      49.510  26.752  32.178  1.00  0.00     0.020 A 
ATOM     85  C   UNL A   1      50.479  27.124  31.243  1.00  0.00     0.054 A 
BRANCH  85  86
ATOM     86  S   UNL A   1      52.236  26.833  31.580  1.00  0.00     0.124 S 
ATOM     87  O   UNL A   1      52.511  25.656  30.760  1.00  0.00    -0.237 OA
ATOM     88  O   UNL A   1      52.859  28.074  31.127  1.00  0.00    -0.237 OA
ATOM     89  O   UNL A   1      52.280  26.611  33.023  1.00  0.00    -0.744 OA
ENDBRANCH  85  86
ENDBRANCH  59  80
ENDBRANCH  33  34
ENDBRANCH  26  28
ENDBRANCH  25  26
ENDBRANCH  24  25
ENDBRANCH   1  24
TORSDOF 18
ENDMDL
MODEL 3
REMARK VINA RESULT:     -10.2      4.548     10.524
REMARK SMILES C[C@@H](CNc1cccc(F)c1C(=O)OCCOC(=O)c1ccc(-c2c3nc(c(-c4ccc(S(=O)(=O)[O-])cc4)c4ccc([nH]4)c(-c4ccc(S(=O)(=O)[O-])cc4)c4nc(c(-c5ccc(S(=O)(=O)[O-])cc5)c5ccc2[nH]5)C=C4)C=C3)cc1)[NH+]1CCCCC1
REMARK SMILES IDX 15 1 14 2 12 3 13 4 11 5 5 6 6 7 7 8 9 9 8 10 10 11 4 12
REMARK SMILES IDX 3 14 2 15 1 16 80 17 81 18 85 19 82 21 84 22 83 23 16 24
REMARK SMILES IDX 17 25 18 26 19 27 20 28 21 29 79 30 22 31 78 32 23 33 24 34
REMARK SMILES IDX 25 35 72 36 26 37 77 38 71 39 73 40 27 41 76 42 70 43 69 44
REMARK SMILES IDX 28 46 58 47 39 48 57 49 40 50 43 51 56 52 74 53 41 54 42 55
REMARK SMILES IDX 55 57 75 58 44 59 29 60 30 61 38 62 31 63 37 64 32 65 33 66
REMARK SMILES IDX 34 67 35 68 36 69 59 70 60 71 68 72 61 73 67 74 62 75 63 76
REMARK SMILES IDX 64 77 65 78 66 79 45 80 46 81 54 82 47 83 53 84 48 85 49 86
REMARK SMILES IDX 50 87 51 88 52 89
REMARK H PARENT 4 13 80 20 73 45 43 56
REMARK Flexibility Score: inf
ROOT
ATOM      1  C   UNL A   1      36.757  33.043  34.596  1.00  0.00     0.275 C 
ENDROOT
BRANCH   1   2
ATOM      2  O   UNL A   1      35.592  33.543  33.900  1.00  0.00    -0.458 OA
BRANCH   2   3
ATOM      3  C   UNL A   1      35.827  34.710  33.241  1.00  0.00     0.343 C 
ATOM      4  O   UNL A   1      36.904  35.248  33.273  1.00  0.00    -0.246 OA
BRANCH   3   5
ATOM      5  C   UNL A   1      34.685  35.261  32.460  1.00  0.00     0.118 A 
ATOM      6  C   UNL A   1      34.452  34.781  31.141  1.00  0.00     0.052 A 
ATOM      7  C   UNL A   1      33.290  35.208  30.476  1.00  0.00     0.027 A 
ATOM      8  C   UNL A   1      32.413  36.126  31.057  1.00  0.00     0.005 A 
ATOM      9  C   UNL A   1      33.824  36.217  33.008  1.00  0.00     0.139 A 
ATOM     10  C   UNL A   1      32.692  36.645  32.316  1.00  0.00     0.040 A 
ATOM     11  F   UNL A   1      34.033  36.746  34.224  1.00  0.00    -0.206 F 
BRANCH   6  12
ATOM     12  N   UNL A   1      35.178  33.737  30.590  1.00  0.00    -0.378 N 
ATOM     13  H   UNL A   1      36.143  33.717  30.789  1.00  0.00     0.160 HD
BRANCH  12  14
ATOM     14  C   UNL A   1      34.660  32.671  29.752  1.00  0.00     0.177 C 
BRANCH  14  15
ATOM     15  C   UNL A   1      35.694  32.017  28.759  1.00  0.00     0.200 C 
ATOM     16  C   UNL A   1      36.695  32.945  28.047  1.00  0.00     0.077 C 
BRANCH  15  17
ATOM     17  N   UNL A   1      35.002  31.062  27.857  1.00  0.00    -0.331 N 
ATOM     18  C   UNL A   1      35.257  29.645  28.130  1.00  0.00     0.262 C 
ATOM     19  C   UNL A   1      33.553  31.311  27.838  1.00  0.00     0.262 C 
ATOM     20  H   UNL A   1      35.407  31.245  26.939  1.00  0.00     0.348 HD
ATOM     21  C   UNL A   1      34.739  28.808  26.973  1.00  0.00     0.062 C 
ATOM     22  C   UNL A   1      32.886  30.487  26.737  1.00  0.00     0.062 C 
ATOM     23  C   UNL A   1      33.239  29.004  26.820  1.00  0.00     0.012 C 
ENDBRANCH  15  17
ENDBRANCH  14  15
ENDBRANCH  12  14
ENDBRANCH   6  12
ENDBRANCH   3   5
ENDBRANCH   2   3
ENDBRANCH   1   2
BRANCH   1  24
ATOM     24  C   UNL A   1      37.369  31.757  34.000  1.00  0.00     0.275 C 
BRANCH  24  25
ATOM     25  O   UNL A   1      37.510  31.782  32.557  1.00  0.00    -0.458 OA
BRANCH  25  26
ATOM     26  C   UNL A   1      37.352  30.592  31.922  1.00  0.00     0.338 C 
ATOM     27  O   UNL A   1      36.318  29.942  31.858  1.00  0.00    -0.246 OA
BRANCH  26  28
ATOM     28  C   UNL A   1      38.556  30.218  31.131  1.00  0.00     0.060 A 
ATOM     29  C   UNL A   1      39.666  29.761  31.851  1.00  0.00     0.016 A 
ATOM     30  C   UNL A   1      38.662  30.364  29.748  1.00  0.00     0.016 A 
ATOM     31  C   UNL A   1      40.844  29.362  31.200  1.00  0.00     0.010 A 
ATOM     32  C   UNL A   1      39.863  29.999  29.095  1.00  0.00     0.010 A 
ATOM     33  C   UNL A   1      40.958  29.465  29.811  1.00  0.00    -0.014 A 
BRANCH  33  34
ATOM     34  C   UNL A   1      42.266  29.176  29.147  1.00  0.00     0.031 A 
ATOM     35  C   UNL A   1      42.523  27.774  28.686  1.00  0.00     0.074 A 
ATOM     36  C   UNL A   1      43.198  30.115  28.870  1.00  0.00     0.049 A 
ATOM     37  N   UNL A   1      43.586  27.286  28.103  1.00  0.00    -0.248 NA
ATOM     38  C   UNL A   1      41.415  26.818  28.838  1.00  0.00     0.031 C 
ATOM     39  C   UNL A   1      43.014  31.549  28.984  1.00  0.00     0.029 A 
ATOM     40  N   UNL A   1      44.500  30.013  28.433  1.00  0.00    -0.354 N 
ATOM     41  C   UNL A   1      43.267  25.975  27.790  1.00  0.00     0.074 A 
ATOM     42  C   UNL A   1      41.922  25.735  28.270  1.00  0.00     0.031 C 
ATOM     43  C   UNL A   1      44.171  32.193  28.789  1.00  0.00     0.029 A 
ATOM     44  C   UNL A   1      45.188  31.210  28.466  1.00  0.00     0.049 A 
ATOM     45  H   UNL A   1      44.902  29.168  28.126  1.00  0.00     0.167 HD
ATOM     46  C   UNL A   1      44.027  25.056  27.152  1.00  0.00     0.031 A 
ATOM     47  C   UNL A   1      46.485  31.505  28.253  1.00  0.00     0.031 A 
ATOM     48  C   UNL A   1      45.382  25.281  26.727  1.00  0.00     0.049 A 
ATOM     49  C   UNL A   1      47.379  30.418  27.742  1.00  0.00     0.074 A 
ATOM     50  C   UNL A   1      46.249  24.391  26.120  1.00  0.00     0.029 A 
ATOM     51  N   UNL A   1      46.078  26.471  26.888  1.00  0.00    -0.354 N 
ATOM     52  N   UNL A   1      47.064  29.177  27.461  1.00  0.00    -0.248 NA
ATOM     53  C   UNL A   1      48.775  30.772  27.464  1.00  0.00     0.031 C 
ATOM     54  C   UNL A   1      47.491  25.019  25.980  1.00  0.00     0.029 A 
ATOM     55  C   UNL A   1      47.380  26.324  26.437  1.00  0.00     0.049 A 
ATOM     56  H   UNL A   1      45.702  27.299  27.267  1.00  0.00     0.167 HD
ATOM     57  C   UNL A   1      48.211  28.610  26.927  1.00  0.00     0.074 A 
ATOM     58  C   UNL A   1      49.227  29.645  26.928  1.00  0.00     0.031 C 
ATOM     59  C   UNL A   1      48.391  27.351  26.462  1.00  0.00     0.031 A 
BRANCH  46  60
ATOM     60  C   UNL A   1      43.420  23.694  26.974  1.00  0.00    -0.014 A 
ATOM     61  C   UNL A   1      43.416  22.747  28.014  1.00  0.00     0.010 A 
ATOM     62  C   UNL A   1      42.876  23.349  25.725  1.00  0.00     0.010 A 
ATOM     63  C   UNL A   1      42.920  21.461  27.789  1.00  0.00     0.020 A 
ATOM     64  C   UNL A   1      42.359  22.073  25.505  1.00  0.00     0.020 A 
ATOM     65  C   UNL A   1      42.403  21.130  26.533  1.00  0.00     0.054 A 
BRANCH  65  66
ATOM     66  S   UNL A   1      41.780  19.449  26.259  1.00  0.00     0.124 S 
ATOM     67  O   UNL A   1      42.546  19.032  25.088  1.00  0.00    -0.237 OA
ATOM     68  O   UNL A   1      42.121  18.774  27.508  1.00  0.00    -0.237 OA
ATOM     69  O   UNL A   1      40.350  19.643  26.030  1.00  0.00    -0.744 OA
ENDBRANCH  65  66
ENDBRANCH  46  60
BRANCH  47  70
ATOM     70  C   UNL A   1      46.995  32.882  28.518  1.00  0.00    -0.014 A 
ATOM     71  C   UNL A   1      46.987  33.876  27.526  1.00  0.00     0.010 A 
ATOM     72  C   UNL A   1      47.488  33.206  29.799  1.00  0.00     0.010 A 
ATOM     73  C   UNL A   1      47.476  35.160  27.802  1.00  0.00     0.020 A 
ATOM     74  C   UNL A   1      47.958  34.492  30.084  1.00  0.00     0.020 A 
ATOM     75  C   UNL A   1      47.958  35.461  29.080  1.00  0.00     0.054 A 
BRANCH  75  76
ATOM     76  S   UNL A   1      48.546  37.143  29.424  1.00  0.00     0.124 S 
ATOM     77  O   UNL A   1      48.660  37.707  28.082  1.00  0.00    -0.237 OA
ATOM     78  O   UNL A   1      47.472  37.688  30.251  1.00  0.00    -0.237 OA
ATOM     79  O   UNL A   1      49.811  36.930  30.123  1.00  0.00    -0.744 OA
ENDBRANCH  75  76
ENDBRANCH  47  70
BRANCH  59  80
ATOM     80  C   UNL A   1      49.744  27.020  25.898  1.00  0.00    -0.014 A 
ATOM     81  C   UNL A   1      50.017  27.171  24.527  1.00  0.00     0.010 A 
ATOM     82  C   UNL A   1      50.772  26.601  26.763  1.00  0.00     0.010 A 
ATOM     83  C   UNL A   1      51.288  26.882  24.027  1.00  0.00     0.020 A 
ATOM     84  C   UNL A   1      52.052  26.341  26.271  1.00  0.00     0.020 A 
ATOM     85  C   UNL A   1      52.298  26.471  24.903  1.00  0.00     0.054 A 
BRANCH  85  86
ATOM     86  S   UNL A   1      53.954  26.157  24.236  1.00  0.00     0.124 S 
ATOM     87  O   UNL A   1      53.708  26.165  22.796  1.00  0.00    -0.237 OA
ATOM     88  O   UNL A   1      54.726  27.285  24.748  1.00  0.00    -0.237 OA
ATOM     89  O   UNL A   1      54.313  24.857  24.799  1.00  0.00    -0.744 OA
ENDBRANCH  85  86
ENDBRANCH  59  80
ENDBRANCH  33  34
ENDBRANCH  26  28
ENDBRANCH  25  26
ENDBRANCH  24  25
ENDBRANCH   1  24
TORSDOF 18
ENDMDL
