MODEL 1
REMARK VINA RESULT:      -8.5      0.000      0.000
REMARK SMILES CCCCCC[C@H](C)[C@@](C)(O)C(=O)OCCOC(=O)c1ccc(-c2c3nc(c(-c4ccc(S(=O)(=O)[O-])cc4)c4ccc([nH]4)c(-c4ccc(S(=O)(=O)[O-])cc4)c4nc(c(-c5ccc(S(=O)(=O)[O-])cc5)c5ccc2[nH]5)C=C4)C=C3)cc1
REMARK SMILES IDX 14 1 12 2 13 3 9 4 10 5 7 6 8 7 6 8 5 9 4 10 3 11 2 12 1 13
REMARK SMILES IDX 11 14 15 16 16 17 17 18 18 19 19 20 20 21 21 22 79 23 22 24
REMARK SMILES IDX 78 25 23 26 24 27 25 28 72 29 26 30 77 31 71 32 73 33 27 34
REMARK SMILES IDX 76 35 70 36 69 37 28 39 58 40 39 41 57 42 40 43 43 44 56 45
REMARK SMILES IDX 74 46 41 47 42 48 55 50 75 51 44 52 29 53 30 54 38 55 31 56
REMARK SMILES IDX 37 57 32 58 33 59 34 60 35 61 36 62 59 63 60 64 68 65 61 66
REMARK SMILES IDX 67 67 62 68 63 69 64 70 65 71 66 72 45 73 46 74 54 75 47 76
REMARK SMILES IDX 53 77 48 78 49 79 50 80 51 81 52 82
REMARK H PARENT 11 15 73 38 43 49
REMARK Flexibility Score: inf
ROOT
ATOM      1  O   UNL A   1      37.014  21.051  24.356  1.00  0.00    -0.460 OA
ENDROOT
BRANCH   1   2
ATOM      2  C   UNL A   1      35.962  21.964  24.634  1.00  0.00     0.338 C 
ATOM      3  O   UNL A   1      36.088  23.161  24.561  1.00  0.00    -0.249 OA
BRANCH   2   4
ATOM      4  C   UNL A   1      34.561  21.211  25.069  1.00  0.00     0.161 C 
ATOM      5  C   UNL A   1      34.366  21.633  26.543  1.00  0.00     0.055 C 
BRANCH   4   6
ATOM      6  C   UNL A   1      33.065  21.270  24.407  1.00  0.00     0.029 C 
ATOM      7  C   UNL A   1      31.859  21.528  25.346  1.00  0.00     0.011 C 
BRANCH   6   8
ATOM      8  C   UNL A   1      32.739  21.959  23.057  1.00  0.00     0.007 C 
BRANCH   8   9
ATOM      9  C   UNL A   1      31.986  23.309  23.159  1.00  0.00     0.000 C 
BRANCH   9  10
ATOM     10  C   UNL A   1      32.890  24.483  23.526  1.00  0.00     0.000 C 
BRANCH  10  11
ATOM     11  C   UNL A   1      32.058  25.418  24.330  1.00  0.00    -0.000 C 
BRANCH  11  12
ATOM     12  C   UNL A   1      32.579  25.893  25.670  1.00  0.00    -0.003 C 
ATOM     13  C   UNL A   1      33.801  26.719  25.880  1.00  0.00     0.004 C 
ENDBRANCH  11  12
ENDBRANCH  10  11
ENDBRANCH   9  10
ENDBRANCH   8   9
ENDBRANCH   6   8
ENDBRANCH   4   6
BRANCH   4  14
ATOM     14  O   UNL A   1      34.895  19.801  25.105  1.00  0.00    -0.378 OA
ATOM     15  H   UNL A   1      35.013  19.521  26.027  1.00  0.00     0.212 HD
ENDBRANCH   4  14
ENDBRANCH   2   4
ENDBRANCH   1   2
BRANCH   1  16
ATOM     16  C   UNL A   1      38.160  20.900  25.297  1.00  0.00     0.274 C 
BRANCH  16  17
ATOM     17  C   UNL A   1      38.982  19.497  25.247  1.00  0.00     0.275 C 
BRANCH  17  18
ATOM     18  O   UNL A   1      40.129  19.330  26.187  1.00  0.00    -0.458 OA
BRANCH  18  19
ATOM     19  C   UNL A   1      41.424  19.794  25.982  1.00  0.00     0.338 C 
ATOM     20  O   UNL A   1      42.231  19.216  25.266  1.00  0.00    -0.246 OA
BRANCH  19  21
ATOM     21  C   UNL A   1      41.759  21.188  26.622  1.00  0.00     0.060 A 
ATOM     22  C   UNL A   1      41.718  22.330  25.859  1.00  0.00     0.016 A 
ATOM     23  C   UNL A   1      42.217  21.466  27.907  1.00  0.00     0.016 A 
ATOM     24  C   UNL A   1      42.353  23.554  26.082  1.00  0.00     0.010 A 
ATOM     25  C   UNL A   1      42.719  22.787  28.262  1.00  0.00     0.010 A 
ATOM     26  C   UNL A   1      42.877  23.836  27.314  1.00  0.00    -0.014 A 
BRANCH  26  27
ATOM     27  C   UNL A   1      43.678  25.118  27.457  1.00  0.00     0.031 A 
ATOM     28  C   UNL A   1      42.999  26.295  28.120  1.00  0.00     0.074 A 
ATOM     29  C   UNL A   1      45.022  25.240  27.261  1.00  0.00     0.049 A 
ATOM     30  N   UNL A   1      43.388  27.540  28.224  1.00  0.00    -0.248 NA
ATOM     31  C   UNL A   1      41.718  26.010  28.784  1.00  0.00     0.031 C 
ATOM     32  C   UNL A   1      45.950  24.170  26.869  1.00  0.00     0.029 A 
ATOM     33  N   UNL A   1      45.868  26.332  27.412  1.00  0.00    -0.354 N 
ATOM     34  C   UNL A   1      42.366  28.198  28.899  1.00  0.00     0.074 A 
ATOM     35  C   UNL A   1      41.350  27.212  29.192  1.00  0.00     0.031 C 
ATOM     36  C   UNL A   1      47.209  24.646  26.840  1.00  0.00     0.029 A 
ATOM     37  C   UNL A   1      47.194  26.082  27.102  1.00  0.00     0.049 A 
ATOM     38  H   UNL A   1      45.549  27.213  27.715  1.00  0.00     0.167 HD
ATOM     39  C   UNL A   1      42.264  29.506  29.234  1.00  0.00     0.031 A 
ATOM     40  C   UNL A   1      48.267  26.903  26.980  1.00  0.00     0.031 A 
ATOM     41  C   UNL A   1      43.275  30.496  28.981  1.00  0.00     0.049 A 
ATOM     42  C   UNL A   1      48.091  28.390  27.202  1.00  0.00     0.074 A 
ATOM     43  C   UNL A   1      43.201  31.867  29.158  1.00  0.00     0.029 A 
ATOM     44  N   UNL A   1      44.554  30.220  28.531  1.00  0.00    -0.354 N 
ATOM     45  N   UNL A   1      47.038  29.041  27.636  1.00  0.00    -0.248 NA
ATOM     46  C   UNL A   1      49.241  29.260  26.892  1.00  0.00     0.031 C 
ATOM     47  C   UNL A   1      44.426  32.425  28.772  1.00  0.00     0.029 A 
ATOM     48  C   UNL A   1      45.279  31.394  28.414  1.00  0.00     0.049 A 
ATOM     49  H   UNL A   1      44.898  29.321  28.323  1.00  0.00     0.167 HD
ATOM     50  C   UNL A   1      47.403  30.386  27.661  1.00  0.00     0.074 A 
ATOM     51  C   UNL A   1      48.782  30.457  27.232  1.00  0.00     0.031 C 
ATOM     52  C   UNL A   1      46.654  31.466  27.996  1.00  0.00     0.031 A 
BRANCH  39  53
ATOM     53  C   UNL A   1      40.947  29.950  29.808  1.00  0.00    -0.014 A 
ATOM     54  C   UNL A   1      40.766  30.154  31.187  1.00  0.00     0.010 A 
ATOM     55  C   UNL A   1      39.858  30.128  28.935  1.00  0.00     0.010 A 
ATOM     56  C   UNL A   1      39.502  30.480  31.686  1.00  0.00     0.020 A 
ATOM     57  C   UNL A   1      38.602  30.482  29.426  1.00  0.00     0.020 A 
ATOM     58  C   UNL A   1      38.427  30.634  30.802  1.00  0.00     0.054 A 
BRANCH  58  59
ATOM     59  S   UNL A   1      36.795  31.047  31.475  1.00  0.00     0.124 S 
ATOM     60  O   UNL A   1      36.193  31.786  30.369  1.00  0.00    -0.237 OA
ATOM     61  O   UNL A   1      36.218  29.732  31.742  1.00  0.00    -0.237 OA
ATOM     62  O   UNL A   1      37.101  31.843  32.662  1.00  0.00    -0.744 OA
ENDBRANCH  58  59
ENDBRANCH  39  53
BRANCH  40  63
ATOM     63  C   UNL A   1      49.598  26.392  26.497  1.00  0.00    -0.014 A 
ATOM     64  C   UNL A   1      50.576  25.903  27.388  1.00  0.00     0.010 A 
ATOM     65  C   UNL A   1      49.936  26.491  25.133  1.00  0.00     0.010 A 
ATOM     66  C   UNL A   1      51.858  25.554  26.931  1.00  0.00     0.020 A 
ATOM     67  C   UNL A   1      51.200  26.110  24.666  1.00  0.00     0.020 A 
ATOM     68  C   UNL A   1      52.161  25.659  25.571  1.00  0.00     0.054 A 
BRANCH  68  69
ATOM     69  S   UNL A   1      53.813  25.174  24.986  1.00  0.00     0.124 S 
ATOM     70  O   UNL A   1      53.670  23.731  24.828  1.00  0.00    -0.237 OA
ATOM     71  O   UNL A   1      53.947  25.937  23.749  1.00  0.00    -0.237 OA
ATOM     72  O   UNL A   1      54.696  25.600  26.071  1.00  0.00    -0.744 OA
ENDBRANCH  68  69
ENDBRANCH  40  63
BRANCH  52  73
ATOM     73  C   UNL A   1      47.313  32.823  27.954  1.00  0.00    -0.014 A 
ATOM     74  C   UNL A   1      47.310  33.605  26.784  1.00  0.00     0.010 A 
ATOM     75  C   UNL A   1      47.905  33.343  29.119  1.00  0.00     0.010 A 
ATOM     76  C   UNL A   1      47.920  34.863  26.771  1.00  0.00     0.020 A 
ATOM     77  C   UNL A   1      48.493  34.612  29.118  1.00  0.00     0.020 A 
ATOM     78  C   UNL A   1      48.513  35.357  27.938  1.00  0.00     0.054 A 
BRANCH  78  79
ATOM     79  S   UNL A   1      49.279  37.002  27.902  1.00  0.00     0.124 S 
ATOM     80  O   UNL A   1      48.120  37.880  28.030  1.00  0.00    -0.237 OA
ATOM     81  O   UNL A   1      50.172  36.966  29.057  1.00  0.00    -0.237 OA
ATOM     82  O   UNL A   1      49.951  37.043  26.604  1.00  0.00    -0.744 OA
ENDBRANCH  78  79
ENDBRANCH  52  73
ENDBRANCH  26  27
ENDBRANCH  19  21
ENDBRANCH  18  19
ENDBRANCH  17  18
ENDBRANCH  16  17
ENDBRANCH   1  16
TORSDOF 21
ENDMDL
MODEL 2
REMARK VINA RESULT:      -8.5      1.061      2.279
REMARK SMILES CCCCCC[C@H](C)[C@@](C)(O)C(=O)OCCOC(=O)c1ccc(-c2c3nc(c(-c4ccc(S(=O)(=O)[O-])cc4)c4ccc([nH]4)c(-c4ccc(S(=O)(=O)[O-])cc4)c4nc(c(-c5ccc(S(=O)(=O)[O-])cc5)c5ccc2[nH]5)C=C4)C=C3)cc1
REMARK SMILES IDX 14 1 12 2 13 3 9 4 10 5 7 6 8 7 6 8 5 9 4 10 3 11 2 12 1 13
REMARK SMILES IDX 11 14 15 16 16 17 17 18 18 19 19 20 20 21 21 22 79 23 22 24
REMARK SMILES IDX 78 25 23 26 24 27 25 28 72 29 26 30 77 31 71 32 73 33 27 34
REMARK SMILES IDX 76 35 70 36 69 37 28 39 58 40 39 41 57 42 40 43 43 44 56 45
REMARK SMILES IDX 74 46 41 47 42 48 55 50 75 51 44 52 29 53 30 54 38 55 31 56
REMARK SMILES IDX 37 57 32 58 33 59 34 60 35 61 36 62 59 63 60 64 68 65 61 66
REMARK SMILES IDX 67 67 62 68 63 69 64 70 65 71 66 72 45 73 46 74 54 75 47 76
REMARK SMILES IDX 53 77 48 78 49 79 50 80 51 81 52 82
REMARK H PARENT 11 15 73 38 43 49
REMARK Flexibility Score: inf
ROOT
ATOM      1  O   UNL A   1      36.911  21.114  24.955  1.00  0.00    -0.460 OA
ENDROOT
BRANCH   1   2
ATOM      2  C   UNL A   1      36.382  22.398  24.658  1.00  0.00     0.338 C 
ATOM      3  O   UNL A   1      37.022  23.270  24.125  1.00  0.00    -0.249 OA
BRANCH   2   4
ATOM      4  C   UNL A   1      34.808  22.563  25.123  1.00  0.00     0.161 C 
ATOM      5  C   UNL A   1      34.110  23.097  23.851  1.00  0.00     0.055 C 
BRANCH   4   6
ATOM      6  C   UNL A   1      33.761  21.477  25.759  1.00  0.00     0.029 C 
ATOM      7  C   UNL A   1      33.527  21.498  27.292  1.00  0.00     0.011 C 
BRANCH   6   8
ATOM      8  C   UNL A   1      32.414  21.082  25.103  1.00  0.00     0.007 C 
BRANCH   8   9
ATOM      9  C   UNL A   1      32.519  20.159  23.863  1.00  0.00     0.000 C 
BRANCH   9  10
ATOM     10  C   UNL A   1      33.230  18.839  24.147  1.00  0.00     0.000 C 
BRANCH  10  11
ATOM     11  C   UNL A   1      32.612  18.289  25.384  1.00  0.00    -0.000 C 
BRANCH  11  12
ATOM     12  C   UNL A   1      32.510  16.786  25.544  1.00  0.00    -0.003 C 
ATOM     13  C   UNL A   1      33.644  15.826  25.438  1.00  0.00     0.004 C 
ENDBRANCH  11  12
ENDBRANCH  10  11
ENDBRANCH   9  10
ENDBRANCH   8   9
ENDBRANCH   6   8
ENDBRANCH   4   6
BRANCH   4  14
ATOM     14  O   UNL A   1      34.814  23.668  26.061  1.00  0.00    -0.378 OA
ATOM     15  H   UNL A   1      34.087  23.557  26.695  1.00  0.00     0.212 HD
ENDBRANCH   4  14
ENDBRANCH   2   4
ENDBRANCH   1   2
BRANCH   1  16
ATOM     16  C   UNL A   1      38.300  20.965  25.477  1.00  0.00     0.274 C 
BRANCH  16  17
ATOM     17  C   UNL A   1      39.088  19.590  25.106  1.00  0.00     0.275 C 
BRANCH  17  18
ATOM     18  O   UNL A   1      40.196  19.160  26.009  1.00  0.00    -0.458 OA
BRANCH  18  19
ATOM     19  C   UNL A   1      41.519  19.581  25.930  1.00  0.00     0.338 C 
ATOM     20  O   UNL A   1      42.376  18.965  25.310  1.00  0.00    -0.246 OA
BRANCH  19  21
ATOM     21  C   UNL A   1      41.832  20.976  26.579  1.00  0.00     0.060 A 
ATOM     22  C   UNL A   1      41.746  22.125  25.830  1.00  0.00     0.016 A 
ATOM     23  C   UNL A   1      42.309  21.252  27.857  1.00  0.00     0.016 A 
ATOM     24  C   UNL A   1      42.354  23.362  26.054  1.00  0.00     0.010 A 
ATOM     25  C   UNL A   1      42.784  22.581  28.217  1.00  0.00     0.010 A 
ATOM     26  C   UNL A   1      42.895  23.644  27.279  1.00  0.00    -0.014 A 
BRANCH  26  27
ATOM     27  C   UNL A   1      43.666  24.945  27.420  1.00  0.00     0.031 A 
ATOM     28  C   UNL A   1      42.956  26.110  28.071  1.00  0.00     0.074 A 
ATOM     29  C   UNL A   1      45.009  25.095  27.234  1.00  0.00     0.049 A 
ATOM     30  N   UNL A   1      43.316  27.364  28.170  1.00  0.00    -0.248 NA
ATOM     31  C   UNL A   1      41.677  25.800  28.726  1.00  0.00     0.031 C 
ATOM     32  C   UNL A   1      45.964  24.045  26.856  1.00  0.00     0.029 A 
ATOM     33  N   UNL A   1      45.829  26.207  27.385  1.00  0.00    -0.354 N 
ATOM     34  C   UNL A   1      42.274  28.003  28.832  1.00  0.00     0.074 A 
ATOM     35  C   UNL A   1      41.278  26.996  29.124  1.00  0.00     0.031 C 
ATOM     36  C   UNL A   1      47.212  24.549  26.834  1.00  0.00     0.029 A 
ATOM     37  C   UNL A   1      47.163  25.985  27.087  1.00  0.00     0.049 A 
ATOM     38  H   UNL A   1      45.488  27.083  27.680  1.00  0.00     0.167 HD
ATOM     39  C   UNL A   1      42.140  29.311  29.159  1.00  0.00     0.031 A 
ATOM     40  C   UNL A   1      48.218  26.830  26.969  1.00  0.00     0.031 A 
ATOM     41  C   UNL A   1      43.130  30.321  28.908  1.00  0.00     0.049 A 
ATOM     42  C   UNL A   1      48.007  28.314  27.180  1.00  0.00     0.074 A 
ATOM     43  C   UNL A   1      43.025  31.692  29.076  1.00  0.00     0.029 A 
ATOM     44  N   UNL A   1      44.419  30.071  28.469  1.00  0.00    -0.354 N 
ATOM     45  N   UNL A   1      46.936  28.943  27.602  1.00  0.00    -0.248 NA
ATOM     46  C   UNL A   1      49.139  29.207  26.874  1.00  0.00     0.031 C 
ATOM     47  C   UNL A   1      44.239  32.274  28.696  1.00  0.00     0.029 A 
ATOM     48  C   UNL A   1      45.118  31.261  28.352  1.00  0.00     0.049 A 
ATOM     49  H   UNL A   1      44.784  29.179  28.270  1.00  0.00     0.167 HD
ATOM     50  C   UNL A   1      47.271  30.297  27.621  1.00  0.00     0.074 A 
ATOM     51  C   UNL A   1      48.651  30.396  27.203  1.00  0.00     0.031 C 
ATOM     52  C   UNL A   1      46.495  31.362  27.944  1.00  0.00     0.031 A 
BRANCH  39  53
ATOM     53  C   UNL A   1      40.809  29.728  29.720  1.00  0.00    -0.014 A 
ATOM     54  C   UNL A   1      39.690  29.948  28.898  1.00  0.00     0.010 A 
ATOM     55  C   UNL A   1      40.700  29.940  31.106  1.00  0.00     0.010 A 
ATOM     56  C   UNL A   1      38.498  30.421  29.452  1.00  0.00     0.020 A 
ATOM     57  C   UNL A   1      39.502  30.384  31.666  1.00  0.00     0.020 A 
ATOM     58  C   UNL A   1      38.414  30.642  30.831  1.00  0.00     0.054 A 
BRANCH  58  59
ATOM     59  S   UNL A   1      36.859  31.267  31.524  1.00  0.00     0.124 S 
ATOM     60  O   UNL A   1      36.358  30.095  32.239  1.00  0.00    -0.237 OA
ATOM     61  O   UNL A   1      37.306  32.374  32.365  1.00  0.00    -0.237 OA
ATOM     62  O   UNL A   1      36.086  31.654  30.346  1.00  0.00    -0.744 OA
ENDBRANCH  58  59
ENDBRANCH  39  53
BRANCH  40  63
ATOM     63  C   UNL A   1      49.564  26.346  26.500  1.00  0.00    -0.014 A 
ATOM     64  C   UNL A   1      50.537  25.864  27.399  1.00  0.00     0.010 A 
ATOM     65  C   UNL A   1      49.919  26.465  25.142  1.00  0.00     0.010 A 
ATOM     66  C   UNL A   1      51.831  25.541  26.957  1.00  0.00     0.020 A 
ATOM     67  C   UNL A   1      51.196  26.110  24.689  1.00  0.00     0.020 A 
ATOM     68  C   UNL A   1      52.151  25.665  25.602  1.00  0.00     0.054 A 
BRANCH  68  69
ATOM     69  S   UNL A   1      53.819  25.214  25.037  1.00  0.00     0.124 S 
ATOM     70  O   UNL A   1      53.712  23.766  24.889  1.00  0.00    -0.237 OA
ATOM     71  O   UNL A   1      53.947  25.969  23.794  1.00  0.00    -0.237 OA
ATOM     72  O   UNL A   1      54.683  25.670  26.125  1.00  0.00    -0.744 OA
ENDBRANCH  68  69
ENDBRANCH  40  63
BRANCH  52  73
ATOM     73  C   UNL A   1      47.124  32.732  27.899  1.00  0.00    -0.014 A 
ATOM     74  C   UNL A   1      47.083  33.521  26.734  1.00  0.00     0.010 A 
ATOM     75  C   UNL A   1      47.724  33.259  29.057  1.00  0.00     0.010 A 
ATOM     76  C   UNL A   1      47.666  34.792  26.718  1.00  0.00     0.020 A 
ATOM     77  C   UNL A   1      48.284  34.540  29.053  1.00  0.00     0.020 A 
ATOM     78  C   UNL A   1      48.267  35.293  27.877  1.00  0.00     0.054 A 
BRANCH  78  79
ATOM     79  S   UNL A   1      48.997  36.953  27.839  1.00  0.00     0.124 S 
ATOM     80  O   UNL A   1      50.205  36.736  27.048  1.00  0.00    -0.237 OA
ATOM     81  O   UNL A   1      47.957  37.748  27.193  1.00  0.00    -0.237 OA
ATOM     82  O   UNL A   1      49.224  37.264  29.250  1.00  0.00    -0.744 OA
ENDBRANCH  78  79
ENDBRANCH  52  73
ENDBRANCH  26  27
ENDBRANCH  19  21
ENDBRANCH  18  19
ENDBRANCH  17  18
ENDBRANCH  16  17
ENDBRANCH   1  16
TORSDOF 21
ENDMDL
MODEL 3
REMARK VINA RESULT:      -8.4      5.285     11.430
REMARK SMILES CCCCCC[C@H](C)[C@@](C)(O)C(=O)OCCOC(=O)c1ccc(-c2c3nc(c(-c4ccc(S(=O)(=O)[O-])cc4)c4ccc([nH]4)c(-c4ccc(S(=O)(=O)[O-])cc4)c4nc(c(-c5ccc(S(=O)(=O)[O-])cc5)c5ccc2[nH]5)C=C4)C=C3)cc1
REMARK SMILES IDX 14 1 12 2 13 3 9 4 10 5 7 6 8 7 6 8 5 9 4 10 3 11 2 12 1 13
REMARK SMILES IDX 11 14 15 16 16 17 17 18 18 19 19 20 20 21 21 22 79 23 22 24
REMARK SMILES IDX 78 25 23 26 24 27 25 28 72 29 26 30 77 31 71 32 73 33 27 34
REMARK SMILES IDX 76 35 70 36 69 37 28 39 58 40 39 41 57 42 40 43 43 44 56 45
REMARK SMILES IDX 74 46 41 47 42 48 55 50 75 51 44 52 29 53 30 54 38 55 31 56
REMARK SMILES IDX 37 57 32 58 33 59 34 60 35 61 36 62 59 63 60 64 68 65 61 66
REMARK SMILES IDX 67 67 62 68 63 69 64 70 65 71 66 72 45 73 46 74 54 75 47 76
REMARK SMILES IDX 53 77 48 78 49 79 50 80 51 81 52 82
REMARK H PARENT 11 15 73 38 43 49
REMARK Flexibility Score: inf
ROOT
ATOM      1  O   UNL A   1      45.984  24.396  24.691  1.00  0.00    -0.460 OA
ENDROOT
BRANCH   1   2
ATOM      2  C   UNL A   1      46.665  24.634  25.914  1.00  0.00     0.338 C 
ATOM      3  O   UNL A   1      46.894  23.770  26.723  1.00  0.00    -0.249 OA
BRANCH   2   4
ATOM      4  C   UNL A   1      47.102  26.213  26.105  1.00  0.00     0.161 C 
ATOM      5  C   UNL A   1      47.267  26.720  24.654  1.00  0.00     0.055 C 
BRANCH   4   6
ATOM      6  C   UNL A   1      46.363  27.438  26.903  1.00  0.00     0.029 C 
ATOM      7  C   UNL A   1      47.221  28.319  27.847  1.00  0.00     0.011 C 
BRANCH   6   8
ATOM      8  C   UNL A   1      45.292  28.364  26.272  1.00  0.00     0.007 C 
BRANCH   8   9
ATOM      9  C   UNL A   1      43.921  28.389  26.993  1.00  0.00     0.000 C 
BRANCH   9  10
ATOM     10  C   UNL A   1      43.117  29.657  26.722  1.00  0.00     0.000 C 
BRANCH  10  11
ATOM     11  C   UNL A   1      43.660  30.701  27.633  1.00  0.00    -0.000 C 
BRANCH  11  12
ATOM     12  C   UNL A   1      43.641  30.450  29.126  1.00  0.00    -0.003 C 
ATOM     13  C   UNL A   1      44.843  30.302  29.994  1.00  0.00     0.004 C 
ENDBRANCH  11  12
ENDBRANCH  10  11
ENDBRANCH   9  10
ENDBRANCH   8   9
ENDBRANCH   6   8
ENDBRANCH   4   6
BRANCH   4  14
ATOM     14  O   UNL A   1      48.440  26.163  26.658  1.00  0.00    -0.378 OA
ATOM     15  H   UNL A   1      48.873  27.022  26.534  1.00  0.00     0.212 HD
ENDBRANCH   4  14
ENDBRANCH   2   4
ENDBRANCH   1   2
BRANCH   1  16
ATOM     16  C   UNL A   1      46.048  23.061  24.030  1.00  0.00     0.274 C 
BRANCH  16  17
ATOM     17  C   UNL A   1      44.935  21.960  24.473  1.00  0.00     0.275 C 
BRANCH  17  18
ATOM     18  O   UNL A   1      43.502  22.378  24.460  1.00  0.00    -0.458 OA
BRANCH  18  19
ATOM     19  C   UNL A   1      42.543  22.026  25.404  1.00  0.00     0.338 C 
ATOM     20  O   UNL A   1      42.270  20.864  25.672  1.00  0.00    -0.246 OA
BRANCH  19  21
ATOM     21  C   UNL A   1      41.914  23.216  26.214  1.00  0.00     0.060 A 
ATOM     22  C   UNL A   1      42.423  24.486  26.091  1.00  0.00     0.016 A 
ATOM     23  C   UNL A   1      40.913  23.174  27.181  1.00  0.00     0.016 A 
ATOM     24  C   UNL A   1      42.317  25.560  26.976  1.00  0.00     0.010 A 
ATOM     25  C   UNL A   1      40.619  24.331  28.016  1.00  0.00     0.010 A 
ATOM     26  C   UNL A   1      41.389  25.527  27.982  1.00  0.00    -0.014 A 
BRANCH  26  27
ATOM     27  C   UNL A   1      41.416  26.656  28.997  1.00  0.00     0.031 A 
ATOM     28  C   UNL A   1      42.608  26.734  29.924  1.00  0.00     0.074 A 
ATOM     29  C   UNL A   1      40.589  27.741  28.998  1.00  0.00     0.049 A 
ATOM     30  N   UNL A   1      42.806  27.486  30.975  1.00  0.00    -0.248 NA
ATOM     31  C   UNL A   1      43.742  25.859  29.589  1.00  0.00     0.031 C 
ATOM     32  C   UNL A   1      39.517  28.026  28.036  1.00  0.00     0.029 A 
ATOM     33  N   UNL A   1      40.551  28.854  29.830  1.00  0.00    -0.354 N 
ATOM     34  C   UNL A   1      44.055  27.121  31.468  1.00  0.00     0.074 A 
ATOM     35  C   UNL A   1      44.571  26.093  30.592  1.00  0.00     0.031 C 
ATOM     36  C   UNL A   1      38.961  29.221  28.313  1.00  0.00     0.029 A 
ATOM     37  C   UNL A   1      39.546  29.759  29.536  1.00  0.00     0.049 A 
ATOM     38  H   UNL A   1      41.187  28.986  30.571  1.00  0.00     0.167 HD
ATOM     39  C   UNL A   1      44.713  27.581  32.558  1.00  0.00     0.031 A 
ATOM     40  C   UNL A   1      39.099  30.861  30.189  1.00  0.00     0.031 A 
ATOM     41  C   UNL A   1      44.233  28.623  33.424  1.00  0.00     0.049 A 
ATOM     42  C   UNL A   1      39.748  31.262  31.496  1.00  0.00     0.074 A 
ATOM     43  C   UNL A   1      44.764  29.056  34.628  1.00  0.00     0.029 A 
ATOM     44  N   UNL A   1      43.132  29.420  33.164  1.00  0.00    -0.354 N 
ATOM     45  N   UNL A   1      40.814  30.763  32.075  1.00  0.00    -0.248 NA
ATOM     46  C   UNL A   1      39.120  32.360  32.253  1.00  0.00     0.031 C 
ATOM     47  C   UNL A   1      43.955  30.088  35.117  1.00  0.00     0.029 A 
ATOM     48  C   UNL A   1      42.959  30.337  34.186  1.00  0.00     0.049 A 
ATOM     49  H   UNL A   1      42.556  29.345  32.369  1.00  0.00     0.167 HD
ATOM     50  C   UNL A   1      40.986  31.491  33.252  1.00  0.00     0.074 A 
ATOM     51  C   UNL A   1      39.939  32.487  33.289  1.00  0.00     0.031 C 
ATOM     52  C   UNL A   1      41.922  31.335  34.222  1.00  0.00     0.031 A 
BRANCH  39  53
ATOM     53  C   UNL A   1      45.977  26.858  32.932  1.00  0.00    -0.014 A 
ATOM     54  C   UNL A   1      47.239  27.279  32.479  1.00  0.00     0.010 A 
ATOM     55  C   UNL A   1      45.881  25.702  33.729  1.00  0.00     0.010 A 
ATOM     56  C   UNL A   1      48.377  26.527  32.777  1.00  0.00     0.020 A 
ATOM     57  C   UNL A   1      47.019  24.964  34.053  1.00  0.00     0.020 A 
ATOM     58  C   UNL A   1      48.258  25.370  33.556  1.00  0.00     0.054 A 
BRANCH  58  59
ATOM     59  S   UNL A   1      49.749  24.404  33.920  1.00  0.00     0.124 S 
ATOM     60  O   UNL A   1      49.182  23.124  34.339  1.00  0.00    -0.237 OA
ATOM     61  O   UNL A   1      50.445  24.394  32.637  1.00  0.00    -0.237 OA
ATOM     62  O   UNL A   1      50.407  25.168  34.978  1.00  0.00    -0.744 OA
ENDBRANCH  58  59
ENDBRANCH  39  53
BRANCH  40  63
ATOM     63  C   UNL A   1      37.885  31.616  29.718  1.00  0.00    -0.014 A 
ATOM     64  C   UNL A   1      37.978  32.916  29.180  1.00  0.00     0.010 A 
ATOM     65  C   UNL A   1      36.601  31.068  29.906  1.00  0.00     0.010 A 
ATOM     66  C   UNL A   1      36.823  33.653  28.868  1.00  0.00     0.020 A 
ATOM     67  C   UNL A   1      35.447  31.783  29.563  1.00  0.00     0.020 A 
ATOM     68  C   UNL A   1      35.563  33.079  29.062  1.00  0.00     0.054 A 
BRANCH  68  69
ATOM     69  S   UNL A   1      34.076  34.030  28.625  1.00  0.00     0.124 S 
ATOM     70  O   UNL A   1      34.641  35.174  27.918  1.00  0.00    -0.237 OA
ATOM     71  O   UNL A   1      33.326  33.084  27.803  1.00  0.00    -0.237 OA
ATOM     72  O   UNL A   1      33.472  34.331  29.922  1.00  0.00    -0.744 OA
ENDBRANCH  68  69
ENDBRANCH  40  63
BRANCH  52  73
ATOM     73  C   UNL A   1      41.890  32.285  35.393  1.00  0.00    -0.014 A 
ATOM     74  C   UNL A   1      42.587  33.507  35.367  1.00  0.00     0.010 A 
ATOM     75  C   UNL A   1      41.111  31.970  36.521  1.00  0.00     0.010 A 
ATOM     76  C   UNL A   1      42.537  34.376  36.462  1.00  0.00     0.020 A 
ATOM     77  C   UNL A   1      41.036  32.849  37.606  1.00  0.00     0.020 A 
ATOM     78  C   UNL A   1      41.764  34.039  37.577  1.00  0.00     0.054 A 
BRANCH  78  79
ATOM     79  S   UNL A   1      41.696  35.192  38.977  1.00  0.00     0.124 S 
ATOM     80  O   UNL A   1      41.339  36.446  38.320  1.00  0.00    -0.237 OA
ATOM     81  O   UNL A   1      40.660  34.610  39.825  1.00  0.00    -0.237 OA
ATOM     82  O   UNL A   1      43.048  35.143  39.532  1.00  0.00    -0.744 OA
ENDBRANCH  78  79
ENDBRANCH  52  73
ENDBRANCH  26  27
ENDBRANCH  19  21
ENDBRANCH  18  19
ENDBRANCH  17  18
ENDBRANCH  16  17
ENDBRANCH   1  16
TORSDOF 21
ENDMDL
