MODEL 1
REMARK VINA RESULT:      -9.6      0.000      0.000
REMARK SMILES O=C(C[N@@H+](CC(F)(F)F)[C@H]1CCCC[C@H]1O)OCCOC(=O)c1ccc(-c2c3nc(c(-c4ccc(S(=O)(=O)[O-])cc4)c4ccc([nH]4)c(-c4ccc(S(=O)(=O)[O-])cc4)c4nc(c(-c5ccc(S(=O)(=O)[O-])cc5)c5ccc2[nH]5)C=C4)C=C3)cc1
REMARK SMILES IDX 18 1 17 2 2 3 1 4 3 5 4 6 5 8 6 9 7 10 8 11 9 12 10 13 11 14
REMARK SMILES IDX 15 15 12 16 14 17 13 18 16 19 19 21 20 22 21 23 22 24 23 25
REMARK SMILES IDX 24 26 82 27 25 28 81 29 26 30 27 31 28 32 75 33 29 34 80 35
REMARK SMILES IDX 74 36 76 37 30 38 79 39 73 40 72 41 31 43 61 44 42 45 60 46
REMARK SMILES IDX 43 47 46 48 59 49 77 50 44 51 45 52 58 54 78 55 47 56 32 57
REMARK SMILES IDX 33 58 41 59 34 60 40 61 35 62 36 63 37 64 38 65 39 66 62 67
REMARK SMILES IDX 63 68 71 69 64 70 70 71 65 72 66 73 67 74 68 75 69 76 48 77
REMARK SMILES IDX 49 78 57 79 50 80 56 81 51 82 52 83 53 84 54 85 55 86
REMARK H PARENT 4 7 16 20 76 42 46 53
REMARK Flexibility Score: inf
ROOT
ATOM      1  C   UNL A   1      32.169  28.079  27.154  1.00  0.00     0.274 C 
ENDROOT
BRANCH   1   2
ATOM      2  O   UNL A   1      31.456  27.734  25.951  1.00  0.00    -0.458 OA
BRANCH   2   3
ATOM      3  C   UNL A   1      30.964  26.471  25.850  1.00  0.00     0.361 C 
ATOM      4  O   UNL A   1      31.082  25.678  26.781  1.00  0.00    -0.245 OA
BRANCH   3   5
ATOM      5  C   UNL A   1      30.380  26.070  24.491  1.00  0.00     0.387 C 
BRANCH   5   6
ATOM      6  N   UNL A   1      30.864  26.860  23.337  1.00  0.00    -0.314 N 
ATOM      7  H   UNL A   1      31.598  27.460  23.714  1.00  0.00     0.349 HD
BRANCH   6   8
ATOM      8  C   UNL A   1      31.486  25.976  22.297  1.00  0.00     0.380 C 
BRANCH   8   9
ATOM      9  C   UNL A   1      32.914  26.188  21.717  1.00  0.00     0.438 C 
ATOM     10  F   UNL A   1      33.347  27.453  21.879  1.00  0.00    -0.165 F 
ATOM     11  F   UNL A   1      33.793  25.378  22.356  1.00  0.00    -0.165 F 
ATOM     12  F   UNL A   1      32.985  25.891  20.404  1.00  0.00    -0.165 F 
ENDBRANCH   8   9
ENDBRANCH   6   8
BRANCH   6  13
ATOM     13  C   UNL A   1      29.906  27.856  22.782  1.00  0.00     0.213 C 
ATOM     14  C   UNL A   1      28.502  27.859  23.424  1.00  0.00     0.068 C 
ATOM     15  C   UNL A   1      30.470  29.311  22.699  1.00  0.00     0.172 C 
ATOM     16  C   UNL A   1      27.551  28.857  22.759  1.00  0.00     0.006 C 
ATOM     17  C   UNL A   1      29.495  30.256  21.993  1.00  0.00     0.038 C 
ATOM     18  C   UNL A   1      28.128  30.263  22.673  1.00  0.00     0.003 C 
BRANCH  15  19
ATOM     19  O   UNL A   1      30.747  29.878  23.975  1.00  0.00    -0.387 OA
ATOM     20  H   UNL A   1      30.854  30.839  23.886  1.00  0.00     0.211 HD
ENDBRANCH  15  19
ENDBRANCH   6  13
ENDBRANCH   5   6
ENDBRANCH   3   5
ENDBRANCH   2   3
ENDBRANCH   1   2
BRANCH   1  21
ATOM     21  C   UNL A   1      33.695  28.087  26.971  1.00  0.00     0.275 C 
BRANCH  21  22
ATOM     22  O   UNL A   1      34.098  29.392  26.510  1.00  0.00    -0.458 OA
BRANCH  22  23
ATOM     23  C   UNL A   1      34.405  30.315  27.460  1.00  0.00     0.338 C 
ATOM     24  O   UNL A   1      33.670  31.154  27.936  1.00  0.00    -0.246 OA
BRANCH  23  25
ATOM     25  C   UNL A   1      35.771  30.003  27.946  1.00  0.00     0.060 A 
ATOM     26  C   UNL A   1      36.856  30.181  27.080  1.00  0.00     0.016 A 
ATOM     27  C   UNL A   1      35.985  29.593  29.266  1.00  0.00     0.016 A 
ATOM     28  C   UNL A   1      38.160  29.939  27.531  1.00  0.00     0.010 A 
ATOM     29  C   UNL A   1      37.285  29.336  29.709  1.00  0.00     0.010 A 
ATOM     30  C   UNL A   1      38.380  29.490  28.841  1.00  0.00    -0.014 A 
BRANCH  30  31
ATOM     31  C   UNL A   1      39.716  29.000  29.266  1.00  0.00     0.031 A 
ATOM     32  C   UNL A   1      40.622  29.953  29.998  1.00  0.00     0.074 A 
ATOM     33  C   UNL A   1      40.148  27.758  28.977  1.00  0.00     0.049 A 
ATOM     34  N   UNL A   1      41.849  29.777  30.412  1.00  0.00    -0.248 NA
ATOM     35  C   UNL A   1      40.065  31.284  30.297  1.00  0.00     0.031 C 
ATOM     36  C   UNL A   1      39.376  26.723  28.292  1.00  0.00     0.029 A 
ATOM     37  N   UNL A   1      41.366  27.166  29.212  1.00  0.00    -0.354 N 
ATOM     38  C   UNL A   1      42.211  30.969  31.027  1.00  0.00     0.074 A 
ATOM     39  C   UNL A   1      41.087  31.871  30.902  1.00  0.00     0.031 C 
ATOM     40  C   UNL A   1      40.147  25.631  28.138  1.00  0.00     0.029 A 
ATOM     41  C   UNL A   1      41.473  25.894  28.697  1.00  0.00     0.049 A 
ATOM     42  H   UNL A   1      42.095  27.609  29.703  1.00  0.00     0.167 HD
ATOM     43  C   UNL A   1      43.370  31.288  31.649  1.00  0.00     0.031 A 
ATOM     44  C   UNL A   1      42.525  25.049  28.664  1.00  0.00     0.031 A 
ATOM     45  C   UNL A   1      44.506  30.416  31.752  1.00  0.00     0.049 A 
ATOM     46  C   UNL A   1      43.837  25.458  29.288  1.00  0.00     0.074 A 
ATOM     47  C   UNL A   1      45.718  30.653  32.376  1.00  0.00     0.029 A 
ATOM     48  N   UNL A   1      44.577  29.145  31.206  1.00  0.00    -0.354 N 
ATOM     49  N   UNL A   1      44.144  26.569  29.914  1.00  0.00    -0.248 NA
ATOM     50  C   UNL A   1      44.943  24.491  29.207  1.00  0.00     0.031 C 
ATOM     51  C   UNL A   1      46.541  29.541  32.167  1.00  0.00     0.029 A 
ATOM     52  C   UNL A   1      45.822  28.593  31.457  1.00  0.00     0.049 A 
ATOM     53  H   UNL A   1      43.851  28.699  30.712  1.00  0.00     0.167 HD
ATOM     54  C   UNL A   1      45.462  26.418  30.333  1.00  0.00     0.074 A 
ATOM     55  C   UNL A   1      45.897  25.109  29.893  1.00  0.00     0.031 C 
ATOM     56  C   UNL A   1      46.241  27.283  31.028  1.00  0.00     0.031 A 
BRANCH  43  57
ATOM     57  C   UNL A   1      43.466  32.662  32.249  1.00  0.00    -0.014 A 
ATOM     58  C   UNL A   1      43.945  33.746  31.491  1.00  0.00     0.010 A 
ATOM     59  C   UNL A   1      43.058  32.876  33.577  1.00  0.00     0.010 A 
ATOM     60  C   UNL A   1      44.051  35.014  32.064  1.00  0.00     0.020 A 
ATOM     61  C   UNL A   1      43.142  34.148  34.147  1.00  0.00     0.020 A 
ATOM     62  C   UNL A   1      43.655  35.206  33.392  1.00  0.00     0.054 A 
BRANCH  62  63
ATOM     63  S   UNL A   1      43.790  36.865  34.110  1.00  0.00     0.124 S 
ATOM     64  O   UNL A   1      45.170  36.872  34.590  1.00  0.00    -0.237 OA
ATOM     65  O   UNL A   1      43.519  37.734  32.967  1.00  0.00    -0.237 OA
ATOM     66  O   UNL A   1      42.767  36.876  35.151  1.00  0.00    -0.744 OA
ENDBRANCH  62  63
ENDBRANCH  43  57
BRANCH  44  67
ATOM     67  C   UNL A   1      42.400  23.721  28.003  1.00  0.00    -0.014 A 
ATOM     68  C   UNL A   1      42.042  22.582  28.746  1.00  0.00     0.010 A 
ATOM     69  C   UNL A   1      42.684  23.580  26.633  1.00  0.00     0.010 A 
ATOM     70  C   UNL A   1      41.996  21.324  28.139  1.00  0.00     0.020 A 
ATOM     71  C   UNL A   1      42.616  22.327  26.016  1.00  0.00     0.020 A 
ATOM     72  C   UNL A   1      42.288  21.204  26.778  1.00  0.00     0.054 A 
BRANCH  72  73
ATOM     73  S   UNL A   1      42.193  19.566  26.000  1.00  0.00     0.124 S 
ATOM     74  O   UNL A   1      42.626  18.690  27.084  1.00  0.00    -0.237 OA
ATOM     75  O   UNL A   1      40.781  19.470  25.634  1.00  0.00    -0.237 OA
ATOM     76  O   UNL A   1      43.113  19.672  24.871  1.00  0.00    -0.744 OA
ENDBRANCH  72  73
ENDBRANCH  44  67
BRANCH  56  77
ATOM     77  C   UNL A   1      47.628  26.836  31.408  1.00  0.00    -0.014 A 
ATOM     78  C   UNL A   1      48.735  27.097  30.581  1.00  0.00     0.010 A 
ATOM     79  C   UNL A   1      47.835  26.212  32.652  1.00  0.00     0.010 A 
ATOM     80  C   UNL A   1      50.021  26.722  30.983  1.00  0.00     0.020 A 
ATOM     81  C   UNL A   1      49.121  25.857  33.068  1.00  0.00     0.020 A 
ATOM     82  C   UNL A   1      50.206  26.105  32.224  1.00  0.00     0.054 A 
BRANCH  82  83
ATOM     83  S   UNL A   1      51.891  25.680  32.750  1.00  0.00     0.124 S 
ATOM     84  O   UNL A   1      51.713  25.450  34.180  1.00  0.00    -0.237 OA
ATOM     85  O   UNL A   1      52.188  24.492  31.954  1.00  0.00    -0.237 OA
ATOM     86  O   UNL A   1      52.670  26.866  32.401  1.00  0.00    -0.744 OA
ENDBRANCH  82  83
ENDBRANCH  56  77
ENDBRANCH  30  31
ENDBRANCH  23  25
ENDBRANCH  22  23
ENDBRANCH  21  22
ENDBRANCH   1  21
TORSDOF 19
ENDMDL
MODEL 2
REMARK VINA RESULT:      -9.3      1.828      3.057
REMARK SMILES O=C(C[N@@H+](CC(F)(F)F)[C@H]1CCCC[C@H]1O)OCCOC(=O)c1ccc(-c2c3nc(c(-c4ccc(S(=O)(=O)[O-])cc4)c4ccc([nH]4)c(-c4ccc(S(=O)(=O)[O-])cc4)c4nc(c(-c5ccc(S(=O)(=O)[O-])cc5)c5ccc2[nH]5)C=C4)C=C3)cc1
REMARK SMILES IDX 18 1 17 2 2 3 1 4 3 5 4 6 5 8 6 9 7 10 8 11 9 12 10 13 11 14
REMARK SMILES IDX 15 15 12 16 14 17 13 18 16 19 19 21 20 22 21 23 22 24 23 25
REMARK SMILES IDX 24 26 82 27 25 28 81 29 26 30 27 31 28 32 75 33 29 34 80 35
REMARK SMILES IDX 74 36 76 37 30 38 79 39 73 40 72 41 31 43 61 44 42 45 60 46
REMARK SMILES IDX 43 47 46 48 59 49 77 50 44 51 45 52 58 54 78 55 47 56 32 57
REMARK SMILES IDX 33 58 41 59 34 60 40 61 35 62 36 63 37 64 38 65 39 66 62 67
REMARK SMILES IDX 63 68 71 69 64 70 70 71 65 72 66 73 67 74 68 75 69 76 48 77
REMARK SMILES IDX 49 78 57 79 50 80 56 81 51 82 52 83 53 84 54 85 55 86
REMARK H PARENT 4 7 16 20 76 42 46 53
REMARK Flexibility Score: inf
ROOT
ATOM      1  C   UNL A   1      32.916  28.461  25.994  1.00  0.00     0.274 C 
ENDROOT
BRANCH   1   2
ATOM      2  O   UNL A   1      31.687  27.711  25.936  1.00  0.00    -0.458 OA
BRANCH   2   3
ATOM      3  C   UNL A   1      31.085  27.579  24.724  1.00  0.00     0.361 C 
ATOM      4  O   UNL A   1      30.630  28.560  24.143  1.00  0.00    -0.245 OA
BRANCH   3   5
ATOM      5  C   UNL A   1      30.904  26.149  24.203  1.00  0.00     0.387 C 
BRANCH   5   6
ATOM      6  N   UNL A   1      31.399  25.081  25.100  1.00  0.00    -0.314 N 
ATOM      7  H   UNL A   1      31.954  25.563  25.807  1.00  0.00     0.349 HD
BRANCH   6   8
ATOM      8  C   UNL A   1      30.265  24.393  25.801  1.00  0.00     0.380 C 
BRANCH   8   9
ATOM      9  C   UNL A   1      30.427  23.108  26.662  1.00  0.00     0.438 C 
ATOM     10  F   UNL A   1      30.539  21.998  25.908  1.00  0.00    -0.165 F 
ATOM     11  F   UNL A   1      31.554  23.198  27.411  1.00  0.00    -0.165 F 
ATOM     12  F   UNL A   1      29.400  22.927  27.516  1.00  0.00    -0.165 F 
ENDBRANCH   8   9
ENDBRANCH   6   8
BRANCH   6  13
ATOM     13  C   UNL A   1      32.396  24.145  24.510  1.00  0.00     0.213 C 
ATOM     14  C   UNL A   1      32.571  24.238  22.979  1.00  0.00     0.068 C 
ATOM     15  C   UNL A   1      33.788  24.160  25.220  1.00  0.00     0.172 C 
ATOM     16  C   UNL A   1      33.558  23.203  22.434  1.00  0.00     0.006 C 
ATOM     17  C   UNL A   1      34.719  23.082  24.662  1.00  0.00     0.038 C 
ATOM     18  C   UNL A   1      34.900  23.223  23.152  1.00  0.00     0.003 C 
BRANCH  15  19
ATOM     19  O   UNL A   1      34.469  25.404  25.091  1.00  0.00    -0.387 OA
ATOM     20  H   UNL A   1      35.145  25.476  25.784  1.00  0.00     0.211 HD
ENDBRANCH  15  19
ENDBRANCH   6  13
ENDBRANCH   5   6
ENDBRANCH   3   5
ENDBRANCH   2   3
ENDBRANCH   1   2
BRANCH   1  21
ATOM     21  C   UNL A   1      32.930  29.514  27.113  1.00  0.00     0.275 C 
BRANCH  21  22
ATOM     22  O   UNL A   1      34.080  30.364  26.932  1.00  0.00    -0.458 OA
BRANCH  22  23
ATOM     23  C   UNL A   1      34.585  30.964  28.042  1.00  0.00     0.338 C 
ATOM     24  O   UNL A   1      34.019  31.743  28.779  1.00  0.00    -0.246 OA
BRANCH  23  25
ATOM     25  C   UNL A   1      35.915  30.360  28.299  1.00  0.00     0.060 A 
ATOM     26  C   UNL A   1      36.179  29.813  29.560  1.00  0.00     0.016 A 
ATOM     27  C   UNL A   1      36.874  30.285  27.285  1.00  0.00     0.016 A 
ATOM     28  C   UNL A   1      37.411  29.195  29.812  1.00  0.00     0.010 A 
ATOM     29  C   UNL A   1      38.108  29.682  27.543  1.00  0.00     0.010 A 
ATOM     30  C   UNL A   1      38.393  29.149  28.812  1.00  0.00    -0.014 A 
BRANCH  30  31
ATOM     31  C   UNL A   1      39.780  28.720  29.124  1.00  0.00     0.031 A 
ATOM     32  C   UNL A   1      40.713  29.727  29.740  1.00  0.00     0.074 A 
ATOM     33  C   UNL A   1      40.230  27.485  28.832  1.00  0.00     0.049 A 
ATOM     34  N   UNL A   1      41.979  29.608  30.043  1.00  0.00    -0.248 NA
ATOM     35  C   UNL A   1      40.136  31.047  30.051  1.00  0.00     0.031 C 
ATOM     36  C   UNL A   1      39.438  26.402  28.252  1.00  0.00     0.029 A 
ATOM     37  N   UNL A   1      41.487  26.944  28.969  1.00  0.00    -0.354 N 
ATOM     38  C   UNL A   1      42.350  30.831  30.586  1.00  0.00     0.074 A 
ATOM     39  C   UNL A   1      41.186  31.688  30.541  1.00  0.00     0.031 C 
ATOM     40  C   UNL A   1      40.233  25.334  28.059  1.00  0.00     0.029 A 
ATOM     41  C   UNL A   1      41.594  25.661  28.483  1.00  0.00     0.049 A 
ATOM     42  H   UNL A   1      42.240  27.428  29.376  1.00  0.00     0.167 HD
ATOM     43  C   UNL A   1      43.549  31.211  31.087  1.00  0.00     0.031 A 
ATOM     44  C   UNL A   1      42.669  24.852  28.376  1.00  0.00     0.031 A 
ATOM     45  C   UNL A   1      44.721  30.382  31.109  1.00  0.00     0.049 A 
ATOM     46  C   UNL A   1      44.017  25.327  28.862  1.00  0.00     0.074 A 
ATOM     47  C   UNL A   1      45.976  30.682  31.610  1.00  0.00     0.029 A 
ATOM     48  N   UNL A   1      44.790  29.097  30.596  1.00  0.00    -0.354 N 
ATOM     49  N   UNL A   1      44.338  26.468  29.425  1.00  0.00    -0.248 NA
ATOM     50  C   UNL A   1      45.147  24.398  28.707  1.00  0.00     0.031 C 
ATOM     51  C   UNL A   1      46.818  29.594  31.357  1.00  0.00     0.029 A 
ATOM     52  C   UNL A   1      46.073  28.598  30.745  1.00  0.00     0.049 A 
ATOM     53  H   UNL A   1      44.039  28.611  30.185  1.00  0.00     0.167 HD
ATOM     54  C   UNL A   1      45.694  26.376  29.723  1.00  0.00     0.074 A 
ATOM     55  C   UNL A   1      46.135  25.071  29.283  1.00  0.00     0.031 C 
ATOM     56  C   UNL A   1      46.500  27.291  30.317  1.00  0.00     0.031 A 
BRANCH  43  57
ATOM     57  C   UNL A   1      43.648  32.606  31.636  1.00  0.00    -0.014 A 
ATOM     58  C   UNL A   1      43.350  32.870  32.985  1.00  0.00     0.010 A 
ATOM     59  C   UNL A   1      44.057  33.659  30.801  1.00  0.00     0.010 A 
ATOM     60  C   UNL A   1      43.423  34.174  33.480  1.00  0.00     0.020 A 
ATOM     61  C   UNL A   1      44.153  34.961  31.298  1.00  0.00     0.020 A 
ATOM     62  C   UNL A   1      43.818  35.212  32.631  1.00  0.00     0.054 A 
BRANCH  62  63
ATOM     63  S   UNL A   1      43.918  36.894  33.301  1.00  0.00     0.124 S 
ATOM     64  O   UNL A   1      43.898  37.702  32.084  1.00  0.00    -0.237 OA
ATOM     65  O   UNL A   1      42.718  36.981  34.131  1.00  0.00    -0.237 OA
ATOM     66  O   UNL A   1      45.180  36.900  34.034  1.00  0.00    -0.744 OA
ENDBRANCH  62  63
ENDBRANCH  43  57
BRANCH  44  67
ATOM     67  C   UNL A   1      42.534  23.500  27.769  1.00  0.00    -0.014 A 
ATOM     68  C   UNL A   1      42.317  22.370  28.577  1.00  0.00     0.010 A 
ATOM     69  C   UNL A   1      42.669  23.329  26.379  1.00  0.00     0.010 A 
ATOM     70  C   UNL A   1      42.263  21.093  28.012  1.00  0.00     0.020 A 
ATOM     71  C   UNL A   1      42.592  22.055  25.807  1.00  0.00     0.020 A 
ATOM     72  C   UNL A   1      42.405  20.943  26.630  1.00  0.00     0.054 A 
BRANCH  72  73
ATOM     73  S   UNL A   1      42.301  19.280  25.911  1.00  0.00     0.124 S 
ATOM     74  O   UNL A   1      43.178  19.396  24.750  1.00  0.00    -0.237 OA
ATOM     75  O   UNL A   1      42.795  18.434  26.995  1.00  0.00    -0.237 OA
ATOM     76  O   UNL A   1      40.880  19.126  25.612  1.00  0.00    -0.744 OA
ENDBRANCH  72  73
ENDBRANCH  44  67
BRANCH  56  77
ATOM     77  C   UNL A   1      47.933  26.905  30.578  1.00  0.00    -0.014 A 
ATOM     78  C   UNL A   1      48.945  27.166  29.639  1.00  0.00     0.010 A 
ATOM     79  C   UNL A   1      48.279  26.341  31.820  1.00  0.00     0.010 A 
ATOM     80  C   UNL A   1      50.276  26.851  29.928  1.00  0.00     0.020 A 
ATOM     81  C   UNL A   1      49.611  26.046  32.122  1.00  0.00     0.020 A 
ATOM     82  C   UNL A   1      50.601  26.292  31.169  1.00  0.00     0.054 A 
BRANCH  82  83
ATOM     83  S   UNL A   1      52.342  25.945  31.546  1.00  0.00     0.124 S 
ATOM     84  O   UNL A   1      52.977  26.127  30.245  1.00  0.00    -0.237 OA
ATOM     85  O   UNL A   1      52.664  26.957  32.550  1.00  0.00    -0.237 OA
ATOM     86  O   UNL A   1      52.320  24.571  32.044  1.00  0.00    -0.744 OA
ENDBRANCH  82  83
ENDBRANCH  56  77
ENDBRANCH  30  31
ENDBRANCH  23  25
ENDBRANCH  22  23
ENDBRANCH  21  22
ENDBRANCH   1  21
TORSDOF 19
ENDMDL
MODEL 3
REMARK VINA RESULT:      -9.2      3.875      4.928
REMARK SMILES O=C(C[N@@H+](CC(F)(F)F)[C@H]1CCCC[C@H]1O)OCCOC(=O)c1ccc(-c2c3nc(c(-c4ccc(S(=O)(=O)[O-])cc4)c4ccc([nH]4)c(-c4ccc(S(=O)(=O)[O-])cc4)c4nc(c(-c5ccc(S(=O)(=O)[O-])cc5)c5ccc2[nH]5)C=C4)C=C3)cc1
REMARK SMILES IDX 18 1 17 2 2 3 1 4 3 5 4 6 5 8 6 9 7 10 8 11 9 12 10 13 11 14
REMARK SMILES IDX 15 15 12 16 14 17 13 18 16 19 19 21 20 22 21 23 22 24 23 25
REMARK SMILES IDX 24 26 82 27 25 28 81 29 26 30 27 31 28 32 75 33 29 34 80 35
REMARK SMILES IDX 74 36 76 37 30 38 79 39 73 40 72 41 31 43 61 44 42 45 60 46
REMARK SMILES IDX 43 47 46 48 59 49 77 50 44 51 45 52 58 54 78 55 47 56 32 57
REMARK SMILES IDX 33 58 41 59 34 60 40 61 35 62 36 63 37 64 38 65 39 66 62 67
REMARK SMILES IDX 63 68 71 69 64 70 70 71 65 72 66 73 67 74 68 75 69 76 48 77
REMARK SMILES IDX 49 78 57 79 50 80 56 81 51 82 52 83 53 84 54 85 55 86
REMARK H PARENT 4 7 16 20 76 42 46 53
REMARK Flexibility Score: inf
ROOT
ATOM      1  C   UNL A   1      34.138  29.516  27.665  1.00  0.00     0.274 C 
ENDROOT
BRANCH   1   2
ATOM      2  O   UNL A   1      33.965  29.722  26.249  1.00  0.00    -0.458 OA
BRANCH   2   3
ATOM      3  C   UNL A   1      32.828  29.245  25.677  1.00  0.00     0.361 C 
ATOM      4  O   UNL A   1      31.728  29.516  26.152  1.00  0.00    -0.245 OA
BRANCH   3   5
ATOM      5  C   UNL A   1      33.008  28.270  24.509  1.00  0.00     0.387 C 
BRANCH   5   6
ATOM      6  N   UNL A   1      31.778  27.576  24.067  1.00  0.00    -0.314 N 
ATOM      7  H   UNL A   1      31.078  27.801  24.774  1.00  0.00     0.349 HD
BRANCH   6   8
ATOM      8  C   UNL A   1      31.292  28.118  22.755  1.00  0.00     0.380 C 
BRANCH   8   9
ATOM      9  C   UNL A   1      30.104  29.111  22.612  1.00  0.00     0.438 C 
ATOM     10  F   UNL A   1      29.967  29.904  23.692  1.00  0.00    -0.165 F 
ATOM     11  F   UNL A   1      30.311  29.921  21.544  1.00  0.00    -0.165 F 
ATOM     12  F   UNL A   1      28.928  28.483  22.407  1.00  0.00    -0.165 F 
ENDBRANCH   8   9
ENDBRANCH   6   8
BRANCH   6  13
ATOM     13  C   UNL A   1      31.811  26.089  24.127  1.00  0.00     0.213 C 
ATOM     14  C   UNL A   1      32.259  25.487  25.476  1.00  0.00     0.068 C 
ATOM     15  C   UNL A   1      30.500  25.398  23.630  1.00  0.00     0.172 C 
ATOM     16  C   UNL A   1      32.336  23.958  25.444  1.00  0.00     0.006 C 
ATOM     17  C   UNL A   1      30.647  23.875  23.582  1.00  0.00     0.038 C 
ATOM     18  C   UNL A   1      31.056  23.308  24.940  1.00  0.00     0.003 C 
BRANCH  15  19
ATOM     19  O   UNL A   1      29.372  25.680  24.452  1.00  0.00    -0.387 OA
ATOM     20  H   UNL A   1      29.644  25.691  25.383  1.00  0.00     0.211 HD
ENDBRANCH  15  19
ENDBRANCH   6  13
ENDBRANCH   5   6
ENDBRANCH   3   5
ENDBRANCH   2   3
ENDBRANCH   1   2
BRANCH   1  21
ATOM     21  C   UNL A   1      35.031  30.578  28.326  1.00  0.00     0.275 C 
BRANCH  21  22
ATOM     22  O   UNL A   1      36.405  30.155  28.220  1.00  0.00    -0.458 OA
BRANCH  22  23
ATOM     23  C   UNL A   1      36.968  29.603  29.327  1.00  0.00     0.338 C 
ATOM     24  O   UNL A   1      36.417  29.313  30.367  1.00  0.00    -0.246 OA
BRANCH  23  25
ATOM     25  C   UNL A   1      38.366  29.252  28.976  1.00  0.00     0.060 A 
ATOM     26  C   UNL A   1      39.200  28.720  29.967  1.00  0.00     0.016 A 
ATOM     27  C   UNL A   1      38.834  29.394  27.666  1.00  0.00     0.016 A 
ATOM     28  C   UNL A   1      40.510  28.337  29.650  1.00  0.00     0.010 A 
ATOM     29  C   UNL A   1      40.145  29.027  27.355  1.00  0.00     0.010 A 
ATOM     30  C   UNL A   1      40.998  28.512  28.347  1.00  0.00    -0.014 A 
BRANCH  30  31
ATOM     31  C   UNL A   1      42.442  28.341  28.043  1.00  0.00     0.031 A 
ATOM     32  C   UNL A   1      43.352  29.524  28.236  1.00  0.00     0.074 A 
ATOM     33  C   UNL A   1      42.941  27.186  27.564  1.00  0.00     0.049 A 
ATOM     34  N   UNL A   1      44.629  29.637  27.982  1.00  0.00    -0.248 NA
ATOM     35  C   UNL A   1      42.733  30.742  28.788  1.00  0.00     0.031 C 
ATOM     36  C   UNL A   1      42.185  25.955  27.343  1.00  0.00     0.029 A 
ATOM     37  N   UNL A   1      44.216  26.873  27.154  1.00  0.00    -0.354 N 
ATOM     38  C   UNL A   1      44.970  30.933  28.347  1.00  0.00     0.074 A 
ATOM     39  C   UNL A   1      43.760  31.577  28.809  1.00  0.00     0.031 C 
ATOM     40  C   UNL A   1      43.003  25.028  26.814  1.00  0.00     0.029 A 
ATOM     41  C   UNL A   1      44.337  25.603  26.640  1.00  0.00     0.049 A 
ATOM     42  H   UNL A   1      44.972  27.500  27.220  1.00  0.00     0.167 HD
ATOM     43  C   UNL A   1      46.181  31.536  28.312  1.00  0.00     0.031 A 
ATOM     44  C   UNL A   1      45.396  24.983  26.078  1.00  0.00     0.031 A 
ATOM     45  C   UNL A   1      47.384  30.921  27.826  1.00  0.00     0.049 A 
ATOM     46  C   UNL A   1      46.717  25.705  25.969  1.00  0.00     0.074 A 
ATOM     47  C   UNL A   1      48.659  31.455  27.765  1.00  0.00     0.029 A 
ATOM     48  N   UNL A   1      47.460  29.640  27.303  1.00  0.00    -0.354 N 
ATOM     49  N   UNL A   1      47.035  26.912  26.371  1.00  0.00    -0.248 NA
ATOM     50  C   UNL A   1      47.826  24.973  25.337  1.00  0.00     0.031 C 
ATOM     51  C   UNL A   1      49.498  30.513  27.161  1.00  0.00     0.029 A 
ATOM     52  C   UNL A   1      48.756  29.374  26.894  1.00  0.00     0.049 A 
ATOM     53  H   UNL A   1      46.704  29.012  27.232  1.00  0.00     0.167 HD
ATOM     54  C   UNL A   1      48.386  27.068  26.075  1.00  0.00     0.074 A 
ATOM     55  C   UNL A   1      48.829  25.834  25.463  1.00  0.00     0.031 C 
ATOM     56  C   UNL A   1      49.191  28.137  26.299  1.00  0.00     0.031 A 
BRANCH  43  57
ATOM     57  C   UNL A   1      46.250  32.956  28.800  1.00  0.00    -0.014 A 
ATOM     58  C   UNL A   1      46.089  34.031  27.907  1.00  0.00     0.010 A 
ATOM     59  C   UNL A   1      46.462  33.218  30.164  1.00  0.00     0.010 A 
ATOM     60  C   UNL A   1      46.176  35.347  28.366  1.00  0.00     0.020 A 
ATOM     61  C   UNL A   1      46.528  34.533  30.630  1.00  0.00     0.020 A 
ATOM     62  C   UNL A   1      46.402  35.589  29.724  1.00  0.00     0.054 A 
BRANCH  62  63
ATOM     63  S   UNL A   1      46.499  37.306  30.298  1.00  0.00     0.124 S 
ATOM     64  O   UNL A   1      47.848  37.685  29.883  1.00  0.00    -0.237 OA
ATOM     65  O   UNL A   1      45.412  37.952  29.566  1.00  0.00    -0.237 OA
ATOM     66  O   UNL A   1      46.297  37.201  31.741  1.00  0.00    -0.744 OA
ENDBRANCH  62  63
ENDBRANCH  43  57
BRANCH  44  67
ATOM     67  C   UNL A   1      45.263  23.597  25.553  1.00  0.00    -0.014 A 
ATOM     68  C   UNL A   1      44.763  23.365  24.259  1.00  0.00     0.010 A 
ATOM     69  C   UNL A   1      45.595  22.496  26.364  1.00  0.00     0.010 A 
ATOM     70  C   UNL A   1      44.572  22.060  23.796  1.00  0.00     0.020 A 
ATOM     71  C   UNL A   1      45.428  21.189  25.895  1.00  0.00     0.020 A 
ATOM     72  C   UNL A   1      44.903  20.980  24.619  1.00  0.00     0.054 A 
BRANCH  72  73
ATOM     73  S   UNL A   1      44.677  19.293  23.988  1.00  0.00     0.124 S 
ATOM     74  O   UNL A   1      43.471  18.865  24.691  1.00  0.00    -0.237 OA
ATOM     75  O   UNL A   1      44.528  19.510  22.550  1.00  0.00    -0.237 OA
ATOM     76  O   UNL A   1      45.909  18.615  24.382  1.00  0.00    -0.744 OA
ENDBRANCH  72  73
ENDBRANCH  44  67
BRANCH  56  77
ATOM     77  C   UNL A   1      50.646  28.014  25.932  1.00  0.00    -0.014 A 
ATOM     78  C   UNL A   1      51.555  27.328  26.757  1.00  0.00     0.010 A 
ATOM     79  C   UNL A   1      51.093  28.529  24.701  1.00  0.00     0.010 A 
ATOM     80  C   UNL A   1      52.889  27.178  26.367  1.00  0.00     0.020 A 
ATOM     81  C   UNL A   1      52.420  28.361  24.297  1.00  0.00     0.020 A 
ATOM     82  C   UNL A   1      53.314  27.696  25.139  1.00  0.00     0.054 A 
BRANCH  82  83
ATOM     83  S   UNL A   1      55.036  27.438  24.626  1.00  0.00     0.124 S 
ATOM     84  O   UNL A   1      54.958  26.157  23.932  1.00  0.00    -0.237 OA
ATOM     85  O   UNL A   1      55.298  28.598  23.778  1.00  0.00    -0.237 OA
ATOM     86  O   UNL A   1      55.773  27.420  25.888  1.00  0.00    -0.744 OA
ENDBRANCH  82  83
ENDBRANCH  56  77
ENDBRANCH  30  31
ENDBRANCH  23  25
ENDBRANCH  22  23
ENDBRANCH  21  22
ENDBRANCH   1  21
TORSDOF 19
ENDMDL
