MODEL 1
REMARK VINA RESULT:      -8.6      0.000      0.000
REMARK SMILES C[C@H]1C[C@H]1C(=O)Nc1cc(C(F)(F)F)ccc1C(=O)OCCOC(=O)c1ccc(-c2c3nc(c(-c4ccc(S(=O)(=O)[O-])cc4)c4ccc([nH]4)c(-c4ccc(S(=O)(=O)[O-])cc4)c4nc(c(-c5ccc(S(=O)(=O)[O-])cc5)c5ccc2[nH]5)C=C4)C=C3)cc1
REMARK SMILES IDX 22 1 21 2 20 3 18 4 19 5 17 6 8 7 9 8 10 9 16 10 15 11 7 12
REMARK SMILES IDX 5 13 6 14 4 16 1 17 2 18 3 19 11 20 12 21 13 22 14 23 23 24
REMARK SMILES IDX 24 25 25 26 26 27 27 28 85 29 28 30 84 31 29 32 30 33 31 34
REMARK SMILES IDX 78 35 32 36 83 37 77 38 79 39 33 40 82 41 76 42 75 43 34 45
REMARK SMILES IDX 64 46 45 47 63 48 46 49 49 50 62 51 80 52 47 53 48 54 61 56
REMARK SMILES IDX 81 57 50 58 35 59 36 60 44 61 37 62 43 63 38 64 39 65 40 66
REMARK SMILES IDX 41 67 42 68 65 69 66 70 74 71 67 72 73 73 68 74 69 75 70 76
REMARK SMILES IDX 71 77 72 78 51 79 52 80 60 81 53 82 59 83 54 84 55 85 56 86
REMARK SMILES IDX 57 87 58 88
REMARK H PARENT 7 15 79 44 49 55
REMARK Flexibility Score: inf
ROOT
ATOM      1  C   UNL A   1      39.168  21.142  25.750  1.00  0.00     0.275 C 
ENDROOT
BRANCH   1   2
ATOM      2  C   UNL A   1      40.471  20.384  26.046  1.00  0.00     0.275 C 
BRANCH   2   3
ATOM      3  O   UNL A   1      41.293  21.016  27.050  1.00  0.00    -0.458 OA
BRANCH   3   4
ATOM      4  C   UNL A   1      42.280  21.764  26.514  1.00  0.00     0.340 C 
ATOM      5  O   UNL A   1      42.552  21.821  25.323  1.00  0.00    -0.246 OA
BRANCH   4   6
ATOM      6  C   UNL A   1      43.042  22.527  27.512  1.00  0.00     0.083 A 
ATOM      7  C   UNL A   1      44.303  23.067  27.236  1.00  0.00     0.056 A 
ATOM      8  C   UNL A   1      44.943  23.844  28.218  1.00  0.00     0.040 A 
ATOM      9  C   UNL A   1      44.293  24.195  29.413  1.00  0.00     0.058 A 
ATOM     10  C   UNL A   1      42.423  22.807  28.740  1.00  0.00     0.018 A 
ATOM     11  C   UNL A   1      43.028  23.659  29.669  1.00  0.00     0.014 A 
BRANCH   7  12
ATOM     12  N   UNL A   1      45.043  22.868  26.062  1.00  0.00    -0.325 N 
ATOM     13  C   UNL A   1      45.259  23.720  25.015  1.00  0.00     0.227 C 
ATOM     14  O   UNL A   1      44.999  23.328  23.876  1.00  0.00    -0.274 OA
ATOM     15  H   UNL A   1      45.470  21.984  25.980  1.00  0.00     0.169 HD
BRANCH  13  16
ATOM     16  C   UNL A   1      46.117  24.935  25.152  1.00  0.00     0.082 C 
ATOM     17  C   UNL A   1      48.070  24.827  27.074  1.00  0.00     0.008 C 
ATOM     18  C   UNL A   1      47.329  25.412  25.929  1.00  0.00    -0.001 C 
ATOM     19  C   UNL A   1      47.524  24.830  24.568  1.00  0.00     0.018 C 
ENDBRANCH  13  16
ENDBRANCH   7  12
BRANCH   9  20
ATOM     20  C   UNL A   1      44.956  25.124  30.404  1.00  0.00     0.416 C 
ATOM     21  F   UNL A   1      45.144  24.537  31.616  1.00  0.00    -0.166 F 
ATOM     22  F   UNL A   1      46.189  25.539  29.998  1.00  0.00    -0.166 F 
ATOM     23  F   UNL A   1      44.240  26.257  30.635  1.00  0.00    -0.166 F 
ENDBRANCH   9  20
ENDBRANCH   4   6
ENDBRANCH   3   4
ENDBRANCH   2   3
ENDBRANCH   1   2
BRANCH   1  24
ATOM     24  O   UNL A   1      38.811  22.104  26.766  1.00  0.00    -0.458 OA
BRANCH  24  25
ATOM     25  C   UNL A   1      38.571  23.353  26.302  1.00  0.00     0.338 C 
ATOM     26  O   UNL A   1      37.637  23.704  25.600  1.00  0.00    -0.246 OA
BRANCH  25  27
ATOM     27  C   UNL A   1      39.551  24.331  26.807  1.00  0.00     0.060 A 
ATOM     28  C   UNL A   1      39.532  24.655  28.165  1.00  0.00     0.016 A 
ATOM     29  C   UNL A   1      40.282  25.116  25.916  1.00  0.00     0.016 A 
ATOM     30  C   UNL A   1      40.139  25.817  28.623  1.00  0.00     0.010 A 
ATOM     31  C   UNL A   1      40.965  26.244  26.394  1.00  0.00     0.010 A 
ATOM     32  C   UNL A   1      40.860  26.629  27.744  1.00  0.00    -0.014 A 
BRANCH  32  33
ATOM     33  C   UNL A   1      41.424  27.916  28.229  1.00  0.00     0.031 A 
ATOM     34  C   UNL A   1      42.910  28.151  28.163  1.00  0.00     0.074 A 
ATOM     35  C   UNL A   1      40.609  28.892  28.675  1.00  0.00     0.049 A 
ATOM     36  N   UNL A   1      43.618  29.119  28.684  1.00  0.00    -0.248 NA
ATOM     37  C   UNL A   1      43.705  27.164  27.412  1.00  0.00     0.031 C 
ATOM     38  C   UNL A   1      39.145  28.834  28.693  1.00  0.00     0.029 A 
ATOM     39  N   UNL A   1      40.896  30.131  29.192  1.00  0.00    -0.354 N 
ATOM     40  C   UNL A   1      44.942  28.830  28.375  1.00  0.00     0.074 A 
ATOM     41  C   UNL A   1      44.940  27.600  27.616  1.00  0.00     0.031 C 
ATOM     42  C   UNL A   1      38.664  29.991  29.173  1.00  0.00     0.029 A 
ATOM     43  C   UNL A   1      39.781  30.834  29.584  1.00  0.00     0.049 A 
ATOM     44  H   UNL A   1      41.812  30.482  29.273  1.00  0.00     0.167 HD
ATOM     45  C   UNL A   1      46.058  29.525  28.708  1.00  0.00     0.031 A 
ATOM     46  C   UNL A   1      39.668  31.998  30.251  1.00  0.00     0.031 A 
ATOM     47  C   UNL A   1      46.042  30.760  29.446  1.00  0.00     0.049 A 
ATOM     48  C   UNL A   1      40.920  32.709  30.681  1.00  0.00     0.074 A 
ATOM     49  C   UNL A   1      47.113  31.534  29.857  1.00  0.00     0.029 A 
ATOM     50  N   UNL A   1      44.892  31.407  29.875  1.00  0.00    -0.354 N 
ATOM     51  N   UNL A   1      42.171  32.385  30.453  1.00  0.00    -0.248 NA
ATOM     52  C   UNL A   1      40.747  33.933  31.475  1.00  0.00     0.031 C 
ATOM     53  C   UNL A   1      46.612  32.625  30.575  1.00  0.00     0.029 A 
ATOM     54  C   UNL A   1      45.228  32.561  30.562  1.00  0.00     0.049 A 
ATOM     55  H   UNL A   1      43.973  31.093  29.714  1.00  0.00     0.167 HD
ATOM     56  C   UNL A   1      42.934  33.371  31.066  1.00  0.00     0.074 A 
ATOM     57  C   UNL A   1      42.004  34.313  31.656  1.00  0.00     0.031 C 
ATOM     58  C   UNL A   1      44.284  33.484  31.141  1.00  0.00     0.031 A 
BRANCH  45  59
ATOM     59  C   UNL A   1      47.388  28.926  28.332  1.00  0.00    -0.014 A 
ATOM     60  C   UNL A   1      48.123  28.132  29.229  1.00  0.00     0.010 A 
ATOM     61  C   UNL A   1      47.902  29.151  27.041  1.00  0.00     0.010 A 
ATOM     62  C   UNL A   1      49.367  27.611  28.856  1.00  0.00     0.020 A 
ATOM     63  C   UNL A   1      49.132  28.613  26.655  1.00  0.00     0.020 A 
ATOM     64  C   UNL A   1      49.867  27.860  27.574  1.00  0.00     0.054 A 
BRANCH  64  65
ATOM     65  S   UNL A   1      51.482  27.173  27.114  1.00  0.00     0.124 S 
ATOM     66  O   UNL A   1      51.164  26.456  25.882  1.00  0.00    -0.237 OA
ATOM     67  O   UNL A   1      52.305  28.368  26.950  1.00  0.00    -0.237 OA
ATOM     68  O   UNL A   1      51.836  26.328  28.251  1.00  0.00    -0.744 OA
ENDBRANCH  64  65
ENDBRANCH  45  59
BRANCH  46  69
ATOM     69  C   UNL A   1      38.321  32.518  30.617  1.00  0.00    -0.014 A 
ATOM     70  C   UNL A   1      37.755  32.235  31.871  1.00  0.00     0.010 A 
ATOM     71  C   UNL A   1      37.602  33.321  29.710  1.00  0.00     0.010 A 
ATOM     72  C   UNL A   1      36.494  32.735  32.208  1.00  0.00     0.020 A 
ATOM     73  C   UNL A   1      36.355  33.848  30.054  1.00  0.00     0.020 A 
ATOM     74  C   UNL A   1      35.804  33.542  31.298  1.00  0.00     0.054 A 
BRANCH  74  75
ATOM     75  S   UNL A   1      34.194  34.230  31.777  1.00  0.00     0.124 S 
ATOM     76  O   UNL A   1      33.532  34.380  30.486  1.00  0.00    -0.237 OA
ATOM     77  O   UNL A   1      33.653  33.191  32.650  1.00  0.00    -0.237 OA
ATOM     78  O   UNL A   1      34.544  35.478  32.451  1.00  0.00    -0.744 OA
ENDBRANCH  74  75
ENDBRANCH  46  69
BRANCH  58  79
ATOM     79  C   UNL A   1      44.832  34.686  31.860  1.00  0.00    -0.014 A 
ATOM     80  C   UNL A   1      45.052  35.898  31.185  1.00  0.00     0.010 A 
ATOM     81  C   UNL A   1      45.085  34.610  33.242  1.00  0.00     0.010 A 
ATOM     82  C   UNL A   1      45.542  37.010  31.875  1.00  0.00     0.020 A 
ATOM     83  C   UNL A   1      45.551  35.725  33.940  1.00  0.00     0.020 A 
ATOM     84  C   UNL A   1      45.790  36.915  33.248  1.00  0.00     0.054 A 
BRANCH  84  85
ATOM     85  S   UNL A   1      46.383  38.384  34.133  1.00  0.00     0.124 S 
ATOM     86  O   UNL A   1      45.281  38.649  35.053  1.00  0.00    -0.237 OA
ATOM     87  O   UNL A   1      47.619  37.908  34.752  1.00  0.00    -0.237 OA
ATOM     88  O   UNL A   1      46.566  39.374  33.076  1.00  0.00    -0.744 OA
ENDBRANCH  84  85
ENDBRANCH  58  79
ENDBRANCH  32  33
ENDBRANCH  25  27
ENDBRANCH  24  25
ENDBRANCH   1  24
TORSDOF 17
ENDMDL
MODEL 2
REMARK VINA RESULT:      -8.6      4.746     11.015
REMARK SMILES C[C@H]1C[C@H]1C(=O)Nc1cc(C(F)(F)F)ccc1C(=O)OCCOC(=O)c1ccc(-c2c3nc(c(-c4ccc(S(=O)(=O)[O-])cc4)c4ccc([nH]4)c(-c4ccc(S(=O)(=O)[O-])cc4)c4nc(c(-c5ccc(S(=O)(=O)[O-])cc5)c5ccc2[nH]5)C=C4)C=C3)cc1
REMARK SMILES IDX 22 1 21 2 20 3 18 4 19 5 17 6 8 7 9 8 10 9 16 10 15 11 7 12
REMARK SMILES IDX 5 13 6 14 4 16 1 17 2 18 3 19 11 20 12 21 13 22 14 23 23 24
REMARK SMILES IDX 24 25 25 26 26 27 27 28 85 29 28 30 84 31 29 32 30 33 31 34
REMARK SMILES IDX 78 35 32 36 83 37 77 38 79 39 33 40 82 41 76 42 75 43 34 45
REMARK SMILES IDX 64 46 45 47 63 48 46 49 49 50 62 51 80 52 47 53 48 54 61 56
REMARK SMILES IDX 81 57 50 58 35 59 36 60 44 61 37 62 43 63 38 64 39 65 40 66
REMARK SMILES IDX 41 67 42 68 65 69 66 70 74 71 67 72 73 73 68 74 69 75 70 76
REMARK SMILES IDX 71 77 72 78 51 79 52 80 60 81 53 82 59 83 54 84 55 85 56 86
REMARK SMILES IDX 57 87 58 88
REMARK H PARENT 7 15 79 44 49 55
REMARK Flexibility Score: inf
ROOT
ATOM      1  C   UNL A   1      39.057  21.562  25.764  1.00  0.00     0.275 C 
ENDROOT
BRANCH   1   2
ATOM      2  C   UNL A   1      37.955  20.843  24.973  1.00  0.00     0.275 C 
BRANCH   2   3
ATOM      3  O   UNL A   1      36.918  21.724  24.492  1.00  0.00    -0.458 OA
BRANCH   3   4
ATOM      4  C   UNL A   1      35.861  21.782  25.329  1.00  0.00     0.340 C 
ATOM      5  O   UNL A   1      35.861  21.399  26.490  1.00  0.00    -0.246 OA
BRANCH   4   6
ATOM      6  C   UNL A   1      34.657  22.353  24.710  1.00  0.00     0.083 A 
ATOM      7  C   UNL A   1      33.391  21.776  24.864  1.00  0.00     0.056 A 
ATOM      8  C   UNL A   1      32.275  22.418  24.299  1.00  0.00     0.040 A 
ATOM      9  C   UNL A   1      32.382  23.683  23.699  1.00  0.00     0.058 A 
ATOM     10  C   UNL A   1      34.781  23.579  24.038  1.00  0.00     0.018 A 
ATOM     11  C   UNL A   1      33.651  24.254  23.565  1.00  0.00     0.014 A 
BRANCH   7  12
ATOM     12  N   UNL A   1      33.117  20.558  25.501  1.00  0.00    -0.325 N 
ATOM     13  C   UNL A   1      32.984  19.307  24.965  1.00  0.00     0.227 C 
ATOM     14  O   UNL A   1      31.964  18.665  25.217  1.00  0.00    -0.274 OA
ATOM     15  H   UNL A   1      33.003  20.611  26.477  1.00  0.00     0.169 HD
BRANCH  13  16
ATOM     16  C   UNL A   1      34.152  18.562  24.406  1.00  0.00     0.082 C 
ATOM     17  C   UNL A   1      34.465  15.978  25.270  1.00  0.00     0.008 C 
ATOM     18  C   UNL A   1      34.761  17.172  24.441  1.00  0.00    -0.001 C 
ATOM     19  C   UNL A   1      33.833  17.529  23.328  1.00  0.00     0.018 C 
ENDBRANCH  13  16
ENDBRANCH   7  12
BRANCH   9  20
ATOM     20  C   UNL A   1      31.151  24.404  23.200  1.00  0.00     0.416 C 
ATOM     21  F   UNL A   1      31.372  25.051  22.024  1.00  0.00    -0.166 F 
ATOM     22  F   UNL A   1      30.102  23.565  22.971  1.00  0.00    -0.166 F 
ATOM     23  F   UNL A   1      30.692  25.342  24.072  1.00  0.00    -0.166 F 
ENDBRANCH   9  20
ENDBRANCH   4   6
ENDBRANCH   3   4
ENDBRANCH   2   3
ENDBRANCH   1   2
BRANCH   1  24
ATOM     24  O   UNL A   1      39.740  20.714  26.712  1.00  0.00    -0.458 OA
BRANCH  24  25
ATOM     25  C   UNL A   1      40.963  20.290  26.315  1.00  0.00     0.338 C 
ATOM     26  O   UNL A   1      41.229  19.228  25.777  1.00  0.00    -0.246 OA
BRANCH  25  27
ATOM     27  C   UNL A   1      42.002  21.312  26.533  1.00  0.00     0.060 A 
ATOM     28  C   UNL A   1      42.336  21.654  27.845  1.00  0.00     0.016 A 
ATOM     29  C   UNL A   1      42.432  22.113  25.476  1.00  0.00     0.016 A 
ATOM     30  C   UNL A   1      42.995  22.845  28.120  1.00  0.00     0.010 A 
ATOM     31  C   UNL A   1      43.172  23.273  25.749  1.00  0.00     0.010 A 
ATOM     32  C   UNL A   1      43.418  23.673  27.076  1.00  0.00    -0.014 A 
BRANCH  32  33
ATOM     33  C   UNL A   1      44.039  24.987  27.387  1.00  0.00     0.031 A 
ATOM     34  C   UNL A   1      43.198  26.087  27.982  1.00  0.00     0.074 A 
ATOM     35  C   UNL A   1      45.358  25.181  27.191  1.00  0.00     0.049 A 
ATOM     36  N   UNL A   1      43.496  27.347  28.165  1.00  0.00    -0.248 NA
ATOM     37  C   UNL A   1      41.843  25.719  28.426  1.00  0.00     0.031 C 
ATOM     38  C   UNL A   1      46.305  24.166  26.721  1.00  0.00     0.029 A 
ATOM     39  N   UNL A   1      46.134  26.298  27.373  1.00  0.00    -0.354 N 
ATOM     40  C   UNL A   1      42.351  27.934  28.692  1.00  0.00     0.074 A 
ATOM     41  C   UNL A   1      41.355  26.892  28.805  1.00  0.00     0.031 C 
ATOM     42  C   UNL A   1      47.535  24.702  26.672  1.00  0.00     0.029 A 
ATOM     43  C   UNL A   1      47.450  26.116  27.016  1.00  0.00     0.049 A 
ATOM     44  H   UNL A   1      45.783  27.148  27.725  1.00  0.00     0.167 HD
ATOM     45  C   UNL A   1      42.149  29.229  29.038  1.00  0.00     0.031 A 
ATOM     46  C   UNL A   1      48.463  26.998  26.919  1.00  0.00     0.031 A 
ATOM     47  C   UNL A   1      43.158  30.251  28.940  1.00  0.00     0.049 A 
ATOM     48  C   UNL A   1      48.194  28.444  27.229  1.00  0.00     0.074 A 
ATOM     49  C   UNL A   1      43.054  31.598  29.240  1.00  0.00     0.029 A 
ATOM     50  N   UNL A   1      44.461  30.034  28.518  1.00  0.00    -0.354 N 
ATOM     51  N   UNL A   1      47.085  29.003  27.650  1.00  0.00    -0.248 NA
ATOM     52  C   UNL A   1      49.309  29.381  27.033  1.00  0.00     0.031 C 
ATOM     53  C   UNL A   1      44.282  32.204  28.955  1.00  0.00     0.029 A 
ATOM     54  C   UNL A   1      45.167  31.225  28.531  1.00  0.00     0.049 A 
ATOM     55  H   UNL A   1      44.830  29.162  28.249  1.00  0.00     0.167 HD
ATOM     56  C   UNL A   1      47.370  30.357  27.780  1.00  0.00     0.074 A 
ATOM     57  C   UNL A   1      48.762  30.528  27.413  1.00  0.00     0.031 C 
ATOM     58  C   UNL A   1      46.553  31.370  28.161  1.00  0.00     0.031 A 
BRANCH  45  59
ATOM     59  C   UNL A   1      40.767  29.621  29.489  1.00  0.00    -0.014 A 
ATOM     60  C   UNL A   1      39.705  29.770  28.580  1.00  0.00     0.010 A 
ATOM     61  C   UNL A   1      40.524  29.827  30.861  1.00  0.00     0.010 A 
ATOM     62  C   UNL A   1      38.438  30.159  29.030  1.00  0.00     0.020 A 
ATOM     63  C   UNL A   1      39.255  30.191  31.317  1.00  0.00     0.020 A 
ATOM     64  C   UNL A   1      38.223  30.374  30.395  1.00  0.00     0.054 A 
BRANCH  64  65
ATOM     65  S   UNL A   1      36.572  30.877  30.953  1.00  0.00     0.124 S 
ATOM     66  O   UNL A   1      36.099  29.667  31.622  1.00  0.00    -0.237 OA
ATOM     67  O   UNL A   1      36.860  32.008  31.832  1.00  0.00    -0.237 OA
ATOM     68  O   UNL A   1      35.875  31.216  29.716  1.00  0.00    -0.744 OA
ENDBRANCH  64  65
ENDBRANCH  45  59
BRANCH  46  69
ATOM     69  C   UNL A   1      49.798  26.548  26.437  1.00  0.00    -0.014 A 
ATOM     70  C   UNL A   1      50.168  26.700  25.091  1.00  0.00     0.010 A 
ATOM     71  C   UNL A   1      50.719  25.977  27.337  1.00  0.00     0.010 A 
ATOM     72  C   UNL A   1      51.427  26.281  24.651  1.00  0.00     0.020 A 
ATOM     73  C   UNL A   1      51.990  25.586  26.909  1.00  0.00     0.020 A 
ATOM     74  C   UNL A   1      52.332  25.730  25.564  1.00  0.00     0.054 A 
BRANCH  74  75
ATOM     75  S   UNL A   1      53.982  25.248  24.985  1.00  0.00     0.124 S 
ATOM     76  O   UNL A   1      54.044  25.887  23.675  1.00  0.00    -0.237 OA
ATOM     77  O   UNL A   1      54.855  25.818  26.009  1.00  0.00    -0.237 OA
ATOM     78  O   UNL A   1      53.926  23.788  24.970  1.00  0.00    -0.744 OA
ENDBRANCH  74  75
ENDBRANCH  46  69
BRANCH  58  79
ATOM     79  C   UNL A   1      47.154  32.747  28.232  1.00  0.00    -0.014 A 
ATOM     80  C   UNL A   1      47.111  33.616  27.129  1.00  0.00     0.010 A 
ATOM     81  C   UNL A   1      47.728  33.190  29.437  1.00  0.00     0.010 A 
ATOM     82  C   UNL A   1      47.657  34.899  27.221  1.00  0.00     0.020 A 
ATOM     83  C   UNL A   1      48.252  34.480  29.541  1.00  0.00     0.020 A 
ATOM     84  C   UNL A   1      48.225  35.322  28.427  1.00  0.00     0.054 A 
BRANCH  84  85
ATOM     85  S   UNL A   1      48.888  37.007  28.537  1.00  0.00     0.124 S 
ATOM     86  O   UNL A   1      47.740  37.751  29.050  1.00  0.00    -0.237 OA
ATOM     87  O   UNL A   1      50.004  36.853  29.468  1.00  0.00    -0.237 OA
ATOM     88  O   UNL A   1      49.270  37.319  27.163  1.00  0.00    -0.744 OA
ENDBRANCH  84  85
ENDBRANCH  58  79
ENDBRANCH  32  33
ENDBRANCH  25  27
ENDBRANCH  24  25
ENDBRANCH   1  24
TORSDOF 17
ENDMDL
MODEL 3
REMARK VINA RESULT:      -8.5      4.831     10.828
REMARK SMILES C[C@H]1C[C@H]1C(=O)Nc1cc(C(F)(F)F)ccc1C(=O)OCCOC(=O)c1ccc(-c2c3nc(c(-c4ccc(S(=O)(=O)[O-])cc4)c4ccc([nH]4)c(-c4ccc(S(=O)(=O)[O-])cc4)c4nc(c(-c5ccc(S(=O)(=O)[O-])cc5)c5ccc2[nH]5)C=C4)C=C3)cc1
REMARK SMILES IDX 22 1 21 2 20 3 18 4 19 5 17 6 8 7 9 8 10 9 16 10 15 11 7 12
REMARK SMILES IDX 5 13 6 14 4 16 1 17 2 18 3 19 11 20 12 21 13 22 14 23 23 24
REMARK SMILES IDX 24 25 25 26 26 27 27 28 85 29 28 30 84 31 29 32 30 33 31 34
REMARK SMILES IDX 78 35 32 36 83 37 77 38 79 39 33 40 82 41 76 42 75 43 34 45
REMARK SMILES IDX 64 46 45 47 63 48 46 49 49 50 62 51 80 52 47 53 48 54 61 56
REMARK SMILES IDX 81 57 50 58 35 59 36 60 44 61 37 62 43 63 38 64 39 65 40 66
REMARK SMILES IDX 41 67 42 68 65 69 66 70 74 71 67 72 73 73 68 74 69 75 70 76
REMARK SMILES IDX 71 77 72 78 51 79 52 80 60 81 53 82 59 83 54 84 55 85 56 86
REMARK SMILES IDX 57 87 58 88
REMARK H PARENT 7 15 79 44 49 55
REMARK Flexibility Score: inf
ROOT
ATOM      1  C   UNL A   1      33.030  29.208  27.709  1.00  0.00     0.275 C 
ENDROOT
BRANCH   1   2
ATOM      2  C   UNL A   1      32.788  28.236  26.545  1.00  0.00     0.275 C 
BRANCH   2   3
ATOM      3  O   UNL A   1      33.807  27.222  26.415  1.00  0.00    -0.458 OA
BRANCH   3   4
ATOM      4  C   UNL A   1      33.985  26.830  25.137  1.00  0.00     0.340 C 
ATOM      5  O   UNL A   1      34.411  27.540  24.236  1.00  0.00    -0.246 OA
BRANCH   4   6
ATOM      6  C   UNL A   1      33.602  25.432  24.895  1.00  0.00     0.083 A 
ATOM      7  C   UNL A   1      33.460  24.907  23.605  1.00  0.00     0.056 A 
ATOM      8  C   UNL A   1      33.159  23.543  23.452  1.00  0.00     0.040 A 
ATOM      9  C   UNL A   1      33.124  22.672  24.554  1.00  0.00     0.058 A 
ATOM     10  C   UNL A   1      33.486  24.581  26.005  1.00  0.00     0.018 A 
ATOM     11  C   UNL A   1      33.281  23.208  25.835  1.00  0.00     0.014 A 
BRANCH   7  12
ATOM     12  N   UNL A   1      33.541  25.635  22.410  1.00  0.00    -0.325 N 
ATOM     13  C   UNL A   1      32.603  25.806  21.430  1.00  0.00     0.227 C 
ATOM     14  O   UNL A   1      32.913  25.541  20.268  1.00  0.00    -0.274 OA
ATOM     15  H   UNL A   1      34.400  26.091  22.253  1.00  0.00     0.169 HD
BRANCH  13  16
ATOM     16  C   UNL A   1      31.372  26.623  21.651  1.00  0.00     0.082 C 
ATOM     17  C   UNL A   1      30.292  26.526  24.170  1.00  0.00     0.008 C 
ATOM     18  C   UNL A   1      30.430  27.011  22.775  1.00  0.00    -0.001 C 
ATOM     19  C   UNL A   1      31.563  27.921  22.432  1.00  0.00     0.018 C 
ENDBRANCH  13  16
ENDBRANCH   7  12
BRANCH   9  20
ATOM     20  C   UNL A   1      32.909  21.190  24.355  1.00  0.00     0.416 C 
ATOM     21  F   UNL A   1      33.970  20.453  24.779  1.00  0.00    -0.166 F 
ATOM     22  F   UNL A   1      31.830  20.714  25.037  1.00  0.00    -0.166 F 
ATOM     23  F   UNL A   1      32.705  20.850  23.054  1.00  0.00    -0.166 F 
ENDBRANCH   9  20
ENDBRANCH   4   6
ENDBRANCH   3   4
ENDBRANCH   2   3
ENDBRANCH   1   2
BRANCH   1  24
ATOM     24  O   UNL A   1      33.695  30.428  27.319  1.00  0.00    -0.458 OA
BRANCH  24  25
ATOM     25  C   UNL A   1      34.559  30.920  28.238  1.00  0.00     0.338 C 
ATOM     26  O   UNL A   1      34.363  31.855  28.997  1.00  0.00    -0.246 OA
BRANCH  25  27
ATOM     27  C   UNL A   1      35.808  30.140  28.300  1.00  0.00     0.060 A 
ATOM     28  C   UNL A   1      36.244  29.679  29.543  1.00  0.00     0.016 A 
ATOM     29  C   UNL A   1      36.670  30.106  27.205  1.00  0.00     0.016 A 
ATOM     30  C   UNL A   1      37.565  29.292  29.730  1.00  0.00     0.010 A 
ATOM     31  C   UNL A   1      37.980  29.635  27.376  1.00  0.00     0.010 A 
ATOM     32  C   UNL A   1      38.452  29.270  28.650  1.00  0.00    -0.014 A 
BRANCH  32  33
ATOM     33  C   UNL A   1      39.883  28.944  28.883  1.00  0.00     0.031 A 
ATOM     34  C   UNL A   1      40.798  29.984  29.475  1.00  0.00     0.074 A 
ATOM     35  C   UNL A   1      40.353  27.710  28.617  1.00  0.00     0.049 A 
ATOM     36  N   UNL A   1      42.100  29.966  29.597  1.00  0.00    -0.248 NA
ATOM     37  C   UNL A   1      40.163  31.206  29.997  1.00  0.00     0.031 C 
ATOM     38  C   UNL A   1      39.550  26.580  28.140  1.00  0.00     0.029 A 
ATOM     39  N   UNL A   1      41.621  27.194  28.720  1.00  0.00    -0.354 N 
ATOM     40  C   UNL A   1      42.445  31.192  30.156  1.00  0.00     0.074 A 
ATOM     41  C   UNL A   1      41.216  31.928  30.354  1.00  0.00     0.031 C 
ATOM     42  C   UNL A   1      40.340  25.502  28.014  1.00  0.00     0.029 A 
ATOM     43  C   UNL A   1      41.715  25.884  28.308  1.00  0.00     0.049 A 
ATOM     44  H   UNL A   1      42.388  27.710  29.057  1.00  0.00     0.167 HD
ATOM     45  C   UNL A   1      43.679  31.662  30.463  1.00  0.00     0.031 A 
ATOM     46  C   UNL A   1      42.793  25.097  28.132  1.00  0.00     0.031 A 
ATOM     47  C   UNL A   1      44.892  30.909  30.279  1.00  0.00     0.049 A 
ATOM     48  C   UNL A   1      44.157  25.666  28.400  1.00  0.00     0.074 A 
ATOM     49  C   UNL A   1      46.195  31.297  30.534  1.00  0.00     0.029 A 
ATOM     50  N   UNL A   1      44.947  29.607  29.805  1.00  0.00    -0.354 N 
ATOM     51  N   UNL A   1      44.478  26.855  28.852  1.00  0.00    -0.248 NA
ATOM     52  C   UNL A   1      45.306  24.795  28.117  1.00  0.00     0.031 C 
ATOM     53  C   UNL A   1      47.043  30.245  30.169  1.00  0.00     0.029 A 
ATOM     54  C   UNL A   1      46.263  29.182  29.740  1.00  0.00     0.049 A 
ATOM     55  H   UNL A   1      44.165  29.064  29.550  1.00  0.00     0.167 HD
ATOM     56  C   UNL A   1      45.866  26.873  28.918  1.00  0.00     0.074 A 
ATOM     57  C   UNL A   1      46.321  25.568  28.480  1.00  0.00     0.031 C 
ATOM     58  C   UNL A   1      46.692  27.878  29.300  1.00  0.00     0.031 A 
BRANCH  45  59
ATOM     59  C   UNL A   1      43.779  33.079  30.964  1.00  0.00    -0.014 A 
ATOM     60  C   UNL A   1      43.750  33.384  32.336  1.00  0.00     0.010 A 
ATOM     61  C   UNL A   1      43.924  34.127  30.035  1.00  0.00     0.010 A 
ATOM     62  C   UNL A   1      43.820  34.714  32.766  1.00  0.00     0.020 A 
ATOM     63  C   UNL A   1      44.019  35.454  30.461  1.00  0.00     0.020 A 
ATOM     64  C   UNL A   1      43.947  35.741  31.826  1.00  0.00     0.054 A 
BRANCH  64  65
ATOM     65  S   UNL A   1      44.038  37.456  32.409  1.00  0.00     0.124 S 
ATOM     66  O   UNL A   1      45.422  37.547  32.864  1.00  0.00    -0.237 OA
ATOM     67  O   UNL A   1      43.722  38.222  31.205  1.00  0.00    -0.237 OA
ATOM     68  O   UNL A   1      43.031  37.518  33.464  1.00  0.00    -0.744 OA
ENDBRANCH  64  65
ENDBRANCH  45  59
BRANCH  46  69
ATOM     69  C   UNL A   1      42.625  23.714  27.604  1.00  0.00    -0.014 A 
ATOM     70  C   UNL A   1      42.895  23.418  26.258  1.00  0.00     0.010 A 
ATOM     71  C   UNL A   1      42.207  22.676  28.460  1.00  0.00     0.010 A 
ATOM     72  C   UNL A   1      42.742  22.115  25.775  1.00  0.00     0.020 A 
ATOM     73  C   UNL A   1      42.084  21.366  27.989  1.00  0.00     0.020 A 
ATOM     74  C   UNL A   1      42.341  21.096  26.645  1.00  0.00     0.054 A 
BRANCH  74  75
ATOM     75  S   UNL A   1      42.205  19.401  26.013  1.00  0.00     0.124 S 
ATOM     76  O   UNL A   1      43.102  19.433  24.863  1.00  0.00    -0.237 OA
ATOM     77  O   UNL A   1      42.661  18.603  27.150  1.00  0.00    -0.237 OA
ATOM     78  O   UNL A   1      40.785  19.266  25.698  1.00  0.00    -0.744 OA
ENDBRANCH  74  75
ENDBRANCH  46  69
BRANCH  58  79
ATOM     79  C   UNL A   1      48.169  27.594  29.291  1.00  0.00    -0.014 A 
ATOM     80  C   UNL A   1      48.802  27.005  30.398  1.00  0.00     0.010 A 
ATOM     81  C   UNL A   1      48.920  27.880  28.137  1.00  0.00     0.010 A 
ATOM     82  C   UNL A   1      50.172  26.730  30.361  1.00  0.00     0.020 A 
ATOM     83  C   UNL A   1      50.284  27.583  28.087  1.00  0.00     0.020 A 
ATOM     84  C   UNL A   1      50.904  27.022  29.206  1.00  0.00     0.054 A 
BRANCH  84  85
ATOM     85  S   UNL A   1      52.671  26.615  29.165  1.00  0.00     0.124 S 
ATOM     86  O   UNL A   1      53.286  27.939  29.153  1.00  0.00    -0.237 OA
ATOM     87  O   UNL A   1      52.853  25.848  30.395  1.00  0.00    -0.237 OA
ATOM     88  O   UNL A   1      52.820  25.847  27.932  1.00  0.00    -0.744 OA
ENDBRANCH  84  85
ENDBRANCH  58  79
ENDBRANCH  32  33
ENDBRANCH  25  27
ENDBRANCH  24  25
ENDBRANCH   1  24
TORSDOF 17
ENDMDL
