MODEL 1
REMARK VINA RESULT:      -9.5      0.000      0.000
REMARK SMILES C[C@@H]1[C@@H](C(=O)OCCOC(=O)c2ccc(-c3c4nc(c(-c5ccc(S(=O)(=O)[O-])cc5)c5ccc([nH]5)c(-c5ccc(S(=O)(=O)[O-])cc5)c5nc(c(-c6ccc(S(=O)(=O)[O-])cc6)c6ccc3[nH]6)C=C5)C=C4)cc2)CC[N@@H+]1C[C@H]1Cc2ccccc2O1
REMARK SMILES IDX 8 1 7 2 6 3 4 4 5 5 3 6 1 7 2 8 74 9 72 10 73 11 75 13 76 14
REMARK SMILES IDX 77 15 84 16 78 17 83 18 79 19 82 20 80 21 81 22 9 23 10 24
REMARK SMILES IDX 11 25 12 26 13 27 71 28 14 29 70 30 15 31 16 32 17 33 64 34
REMARK SMILES IDX 18 35 69 36 63 37 65 38 19 39 68 40 62 41 61 42 20 44 50 45
REMARK SMILES IDX 31 46 49 47 32 48 35 49 48 50 66 51 33 52 34 53 47 55 67 56
REMARK SMILES IDX 36 57 21 58 22 59 30 60 23 61 29 62 24 63 25 64 26 65 27 66
REMARK SMILES IDX 28 67 51 68 52 69 60 70 53 71 59 72 54 73 55 74 56 75 57 76
REMARK SMILES IDX 58 77 37 78 38 79 46 80 39 81 45 82 40 83 41 84 42 85 43 86
REMARK SMILES IDX 44 87
REMARK H PARENT 74 12 65 43 35 54
REMARK Flexibility Score: inf
ROOT
ATOM      1  C   UNL A   1      34.081  32.944  28.207  1.00  0.00     0.275 C 
ENDROOT
BRANCH   1   2
ATOM      2  C   UNL A   1      34.201  34.104  29.192  1.00  0.00     0.274 C 
BRANCH   2   3
ATOM      3  O   UNL A   1      34.234  33.569  30.527  1.00  0.00    -0.462 OA
BRANCH   3   4
ATOM      4  C   UNL A   1      33.991  34.445  31.536  1.00  0.00     0.315 C 
ATOM      5  O   UNL A   1      32.886  34.873  31.846  1.00  0.00    -0.252 OA
BRANCH   4   6
ATOM      6  C   UNL A   1      35.254  34.830  32.280  1.00  0.00     0.162 C 
ATOM      7  C   UNL A   1      37.524  34.215  31.408  1.00  0.00     0.076 C 
ATOM      8  C   UNL A   1      36.307  33.721  32.197  1.00  0.00     0.195 C 
ATOM      9  N   UNL A   1      36.502  33.265  33.583  1.00  0.00    -0.329 N 
ATOM     10  C   UNL A   1      35.056  35.103  33.765  1.00  0.00     0.083 C 
ATOM     11  C   UNL A   1      35.438  33.794  34.422  1.00  0.00     0.263 C 
ATOM     12  H   UNL A   1      36.417  32.250  33.520  1.00  0.00     0.348 HD
BRANCH   9  13
ATOM     13  C   UNL A   1      37.832  33.148  34.167  1.00  0.00     0.308 C 
BRANCH  13  14
ATOM     14  C   UNL A   1      38.895  32.263  33.490  1.00  0.00     0.232 C 
ATOM     15  C   UNL A   1      40.256  32.193  34.196  1.00  0.00     0.090 C 
ATOM     16  O   UNL A   1      38.386  30.892  33.413  1.00  0.00    -0.484 OA
ATOM     17  C   UNL A   1      40.668  30.851  33.723  1.00  0.00    -0.002 A 
ATOM     18  C   UNL A   1      39.538  30.151  33.327  1.00  0.00     0.123 A 
ATOM     19  C   UNL A   1      41.923  30.277  33.659  1.00  0.00     0.007 A 
ATOM     20  C   UNL A   1      39.605  28.850  32.878  1.00  0.00     0.047 A 
ATOM     21  C   UNL A   1      42.019  28.971  33.175  1.00  0.00     0.001 A 
ATOM     22  C   UNL A   1      40.867  28.260  32.794  1.00  0.00     0.004 A 
ENDBRANCH  13  14
ENDBRANCH   9  13
ENDBRANCH   4   6
ENDBRANCH   3   4
ENDBRANCH   2   3
ENDBRANCH   1   2
BRANCH   1  23
ATOM     23  O   UNL A   1      34.167  31.699  28.928  1.00  0.00    -0.458 OA
BRANCH  23  24
ATOM     24  C   UNL A   1      34.381  30.591  28.187  1.00  0.00     0.338 C 
ATOM     25  O   UNL A   1      33.587  30.022  27.447  1.00  0.00    -0.246 OA
BRANCH  24  26
ATOM     26  C   UNL A   1      35.760  30.132  28.395  1.00  0.00     0.060 A 
ATOM     27  C   UNL A   1      36.173  29.717  29.662  1.00  0.00     0.016 A 
ATOM     28  C   UNL A   1      36.669  30.182  27.340  1.00  0.00     0.016 A 
ATOM     29  C   UNL A   1      37.506  29.381  29.890  1.00  0.00     0.010 A 
ATOM     30  C   UNL A   1      37.993  29.790  27.555  1.00  0.00     0.010 A 
ATOM     31  C   UNL A   1      38.429  29.403  28.835  1.00  0.00    -0.014 A 
BRANCH  31  32
ATOM     32  C   UNL A   1      39.857  29.054  29.060  1.00  0.00     0.031 A 
ATOM     33  C   UNL A   1      40.806  30.094  29.591  1.00  0.00     0.074 A 
ATOM     34  C   UNL A   1      40.309  27.818  28.772  1.00  0.00     0.049 A 
ATOM     35  N   UNL A   1      42.111  30.054  29.680  1.00  0.00    -0.248 NA
ATOM     36  C   UNL A   1      40.208  31.349  30.075  1.00  0.00     0.031 C 
ATOM     37  C   UNL A   1      39.488  26.699  28.304  1.00  0.00     0.029 A 
ATOM     38  N   UNL A   1      41.579  27.297  28.825  1.00  0.00    -0.354 N 
ATOM     39  C   UNL A   1      42.494  31.287  30.196  1.00  0.00     0.074 A 
ATOM     40  C   UNL A   1      41.284  32.058  30.391  1.00  0.00     0.031 C 
ATOM     41  C   UNL A   1      40.273  25.624  28.124  1.00  0.00     0.029 A 
ATOM     42  C   UNL A   1      41.658  25.993  28.396  1.00  0.00     0.049 A 
ATOM     43  H   UNL A   1      42.359  27.810  29.139  1.00  0.00     0.167 HD
ATOM     44  C   UNL A   1      43.739  31.738  30.478  1.00  0.00     0.031 A 
ATOM     45  C   UNL A   1      42.727  25.196  28.203  1.00  0.00     0.031 A 
ATOM     46  C   UNL A   1      44.940  30.964  30.295  1.00  0.00     0.049 A 
ATOM     47  C   UNL A   1      44.105  25.740  28.463  1.00  0.00     0.074 A 
ATOM     48  C   UNL A   1      46.251  31.336  30.541  1.00  0.00     0.029 A 
ATOM     49  N   UNL A   1      44.974  29.658  29.833  1.00  0.00    -0.354 N 
ATOM     50  N   UNL A   1      44.453  26.926  28.901  1.00  0.00    -0.248 NA
ATOM     51  C   UNL A   1      45.234  24.839  28.190  1.00  0.00     0.031 C 
ATOM     52  C   UNL A   1      47.081  30.264  30.194  1.00  0.00     0.029 A 
ATOM     53  C   UNL A   1      46.283  29.211  29.777  1.00  0.00     0.049 A 
ATOM     54  H   UNL A   1      44.185  29.126  29.582  1.00  0.00     0.167 HD
ATOM     55  C   UNL A   1      45.841  26.908  28.973  1.00  0.00     0.074 A 
ATOM     56  C   UNL A   1      46.267  25.590  28.547  1.00  0.00     0.031 C 
ATOM     57  C   UNL A   1      46.688  27.895  29.354  1.00  0.00     0.031 A 
BRANCH  44  58
ATOM     58  C   UNL A   1      43.869  33.150  30.981  1.00  0.00    -0.014 A 
ATOM     59  C   UNL A   1      43.861  33.437  32.357  1.00  0.00     0.010 A 
ATOM     60  C   UNL A   1      44.032  34.203  30.061  1.00  0.00     0.010 A 
ATOM     61  C   UNL A   1      43.974  34.757  32.803  1.00  0.00     0.020 A 
ATOM     62  C   UNL A   1      44.169  35.522  30.505  1.00  0.00     0.020 A 
ATOM     63  C   UNL A   1      44.122  35.792  31.874  1.00  0.00     0.054 A 
BRANCH  63  64
ATOM     64  S   UNL A   1      44.279  37.495  32.478  1.00  0.00     0.124 S 
ATOM     65  O   UNL A   1      45.617  37.484  33.064  1.00  0.00    -0.237 OA
ATOM     66  O   UNL A   1      44.135  38.286  31.258  1.00  0.00    -0.237 OA
ATOM     67  O   UNL A   1      43.182  37.627  33.433  1.00  0.00    -0.744 OA
ENDBRANCH  63  64
ENDBRANCH  44  58
BRANCH  45  68
ATOM     68  C   UNL A   1      42.539  23.810  27.695  1.00  0.00    -0.014 A 
ATOM     69  C   UNL A   1      42.561  23.547  26.315  1.00  0.00     0.010 A 
ATOM     70  C   UNL A   1      42.342  22.744  28.593  1.00  0.00     0.010 A 
ATOM     71  C   UNL A   1      42.373  22.246  25.840  1.00  0.00     0.020 A 
ATOM     72  C   UNL A   1      42.180  21.439  28.123  1.00  0.00     0.020 A 
ATOM     73  C   UNL A   1      42.183  21.199  26.747  1.00  0.00     0.054 A 
BRANCH  73  74
ATOM     74  S   UNL A   1      41.992  19.509  26.115  1.00  0.00     0.124 S 
ATOM     75  O   UNL A   1      40.555  19.439  25.869  1.00  0.00    -0.237 OA
ATOM     76  O   UNL A   1      42.838  19.516  24.924  1.00  0.00    -0.237 OA
ATOM     77  O   UNL A   1      42.483  18.678  27.211  1.00  0.00    -0.744 OA
ENDBRANCH  73  74
ENDBRANCH  45  68
BRANCH  57  78
ATOM     78  C   UNL A   1      48.158  27.575  29.365  1.00  0.00    -0.014 A 
ATOM     79  C   UNL A   1      48.974  27.873  28.260  1.00  0.00     0.010 A 
ATOM     80  C   UNL A   1      48.736  27.012  30.517  1.00  0.00     0.010 A 
ATOM     81  C   UNL A   1      50.341  27.587  28.298  1.00  0.00     0.020 A 
ATOM     82  C   UNL A   1      50.105  26.746  30.566  1.00  0.00     0.020 A 
ATOM     83  C   UNL A   1      50.898  27.023  29.450  1.00  0.00     0.054 A 
BRANCH  83  84
ATOM     84  S   UNL A   1      52.683  26.702  29.494  1.00  0.00     0.124 S 
ATOM     85  O   UNL A   1      53.233  28.052  29.578  1.00  0.00    -0.237 OA
ATOM     86  O   UNL A   1      52.835  25.885  30.695  1.00  0.00    -0.237 OA
ATOM     87  O   UNL A   1      52.938  26.003  28.237  1.00  0.00    -0.744 OA
ENDBRANCH  83  84
ENDBRANCH  57  78
ENDBRANCH  31  32
ENDBRANCH  24  26
ENDBRANCH  23  24
ENDBRANCH   1  23
TORSDOF 16
ENDMDL
MODEL 2
REMARK VINA RESULT:      -9.5      2.923      5.752
REMARK SMILES C[C@@H]1[C@@H](C(=O)OCCOC(=O)c2ccc(-c3c4nc(c(-c5ccc(S(=O)(=O)[O-])cc5)c5ccc([nH]5)c(-c5ccc(S(=O)(=O)[O-])cc5)c5nc(c(-c6ccc(S(=O)(=O)[O-])cc6)c6ccc3[nH]6)C=C5)C=C4)cc2)CC[N@@H+]1C[C@H]1Cc2ccccc2O1
REMARK SMILES IDX 8 1 7 2 6 3 4 4 5 5 3 6 1 7 2 8 74 9 72 10 73 11 75 13 76 14
REMARK SMILES IDX 77 15 84 16 78 17 83 18 79 19 82 20 80 21 81 22 9 23 10 24
REMARK SMILES IDX 11 25 12 26 13 27 71 28 14 29 70 30 15 31 16 32 17 33 64 34
REMARK SMILES IDX 18 35 69 36 63 37 65 38 19 39 68 40 62 41 61 42 20 44 50 45
REMARK SMILES IDX 31 46 49 47 32 48 35 49 48 50 66 51 33 52 34 53 47 55 67 56
REMARK SMILES IDX 36 57 21 58 22 59 30 60 23 61 29 62 24 63 25 64 26 65 27 66
REMARK SMILES IDX 28 67 51 68 52 69 60 70 53 71 59 72 54 73 55 74 56 75 57 76
REMARK SMILES IDX 58 77 37 78 38 79 46 80 39 81 45 82 40 83 41 84 42 85 43 86
REMARK SMILES IDX 44 87
REMARK H PARENT 74 12 65 43 35 54
REMARK Flexibility Score: inf
ROOT
ATOM      1  C   UNL A   1      32.381  29.575  27.226  1.00  0.00     0.275 C 
ENDROOT
BRANCH   1   2
ATOM      2  C   UNL A   1      31.924  29.736  25.779  1.00  0.00     0.274 C 
BRANCH   2   3
ATOM      3  O   UNL A   1      32.753  28.911  24.942  1.00  0.00    -0.462 OA
BRANCH   3   4
ATOM      4  C   UNL A   1      32.216  28.515  23.759  1.00  0.00     0.315 C 
ATOM      5  O   UNL A   1      32.123  29.216  22.760  1.00  0.00    -0.252 OA
BRANCH   4   6
ATOM      6  C   UNL A   1      31.757  27.072  23.790  1.00  0.00     0.162 C 
ATOM      7  C   UNL A   1      31.336  25.879  25.957  1.00  0.00     0.076 C 
ATOM      8  C   UNL A   1      32.406  26.307  24.948  1.00  0.00     0.195 C 
ATOM      9  N   UNL A   1      33.233  25.268  24.313  1.00  0.00    -0.329 N 
ATOM     10  C   UNL A   1      32.083  26.275  22.534  1.00  0.00     0.083 C 
ATOM     11  C   UNL A   1      33.363  25.552  22.892  1.00  0.00     0.263 C 
ATOM     12  H   UNL A   1      34.141  25.365  24.768  1.00  0.00     0.348 HD
BRANCH   9  13
ATOM     13  C   UNL A   1      33.146  23.871  24.719  1.00  0.00     0.308 C 
BRANCH  13  14
ATOM     14  C   UNL A   1      34.360  23.181  25.369  1.00  0.00     0.232 C 
ATOM     15  C   UNL A   1      35.036  22.088  24.530  1.00  0.00     0.090 C 
ATOM     16  O   UNL A   1      35.380  24.192  25.651  1.00  0.00    -0.484 OA
ATOM     17  C   UNL A   1      36.399  22.200  25.099  1.00  0.00    -0.002 A 
ATOM     18  C   UNL A   1      36.534  23.448  25.691  1.00  0.00     0.123 A 
ATOM     19  C   UNL A   1      37.445  21.298  25.088  1.00  0.00     0.007 A 
ATOM     20  C   UNL A   1      37.715  23.858  26.269  1.00  0.00     0.047 A 
ATOM     21  C   UNL A   1      38.642  21.680  25.698  1.00  0.00     0.001 A 
ATOM     22  C   UNL A   1      38.778  22.953  26.278  1.00  0.00     0.004 A 
ENDBRANCH  13  14
ENDBRANCH   9  13
ENDBRANCH   4   6
ENDBRANCH   3   4
ENDBRANCH   2   3
ENDBRANCH   1   2
BRANCH   1  23
ATOM     23  O   UNL A   1      33.818  29.469  27.260  1.00  0.00    -0.458 OA
BRANCH  23  24
ATOM     24  C   UNL A   1      34.471  30.407  27.980  1.00  0.00     0.338 C 
ATOM     25  O   UNL A   1      34.030  31.472  28.394  1.00  0.00    -0.246 OA
BRANCH  24  26
ATOM     26  C   UNL A   1      35.851  29.961  28.211  1.00  0.00     0.060 A 
ATOM     27  C   UNL A   1      36.237  29.518  29.477  1.00  0.00     0.016 A 
ATOM     28  C   UNL A   1      36.785  30.052  27.181  1.00  0.00     0.016 A 
ATOM     29  C   UNL A   1      37.569  29.194  29.730  1.00  0.00     0.010 A 
ATOM     30  C   UNL A   1      38.109  29.672  27.420  1.00  0.00     0.010 A 
ATOM     31  C   UNL A   1      38.518  29.256  28.700  1.00  0.00    -0.014 A 
BRANCH  31  32
ATOM     32  C   UNL A   1      39.944  28.921  28.952  1.00  0.00     0.031 A 
ATOM     33  C   UNL A   1      40.873  29.968  29.505  1.00  0.00     0.074 A 
ATOM     34  C   UNL A   1      40.414  27.690  28.669  1.00  0.00     0.049 A 
ATOM     35  N   UNL A   1      42.175  29.940  29.620  1.00  0.00    -0.248 NA
ATOM     36  C   UNL A   1      40.253  31.215  29.981  1.00  0.00     0.031 C 
ATOM     37  C   UNL A   1      39.614  26.565  28.182  1.00  0.00     0.029 A 
ATOM     38  N   UNL A   1      41.688  27.181  28.745  1.00  0.00    -0.354 N 
ATOM     39  C   UNL A   1      42.536  31.176  30.147  1.00  0.00     0.074 A 
ATOM     40  C   UNL A   1      41.315  31.934  30.320  1.00  0.00     0.031 C 
ATOM     41  C   UNL A   1      40.412  25.498  28.014  1.00  0.00     0.029 A 
ATOM     42  C   UNL A   1      41.788  25.880  28.314  1.00  0.00     0.049 A 
ATOM     43  H   UNL A   1      42.456  27.701  29.077  1.00  0.00     0.167 HD
ATOM     44  C   UNL A   1      43.771  31.637  30.455  1.00  0.00     0.031 A 
ATOM     45  C   UNL A   1      42.868  25.094  28.140  1.00  0.00     0.031 A 
ATOM     46  C   UNL A   1      44.982  30.877  30.294  1.00  0.00     0.049 A 
ATOM     47  C   UNL A   1      44.235  25.650  28.429  1.00  0.00     0.074 A 
ATOM     48  C   UNL A   1      46.285  31.260  30.567  1.00  0.00     0.029 A 
ATOM     49  N   UNL A   1      45.039  29.572  29.829  1.00  0.00    -0.354 N 
ATOM     50  N   UNL A   1      44.563  26.838  28.877  1.00  0.00    -0.248 NA
ATOM     51  C   UNL A   1      45.378  24.761  28.176  1.00  0.00     0.031 C 
ATOM     52  C   UNL A   1      47.132  30.197  30.233  1.00  0.00     0.029 A 
ATOM     53  C   UNL A   1      46.353  29.138  29.797  1.00  0.00     0.049 A 
ATOM     54  H   UNL A   1      44.260  29.033  29.560  1.00  0.00     0.167 HD
ATOM     55  C   UNL A   1      45.950  26.833  28.977  1.00  0.00     0.074 A 
ATOM     56  C   UNL A   1      46.397  25.521  28.556  1.00  0.00     0.031 C 
ATOM     57  C   UNL A   1      46.779  27.827  29.378  1.00  0.00     0.031 A 
BRANCH  44  58
ATOM     58  C   UNL A   1      43.877  33.049  30.965  1.00  0.00    -0.014 A 
ATOM     59  C   UNL A   1      43.778  33.338  32.337  1.00  0.00     0.010 A 
ATOM     60  C   UNL A   1      44.110  34.100  30.058  1.00  0.00     0.010 A 
ATOM     61  C   UNL A   1      43.870  34.658  32.789  1.00  0.00     0.020 A 
ATOM     62  C   UNL A   1      44.227  35.418  30.509  1.00  0.00     0.020 A 
ATOM     63  C   UNL A   1      44.088  35.690  31.871  1.00  0.00     0.054 A 
BRANCH  63  64
ATOM     64  S   UNL A   1      44.217  37.393  32.485  1.00  0.00     0.124 S 
ATOM     65  O   UNL A   1      43.869  38.167  31.295  1.00  0.00    -0.237 OA
ATOM     66  O   UNL A   1      43.231  37.423  33.563  1.00  0.00    -0.237 OA
ATOM     67  O   UNL A   1      45.608  37.503  32.915  1.00  0.00    -0.744 OA
ENDBRANCH  63  64
ENDBRANCH  44  58
BRANCH  45  68
ATOM     68  C   UNL A   1      42.705  23.707  27.625  1.00  0.00    -0.014 A 
ATOM     69  C   UNL A   1      42.901  23.426  26.262  1.00  0.00     0.010 A 
ATOM     70  C   UNL A   1      42.354  22.660  28.497  1.00  0.00     0.010 A 
ATOM     71  C   UNL A   1      42.735  22.125  25.777  1.00  0.00     0.020 A 
ATOM     72  C   UNL A   1      42.214  21.355  28.022  1.00  0.00     0.020 A 
ATOM     73  C   UNL A   1      42.392  21.097  26.661  1.00  0.00     0.054 A 
BRANCH  73  74
ATOM     74  S   UNL A   1      42.231  19.405  26.024  1.00  0.00     0.124 S 
ATOM     75  O   UNL A   1      40.789  19.293  25.827  1.00  0.00    -0.237 OA
ATOM     76  O   UNL A   1      43.035  19.445  24.805  1.00  0.00    -0.237 OA
ATOM     77  O   UNL A   1      42.784  18.584  27.097  1.00  0.00    -0.744 OA
ENDBRANCH  73  74
ENDBRANCH  45  68
BRANCH  57  78
ATOM     78  C   UNL A   1      48.251  27.522  29.417  1.00  0.00    -0.014 A 
ATOM     79  C   UNL A   1      49.087  27.833  28.331  1.00  0.00     0.010 A 
ATOM     80  C   UNL A   1      48.812  26.958  30.578  1.00  0.00     0.010 A 
ATOM     81  C   UNL A   1      50.455  27.560  28.394  1.00  0.00     0.020 A 
ATOM     82  C   UNL A   1      50.183  26.705  30.653  1.00  0.00     0.020 A 
ATOM     83  C   UNL A   1      50.995  26.996  29.555  1.00  0.00     0.054 A 
BRANCH  83  84
ATOM     84  S   UNL A   1      52.782  26.692  29.633  1.00  0.00     0.124 S 
ATOM     85  O   UNL A   1      53.035  26.042  28.350  1.00  0.00    -0.237 OA
ATOM     86  O   UNL A   1      53.333  28.037  29.776  1.00  0.00    -0.237 OA
ATOM     87  O   UNL A   1      52.934  25.835  30.807  1.00  0.00    -0.744 OA
ENDBRANCH  83  84
ENDBRANCH  57  78
ENDBRANCH  31  32
ENDBRANCH  24  26
ENDBRANCH  23  24
ENDBRANCH   1  23
TORSDOF 16
ENDMDL
MODEL 3
REMARK VINA RESULT:      -9.2      2.875     11.196
REMARK SMILES C[C@@H]1[C@@H](C(=O)OCCOC(=O)c2ccc(-c3c4nc(c(-c5ccc(S(=O)(=O)[O-])cc5)c5ccc([nH]5)c(-c5ccc(S(=O)(=O)[O-])cc5)c5nc(c(-c6ccc(S(=O)(=O)[O-])cc6)c6ccc3[nH]6)C=C5)C=C4)cc2)CC[N@@H+]1C[C@H]1Cc2ccccc2O1
REMARK SMILES IDX 8 1 7 2 6 3 4 4 5 5 3 6 1 7 2 8 74 9 72 10 73 11 75 13 76 14
REMARK SMILES IDX 77 15 84 16 78 17 83 18 79 19 82 20 80 21 81 22 9 23 10 24
REMARK SMILES IDX 11 25 12 26 13 27 71 28 14 29 70 30 15 31 16 32 17 33 64 34
REMARK SMILES IDX 18 35 69 36 63 37 65 38 19 39 68 40 62 41 61 42 20 44 50 45
REMARK SMILES IDX 31 46 49 47 32 48 35 49 48 50 66 51 33 52 34 53 47 55 67 56
REMARK SMILES IDX 36 57 21 58 22 59 30 60 23 61 29 62 24 63 25 64 26 65 27 66
REMARK SMILES IDX 28 67 51 68 52 69 60 70 53 71 59 72 54 73 55 74 56 75 57 76
REMARK SMILES IDX 58 77 37 78 38 79 46 80 39 81 45 82 40 83 41 84 42 85 43 86
REMARK SMILES IDX 44 87
REMARK H PARENT 74 12 65 43 35 54
REMARK Flexibility Score: inf
ROOT
ATOM      1  C   UNL A   1      40.823  21.826  27.143  1.00  0.00     0.275 C 
ENDROOT
BRANCH   1   2
ATOM      2  C   UNL A   1      41.428  20.868  26.121  1.00  0.00     0.274 C 
BRANCH   2   3
ATOM      3  O   UNL A   1      42.499  21.542  25.438  1.00  0.00    -0.462 OA
BRANCH   3   4
ATOM      4  C   UNL A   1      43.659  20.850  25.296  1.00  0.00     0.315 C 
ATOM      5  O   UNL A   1      43.750  19.715  24.846  1.00  0.00    -0.252 OA
BRANCH   4   6
ATOM      6  C   UNL A   1      44.866  21.653  25.737  1.00  0.00     0.162 C 
ATOM      7  C   UNL A   1      44.677  23.450  27.478  1.00  0.00     0.076 C 
ATOM      8  C   UNL A   1      44.495  23.117  25.993  1.00  0.00     0.195 C 
ATOM      9  N   UNL A   1      45.254  23.891  24.997  1.00  0.00    -0.329 N 
ATOM     10  C   UNL A   1      46.007  21.686  24.730  1.00  0.00     0.083 C 
ATOM     11  C   UNL A   1      45.795  22.990  23.992  1.00  0.00     0.263 C 
ATOM     12  H   UNL A   1      44.553  24.500  24.574  1.00  0.00     0.348 HD
BRANCH   9  13
ATOM     13  C   UNL A   1      46.063  25.041  25.382  1.00  0.00     0.308 C 
BRANCH  13  14
ATOM     14  C   UNL A   1      45.463  26.459  25.325  1.00  0.00     0.232 C 
ATOM     15  C   UNL A   1      43.932  26.539  25.390  1.00  0.00     0.090 C 
ATOM     16  O   UNL A   1      45.977  27.234  26.455  1.00  0.00    -0.484 OA
ATOM     17  C   UNL A   1      43.819  27.890  25.988  1.00  0.00    -0.002 A 
ATOM     18  C   UNL A   1      45.017  28.202  26.614  1.00  0.00     0.123 A 
ATOM     19  C   UNL A   1      42.754  28.769  26.004  1.00  0.00     0.007 A 
ATOM     20  C   UNL A   1      45.196  29.383  27.299  1.00  0.00     0.047 A 
ATOM     21  C   UNL A   1      42.925  29.988  26.664  1.00  0.00     0.001 A 
ATOM     22  C   UNL A   1      44.135  30.290  27.313  1.00  0.00     0.004 A 
ENDBRANCH  13  14
ENDBRANCH   9  13
ENDBRANCH   4   6
ENDBRANCH   3   4
ENDBRANCH   2   3
ENDBRANCH   1   2
BRANCH   1  23
ATOM     23  O   UNL A   1      39.387  21.802  27.022  1.00  0.00    -0.458 OA
BRANCH  23  24
ATOM     24  C   UNL A   1      38.828  22.817  26.328  1.00  0.00     0.338 C 
ATOM     25  O   UNL A   1      38.105  22.738  25.342  1.00  0.00    -0.246 OA
BRANCH  24  26
ATOM     26  C   UNL A   1      39.220  24.092  26.942  1.00  0.00     0.060 A 
ATOM     27  C   UNL A   1      39.973  25.014  26.213  1.00  0.00     0.016 A 
ATOM     28  C   UNL A   1      38.897  24.342  28.274  1.00  0.00     0.016 A 
ATOM     29  C   UNL A   1      40.437  26.178  26.823  1.00  0.00     0.010 A 
ATOM     30  C   UNL A   1      39.314  25.537  28.868  1.00  0.00     0.010 A 
ATOM     31  C   UNL A   1      40.103  26.458  28.155  1.00  0.00    -0.014 A 
BRANCH  31  32
ATOM     32  C   UNL A   1      40.594  27.691  28.825  1.00  0.00     0.031 A 
ATOM     33  C   UNL A   1      41.981  27.724  29.408  1.00  0.00     0.074 A 
ATOM     34  C   UNL A   1      39.796  28.772  28.930  1.00  0.00     0.049 A 
ATOM     35  N   UNL A   1      42.529  28.621  30.187  1.00  0.00    -0.248 NA
ATOM     36  C   UNL A   1      42.863  26.593  29.078  1.00  0.00     0.031 C 
ATOM     37  C   UNL A   1      38.452  28.896  28.364  1.00  0.00     0.029 A 
ATOM     38  N   UNL A   1      40.002  29.975  29.561  1.00  0.00    -0.354 N 
ATOM     39  C   UNL A   1      43.806  28.147  30.470  1.00  0.00     0.074 A 
ATOM     40  C   UNL A   1      43.947  26.879  29.787  1.00  0.00     0.031 C 
ATOM     41  C   UNL A   1      37.959  30.109  28.662  1.00  0.00     0.029 A 
ATOM     42  C   UNL A   1      38.920  30.822  29.498  1.00  0.00     0.049 A 
ATOM     43  H   UNL A   1      40.843  30.207  30.016  1.00  0.00     0.167 HD
ATOM     44  C   UNL A   1      44.770  28.715  31.233  1.00  0.00     0.031 A 
ATOM     45  C   UNL A   1      38.708  32.019  30.080  1.00  0.00     0.031 A 
ATOM     46  C   UNL A   1      44.631  29.982  31.901  1.00  0.00     0.049 A 
ATOM     47  C   UNL A   1      39.769  32.599  30.973  1.00  0.00     0.074 A 
ATOM     48  C   UNL A   1      45.547  30.638  32.706  1.00  0.00     0.029 A 
ATOM     49  N   UNL A   1      43.509  30.793  31.830  1.00  0.00    -0.354 N 
ATOM     50  N   UNL A   1      40.950  32.114  31.272  1.00  0.00    -0.248 NA
ATOM     51  C   UNL A   1      39.462  33.885  31.616  1.00  0.00     0.031 C 
ATOM     52  C   UNL A   1      44.964  31.830  33.150  1.00  0.00     0.029 A 
ATOM     53  C   UNL A   1      43.704  31.937  32.585  1.00  0.00     0.049 A 
ATOM     54  H   UNL A   1      42.693  30.586  31.320  1.00  0.00     0.167 HD
ATOM     55  C   UNL A   1      41.534  33.044  32.125  1.00  0.00     0.074 A 
ATOM     56  C   UNL A   1      40.583  34.126  32.282  1.00  0.00     0.031 C 
ATOM     57  C   UNL A   1      42.748  33.004  32.727  1.00  0.00     0.031 A 
BRANCH  44  58
ATOM     58  C   UNL A   1      46.052  27.948  31.415  1.00  0.00    -0.014 A 
ATOM     59  C   UNL A   1      46.182  26.977  32.423  1.00  0.00     0.010 A 
ATOM     60  C   UNL A   1      47.131  28.181  30.543  1.00  0.00     0.010 A 
ATOM     61  C   UNL A   1      47.385  26.281  32.581  1.00  0.00     0.020 A 
ATOM     62  C   UNL A   1      48.327  27.470  30.683  1.00  0.00     0.020 A 
ATOM     63  C   UNL A   1      48.451  26.536  31.714  1.00  0.00     0.054 A 
BRANCH  63  64
ATOM     64  S   UNL A   1      49.997  25.611  31.932  1.00  0.00     0.124 S 
ATOM     65  O   UNL A   1      50.957  26.685  32.176  1.00  0.00    -0.237 OA
ATOM     66  O   UNL A   1      49.703  24.758  33.082  1.00  0.00    -0.237 OA
ATOM     67  O   UNL A   1      50.161  24.906  30.664  1.00  0.00    -0.744 OA
ENDBRANCH  63  64
ENDBRANCH  44  58
BRANCH  45  68
ATOM     68  C   UNL A   1      37.417  32.729  29.870  1.00  0.00    -0.014 A 
ATOM     69  C   UNL A   1      37.197  33.478  28.702  1.00  0.00     0.010 A 
ATOM     70  C   UNL A   1      36.399  32.655  30.839  1.00  0.00     0.010 A 
ATOM     71  C   UNL A   1      35.988  34.154  28.513  1.00  0.00     0.020 A 
ATOM     72  C   UNL A   1      35.180  33.307  30.641  1.00  0.00     0.020 A 
ATOM     73  C   UNL A   1      34.987  34.065  29.484  1.00  0.00     0.054 A 
BRANCH  73  74
ATOM     74  S   UNL A   1      33.404  34.907  29.198  1.00  0.00     0.124 S 
ATOM     75  O   UNL A   1      32.818  34.908  30.534  1.00  0.00    -0.237 OA
ATOM     76  O   UNL A   1      33.824  36.211  28.690  1.00  0.00    -0.237 OA
ATOM     77  O   UNL A   1      32.737  34.053  28.219  1.00  0.00    -0.744 OA
ENDBRANCH  73  74
ENDBRANCH  45  68
BRANCH  57  78
ATOM     78  C   UNL A   1      43.131  34.182  33.580  1.00  0.00    -0.014 A 
ATOM     79  C   UNL A   1      44.052  35.141  33.125  1.00  0.00     0.010 A 
ATOM     80  C   UNL A   1      42.523  34.353  34.837  1.00  0.00     0.010 A 
ATOM     81  C   UNL A   1      44.379  36.238  33.925  1.00  0.00     0.020 A 
ATOM     82  C   UNL A   1      42.831  35.461  35.630  1.00  0.00     0.020 A 
ATOM     83  C   UNL A   1      43.768  36.390  35.173  1.00  0.00     0.054 A 
BRANCH  83  84
ATOM     84  S   UNL A   1      44.174  37.847  36.177  1.00  0.00     0.124 S 
ATOM     85  O   UNL A   1      43.860  38.942  35.263  1.00  0.00    -0.237 OA
ATOM     86  O   UNL A   1      43.279  37.709  37.323  1.00  0.00    -0.237 OA
ATOM     87  O   UNL A   1      45.593  37.673  36.478  1.00  0.00    -0.744 OA
ENDBRANCH  83  84
ENDBRANCH  57  78
ENDBRANCH  31  32
ENDBRANCH  24  26
ENDBRANCH  23  24
ENDBRANCH   1  23
TORSDOF 16
ENDMDL
