MODEL 1
REMARK VINA RESULT:     -10.5      0.000      0.000
REMARK SMILES O=C(Nc1ccccc1C(=O)OCCOC(=O)c1ccc(-c2c3nc(c(-c4ccc(S(=O)(=O)[O-])cc4)c4ccc([nH]4)c(-c4ccc(S(=O)(=O)[O-])cc4)c4nc(c(-c5ccc(S(=O)(=O)[O-])cc5)c5ccc2[nH]5)C=C4)C=C3)cc1)c1ccncc1
REMARK SMILES IDX 14 1 13 2 12 3 10 4 11 5 9 6 4 7 5 8 6 9 8 10 7 11 3 12 1 13
REMARK SMILES IDX 2 14 78 16 79 17 83 18 80 19 82 20 81 21 15 22 16 23 17 24
REMARK SMILES IDX 18 25 19 26 77 27 20 28 76 29 21 30 22 31 23 32 70 33 24 34
REMARK SMILES IDX 75 35 69 36 71 37 25 38 74 39 68 40 67 41 26 43 56 44 37 45
REMARK SMILES IDX 55 46 38 47 41 48 54 49 72 50 39 51 40 52 53 54 73 55 42 56
REMARK SMILES IDX 27 57 28 58 36 59 29 60 35 61 30 62 31 63 32 64 33 65 34 66
REMARK SMILES IDX 57 67 58 68 66 69 59 70 65 71 60 72 61 73 62 74 63 75 64 76
REMARK SMILES IDX 43 77 44 78 52 79 45 80 51 81 46 82 47 83 48 84 49 85 50 86
REMARK H PARENT 3 15 71 42 41 53
REMARK Flexibility Score: inf
ROOT
ATOM      1  C   UNL A   1      33.151  31.532  27.727  1.00  0.00     0.275 C 
ENDROOT
BRANCH   1   2
ATOM      2  C   UNL A   1      33.602  32.947  28.093  1.00  0.00     0.275 C 
BRANCH   2   3
ATOM      3  O   UNL A   1      34.658  32.984  29.078  1.00  0.00    -0.458 OA
BRANCH   3   4
ATOM      4  C   UNL A   1      35.866  33.391  28.611  1.00  0.00     0.340 C 
ATOM      5  O   UNL A   1      36.198  33.429  27.442  1.00  0.00    -0.246 OA
BRANCH   4   6
ATOM      6  C   UNL A   1      36.798  33.774  29.697  1.00  0.00     0.083 A 
ATOM      7  C   UNL A   1      36.493  33.663  31.060  1.00  0.00     0.056 A 
ATOM      8  C   UNL A   1      37.430  34.129  32.001  1.00  0.00     0.027 A 
ATOM      9  C   UNL A   1      38.695  34.575  31.607  1.00  0.00     0.002 A 
ATOM     10  C   UNL A   1      38.073  34.233  29.318  1.00  0.00     0.018 A 
ATOM     11  C   UNL A   1      39.024  34.609  30.263  1.00  0.00     0.001 A 
BRANCH   7  12
ATOM     12  N   UNL A   1      35.325  33.095  31.608  1.00  0.00    -0.321 N 
ATOM     13  O   UNL A   1      33.545  32.905  32.974  1.00  0.00    -0.269 OA
ATOM     14  C   UNL A   1      34.290  33.645  32.332  1.00  0.00     0.255 C 
ATOM     15  H   UNL A   1      35.231  32.128  31.443  1.00  0.00     0.170 HD
BRANCH  14  16
ATOM     16  C   UNL A   1      33.977  35.096  32.284  1.00  0.00     0.043 A 
ATOM     17  C   UNL A   1      33.294  35.581  31.166  1.00  0.00     0.034 A 
ATOM     18  C   UNL A   1      34.336  35.979  33.305  1.00  0.00     0.034 A 
ATOM     19  C   UNL A   1      32.927  36.913  31.154  1.00  0.00     0.112 A 
ATOM     20  C   UNL A   1      33.920  37.295  33.196  1.00  0.00     0.112 A 
ATOM     21  N   UNL A   1      33.232  37.781  32.140  1.00  0.00    -0.265 NA
ENDBRANCH  14  16
ENDBRANCH   7  12
ENDBRANCH   4   6
ENDBRANCH   3   4
ENDBRANCH   2   3
ENDBRANCH   1   2
BRANCH   1  22
ATOM     22  O   UNL A   1      34.159  30.834  26.977  1.00  0.00    -0.458 OA
BRANCH  22  23
ATOM     23  C   UNL A   1      34.545  29.669  27.538  1.00  0.00     0.338 C 
ATOM     24  O   UNL A   1      33.945  28.605  27.519  1.00  0.00    -0.246 OA
BRANCH  23  25
ATOM     25  C   UNL A   1      35.880  29.786  28.128  1.00  0.00     0.060 A 
ATOM     26  C   UNL A   1      36.938  30.040  27.264  1.00  0.00     0.016 A 
ATOM     27  C   UNL A   1      36.125  29.381  29.434  1.00  0.00     0.016 A 
ATOM     28  C   UNL A   1      38.232  29.716  27.618  1.00  0.00     0.010 A 
ATOM     29  C   UNL A   1      37.448  29.192  29.843  1.00  0.00     0.010 A 
ATOM     30  C   UNL A   1      38.506  29.301  28.919  1.00  0.00    -0.014 A 
BRANCH  30  31
ATOM     31  C   UNL A   1      39.892  28.925  29.283  1.00  0.00     0.031 A 
ATOM     32  C   UNL A   1      40.751  29.914  30.020  1.00  0.00     0.074 A 
ATOM     33  C   UNL A   1      40.359  27.699  28.977  1.00  0.00     0.049 A 
ATOM     34  N   UNL A   1      42.039  29.886  30.234  1.00  0.00    -0.248 NA
ATOM     35  C   UNL A   1      40.076  31.103  30.570  1.00  0.00     0.031 C 
ATOM     36  C   UNL A   1      39.585  26.621  28.349  1.00  0.00     0.029 A 
ATOM     37  N   UNL A   1      41.601  27.147  29.155  1.00  0.00    -0.354 N 
ATOM     38  C   UNL A   1      42.341  31.084  30.871  1.00  0.00     0.074 A 
ATOM     39  C   UNL A   1      41.101  31.816  31.013  1.00  0.00     0.031 C 
ATOM     40  C   UNL A   1      40.357  25.535  28.224  1.00  0.00     0.029 A 
ATOM     41  C   UNL A   1      41.707  25.873  28.649  1.00  0.00     0.049 A 
ATOM     42  H   UNL A   1      42.342  27.617  29.601  1.00  0.00     0.167 HD
ATOM     43  C   UNL A   1      43.550  31.529  31.285  1.00  0.00     0.031 A 
ATOM     44  C   UNL A   1      42.787  25.089  28.480  1.00  0.00     0.031 A 
ATOM     45  C   UNL A   1      44.759  30.759  31.159  1.00  0.00     0.049 A 
ATOM     46  C   UNL A   1      44.127  25.631  28.884  1.00  0.00     0.074 A 
ATOM     47  C   UNL A   1      46.042  31.096  31.552  1.00  0.00     0.029 A 
ATOM     48  N   UNL A   1      44.830  29.488  30.604  1.00  0.00    -0.354 N 
ATOM     49  N   UNL A   1      44.413  26.788  29.434  1.00  0.00    -0.248 NA
ATOM     50  C   UNL A   1      45.288  24.771  28.635  1.00  0.00     0.031 C 
ATOM     51  C   UNL A   1      46.898  30.055  31.178  1.00  0.00     0.029 A 
ATOM     52  C   UNL A   1      46.139  29.037  30.621  1.00  0.00     0.049 A 
ATOM     53  H   UNL A   1      44.064  28.982  30.251  1.00  0.00     0.167 HD
ATOM     54  C   UNL A   1      45.789  26.785  29.620  1.00  0.00     0.074 A 
ATOM     55  C   UNL A   1      46.271  25.503  29.141  1.00  0.00     0.031 C 
ATOM     56  C   UNL A   1      46.585  27.753  30.139  1.00  0.00     0.031 A 
BRANCH  43  57
ATOM     57  C   UNL A   1      43.633  32.925  31.848  1.00  0.00    -0.014 A 
ATOM     58  C   UNL A   1      43.634  33.174  33.231  1.00  0.00     0.010 A 
ATOM     59  C   UNL A   1      43.738  34.015  30.961  1.00  0.00     0.010 A 
ATOM     60  C   UNL A   1      43.698  34.483  33.716  1.00  0.00     0.020 A 
ATOM     61  C   UNL A   1      43.835  35.324  31.442  1.00  0.00     0.020 A 
ATOM     62  C   UNL A   1      43.798  35.551  32.818  1.00  0.00     0.054 A 
BRANCH  62  63
ATOM     63  S   UNL A   1      43.904  37.238  33.476  1.00  0.00     0.124 S 
ATOM     64  O   UNL A   1      42.686  37.328  34.276  1.00  0.00    -0.237 OA
ATOM     65  O   UNL A   1      45.152  37.206  34.236  1.00  0.00    -0.237 OA
ATOM     66  O   UNL A   1      43.928  38.077  32.281  1.00  0.00    -0.744 OA
ENDBRANCH  62  63
ENDBRANCH  43  57
BRANCH  44  67
ATOM     67  C   UNL A   1      42.642  23.747  27.852  1.00  0.00    -0.014 A 
ATOM     68  C   UNL A   1      42.855  23.576  26.474  1.00  0.00     0.010 A 
ATOM     69  C   UNL A   1      42.316  22.622  28.636  1.00  0.00     0.010 A 
ATOM     70  C   UNL A   1      42.731  22.313  25.889  1.00  0.00     0.020 A 
ATOM     71  C   UNL A   1      42.228  21.351  28.062  1.00  0.00     0.020 A 
ATOM     72  C   UNL A   1      42.422  21.207  26.688  1.00  0.00     0.054 A 
BRANCH  72  73
ATOM     73  S   UNL A   1      42.314  19.572  25.911  1.00  0.00     0.124 S 
ATOM     74  O   UNL A   1      40.917  19.528  25.492  1.00  0.00    -0.237 OA
ATOM     75  O   UNL A   1      43.294  19.670  24.833  1.00  0.00    -0.237 OA
ATOM     76  O   UNL A   1      42.673  18.655  26.990  1.00  0.00    -0.744 OA
ENDBRANCH  72  73
ENDBRANCH  44  67
BRANCH  56  77
ATOM     77  C   UNL A   1      48.050  27.436  30.262  1.00  0.00    -0.014 A 
ATOM     78  C   UNL A   1      48.962  27.783  29.250  1.00  0.00     0.010 A 
ATOM     79  C   UNL A   1      48.522  26.822  31.436  1.00  0.00     0.010 A 
ATOM     80  C   UNL A   1      50.319  27.488  29.397  1.00  0.00     0.020 A 
ATOM     81  C   UNL A   1      49.882  26.558  31.601  1.00  0.00     0.020 A 
ATOM     82  C   UNL A   1      50.770  26.879  30.573  1.00  0.00     0.054 A 
BRANCH  82  83
ATOM     83  S   UNL A   1      52.542  26.549  30.758  1.00  0.00     0.124 S 
ATOM     84  O   UNL A   1      52.541  25.289  31.495  1.00  0.00    -0.237 OA
ATOM     85  O   UNL A   1      52.997  26.466  29.372  1.00  0.00    -0.237 OA
ATOM     86  O   UNL A   1      53.035  27.706  31.501  1.00  0.00    -0.744 OA
ENDBRANCH  82  83
ENDBRANCH  56  77
ENDBRANCH  30  31
ENDBRANCH  23  25
ENDBRANCH  22  23
ENDBRANCH   1  22
TORSDOF 16
ENDMDL
MODEL 2
REMARK VINA RESULT:     -10.3      1.229      2.349
REMARK SMILES O=C(Nc1ccccc1C(=O)OCCOC(=O)c1ccc(-c2c3nc(c(-c4ccc(S(=O)(=O)[O-])cc4)c4ccc([nH]4)c(-c4ccc(S(=O)(=O)[O-])cc4)c4nc(c(-c5ccc(S(=O)(=O)[O-])cc5)c5ccc2[nH]5)C=C4)C=C3)cc1)c1ccncc1
REMARK SMILES IDX 14 1 13 2 12 3 10 4 11 5 9 6 4 7 5 8 6 9 8 10 7 11 3 12 1 13
REMARK SMILES IDX 2 14 78 16 79 17 83 18 80 19 82 20 81 21 15 22 16 23 17 24
REMARK SMILES IDX 18 25 19 26 77 27 20 28 76 29 21 30 22 31 23 32 70 33 24 34
REMARK SMILES IDX 75 35 69 36 71 37 25 38 74 39 68 40 67 41 26 43 56 44 37 45
REMARK SMILES IDX 55 46 38 47 41 48 54 49 72 50 39 51 40 52 53 54 73 55 42 56
REMARK SMILES IDX 27 57 28 58 36 59 29 60 35 61 30 62 31 63 32 64 33 65 34 66
REMARK SMILES IDX 57 67 58 68 66 69 59 70 65 71 60 72 61 73 62 74 63 75 64 76
REMARK SMILES IDX 43 77 44 78 52 79 45 80 51 81 46 82 47 83 48 84 49 85 50 86
REMARK H PARENT 3 15 71 42 41 53
REMARK Flexibility Score: inf
ROOT
ATOM      1  C   UNL A   1      33.442  31.725  27.966  1.00  0.00     0.275 C 
ENDROOT
BRANCH   1   2
ATOM      2  C   UNL A   1      34.088  33.106  28.070  1.00  0.00     0.275 C 
BRANCH   2   3
ATOM      3  O   UNL A   1      34.060  33.663  29.403  1.00  0.00    -0.458 OA
BRANCH   3   4
ATOM      4  C   UNL A   1      34.848  33.030  30.308  1.00  0.00     0.340 C 
ATOM      5  O   UNL A   1      34.490  32.154  31.071  1.00  0.00    -0.246 OA
BRANCH   4   6
ATOM      6  C   UNL A   1      36.239  33.540  30.309  1.00  0.00     0.083 A 
ATOM      7  C   UNL A   1      36.870  34.076  31.439  1.00  0.00     0.056 A 
ATOM      8  C   UNL A   1      38.169  34.600  31.301  1.00  0.00     0.027 A 
ATOM      9  C   UNL A   1      38.878  34.479  30.103  1.00  0.00     0.002 A 
ATOM     10  C   UNL A   1      36.964  33.434  29.107  1.00  0.00     0.018 A 
ATOM     11  C   UNL A   1      38.281  33.877  29.008  1.00  0.00     0.001 A 
BRANCH   7  12
ATOM     12  N   UNL A   1      36.339  34.126  32.744  1.00  0.00    -0.321 N 
ATOM     13  O   UNL A   1      35.502  33.343  34.683  1.00  0.00    -0.269 OA
ATOM     14  C   UNL A   1      36.291  33.187  33.751  1.00  0.00     0.255 C 
ATOM     15  H   UNL A   1      35.927  34.990  32.979  1.00  0.00     0.170 HD
BRANCH  14  16
ATOM     16  C   UNL A   1      37.233  32.040  33.807  1.00  0.00     0.043 A 
ATOM     17  C   UNL A   1      38.367  32.165  34.613  1.00  0.00     0.034 A 
ATOM     18  C   UNL A   1      37.026  30.859  33.091  1.00  0.00     0.034 A 
ATOM     19  C   UNL A   1      39.203  31.071  34.734  1.00  0.00     0.112 A 
ATOM     20  C   UNL A   1      37.924  29.823  33.283  1.00  0.00     0.112 A 
ATOM     21  N   UNL A   1      39.010  29.907  34.081  1.00  0.00    -0.265 NA
ENDBRANCH  14  16
ENDBRANCH   7  12
ENDBRANCH   4   6
ENDBRANCH   3   4
ENDBRANCH   2   3
ENDBRANCH   1   2
BRANCH   1  22
ATOM     22  O   UNL A   1      34.107  30.900  26.994  1.00  0.00    -0.458 OA
BRANCH  22  23
ATOM     23  C   UNL A   1      34.517  29.711  27.480  1.00  0.00     0.338 C 
ATOM     24  O   UNL A   1      33.951  28.634  27.372  1.00  0.00    -0.246 OA
BRANCH  23  25
ATOM     25  C   UNL A   1      35.836  29.824  28.107  1.00  0.00     0.060 A 
ATOM     26  C   UNL A   1      36.915  30.090  27.274  1.00  0.00     0.016 A 
ATOM     27  C   UNL A   1      36.047  29.405  29.414  1.00  0.00     0.016 A 
ATOM     28  C   UNL A   1      38.200  29.765  27.659  1.00  0.00     0.010 A 
ATOM     29  C   UNL A   1      37.359  29.215  29.856  1.00  0.00     0.010 A 
ATOM     30  C   UNL A   1      38.441  29.336  28.962  1.00  0.00    -0.014 A 
BRANCH  30  31
ATOM     31  C   UNL A   1      39.817  28.960  29.359  1.00  0.00     0.031 A 
ATOM     32  C   UNL A   1      40.654  29.942  30.131  1.00  0.00     0.074 A 
ATOM     33  C   UNL A   1      40.297  27.739  29.050  1.00  0.00     0.049 A 
ATOM     34  N   UNL A   1      41.935  29.914  30.379  1.00  0.00    -0.248 NA
ATOM     35  C   UNL A   1      39.961  31.121  30.678  1.00  0.00     0.031 C 
ATOM     36  C   UNL A   1      39.543  26.667  28.388  1.00  0.00     0.029 A 
ATOM     37  N   UNL A   1      41.535  27.188  29.255  1.00  0.00    -0.354 N 
ATOM     38  C   UNL A   1      42.216  31.105  31.040  1.00  0.00     0.074 A 
ATOM     39  C   UNL A   1      40.971  31.832  31.157  1.00  0.00     0.031 C 
ATOM     40  C   UNL A   1      40.322  25.584  28.270  1.00  0.00     0.029 A 
ATOM     41  C   UNL A   1      41.659  25.921  28.735  1.00  0.00     0.049 A 
ATOM     42  H   UNL A   1      42.262  27.654  29.726  1.00  0.00     0.167 HD
ATOM     43  C   UNL A   1      43.412  31.548  31.492  1.00  0.00     0.031 A 
ATOM     44  C   UNL A   1      42.745  25.142  28.586  1.00  0.00     0.031 A 
ATOM     45  C   UNL A   1      44.627  30.782  31.389  1.00  0.00     0.049 A 
ATOM     46  C   UNL A   1      44.072  25.682  29.033  1.00  0.00     0.074 A 
ATOM     47  C   UNL A   1      45.897  31.119  31.820  1.00  0.00     0.029 A 
ATOM     48  N   UNL A   1      44.717  29.519  30.820  1.00  0.00    -0.354 N 
ATOM     49  N   UNL A   1      44.340  26.833  29.605  1.00  0.00    -0.248 NA
ATOM     50  C   UNL A   1      45.242  24.829  28.805  1.00  0.00     0.031 C 
ATOM     51  C   UNL A   1      46.766  30.085  31.457  1.00  0.00     0.029 A 
ATOM     52  C   UNL A   1      46.026  29.071  30.867  1.00  0.00     0.049 A 
ATOM     53  H   UNL A   1      43.961  29.015  30.440  1.00  0.00     0.167 HD
ATOM     54  C   UNL A   1      45.710  26.832  29.828  1.00  0.00     0.074 A 
ATOM     55  C   UNL A   1      46.208  25.557  29.346  1.00  0.00     0.031 C 
ATOM     56  C   UNL A   1      46.489  27.795  30.381  1.00  0.00     0.031 A 
BRANCH  43  57
ATOM     57  C   UNL A   1      43.475  32.937  32.074  1.00  0.00    -0.014 A 
ATOM     58  C   UNL A   1      43.340  33.176  33.453  1.00  0.00     0.010 A 
ATOM     59  C   UNL A   1      43.703  34.030  31.214  1.00  0.00     0.010 A 
ATOM     60  C   UNL A   1      43.391  34.479  33.955  1.00  0.00     0.020 A 
ATOM     61  C   UNL A   1      43.786  35.332  31.716  1.00  0.00     0.020 A 
ATOM     62  C   UNL A   1      43.613  35.550  33.082  1.00  0.00     0.054 A 
BRANCH  62  63
ATOM     63  S   UNL A   1      43.698  37.228  33.765  1.00  0.00     0.124 S 
ATOM     64  O   UNL A   1      43.963  38.027  32.572  1.00  0.00    -0.237 OA
ATOM     65  O   UNL A   1      42.372  37.401  34.354  1.00  0.00    -0.237 OA
ATOM     66  O   UNL A   1      44.798  37.158  34.724  1.00  0.00    -0.744 OA
ENDBRANCH  62  63
ENDBRANCH  43  57
BRANCH  44  67
ATOM     67  C   UNL A   1      42.621  23.807  27.937  1.00  0.00    -0.014 A 
ATOM     68  C   UNL A   1      42.951  23.638  26.583  1.00  0.00     0.010 A 
ATOM     69  C   UNL A   1      42.197  22.687  28.681  1.00  0.00     0.010 A 
ATOM     70  C   UNL A   1      42.847  22.382  25.980  1.00  0.00     0.020 A 
ATOM     71  C   UNL A   1      42.127  21.423  28.092  1.00  0.00     0.020 A 
ATOM     72  C   UNL A   1      42.439  21.280  26.740  1.00  0.00     0.054 A 
BRANCH  72  73
ATOM     73  S   UNL A   1      42.357  19.653  25.944  1.00  0.00     0.124 S 
ATOM     74  O   UNL A   1      40.969  19.603  25.498  1.00  0.00    -0.237 OA
ATOM     75  O   UNL A   1      43.357  19.769  24.886  1.00  0.00    -0.237 OA
ATOM     76  O   UNL A   1      42.703  18.727  27.019  1.00  0.00    -0.744 OA
ENDBRANCH  72  73
ENDBRANCH  44  67
BRANCH  56  77
ATOM     77  C   UNL A   1      47.950  27.480  30.539  1.00  0.00    -0.014 A 
ATOM     78  C   UNL A   1      48.439  26.821  31.681  1.00  0.00     0.010 A 
ATOM     79  C   UNL A   1      48.840  27.811  29.501  1.00  0.00     0.010 A 
ATOM     80  C   UNL A   1      49.800  26.529  31.795  1.00  0.00     0.020 A 
ATOM     81  C   UNL A   1      50.194  27.490  29.596  1.00  0.00     0.020 A 
ATOM     82  C   UNL A   1      50.667  26.864  30.751  1.00  0.00     0.054 A 
BRANCH  82  83
ATOM     83  S   UNL A   1      52.421  26.434  30.904  1.00  0.00     0.124 S 
ATOM     84  O   UNL A   1      52.363  25.191  31.667  1.00  0.00    -0.237 OA
ATOM     85  O   UNL A   1      52.839  26.298  29.510  1.00  0.00    -0.237 OA
ATOM     86  O   UNL A   1      52.998  27.574  31.613  1.00  0.00    -0.744 OA
ENDBRANCH  82  83
ENDBRANCH  56  77
ENDBRANCH  30  31
ENDBRANCH  23  25
ENDBRANCH  22  23
ENDBRANCH   1  22
TORSDOF 16
ENDMDL
MODEL 3
REMARK VINA RESULT:     -10.1      2.359      3.063
REMARK SMILES O=C(Nc1ccccc1C(=O)OCCOC(=O)c1ccc(-c2c3nc(c(-c4ccc(S(=O)(=O)[O-])cc4)c4ccc([nH]4)c(-c4ccc(S(=O)(=O)[O-])cc4)c4nc(c(-c5ccc(S(=O)(=O)[O-])cc5)c5ccc2[nH]5)C=C4)C=C3)cc1)c1ccncc1
REMARK SMILES IDX 14 1 13 2 12 3 10 4 11 5 9 6 4 7 5 8 6 9 8 10 7 11 3 12 1 13
REMARK SMILES IDX 2 14 78 16 79 17 83 18 80 19 82 20 81 21 15 22 16 23 17 24
REMARK SMILES IDX 18 25 19 26 77 27 20 28 76 29 21 30 22 31 23 32 70 33 24 34
REMARK SMILES IDX 75 35 69 36 71 37 25 38 74 39 68 40 67 41 26 43 56 44 37 45
REMARK SMILES IDX 55 46 38 47 41 48 54 49 72 50 39 51 40 52 53 54 73 55 42 56
REMARK SMILES IDX 27 57 28 58 36 59 29 60 35 61 30 62 31 63 32 64 33 65 34 66
REMARK SMILES IDX 57 67 58 68 66 69 59 70 65 71 60 72 61 73 62 74 63 75 64 76
REMARK SMILES IDX 43 77 44 78 52 79 45 80 51 81 46 82 47 83 48 84 49 85 50 86
REMARK H PARENT 3 15 71 42 41 53
REMARK Flexibility Score: inf
ROOT
ATOM      1  C   UNL A   1      34.326  33.216  27.906  1.00  0.00     0.275 C 
ENDROOT
BRANCH   1   2
ATOM      2  C   UNL A   1      35.088  34.219  28.773  1.00  0.00     0.275 C 
BRANCH   2   3
ATOM      3  O   UNL A   1      35.539  33.674  30.033  1.00  0.00    -0.458 OA
BRANCH   3   4
ATOM      4  C   UNL A   1      36.883  33.522  30.145  1.00  0.00     0.340 C 
ATOM      5  O   UNL A   1      37.628  33.123  29.270  1.00  0.00    -0.246 OA
BRANCH   4   6
ATOM      6  C   UNL A   1      37.386  33.869  31.495  1.00  0.00     0.083 A 
ATOM      7  C   UNL A   1      36.631  33.727  32.667  1.00  0.00     0.056 A 
ATOM      8  C   UNL A   1      37.189  34.161  33.884  1.00  0.00     0.027 A 
ATOM      9  C   UNL A   1      38.512  34.605  33.960  1.00  0.00     0.002 A 
ATOM     10  C   UNL A   1      38.714  34.326  31.588  1.00  0.00     0.018 A 
ATOM     11  C   UNL A   1      39.283  34.669  32.812  1.00  0.00     0.001 A 
BRANCH   7  12
ATOM     12  N   UNL A   1      35.346  33.157  32.765  1.00  0.00    -0.321 N 
ATOM     13  O   UNL A   1      33.175  33.003  33.342  1.00  0.00    -0.269 OA
ATOM     14  C   UNL A   1      34.107  33.719  32.977  1.00  0.00     0.255 C 
ATOM     15  H   UNL A   1      35.331  32.177  32.663  1.00  0.00     0.170 HD
BRANCH  14  16
ATOM     16  C   UNL A   1      33.827  35.148  32.681  1.00  0.00     0.043 A 
ATOM     17  C   UNL A   1      33.089  35.445  31.534  1.00  0.00     0.034 A 
ATOM     18  C   UNL A   1      34.272  36.188  33.501  1.00  0.00     0.034 A 
ATOM     19  C   UNL A   1      32.754  36.765  31.299  1.00  0.00     0.112 A 
ATOM     20  C   UNL A   1      33.883  37.476  33.176  1.00  0.00     0.112 A 
ATOM     21  N   UNL A   1      33.142  37.787  32.090  1.00  0.00    -0.265 NA
ENDBRANCH  14  16
ENDBRANCH   7  12
ENDBRANCH   4   6
ENDBRANCH   3   4
ENDBRANCH   2   3
ENDBRANCH   1   2
BRANCH   1  22
ATOM     22  O   UNL A   1      35.197  32.196  27.389  1.00  0.00    -0.458 OA
BRANCH  22  23
ATOM     23  C   UNL A   1      34.837  30.945  27.742  1.00  0.00     0.338 C 
ATOM     24  O   UNL A   1      33.720  30.453  27.688  1.00  0.00    -0.246 OA
BRANCH  23  25
ATOM     25  C   UNL A   1      36.006  30.152  28.131  1.00  0.00     0.060 A 
ATOM     26  C   UNL A   1      35.994  29.581  29.398  1.00  0.00     0.016 A 
ATOM     27  C   UNL A   1      37.184  30.203  27.397  1.00  0.00     0.016 A 
ATOM     28  C   UNL A   1      37.173  29.230  30.024  1.00  0.00     0.010 A 
ATOM     29  C   UNL A   1      38.358  29.711  27.974  1.00  0.00     0.010 A 
ATOM     30  C   UNL A   1      38.371  29.277  29.314  1.00  0.00    -0.014 A 
BRANCH  30  31
ATOM     31  C   UNL A   1      39.635  28.929  30.002  1.00  0.00     0.031 A 
ATOM     32  C   UNL A   1      40.013  29.660  31.259  1.00  0.00     0.074 A 
ATOM     33  C   UNL A   1      40.419  27.947  29.513  1.00  0.00     0.049 A 
ATOM     34  N   UNL A   1      41.157  29.679  31.888  1.00  0.00    -0.248 NA
ATOM     35  C   UNL A   1      38.973  30.498  31.880  1.00  0.00     0.031 C 
ATOM     36  C   UNL A   1      40.107  27.102  28.354  1.00  0.00     0.029 A 
ATOM     37  N   UNL A   1      41.640  27.489  29.932  1.00  0.00    -0.354 N 
ATOM     38  C   UNL A   1      41.001  30.587  32.928  1.00  0.00     0.074 A 
ATOM     39  C   UNL A   1      39.650  31.097  32.849  1.00  0.00     0.031 C 
ATOM     40  C   UNL A   1      41.093  26.213  28.175  1.00  0.00     0.029 A 
ATOM     41  C   UNL A   1      42.156  26.501  29.125  1.00  0.00     0.049 A 
ATOM     42  H   UNL A   1      42.102  27.833  30.729  1.00  0.00     0.167 HD
ATOM     43  C   UNL A   1      41.913  30.964  33.853  1.00  0.00     0.031 A 
ATOM     44  C   UNL A   1      43.377  25.937  29.108  1.00  0.00     0.031 A 
ATOM     45  C   UNL A   1      43.240  30.410  33.924  1.00  0.00     0.049 A 
ATOM     46  C   UNL A   1      44.395  26.420  30.100  1.00  0.00     0.074 A 
ATOM     47  C   UNL A   1      44.251  30.703  34.822  1.00  0.00     0.029 A 
ATOM     48  N   UNL A   1      43.736  29.440  33.063  1.00  0.00    -0.354 N 
ATOM     49  N   UNL A   1      44.258  27.321  31.045  1.00  0.00    -0.248 NA
ATOM     50  C   UNL A   1      45.731  25.824  30.017  1.00  0.00     0.031 C 
ATOM     51  C   UNL A   1      45.377  29.954  34.466  1.00  0.00     0.029 A 
ATOM     52  C   UNL A   1      45.046  29.140  33.393  1.00  0.00     0.049 A 
ATOM     53  H   UNL A   1      43.231  29.026  32.327  1.00  0.00     0.167 HD
ATOM     54  C   UNL A   1      45.487  27.382  31.687  1.00  0.00     0.074 A 
ATOM     55  C   UNL A   1      46.346  26.412  31.033  1.00  0.00     0.031 C 
ATOM     56  C   UNL A   1      45.874  28.167  32.724  1.00  0.00     0.031 A 
BRANCH  43  57
ATOM     57  C   UNL A   1      41.533  32.062  34.813  1.00  0.00    -0.014 A 
ATOM     58  C   UNL A   1      42.056  33.363  34.705  1.00  0.00     0.010 A 
ATOM     59  C   UNL A   1      40.603  31.787  35.835  1.00  0.00     0.010 A 
ATOM     60  C   UNL A   1      41.690  34.353  35.622  1.00  0.00     0.020 A 
ATOM     61  C   UNL A   1      40.210  32.782  36.734  1.00  0.00     0.020 A 
ATOM     62  C   UNL A   1      40.769  34.055  36.632  1.00  0.00     0.054 A 
BRANCH  62  63
ATOM     63  S   UNL A   1      40.294  35.366  37.793  1.00  0.00     0.124 S 
ATOM     64  O   UNL A   1      39.936  36.455  36.888  1.00  0.00    -0.237 OA
ATOM     65  O   UNL A   1      39.180  34.761  38.519  1.00  0.00    -0.237 OA
ATOM     66  O   UNL A   1      41.503  35.586  38.583  1.00  0.00    -0.744 OA
ENDBRANCH  62  63
ENDBRANCH  43  57
BRANCH  44  67
ATOM     67  C   UNL A   1      43.708  24.907  28.086  1.00  0.00    -0.014 A 
ATOM     68  C   UNL A   1      43.476  23.546  28.341  1.00  0.00     0.010 A 
ATOM     69  C   UNL A   1      44.235  25.285  26.834  1.00  0.00     0.010 A 
ATOM     70  C   UNL A   1      43.776  22.582  27.375  1.00  0.00     0.020 A 
ATOM     71  C   UNL A   1      44.502  24.329  25.852  1.00  0.00     0.020 A 
ATOM     72  C   UNL A   1      44.284  22.980  26.134  1.00  0.00     0.054 A 
BRANCH  72  73
ATOM     73  S   UNL A   1      44.620  21.713  24.881  1.00  0.00     0.124 S 
ATOM     74  O   UNL A   1      44.412  22.452  23.640  1.00  0.00    -0.237 OA
ATOM     75  O   UNL A   1      46.002  21.342  25.172  1.00  0.00    -0.237 OA
ATOM     76  O   UNL A   1      43.630  20.678  25.166  1.00  0.00    -0.744 OA
ENDBRANCH  72  73
ENDBRANCH  44  67
BRANCH  56  77
ATOM     77  C   UNL A   1      47.271  27.967  33.244  1.00  0.00    -0.014 A 
ATOM     78  C   UNL A   1      47.555  27.010  34.233  1.00  0.00     0.010 A 
ATOM     79  C   UNL A   1      48.322  28.722  32.692  1.00  0.00     0.010 A 
ATOM     80  C   UNL A   1      48.864  26.837  34.688  1.00  0.00     0.020 A 
ATOM     81  C   UNL A   1      49.636  28.528  33.119  1.00  0.00     0.020 A 
ATOM     82  C   UNL A   1      49.895  27.596  34.126  1.00  0.00     0.054 A 
BRANCH  82  83
ATOM     83  S   UNL A   1      51.592  27.320  34.701  1.00  0.00     0.124 S 
ATOM     84  O   UNL A   1      51.721  28.320  35.756  1.00  0.00    -0.237 OA
ATOM     85  O   UNL A   1      51.552  25.930  35.153  1.00  0.00    -0.237 OA
ATOM     86  O   UNL A   1      52.405  27.559  33.511  1.00  0.00    -0.744 OA
ENDBRANCH  82  83
ENDBRANCH  56  77
ENDBRANCH  30  31
ENDBRANCH  23  25
ENDBRANCH  22  23
ENDBRANCH   1  22
TORSDOF 16
ENDMDL
