MODEL 1
REMARK VINA RESULT:     -11.5      0.000      0.000
REMARK SMILES O=C(OCCOC(=O)[C@H]1C[C@](O)(c2ccc(F)cc2)[C@@H](c2ccc(F)cc2)O1)c1ccc(-c2c3nc(c(-c4ccc(S(=O)(=O)[O-])cc4)c4ccc([nH]4)c(-c4ccc(S(=O)(=O)[O-])cc4)c4nc(c(-c5ccc(S(=O)(=O)[O-])cc5)c5ccc2[nH]5)C=C4)C=C3)cc1
REMARK SMILES IDX 4 1 3 2 2 3 1 4 29 5 30 6 88 7 31 8 87 9 32 10 33 11 34 12
REMARK SMILES IDX 81 13 35 14 86 15 80 16 82 17 36 18 85 19 79 20 78 21 37 23
REMARK SMILES IDX 67 24 48 25 66 26 49 27 52 28 65 29 83 30 50 31 51 32 64 34
REMARK SMILES IDX 84 35 53 36 38 37 39 38 47 39 40 40 46 41 41 42 42 43 43 44
REMARK SMILES IDX 44 45 45 46 68 47 69 48 77 49 70 50 76 51 71 52 72 53 73 54
REMARK SMILES IDX 74 55 75 56 54 57 55 58 63 59 56 60 62 61 57 62 58 63 59 64
REMARK SMILES IDX 60 65 61 66 5 67 6 68 7 69 8 70 9 71 10 72 28 73 11 74 20 75
REMARK SMILES IDX 13 76 14 77 19 78 15 79 18 80 16 81 17 82 12 83 21 85 22 86
REMARK SMILES IDX 27 87 23 88 26 89 24 90 25 91
REMARK H PARENT 82 22 52 33 12 84
REMARK Flexibility Score: inf
ROOT
ATOM      1  C   UNL A   1      32.525  30.238  26.570  1.00  0.00     0.275 C 
ENDROOT
BRANCH   1   2
ATOM      2  O   UNL A   1      33.682  29.737  27.264  1.00  0.00    -0.458 OA
BRANCH   2   3
ATOM      3  C   UNL A   1      34.445  30.505  28.089  1.00  0.00     0.338 C 
ATOM      4  O   UNL A   1      34.121  31.657  28.358  1.00  0.00    -0.246 OA
BRANCH   3   5
ATOM      5  C   UNL A   1      35.821  30.039  28.431  1.00  0.00     0.060 A 
ATOM      6  C   UNL A   1      36.217  29.632  29.706  1.00  0.00     0.016 A 
ATOM      7  C   UNL A   1      36.769  30.024  27.392  1.00  0.00     0.016 A 
ATOM      8  C   UNL A   1      37.498  29.130  29.926  1.00  0.00     0.010 A 
ATOM      9  C   UNL A   1      38.053  29.509  27.602  1.00  0.00     0.010 A 
ATOM     10  C   UNL A   1      38.425  29.082  28.883  1.00  0.00    -0.014 A 
BRANCH  10  11
ATOM     11  C   UNL A   1      39.845  28.891  29.252  1.00  0.00     0.031 A 
ATOM     12  C   UNL A   1      40.459  27.573  28.874  1.00  0.00     0.074 A 
ATOM     13  C   UNL A   1      40.588  29.899  29.744  1.00  0.00     0.049 A 
ATOM     14  N   UNL A   1      41.708  27.201  28.906  1.00  0.00    -0.248 NA
ATOM     15  C   UNL A   1      39.535  26.542  28.365  1.00  0.00     0.031 C 
ATOM     16  C   UNL A   1      40.094  31.238  30.065  1.00  0.00     0.029 A 
ATOM     17  N   UNL A   1      41.930  29.967  30.017  1.00  0.00    -0.354 N 
ATOM     18  C   UNL A   1      41.718  25.900  28.418  1.00  0.00     0.074 A 
ATOM     19  C   UNL A   1      40.351  25.529  28.143  1.00  0.00     0.031 C 
ATOM     20  C   UNL A   1      41.126  32.004  30.465  1.00  0.00     0.029 A 
ATOM     21  C   UNL A   1      42.348  31.206  30.445  1.00  0.00     0.049 A 
ATOM     22  H   UNL A   1      42.539  29.198  29.917  1.00  0.00     0.167 HD
ATOM     23  C   UNL A   1      42.776  25.087  28.202  1.00  0.00     0.031 A 
ATOM     24  C   UNL A   1      43.582  31.642  30.767  1.00  0.00     0.031 A 
ATOM     25  C   UNL A   1      44.124  25.458  28.518  1.00  0.00     0.049 A 
ATOM     26  C   UNL A   1      44.737  30.684  30.614  1.00  0.00     0.074 A 
ATOM     27  C   UNL A   1      45.278  24.710  28.394  1.00  0.00     0.029 A 
ATOM     28  N   UNL A   1      44.491  26.692  29.041  1.00  0.00    -0.354 N 
ATOM     29  N   UNL A   1      44.733  29.456  30.147  1.00  0.00    -0.248 NA
ATOM     30  C   UNL A   1      46.063  31.172  31.017  1.00  0.00     0.031 C 
ATOM     31  C   UNL A   1      46.336  25.470  28.902  1.00  0.00     0.029 A 
ATOM     32  C   UNL A   1      45.853  26.718  29.271  1.00  0.00     0.049 A 
ATOM     33  H   UNL A   1      43.873  27.436  29.221  1.00  0.00     0.167 HD
ATOM     34  C   UNL A   1      46.058  29.035  30.169  1.00  0.00     0.074 A 
ATOM     35  C   UNL A   1      46.835  30.145  30.687  1.00  0.00     0.031 C 
ATOM     36  C   UNL A   1      46.589  27.845  29.790  1.00  0.00     0.031 A 
BRANCH  23  37
ATOM     37  C   UNL A   1      42.471  23.709  27.679  1.00  0.00    -0.014 A 
ATOM     38  C   UNL A   1      42.184  22.639  28.549  1.00  0.00     0.010 A 
ATOM     39  C   UNL A   1      42.556  23.465  26.298  1.00  0.00     0.010 A 
ATOM     40  C   UNL A   1      42.058  21.339  28.053  1.00  0.00     0.020 A 
ATOM     41  C   UNL A   1      42.397  22.171  25.794  1.00  0.00     0.020 A 
ATOM     42  C   UNL A   1      42.178  21.113  26.678  1.00  0.00     0.054 A 
BRANCH  42  43
ATOM     43  S   UNL A   1      42.048  19.412  26.059  1.00  0.00     0.124 S 
ATOM     44  O   UNL A   1      42.552  18.641  27.193  1.00  0.00    -0.237 OA
ATOM     45  O   UNL A   1      40.618  19.277  25.794  1.00  0.00    -0.237 OA
ATOM     46  O   UNL A   1      42.901  19.408  24.874  1.00  0.00    -0.744 OA
ENDBRANCH  42  43
ENDBRANCH  23  37
BRANCH  24  47
ATOM     47  C   UNL A   1      43.791  33.040  31.245  1.00  0.00    -0.014 A 
ATOM     48  C   UNL A   1      44.080  34.082  30.345  1.00  0.00     0.010 A 
ATOM     49  C   UNL A   1      43.695  33.341  32.617  1.00  0.00     0.010 A 
ATOM     50  C   UNL A   1      44.273  35.390  30.807  1.00  0.00     0.020 A 
ATOM     51  C   UNL A   1      43.861  34.651  33.080  1.00  0.00     0.020 A 
ATOM     52  C   UNL A   1      44.156  35.667  32.172  1.00  0.00     0.054 A 
BRANCH  52  53
ATOM     53  S   UNL A   1      44.346  37.382  32.740  1.00  0.00     0.124 S 
ATOM     54  O   UNL A   1      44.106  38.137  31.514  1.00  0.00    -0.237 OA
ATOM     55  O   UNL A   1      43.310  37.489  33.764  1.00  0.00    -0.237 OA
ATOM     56  O   UNL A   1      45.717  37.425  33.245  1.00  0.00    -0.744 OA
ENDBRANCH  52  53
ENDBRANCH  24  47
BRANCH  36  57
ATOM     57  C   UNL A   1      48.084  27.695  29.880  1.00  0.00    -0.014 A 
ATOM     58  C   UNL A   1      48.702  27.212  31.045  1.00  0.00     0.010 A 
ATOM     59  C   UNL A   1      48.867  27.970  28.744  1.00  0.00     0.010 A 
ATOM     60  C   UNL A   1      50.088  27.033  31.080  1.00  0.00     0.020 A 
ATOM     61  C   UNL A   1      50.246  27.761  28.765  1.00  0.00     0.020 A 
ATOM     62  C   UNL A   1      50.850  27.307  29.939  1.00  0.00     0.054 A 
BRANCH  62  63
ATOM     63  S   UNL A   1      52.638  27.016  29.993  1.00  0.00     0.124 S 
ATOM     64  O   UNL A   1      53.134  28.283  30.523  1.00  0.00    -0.237 OA
ATOM     65  O   UNL A   1      52.748  25.870  30.894  1.00  0.00    -0.237 OA
ATOM     66  O   UNL A   1      52.986  26.743  28.601  1.00  0.00    -0.744 OA
ENDBRANCH  62  63
ENDBRANCH  36  57
ENDBRANCH  10  11
ENDBRANCH   3   5
ENDBRANCH   2   3
ENDBRANCH   1   2
BRANCH   1  67
ATOM     67  C   UNL A   1      32.253  29.467  25.273  1.00  0.00     0.274 C 
BRANCH  67  68
ATOM     68  O   UNL A   1      33.382  28.646  24.949  1.00  0.00    -0.460 OA
BRANCH  68  69
ATOM     69  C   UNL A   1      33.638  28.417  23.629  1.00  0.00     0.335 C 
ATOM     70  O   UNL A   1      33.826  29.292  22.792  1.00  0.00    -0.249 OA
BRANCH  69  71
ATOM     71  C   UNL A   1      33.691  26.904  23.372  1.00  0.00     0.232 C 
ATOM     72  C   UNL A   1      33.639  26.029  24.610  1.00  0.00     0.087 C 
ATOM     73  O   UNL A   1      32.624  26.508  22.528  1.00  0.00    -0.355 OA
ATOM     74  C   UNL A   1      32.343  25.200  24.522  1.00  0.00     0.123 C 
ATOM     75  C   UNL A   1      31.641  25.757  23.250  1.00  0.00     0.186 C 
BRANCH  74  76
ATOM     76  C   UNL A   1      32.652  23.686  24.551  1.00  0.00    -0.013 A 
ATOM     77  C   UNL A   1      33.955  23.244  24.218  1.00  0.00     0.010 A 
ATOM     78  C   UNL A   1      31.725  22.694  24.930  1.00  0.00     0.010 A 
ATOM     79  C   UNL A   1      34.312  21.893  24.275  1.00  0.00     0.039 A 
ATOM     80  C   UNL A   1      32.080  21.339  24.978  1.00  0.00     0.039 A 
ATOM     81  C   UNL A   1      33.371  20.952  24.659  1.00  0.00     0.123 A 
ATOM     82  F   UNL A   1      33.715  19.659  24.733  1.00  0.00    -0.207 F 
ENDBRANCH  74  76
BRANCH  74  83
ATOM     83  O   UNL A   1      31.545  25.456  25.687  1.00  0.00    -0.382 OA
ATOM     84  H   UNL A   1      30.746  25.942  25.429  1.00  0.00     0.212 HD
ENDBRANCH  74  83
BRANCH  75  85
ATOM     85  C   UNL A   1      30.406  26.643  23.351  1.00  0.00    -0.016 A 
ATOM     86  C   UNL A   1      30.352  27.921  22.773  1.00  0.00     0.009 A 
ATOM     87  C   UNL A   1      29.228  26.127  23.925  1.00  0.00     0.009 A 
ATOM     88  C   UNL A   1      29.150  28.626  22.699  1.00  0.00     0.039 A 
ATOM     89  C   UNL A   1      28.030  26.843  23.875  1.00  0.00     0.039 A 
ATOM     90  C   UNL A   1      27.997  28.077  23.242  1.00  0.00     0.123 A 
ATOM     91  F   UNL A   1      26.841  28.748  23.154  1.00  0.00    -0.207 F 
ENDBRANCH  75  85
ENDBRANCH  69  71
ENDBRANCH  68  69
ENDBRANCH  67  68
ENDBRANCH   1  67
TORSDOF 17
ENDMDL
MODEL 2
REMARK VINA RESULT:     -11.3      4.081      8.331
REMARK SMILES O=C(OCCOC(=O)[C@H]1C[C@](O)(c2ccc(F)cc2)[C@@H](c2ccc(F)cc2)O1)c1ccc(-c2c3nc(c(-c4ccc(S(=O)(=O)[O-])cc4)c4ccc([nH]4)c(-c4ccc(S(=O)(=O)[O-])cc4)c4nc(c(-c5ccc(S(=O)(=O)[O-])cc5)c5ccc2[nH]5)C=C4)C=C3)cc1
REMARK SMILES IDX 4 1 3 2 2 3 1 4 29 5 30 6 88 7 31 8 87 9 32 10 33 11 34 12
REMARK SMILES IDX 81 13 35 14 86 15 80 16 82 17 36 18 85 19 79 20 78 21 37 23
REMARK SMILES IDX 67 24 48 25 66 26 49 27 52 28 65 29 83 30 50 31 51 32 64 34
REMARK SMILES IDX 84 35 53 36 38 37 39 38 47 39 40 40 46 41 41 42 42 43 43 44
REMARK SMILES IDX 44 45 45 46 68 47 69 48 77 49 70 50 76 51 71 52 72 53 73 54
REMARK SMILES IDX 74 55 75 56 54 57 55 58 63 59 56 60 62 61 57 62 58 63 59 64
REMARK SMILES IDX 60 65 61 66 5 67 6 68 7 69 8 70 9 71 10 72 28 73 11 74 20 75
REMARK SMILES IDX 13 76 14 77 19 78 15 79 18 80 16 81 17 82 12 83 21 85 22 86
REMARK SMILES IDX 27 87 23 88 26 89 24 90 25 91
REMARK H PARENT 82 22 52 33 12 84
REMARK Flexibility Score: inf
ROOT
ATOM      1  C   UNL A   1      32.306  30.457  26.455  1.00  0.00     0.275 C 
ENDROOT
BRANCH   1   2
ATOM      2  O   UNL A   1      33.718  30.734  26.508  1.00  0.00    -0.458 OA
BRANCH   2   3
ATOM      3  C   UNL A   1      34.315  31.353  27.563  1.00  0.00     0.338 C 
ATOM      4  O   UNL A   1      33.937  32.456  27.945  1.00  0.00    -0.246 OA
BRANCH   3   5
ATOM      5  C   UNL A   1      35.614  30.816  28.065  1.00  0.00     0.060 A 
ATOM      6  C   UNL A   1      35.849  29.470  28.349  1.00  0.00     0.016 A 
ATOM      7  C   UNL A   1      36.654  31.741  28.269  1.00  0.00     0.016 A 
ATOM      8  C   UNL A   1      37.115  29.035  28.735  1.00  0.00     0.010 A 
ATOM      9  C   UNL A   1      37.932  31.310  28.644  1.00  0.00     0.010 A 
ATOM     10  C   UNL A   1      38.155  29.952  28.901  1.00  0.00    -0.014 A 
BRANCH  10  11
ATOM     11  C   UNL A   1      39.345  29.492  29.649  1.00  0.00     0.031 A 
ATOM     12  C   UNL A   1      39.411  29.881  31.099  1.00  0.00     0.074 A 
ATOM     13  C   UNL A   1      40.229  28.633  29.110  1.00  0.00     0.049 A 
ATOM     14  N   UNL A   1      40.228  29.473  32.031  1.00  0.00    -0.248 NA
ATOM     15  C   UNL A   1      38.397  30.845  31.565  1.00  0.00     0.031 C 
ATOM     16  C   UNL A   1      40.198  28.137  27.735  1.00  0.00     0.029 A 
ATOM     17  N   UNL A   1      41.303  27.989  29.670  1.00  0.00    -0.354 N 
ATOM     18  C   UNL A   1      39.821  30.126  33.188  1.00  0.00     0.074 A 
ATOM     19  C   UNL A   1      38.721  30.990  32.837  1.00  0.00     0.031 C 
ATOM     20  C   UNL A   1      41.190  27.243  27.565  1.00  0.00     0.029 A 
ATOM     21  C   UNL A   1      41.936  27.118  28.813  1.00  0.00     0.049 A 
ATOM     22  H   UNL A   1      41.595  28.138  30.599  1.00  0.00     0.167 HD
ATOM     23  C   UNL A   1      40.312  30.005  34.442  1.00  0.00     0.031 A 
ATOM     24  C   UNL A   1      42.989  26.304  29.027  1.00  0.00     0.031 A 
ATOM     25  C   UNL A   1      41.432  29.171  34.767  1.00  0.00     0.049 A 
ATOM     26  C   UNL A   1      43.586  26.261  30.411  1.00  0.00     0.074 A 
ATOM     27  C   UNL A   1      42.056  28.999  35.985  1.00  0.00     0.029 A 
ATOM     28  N   UNL A   1      42.105  28.377  33.846  1.00  0.00    -0.354 N 
ATOM     29  N   UNL A   1      43.189  26.881  31.499  1.00  0.00    -0.248 NA
ATOM     30  C   UNL A   1      44.761  25.400  30.601  1.00  0.00     0.031 C 
ATOM     31  C   UNL A   1      43.148  28.147  35.789  1.00  0.00     0.029 A 
ATOM     32  C   UNL A   1      43.157  27.731  34.465  1.00  0.00     0.049 A 
ATOM     33  H   UNL A   1      41.868  28.289  32.895  1.00  0.00     0.167 HD
ATOM     34  C   UNL A   1      44.045  26.462  32.512  1.00  0.00     0.074 A 
ATOM     35  C   UNL A   1      44.975  25.527  31.905  1.00  0.00     0.031 C 
ATOM     36  C   UNL A   1      44.061  26.807  33.824  1.00  0.00     0.031 A 
BRANCH  23  37
ATOM     37  C   UNL A   1      39.674  30.865  35.500  1.00  0.00    -0.014 A 
ATOM     38  C   UNL A   1      40.303  32.032  35.977  1.00  0.00     0.010 A 
ATOM     39  C   UNL A   1      38.465  30.451  36.085  1.00  0.00     0.010 A 
ATOM     40  C   UNL A   1      39.770  32.727  37.066  1.00  0.00     0.020 A 
ATOM     41  C   UNL A   1      37.912  31.163  37.152  1.00  0.00     0.020 A 
ATOM     42  C   UNL A   1      38.583  32.279  37.654  1.00  0.00     0.054 A 
BRANCH  42  43
ATOM     43  S   UNL A   1      37.928  33.176  39.089  1.00  0.00     0.124 S 
ATOM     44  O   UNL A   1      38.525  34.498  38.915  1.00  0.00    -0.237 OA
ATOM     45  O   UNL A   1      36.485  33.105  38.879  1.00  0.00    -0.237 OA
ATOM     46  O   UNL A   1      38.427  32.413  40.230  1.00  0.00    -0.744 OA
ENDBRANCH  42  43
ENDBRANCH  23  37
BRANCH  24  47
ATOM     47  C   UNL A   1      43.531  25.461  27.921  1.00  0.00    -0.014 A 
ATOM     48  C   UNL A   1      44.572  25.924  27.095  1.00  0.00     0.010 A 
ATOM     49  C   UNL A   1      43.007  24.175  27.689  1.00  0.00     0.010 A 
ATOM     50  C   UNL A   1      45.072  25.123  26.061  1.00  0.00     0.020 A 
ATOM     51  C   UNL A   1      43.522  23.361  26.674  1.00  0.00     0.020 A 
ATOM     52  C   UNL A   1      44.547  23.843  25.861  1.00  0.00     0.054 A 
BRANCH  52  53
ATOM     53  S   UNL A   1      45.256  22.797  24.556  1.00  0.00     0.124 S 
ATOM     54  O   UNL A   1      45.922  21.754  25.329  1.00  0.00    -0.237 OA
ATOM     55  O   UNL A   1      44.071  22.378  23.813  1.00  0.00    -0.237 OA
ATOM     56  O   UNL A   1      46.145  23.706  23.835  1.00  0.00    -0.744 OA
ENDBRANCH  52  53
ENDBRANCH  24  47
BRANCH  36  57
ATOM     57  C   UNL A   1      45.086  26.142  34.701  1.00  0.00    -0.014 A 
ATOM     58  C   UNL A   1      46.341  26.729  34.936  1.00  0.00     0.010 A 
ATOM     59  C   UNL A   1      44.747  24.947  35.363  1.00  0.00     0.010 A 
ATOM     60  C   UNL A   1      47.252  26.114  35.799  1.00  0.00     0.020 A 
ATOM     61  C   UNL A   1      45.642  24.348  36.250  1.00  0.00     0.020 A 
ATOM     62  C   UNL A   1      46.895  24.929  36.451  1.00  0.00     0.054 A 
BRANCH  62  63
ATOM     63  S   UNL A   1      48.074  24.179  37.606  1.00  0.00     0.124 S 
ATOM     64  O   UNL A   1      49.048  23.581  36.697  1.00  0.00    -0.237 OA
ATOM     65  O   UNL A   1      48.549  25.330  38.370  1.00  0.00    -0.237 OA
ATOM     66  O   UNL A   1      47.262  23.229  38.362  1.00  0.00    -0.744 OA
ENDBRANCH  62  63
ENDBRANCH  36  57
ENDBRANCH  10  11
ENDBRANCH   3   5
ENDBRANCH   2   3
ENDBRANCH   1   2
BRANCH   1  67
ATOM     67  C   UNL A   1      31.969  29.388  25.409  1.00  0.00     0.274 C 
BRANCH  67  68
ATOM     68  O   UNL A   1      33.111  28.554  25.178  1.00  0.00    -0.460 OA
BRANCH  68  69
ATOM     69  C   UNL A   1      33.528  28.397  23.890  1.00  0.00     0.335 C 
ATOM     70  O   UNL A   1      33.871  29.311  23.150  1.00  0.00    -0.249 OA
BRANCH  69  71
ATOM     71  C   UNL A   1      33.535  26.903  23.532  1.00  0.00     0.232 C 
ATOM     72  C   UNL A   1      33.384  25.951  24.702  1.00  0.00     0.087 C 
ATOM     73  O   UNL A   1      32.499  26.610  22.611  1.00  0.00    -0.355 OA
ATOM     74  C   UNL A   1      32.063  25.185  24.494  1.00  0.00     0.123 C 
ATOM     75  C   UNL A   1      31.451  25.855  23.230  1.00  0.00     0.186 C 
BRANCH  74  76
ATOM     76  C   UNL A   1      32.310  23.661  24.433  1.00  0.00    -0.013 A 
ATOM     77  C   UNL A   1      32.094  22.978  23.211  1.00  0.00     0.010 A 
ATOM     78  C   UNL A   1      32.785  22.890  25.513  1.00  0.00     0.010 A 
ATOM     79  C   UNL A   1      32.348  21.609  23.077  1.00  0.00     0.039 A 
ATOM     80  C   UNL A   1      33.031  21.516  25.381  1.00  0.00     0.039 A 
ATOM     81  C   UNL A   1      32.820  20.891  24.164  1.00  0.00     0.123 A 
ATOM     82  F   UNL A   1      33.083  19.584  24.034  1.00  0.00    -0.207 F 
ENDBRANCH  74  76
BRANCH  74  83
ATOM     83  O   UNL A   1      31.216  25.397  25.632  1.00  0.00    -0.382 OA
ATOM     84  H   UNL A   1      31.065  24.552  26.083  1.00  0.00     0.212 HD
ENDBRANCH  74  83
BRANCH  75  85
ATOM     85  C   UNL A   1      30.248  26.784  23.330  1.00  0.00    -0.016 A 
ATOM     86  C   UNL A   1      30.228  28.052  22.728  1.00  0.00     0.009 A 
ATOM     87  C   UNL A   1      29.062  26.319  23.931  1.00  0.00     0.009 A 
ATOM     88  C   UNL A   1      29.049  28.795  22.656  1.00  0.00     0.039 A 
ATOM     89  C   UNL A   1      27.888  27.075  23.884  1.00  0.00     0.039 A 
ATOM     90  C   UNL A   1      27.887  28.296  23.226  1.00  0.00     0.123 A 
ATOM     91  F   UNL A   1      26.752  29.004  23.141  1.00  0.00    -0.207 F 
ENDBRANCH  75  85
ENDBRANCH  69  71
ENDBRANCH  68  69
ENDBRANCH  67  68
ENDBRANCH   1  67
TORSDOF 17
ENDMDL
MODEL 3
REMARK VINA RESULT:     -11.3      3.347      7.917
REMARK SMILES O=C(OCCOC(=O)[C@H]1C[C@](O)(c2ccc(F)cc2)[C@@H](c2ccc(F)cc2)O1)c1ccc(-c2c3nc(c(-c4ccc(S(=O)(=O)[O-])cc4)c4ccc([nH]4)c(-c4ccc(S(=O)(=O)[O-])cc4)c4nc(c(-c5ccc(S(=O)(=O)[O-])cc5)c5ccc2[nH]5)C=C4)C=C3)cc1
REMARK SMILES IDX 4 1 3 2 2 3 1 4 29 5 30 6 88 7 31 8 87 9 32 10 33 11 34 12
REMARK SMILES IDX 81 13 35 14 86 15 80 16 82 17 36 18 85 19 79 20 78 21 37 23
REMARK SMILES IDX 67 24 48 25 66 26 49 27 52 28 65 29 83 30 50 31 51 32 64 34
REMARK SMILES IDX 84 35 53 36 38 37 39 38 47 39 40 40 46 41 41 42 42 43 43 44
REMARK SMILES IDX 44 45 45 46 68 47 69 48 77 49 70 50 76 51 71 52 72 53 73 54
REMARK SMILES IDX 74 55 75 56 54 57 55 58 63 59 56 60 62 61 57 62 58 63 59 64
REMARK SMILES IDX 60 65 61 66 5 67 6 68 7 69 8 70 9 71 10 72 28 73 11 74 20 75
REMARK SMILES IDX 13 76 14 77 19 78 15 79 18 80 16 81 17 82 12 83 21 85 22 86
REMARK SMILES IDX 27 87 23 88 26 89 24 90 25 91
REMARK H PARENT 82 22 52 33 12 84
REMARK Flexibility Score: inf
ROOT
ATOM      1  C   UNL A   1      37.824  20.767  25.380  1.00  0.00     0.275 C 
ENDROOT
BRANCH   1   2
ATOM      2  O   UNL A   1      38.677  21.916  25.530  1.00  0.00    -0.458 OA
BRANCH   2   3
ATOM      3  C   UNL A   1      39.618  22.023  26.509  1.00  0.00     0.338 C 
ATOM      4  O   UNL A   1      39.989  21.036  27.137  1.00  0.00    -0.246 OA
BRANCH   3   5
ATOM      5  C   UNL A   1      39.979  23.381  27.008  1.00  0.00     0.060 A 
ATOM      6  C   UNL A   1      39.437  24.569  26.514  1.00  0.00     0.016 A 
ATOM      7  C   UNL A   1      40.936  23.452  28.037  1.00  0.00     0.016 A 
ATOM      8  C   UNL A   1      39.765  25.794  27.090  1.00  0.00     0.010 A 
ATOM      9  C   UNL A   1      41.260  24.678  28.630  1.00  0.00     0.010 A 
ATOM     10  C   UNL A   1      40.688  25.857  28.137  1.00  0.00    -0.014 A 
BRANCH  10  11
ATOM     11  C   UNL A   1      41.258  27.185  28.452  1.00  0.00     0.031 A 
ATOM     12  C   UNL A   1      42.600  27.493  27.850  1.00  0.00     0.074 A 
ATOM     13  C   UNL A   1      40.544  28.124  29.098  1.00  0.00     0.049 A 
ATOM     14  N   UNL A   1      43.247  28.624  27.804  1.00  0.00    -0.248 NA
ATOM     15  C   UNL A   1      43.292  26.374  27.185  1.00  0.00     0.031 C 
ATOM     16  C   UNL A   1      39.201  27.939  29.647  1.00  0.00     0.029 A 
ATOM     17  N   UNL A   1      40.832  29.438  29.364  1.00  0.00    -0.354 N 
ATOM     18  C   UNL A   1      44.415  28.351  27.102  1.00  0.00     0.074 A 
ATOM     19  C   UNL A   1      44.413  26.944  26.784  1.00  0.00     0.031 C 
ATOM     20  C   UNL A   1      38.769  29.106  30.159  1.00  0.00     0.029 A 
ATOM     21  C   UNL A   1      39.810  30.115  29.990  1.00  0.00     0.049 A 
ATOM     22  H   UNL A   1      41.691  29.859  29.128  1.00  0.00     0.167 HD
ATOM     23  C   UNL A   1      45.401  29.202  26.739  1.00  0.00     0.031 A 
ATOM     24  C   UNL A   1      39.728  31.406  30.366  1.00  0.00     0.031 A 
ATOM     25  C   UNL A   1      45.407  30.590  27.098  1.00  0.00     0.049 A 
ATOM     26  C   UNL A   1      40.885  32.317  30.040  1.00  0.00     0.074 A 
ATOM     27  C   UNL A   1      46.367  31.546  26.836  1.00  0.00     0.029 A 
ATOM     28  N   UNL A   1      44.395  31.214  27.818  1.00  0.00    -0.354 N 
ATOM     29  N   UNL A   1      41.984  32.046  29.373  1.00  0.00    -0.248 NA
ATOM     30  C   UNL A   1      40.788  33.707  30.505  1.00  0.00     0.031 C 
ATOM     31  C   UNL A   1      45.965  32.736  27.453  1.00  0.00     0.029 A 
ATOM     32  C   UNL A   1      44.719  32.538  28.034  1.00  0.00     0.049 A 
ATOM     33  H   UNL A   1      43.570  30.776  28.129  1.00  0.00     0.167 HD
ATOM     34  C   UNL A   1      42.695  33.240  29.307  1.00  0.00     0.074 A 
ATOM     35  C   UNL A   1      41.894  34.235  29.997  1.00  0.00     0.031 C 
ATOM     36  C   UNL A   1      43.894  33.497  28.726  1.00  0.00     0.031 A 
BRANCH  23  37
ATOM     37  C   UNL A   1      46.565  28.607  25.995  1.00  0.00    -0.014 A 
ATOM     38  C   UNL A   1      47.809  28.396  26.622  1.00  0.00     0.010 A 
ATOM     39  C   UNL A   1      46.435  28.331  24.623  1.00  0.00     0.010 A 
ATOM     40  C   UNL A   1      48.917  27.988  25.874  1.00  0.00     0.020 A 
ATOM     41  C   UNL A   1      47.532  27.892  23.879  1.00  0.00     0.020 A 
ATOM     42  C   UNL A   1      48.773  27.751  24.503  1.00  0.00     0.054 A 
BRANCH  42  43
ATOM     43  S   UNL A   1      50.233  27.259  23.545  1.00  0.00     0.124 S 
ATOM     44  O   UNL A   1      49.626  26.620  22.380  1.00  0.00    -0.237 OA
ATOM     45  O   UNL A   1      50.893  28.536  23.289  1.00  0.00    -0.237 OA
ATOM     46  O   UNL A   1      50.950  26.360  24.445  1.00  0.00    -0.744 OA
ENDBRANCH  42  43
ENDBRANCH  23  37
BRANCH  24  47
ATOM     47  C   UNL A   1      38.515  31.914  31.072  1.00  0.00    -0.014 A 
ATOM     48  C   UNL A   1      38.416  31.870  32.475  1.00  0.00     0.010 A 
ATOM     49  C   UNL A   1      37.443  32.456  30.336  1.00  0.00     0.010 A 
ATOM     50  C   UNL A   1      37.273  32.351  33.124  1.00  0.00     0.020 A 
ATOM     51  C   UNL A   1      36.310  32.961  30.983  1.00  0.00     0.020 A 
ATOM     52  C   UNL A   1      36.228  32.899  32.374  1.00  0.00     0.054 A 
BRANCH  52  53
ATOM     53  S   UNL A   1      34.784  33.576  33.242  1.00  0.00     0.124 S 
ATOM     54  O   UNL A   1      33.711  32.702  32.777  1.00  0.00    -0.237 OA
ATOM     55  O   UNL A   1      35.162  33.425  34.645  1.00  0.00    -0.237 OA
ATOM     56  O   UNL A   1      34.717  34.957  32.769  1.00  0.00    -0.744 OA
ENDBRANCH  52  53
ENDBRANCH  24  47
BRANCH  36  57
ATOM     57  C   UNL A   1      44.394  34.915  28.773  1.00  0.00    -0.014 A 
ATOM     58  C   UNL A   1      45.241  35.360  29.801  1.00  0.00     0.010 A 
ATOM     59  C   UNL A   1      44.071  35.789  27.717  1.00  0.00     0.010 A 
ATOM     60  C   UNL A   1      45.733  36.668  29.788  1.00  0.00     0.020 A 
ATOM     61  C   UNL A   1      44.586  37.084  27.685  1.00  0.00     0.020 A 
ATOM     62  C   UNL A   1      45.404  37.520  28.729  1.00  0.00     0.054 A 
BRANCH  62  63
ATOM     63  S   UNL A   1      46.098  39.194  28.707  1.00  0.00     0.124 S 
ATOM     64  O   UNL A   1      45.660  39.719  29.998  1.00  0.00    -0.237 OA
ATOM     65  O   UNL A   1      47.532  38.945  28.582  1.00  0.00    -0.237 OA
ATOM     66  O   UNL A   1      45.474  39.813  27.540  1.00  0.00    -0.744 OA
ENDBRANCH  62  63
ENDBRANCH  36  57
ENDBRANCH  10  11
ENDBRANCH   3   5
ENDBRANCH   2   3
ENDBRANCH   1   2
BRANCH   1  67
ATOM     67  C   UNL A   1      36.392  21.160  25.000  1.00  0.00     0.274 C 
BRANCH  67  68
ATOM     68  O   UNL A   1      36.257  22.587  25.017  1.00  0.00    -0.460 OA
BRANCH  68  69
ATOM     69  C   UNL A   1      35.870  23.198  23.861  1.00  0.00     0.335 C 
ATOM     70  O   UNL A   1      36.336  22.957  22.754  1.00  0.00    -0.249 OA
BRANCH  69  71
ATOM     71  C   UNL A   1      34.742  24.196  24.161  1.00  0.00     0.232 C 
ATOM     72  C   UNL A   1      33.962  24.681  22.954  1.00  0.00     0.087 C 
ATOM     73  O   UNL A   1      33.812  23.633  25.069  1.00  0.00    -0.355 OA
ATOM     74  C   UNL A   1      32.510  24.198  23.132  1.00  0.00     0.123 C 
ATOM     75  C   UNL A   1      32.572  23.328  24.420  1.00  0.00     0.186 C 
BRANCH  74  76
ATOM     76  C   UNL A   1      31.526  25.390  23.133  1.00  0.00    -0.013 A 
ATOM     77  C   UNL A   1      30.309  25.274  23.847  1.00  0.00     0.010 A 
ATOM     78  C   UNL A   1      31.773  26.624  22.498  1.00  0.00     0.010 A 
ATOM     79  C   UNL A   1      29.400  26.335  23.930  1.00  0.00     0.039 A 
ATOM     80  C   UNL A   1      30.858  27.683  22.575  1.00  0.00     0.039 A 
ATOM     81  C   UNL A   1      29.686  27.532  23.296  1.00  0.00     0.123 A 
ATOM     82  F   UNL A   1      28.827  28.556  23.390  1.00  0.00    -0.207 F 
ENDBRANCH  74  76
BRANCH  74  83
ATOM     83  O   UNL A   1      32.144  23.393  22.002  1.00  0.00    -0.382 OA
ATOM     84  H   UNL A   1      32.265  23.905  21.188  1.00  0.00     0.212 HD
ENDBRANCH  74  83
BRANCH  75  85
ATOM     85  C   UNL A   1      32.480  21.809  24.356  1.00  0.00    -0.016 A 
ATOM     86  C   UNL A   1      32.179  21.125  23.168  1.00  0.00     0.009 A 
ATOM     87  C   UNL A   1      32.834  21.045  25.486  1.00  0.00     0.009 A 
ATOM     88  C   UNL A   1      32.304  19.738  23.085  1.00  0.00     0.039 A 
ATOM     89  C   UNL A   1      32.932  19.654  25.411  1.00  0.00     0.039 A 
ATOM     90  C   UNL A   1      32.688  19.015  24.205  1.00  0.00     0.123 A 
ATOM     91  F   UNL A   1      32.824  17.685  24.118  1.00  0.00    -0.207 F 
ENDBRANCH  75  85
ENDBRANCH  69  71
ENDBRANCH  68  69
ENDBRANCH  67  68
ENDBRANCH   1  67
TORSDOF 17
ENDMDL
