MODEL 1
REMARK VINA RESULT:     -10.8      0.000      0.000
REMARK SMILES C[C@@H](C(=O)OCCOC(=O)c1ccc(-c2c3nc(c(-c4ccc(S(=O)(=O)[O-])cc4)c4ccc([nH]4)c(-c4ccc(S(=O)(=O)[O-])cc4)c4nc(c(-c5ccc(S(=O)(=O)[O-])cc5)c5ccc2[nH]5)C=C4)C=C3)cc1)N(C)c1ccc(C(N)=O)nn1
REMARK SMILES IDX 6 1 5 2 3 3 4 4 2 5 1 6 71 7 72 8 73 9 74 10 81 11 75 12
REMARK SMILES IDX 80 13 76 14 77 15 78 16 79 17 7 20 8 21 9 22 10 23 11 24
REMARK SMILES IDX 12 25 70 26 13 27 69 28 14 29 15 30 16 31 63 32 17 33 68 34
REMARK SMILES IDX 62 35 64 36 18 37 67 38 61 39 60 40 19 42 49 43 30 44 48 45
REMARK SMILES IDX 31 46 34 47 47 48 65 49 32 50 33 51 46 53 66 54 35 55 20 56
REMARK SMILES IDX 21 57 29 58 22 59 28 60 23 61 24 62 25 63 26 64 27 65 50 66
REMARK SMILES IDX 51 67 59 68 52 69 58 70 53 71 54 72 55 73 56 74 57 75 36 76
REMARK SMILES IDX 37 77 45 78 38 79 44 80 39 81 40 82 41 83 42 84 43 85
REMARK H PARENT 78 18 78 19 64 41 34 52
REMARK Flexibility Score: inf
ROOT
ATOM      1  C   UNL A   1      34.414  28.910  27.048  1.00  0.00     0.274 C 
ENDROOT
BRANCH   1   2
ATOM      2  O   UNL A   1      33.137  28.280  26.816  1.00  0.00    -0.461 OA
BRANCH   2   3
ATOM      3  C   UNL A   1      32.785  28.082  25.514  1.00  0.00     0.328 C 
ATOM      4  O   UNL A   1      33.565  28.158  24.568  1.00  0.00    -0.250 OA
BRANCH   3   5
ATOM      5  C   UNL A   1      31.279  27.816  25.336  1.00  0.00     0.190 C 
ATOM      6  C   UNL A   1      30.754  26.579  26.056  1.00  0.00     0.044 C 
BRANCH   5   7
ATOM      7  N   UNL A   1      30.819  27.951  23.926  1.00  0.00    -0.345 N 
ATOM      8  C   UNL A   1      30.427  26.686  23.284  1.00  0.00     0.146 C 
BRANCH   7   9
ATOM      9  C   UNL A   1      30.129  29.066  23.455  1.00  0.00     0.151 A 
ATOM     10  C   UNL A   1      29.415  29.082  22.263  1.00  0.00     0.051 A 
ATOM     11  N   UNL A   1      30.101  30.196  24.190  1.00  0.00    -0.132 NA
ATOM     12  C   UNL A   1      28.801  30.249  21.791  1.00  0.00     0.040 A 
ATOM     13  N   UNL A   1      29.518  31.374  23.731  1.00  0.00    -0.143 NA
ATOM     14  C   UNL A   1      28.905  31.397  22.539  1.00  0.00     0.150 A 
BRANCH  14  15
ATOM     15  C   UNL A   1      28.352  32.693  22.057  1.00  0.00     0.269 C 
ATOM     16  N   UNL A   1      27.799  32.708  20.805  1.00  0.00    -0.364 N 
ATOM     17  O   UNL A   1      28.374  33.699  22.756  1.00  0.00    -0.268 OA
ATOM     18  H   UNL A   1      27.792  31.888  20.261  1.00  0.00     0.160 HD
ATOM     19  H   UNL A   1      27.406  33.538  20.450  1.00  0.00     0.160 HD
ENDBRANCH  14  15
ENDBRANCH   7   9
ENDBRANCH   5   7
ENDBRANCH   3   5
ENDBRANCH   2   3
ENDBRANCH   1   2
BRANCH   1  20
ATOM     20  C   UNL A   1      34.234  30.333  27.562  1.00  0.00     0.275 C 
BRANCH  20  21
ATOM     21  O   UNL A   1      35.523  30.954  27.703  1.00  0.00    -0.458 OA
BRANCH  21  22
ATOM     22  C   UNL A   1      36.115  30.824  28.908  1.00  0.00     0.338 C 
ATOM     23  O   UNL A   1      35.690  31.251  29.981  1.00  0.00    -0.246 OA
BRANCH  22  24
ATOM     24  C   UNL A   1      37.377  30.070  28.793  1.00  0.00     0.060 A 
ATOM     25  C   UNL A   1      38.062  29.657  29.937  1.00  0.00     0.016 A 
ATOM     26  C   UNL A   1      37.970  29.919  27.536  1.00  0.00     0.016 A 
ATOM     27  C   UNL A   1      39.381  29.210  29.831  1.00  0.00     0.010 A 
ATOM     28  C   UNL A   1      39.265  29.398  27.429  1.00  0.00     0.010 A 
ATOM     29  C   UNL A   1      40.002  29.081  28.580  1.00  0.00    -0.014 A 
BRANCH  29  30
ATOM     30  C   UNL A   1      41.410  28.612  28.467  1.00  0.00     0.031 A 
ATOM     31  C   UNL A   1      42.563  29.554  28.663  1.00  0.00     0.074 A 
ATOM     32  C   UNL A   1      41.677  27.327  28.186  1.00  0.00     0.049 A 
ATOM     33  N   UNL A   1      43.763  29.533  28.146  1.00  0.00    -0.248 NA
ATOM     34  C   UNL A   1      42.324  30.692  29.550  1.00  0.00     0.031 C 
ATOM     35  C   UNL A   1      40.688  26.257  28.064  1.00  0.00     0.029 A 
ATOM     36  N   UNL A   1      42.876  26.710  27.956  1.00  0.00    -0.354 N 
ATOM     37  C   UNL A   1      44.363  30.732  28.532  1.00  0.00     0.074 A 
ATOM     38  C   UNL A   1      43.402  31.439  29.351  1.00  0.00     0.031 C 
ATOM     39  C   UNL A   1      41.324  25.105  27.813  1.00  0.00     0.029 A 
ATOM     40  C   UNL A   1      42.746  25.380  27.648  1.00  0.00     0.049 A 
ATOM     41  H   UNL A   1      43.744  27.172  28.008  1.00  0.00     0.167 HD
ATOM     42  C   UNL A   1      45.609  31.178  28.237  1.00  0.00     0.031 A 
ATOM     43  C   UNL A   1      43.661  24.496  27.213  1.00  0.00     0.031 A 
ATOM     44  C   UNL A   1      46.615  30.339  27.637  1.00  0.00     0.049 A 
ATOM     45  C   UNL A   1      45.068  24.958  26.991  1.00  0.00     0.074 A 
ATOM     46  C   UNL A   1      47.922  30.646  27.305  1.00  0.00     0.029 A 
ATOM     47  N   UNL A   1      46.446  28.985  27.380  1.00  0.00    -0.354 N 
ATOM     48  N   UNL A   1      45.561  26.170  27.101  1.00  0.00    -0.248 NA
ATOM     49  C   UNL A   1      46.039  23.941  26.574  1.00  0.00     0.031 C 
ATOM     50  C   UNL A   1      48.551  29.472  26.869  1.00  0.00     0.029 A 
ATOM     51  C   UNL A   1      47.638  28.431  26.950  1.00  0.00     0.049 A 
ATOM     52  H   UNL A   1      45.602  28.491  27.488  1.00  0.00     0.167 HD
ATOM     53  C   UNL A   1      46.902  26.063  26.758  1.00  0.00     0.074 A 
ATOM     54  C   UNL A   1      47.147  24.663  26.470  1.00  0.00     0.031 C 
ATOM     55  C   UNL A   1      47.845  27.034  26.674  1.00  0.00     0.031 A 
BRANCH  42  56
ATOM     56  C   UNL A   1      45.959  32.615  28.534  1.00  0.00    -0.014 A 
ATOM     57  C   UNL A   1      45.689  33.665  27.640  1.00  0.00     0.010 A 
ATOM     58  C   UNL A   1      46.518  32.927  29.791  1.00  0.00     0.010 A 
ATOM     59  C   UNL A   1      46.005  34.988  27.979  1.00  0.00     0.020 A 
ATOM     60  C   UNL A   1      46.807  34.250  30.146  1.00  0.00     0.020 A 
ATOM     61  C   UNL A   1      46.564  35.272  29.229  1.00  0.00     0.054 A 
BRANCH  61  62
ATOM     62  S   UNL A   1      46.917  36.998  29.673  1.00  0.00     0.124 S 
ATOM     63  O   UNL A   1      45.601  37.618  29.542  1.00  0.00    -0.237 OA
ATOM     64  O   UNL A   1      47.426  36.888  31.038  1.00  0.00    -0.237 OA
ATOM     65  O   UNL A   1      47.904  37.414  28.678  1.00  0.00    -0.744 OA
ENDBRANCH  61  62
ENDBRANCH  42  56
BRANCH  43  66
ATOM     66  C   UNL A   1      43.221  23.111  26.919  1.00  0.00    -0.014 A 
ATOM     67  C   UNL A   1      43.397  22.566  25.636  1.00  0.00     0.010 A 
ATOM     68  C   UNL A   1      42.751  22.290  27.960  1.00  0.00     0.010 A 
ATOM     69  C   UNL A   1      43.128  21.215  25.406  1.00  0.00     0.020 A 
ATOM     70  C   UNL A   1      42.509  20.933  27.740  1.00  0.00     0.020 A 
ATOM     71  C   UNL A   1      42.699  20.404  26.461  1.00  0.00     0.054 A 
BRANCH  71  72
ATOM     72  S   UNL A   1      42.488  18.625  26.178  1.00  0.00     0.124 S 
ATOM     73  O   UNL A   1      41.084  18.545  25.790  1.00  0.00    -0.237 OA
ATOM     74  O   UNL A   1      43.455  18.352  25.117  1.00  0.00    -0.237 OA
ATOM     75  O   UNL A   1      42.818  18.034  27.474  1.00  0.00    -0.744 OA
ENDBRANCH  71  72
ENDBRANCH  43  66
BRANCH  55  76
ATOM     76  C   UNL A   1      49.226  26.599  26.278  1.00  0.00    -0.014 A 
ATOM     77  C   UNL A   1      49.657  26.713  24.946  1.00  0.00     0.010 A 
ATOM     78  C   UNL A   1      50.104  26.094  27.253  1.00  0.00     0.010 A 
ATOM     79  C   UNL A   1      50.939  26.293  24.587  1.00  0.00     0.020 A 
ATOM     80  C   UNL A   1      51.392  25.688  26.899  1.00  0.00     0.020 A 
ATOM     81  C   UNL A   1      51.795  25.775  25.563  1.00  0.00     0.054 A 
BRANCH  81  82
ATOM     82  S   UNL A   1      53.459  25.248  25.075  1.00  0.00     0.124 S 
ATOM     83  O   UNL A   1      53.441  23.830  25.425  1.00  0.00    -0.237 OA
ATOM     84  O   UNL A   1      53.484  25.542  23.644  1.00  0.00    -0.237 OA
ATOM     85  O   UNL A   1      54.339  26.082  25.891  1.00  0.00    -0.744 OA
ENDBRANCH  81  82
ENDBRANCH  55  76
ENDBRANCH  29  30
ENDBRANCH  22  24
ENDBRANCH  21  22
ENDBRANCH  20  21
ENDBRANCH   1  20
TORSDOF 17
ENDMDL
MODEL 2
REMARK VINA RESULT:     -10.3      4.480      9.578
REMARK SMILES C[C@@H](C(=O)OCCOC(=O)c1ccc(-c2c3nc(c(-c4ccc(S(=O)(=O)[O-])cc4)c4ccc([nH]4)c(-c4ccc(S(=O)(=O)[O-])cc4)c4nc(c(-c5ccc(S(=O)(=O)[O-])cc5)c5ccc2[nH]5)C=C4)C=C3)cc1)N(C)c1ccc(C(N)=O)nn1
REMARK SMILES IDX 6 1 5 2 3 3 4 4 2 5 1 6 71 7 72 8 73 9 74 10 81 11 75 12
REMARK SMILES IDX 80 13 76 14 77 15 78 16 79 17 7 20 8 21 9 22 10 23 11 24
REMARK SMILES IDX 12 25 70 26 13 27 69 28 14 29 15 30 16 31 63 32 17 33 68 34
REMARK SMILES IDX 62 35 64 36 18 37 67 38 61 39 60 40 19 42 49 43 30 44 48 45
REMARK SMILES IDX 31 46 34 47 47 48 65 49 32 50 33 51 46 53 66 54 35 55 20 56
REMARK SMILES IDX 21 57 29 58 22 59 28 60 23 61 24 62 25 63 26 64 27 65 50 66
REMARK SMILES IDX 51 67 59 68 52 69 58 70 53 71 54 72 55 73 56 74 57 75 36 76
REMARK SMILES IDX 37 77 45 78 38 79 44 80 39 81 40 82 41 83 42 84 43 85
REMARK H PARENT 78 18 78 19 64 41 34 52
REMARK Flexibility Score: inf
ROOT
ATOM      1  C   UNL A   1      37.922  20.552  25.106  1.00  0.00     0.274 C 
ENDROOT
BRANCH   1   2
ATOM      2  O   UNL A   1      36.755  21.145  25.711  1.00  0.00    -0.461 OA
BRANCH   2   3
ATOM      3  C   UNL A   1      35.877  21.757  24.866  1.00  0.00     0.328 C 
ATOM      4  O   UNL A   1      36.181  22.216  23.769  1.00  0.00    -0.250 OA
BRANCH   3   5
ATOM      5  C   UNL A   1      34.461  21.879  25.461  1.00  0.00     0.190 C 
ATOM      6  C   UNL A   1      34.401  21.882  26.984  1.00  0.00     0.044 C 
BRANCH   5   7
ATOM      7  N   UNL A   1      33.468  20.982  24.805  1.00  0.00    -0.345 N 
ATOM      8  C   UNL A   1      33.031  21.422  23.471  1.00  0.00     0.146 C 
BRANCH   7   9
ATOM      9  C   UNL A   1      33.461  19.600  24.980  1.00  0.00     0.151 A 
ATOM     10  C   UNL A   1      34.458  18.760  24.500  1.00  0.00     0.051 A 
ATOM     11  N   UNL A   1      32.466  19.018  25.679  1.00  0.00    -0.132 NA
ATOM     12  C   UNL A   1      34.370  17.367  24.631  1.00  0.00     0.040 A 
ATOM     13  N   UNL A   1      32.345  17.637  25.801  1.00  0.00    -0.143 NA
ATOM     14  C   UNL A   1      33.271  16.833  25.260  1.00  0.00     0.150 A 
BRANCH  14  15
ATOM     15  C   UNL A   1      33.070  15.361  25.357  1.00  0.00     0.269 C 
ATOM     16  N   UNL A   1      31.779  14.910  25.406  1.00  0.00    -0.364 N 
ATOM     17  O   UNL A   1      34.017  14.584  25.375  1.00  0.00    -0.268 OA
ATOM     18  H   UNL A   1      31.032  15.552  25.390  1.00  0.00     0.160 HD
ATOM     19  H   UNL A   1      31.596  13.944  25.455  1.00  0.00     0.160 HD
ENDBRANCH  14  15
ENDBRANCH   7   9
ENDBRANCH   5   7
ENDBRANCH   3   5
ENDBRANCH   2   3
ENDBRANCH   1   2
BRANCH   1  20
ATOM     20  C   UNL A   1      39.197  21.069  25.761  1.00  0.00     0.275 C 
BRANCH  20  21
ATOM     21  O   UNL A   1      40.027  19.955  26.131  1.00  0.00    -0.458 OA
BRANCH  21  22
ATOM     22  C   UNL A   1      41.353  20.118  25.950  1.00  0.00     0.338 C 
ATOM     23  O   UNL A   1      42.139  19.280  25.506  1.00  0.00    -0.246 OA
BRANCH  22  24
ATOM     24  C   UNL A   1      41.775  21.473  26.350  1.00  0.00     0.060 A 
ATOM     25  C   UNL A   1      41.982  22.463  25.389  1.00  0.00     0.016 A 
ATOM     26  C   UNL A   1      42.129  21.713  27.682  1.00  0.00     0.016 A 
ATOM     27  C   UNL A   1      42.652  23.637  25.737  1.00  0.00     0.010 A 
ATOM     28  C   UNL A   1      42.731  22.924  28.040  1.00  0.00     0.010 A 
ATOM     29  C   UNL A   1      43.042  23.881  27.062  1.00  0.00    -0.014 A 
BRANCH  29  30
ATOM     30  C   UNL A   1      43.763  25.129  27.433  1.00  0.00     0.031 A 
ATOM     31  C   UNL A   1      43.056  26.264  28.116  1.00  0.00     0.074 A 
ATOM     32  C   UNL A   1      45.071  25.263  27.163  1.00  0.00     0.049 A 
ATOM     33  N   UNL A   1      43.292  27.548  28.075  1.00  0.00    -0.248 NA
ATOM     34  C   UNL A   1      41.907  25.904  28.946  1.00  0.00     0.031 C 
ATOM     35  C   UNL A   1      45.936  24.227  26.599  1.00  0.00     0.029 A 
ATOM     36  N   UNL A   1      45.898  26.339  27.338  1.00  0.00    -0.354 N 
ATOM     37  C   UNL A   1      42.232  28.151  28.752  1.00  0.00     0.074 A 
ATOM     38  C   UNL A   1      41.371  27.086  29.218  1.00  0.00     0.031 C 
ATOM     39  C   UNL A   1      47.183  24.709  26.503  1.00  0.00     0.029 A 
ATOM     40  C   UNL A   1      47.175  26.114  26.893  1.00  0.00     0.049 A 
ATOM     41  H   UNL A   1      45.606  27.188  27.742  1.00  0.00     0.167 HD
ATOM     42  C   UNL A   1      42.022  29.472  28.972  1.00  0.00     0.031 A 
ATOM     43  C   UNL A   1      48.207  26.964  26.751  1.00  0.00     0.031 A 
ATOM     44  C   UNL A   1      43.025  30.474  28.715  1.00  0.00     0.049 A 
ATOM     45  C   UNL A   1      48.012  28.407  27.099  1.00  0.00     0.074 A 
ATOM     46  C   UNL A   1      42.961  31.842  28.911  1.00  0.00     0.029 A 
ATOM     47  N   UNL A   1      44.319  30.191  28.301  1.00  0.00    -0.354 N 
ATOM     48  N   UNL A   1      46.916  29.018  27.483  1.00  0.00    -0.248 NA
ATOM     49  C   UNL A   1      49.186  29.278  26.983  1.00  0.00     0.031 C 
ATOM     50  C   UNL A   1      44.225  32.383  28.639  1.00  0.00     0.029 A 
ATOM     51  C   UNL A   1      45.079  31.346  28.293  1.00  0.00     0.049 A 
ATOM     52  H   UNL A   1      44.649  29.298  28.051  1.00  0.00     0.167 HD
ATOM     53  C   UNL A   1      47.265  30.351  27.648  1.00  0.00     0.074 A 
ATOM     54  C   UNL A   1      48.682  30.448  27.353  1.00  0.00     0.031 C 
ATOM     55  C   UNL A   1      46.486  31.405  27.996  1.00  0.00     0.031 A 
BRANCH  42  56
ATOM     56  C   UNL A   1      40.679  29.920  29.496  1.00  0.00    -0.014 A 
ATOM     57  C   UNL A   1      39.543  30.038  28.678  1.00  0.00     0.010 A 
ATOM     58  C   UNL A   1      40.543  30.166  30.878  1.00  0.00     0.010 A 
ATOM     59  C   UNL A   1      38.311  30.427  29.221  1.00  0.00     0.020 A 
ATOM     60  C   UNL A   1      39.308  30.524  31.431  1.00  0.00     0.020 A 
ATOM     61  C   UNL A   1      38.201  30.670  30.594  1.00  0.00     0.054 A 
BRANCH  61  62
ATOM     62  S   UNL A   1      36.585  31.120  31.290  1.00  0.00     0.124 S 
ATOM     63  O   UNL A   1      35.759  31.228  30.090  1.00  0.00    -0.237 OA
ATOM     64  O   UNL A   1      36.278  29.991  32.163  1.00  0.00    -0.237 OA
ATOM     65  O   UNL A   1      36.847  32.382  31.981  1.00  0.00    -0.744 OA
ENDBRANCH  61  62
ENDBRANCH  42  56
BRANCH  43  66
ATOM     66  C   UNL A   1      49.481  26.441  26.201  1.00  0.00    -0.014 A 
ATOM     67  C   UNL A   1      49.834  26.689  24.865  1.00  0.00     0.010 A 
ATOM     68  C   UNL A   1      50.407  25.813  27.055  1.00  0.00     0.010 A 
ATOM     69  C   UNL A   1      51.101  26.332  24.396  1.00  0.00     0.020 A 
ATOM     70  C   UNL A   1      51.683  25.482  26.598  1.00  0.00     0.020 A 
ATOM     71  C   UNL A   1      52.022  25.744  25.269  1.00  0.00     0.054 A 
BRANCH  71  72
ATOM     72  S   UNL A   1      53.707  25.417  24.683  1.00  0.00     0.124 S 
ATOM     73  O   UNL A   1      53.918  24.042  25.123  1.00  0.00    -0.237 OA
ATOM     74  O   UNL A   1      53.588  25.609  23.240  1.00  0.00    -0.237 OA
ATOM     75  O   UNL A   1      54.508  26.428  25.372  1.00  0.00    -0.744 OA
ENDBRANCH  71  72
ENDBRANCH  43  66
BRANCH  55  76
ATOM     76  C   UNL A   1      47.165  32.739  28.098  1.00  0.00    -0.014 A 
ATOM     77  C   UNL A   1      47.302  33.559  26.966  1.00  0.00     0.010 A 
ATOM     78  C   UNL A   1      47.646  33.183  29.342  1.00  0.00     0.010 A 
ATOM     79  C   UNL A   1      47.948  34.793  27.070  1.00  0.00     0.020 A 
ATOM     80  C   UNL A   1      48.277  34.424  29.451  1.00  0.00     0.020 A 
ATOM     81  C   UNL A   1      48.438  35.213  28.310  1.00  0.00     0.054 A 
BRANCH  81  82
ATOM     82  S   UNL A   1      49.261  36.825  28.422  1.00  0.00     0.124 S 
ATOM     83  O   UNL A   1      49.727  36.830  29.807  1.00  0.00    -0.237 OA
ATOM     84  O   UNL A   1      50.307  36.726  27.407  1.00  0.00    -0.237 OA
ATOM     85  O   UNL A   1      48.196  37.778  28.119  1.00  0.00    -0.744 OA
ENDBRANCH  81  82
ENDBRANCH  55  76
ENDBRANCH  29  30
ENDBRANCH  22  24
ENDBRANCH  21  22
ENDBRANCH  20  21
ENDBRANCH   1  20
TORSDOF 17
ENDMDL
MODEL 3
REMARK VINA RESULT:     -10.3      2.090      3.863
REMARK SMILES C[C@@H](C(=O)OCCOC(=O)c1ccc(-c2c3nc(c(-c4ccc(S(=O)(=O)[O-])cc4)c4ccc([nH]4)c(-c4ccc(S(=O)(=O)[O-])cc4)c4nc(c(-c5ccc(S(=O)(=O)[O-])cc5)c5ccc2[nH]5)C=C4)C=C3)cc1)N(C)c1ccc(C(N)=O)nn1
REMARK SMILES IDX 6 1 5 2 3 3 4 4 2 5 1 6 71 7 72 8 73 9 74 10 81 11 75 12
REMARK SMILES IDX 80 13 76 14 77 15 78 16 79 17 7 20 8 21 9 22 10 23 11 24
REMARK SMILES IDX 12 25 70 26 13 27 69 28 14 29 15 30 16 31 63 32 17 33 68 34
REMARK SMILES IDX 62 35 64 36 18 37 67 38 61 39 60 40 19 42 49 43 30 44 48 45
REMARK SMILES IDX 31 46 34 47 47 48 65 49 32 50 33 51 46 53 66 54 35 55 20 56
REMARK SMILES IDX 21 57 29 58 22 59 28 60 23 61 24 62 25 63 26 64 27 65 50 66
REMARK SMILES IDX 51 67 59 68 52 69 58 70 53 71 54 72 55 73 56 74 57 75 36 76
REMARK SMILES IDX 37 77 45 78 38 79 44 80 39 81 40 82 41 83 42 84 43 85
REMARK H PARENT 78 18 78 19 64 41 34 52
REMARK Flexibility Score: inf
ROOT
ATOM      1  C   UNL A   1      33.603  29.052  26.117  1.00  0.00     0.274 C 
ENDROOT
BRANCH   1   2
ATOM      2  O   UNL A   1      32.338  28.694  25.524  1.00  0.00    -0.461 OA
BRANCH   2   3
ATOM      3  C   UNL A   1      32.359  28.364  24.201  1.00  0.00     0.328 C 
ATOM      4  O   UNL A   1      32.901  29.038  23.330  1.00  0.00    -0.250 OA
BRANCH   3   5
ATOM      5  C   UNL A   1      31.568  27.078  23.894  1.00  0.00     0.190 C 
ATOM      6  C   UNL A   1      30.260  27.292  23.143  1.00  0.00     0.044 C 
BRANCH   5   7
ATOM      7  N   UNL A   1      31.468  26.156  25.059  1.00  0.00    -0.345 N 
ATOM      8  C   UNL A   1      30.097  25.917  25.538  1.00  0.00     0.146 C 
BRANCH   7   9
ATOM      9  C   UNL A   1      32.334  25.082  25.255  1.00  0.00     0.151 A 
ATOM     10  C   UNL A   1      33.706  25.222  25.422  1.00  0.00     0.051 A 
ATOM     11  N   UNL A   1      31.841  23.829  25.329  1.00  0.00    -0.132 NA
ATOM     12  C   UNL A   1      34.549  24.108  25.537  1.00  0.00     0.040 A 
ATOM     13  N   UNL A   1      32.660  22.707  25.419  1.00  0.00    -0.143 NA
ATOM     14  C   UNL A   1      33.991  22.853  25.494  1.00  0.00     0.150 A 
BRANCH  14  15
ATOM     15  C   UNL A   1      34.833  21.625  25.524  1.00  0.00     0.269 C 
ATOM     16  N   UNL A   1      34.297  20.516  26.117  1.00  0.00    -0.364 N 
ATOM     17  O   UNL A   1      35.951  21.602  25.022  1.00  0.00    -0.268 OA
ATOM     18  H   UNL A   1      33.396  20.556  26.514  1.00  0.00     0.160 HD
ATOM     19  H   UNL A   1      34.810  19.676  26.147  1.00  0.00     0.160 HD
ENDBRANCH  14  15
ENDBRANCH   7   9
ENDBRANCH   5   7
ENDBRANCH   3   5
ENDBRANCH   2   3
ENDBRANCH   1   2
BRANCH   1  20
ATOM     20  C   UNL A   1      33.409  30.047  27.255  1.00  0.00     0.275 C 
BRANCH  20  21
ATOM     21  O   UNL A   1      34.536  30.938  27.305  1.00  0.00    -0.458 OA
BRANCH  21  22
ATOM     22  C   UNL A   1      35.130  31.075  28.508  1.00  0.00     0.338 C 
ATOM     23  O   UNL A   1      34.692  31.700  29.474  1.00  0.00    -0.246 OA
BRANCH  22  24
ATOM     24  C   UNL A   1      36.414  30.350  28.544  1.00  0.00     0.060 A 
ATOM     25  C   UNL A   1      36.980  29.972  29.762  1.00  0.00     0.016 A 
ATOM     26  C   UNL A   1      37.142  30.193  27.360  1.00  0.00     0.016 A 
ATOM     27  C   UNL A   1      38.312  29.555  29.807  1.00  0.00     0.010 A 
ATOM     28  C   UNL A   1      38.452  29.702  27.403  1.00  0.00     0.010 A 
ATOM     29  C   UNL A   1      39.068  29.422  28.632  1.00  0.00    -0.014 A 
BRANCH  29  30
ATOM     30  C   UNL A   1      40.489  28.985  28.679  1.00  0.00     0.031 A 
ATOM     31  C   UNL A   1      41.590  29.948  29.024  1.00  0.00     0.074 A 
ATOM     32  C   UNL A   1      40.818  27.711  28.414  1.00  0.00     0.049 A 
ATOM     33  N   UNL A   1      42.842  29.961  28.652  1.00  0.00    -0.248 NA
ATOM     34  C   UNL A   1      41.221  31.066  29.892  1.00  0.00     0.031 C 
ATOM     35  C   UNL A   1      39.875  26.622  28.162  1.00  0.00     0.029 A 
ATOM     36  N   UNL A   1      42.050  27.123  28.319  1.00  0.00    -0.354 N 
ATOM     37  C   UNL A   1      43.364  31.167  29.122  1.00  0.00     0.074 A 
ATOM     38  C   UNL A   1      42.297  31.839  29.832  1.00  0.00     0.031 C 
ATOM     39  C   UNL A   1      40.563  25.488  27.971  1.00  0.00     0.029 A 
ATOM     40  C   UNL A   1      41.988  25.797  27.979  1.00  0.00     0.049 A 
ATOM     41  H   UNL A   1      42.894  27.604  28.479  1.00  0.00     0.167 HD
ATOM     42  C   UNL A   1      44.625  31.644  28.983  1.00  0.00     0.031 A 
ATOM     43  C   UNL A   1      42.968  24.940  27.643  1.00  0.00     0.031 A 
ATOM     44  C   UNL A   1      45.714  30.837  28.495  1.00  0.00     0.049 A 
ATOM     45  C   UNL A   1      44.381  25.436  27.595  1.00  0.00     0.074 A 
ATOM     46  C   UNL A   1      47.044  31.178  28.323  1.00  0.00     0.029 A 
ATOM     47  N   UNL A   1      45.609  29.484  28.200  1.00  0.00    -0.354 N 
ATOM     48  N   UNL A   1      44.829  26.656  27.779  1.00  0.00    -0.248 NA
ATOM     49  C   UNL A   1      45.417  24.447  27.282  1.00  0.00     0.031 C 
ATOM     50  C   UNL A   1      47.747  30.025  27.949  1.00  0.00     0.029 A 
ATOM     51  C   UNL A   1      46.855  28.963  27.907  1.00  0.00     0.049 A 
ATOM     52  H   UNL A   1      44.770  28.971  28.201  1.00  0.00     0.167 HD
ATOM     53  C   UNL A   1      46.203  26.584  27.596  1.00  0.00     0.074 A 
ATOM     54  C   UNL A   1      46.513  25.194  27.319  1.00  0.00     0.031 C 
ATOM     55  C   UNL A   1      47.127  27.576  27.638  1.00  0.00     0.031 A 
BRANCH  42  56
ATOM     56  C   UNL A   1      44.904  33.084  29.339  1.00  0.00    -0.014 A 
ATOM     57  C   UNL A   1      45.380  33.476  30.602  1.00  0.00     0.010 A 
ATOM     58  C   UNL A   1      44.746  34.069  28.342  1.00  0.00     0.010 A 
ATOM     59  C   UNL A   1      45.655  34.824  30.872  1.00  0.00     0.020 A 
ATOM     60  C   UNL A   1      45.049  35.411  28.597  1.00  0.00     0.020 A 
ATOM     61  C   UNL A   1      45.486  35.784  29.868  1.00  0.00     0.054 A 
BRANCH  61  62
ATOM     62  S   UNL A   1      45.898  37.518  30.219  1.00  0.00     0.124 S 
ATOM     63  O   UNL A   1      47.157  37.680  29.496  1.00  0.00    -0.237 OA
ATOM     64  O   UNL A   1      44.759  38.245  29.664  1.00  0.00    -0.237 OA
ATOM     65  O   UNL A   1      46.007  37.558  31.676  1.00  0.00    -0.744 OA
ENDBRANCH  61  62
ENDBRANCH  42  56
BRANCH  43  66
ATOM     66  C   UNL A   1      42.599  23.551  27.279  1.00  0.00    -0.014 A 
ATOM     67  C   UNL A   1      42.449  23.184  25.932  1.00  0.00     0.010 A 
ATOM     68  C   UNL A   1      42.531  22.561  28.277  1.00  0.00     0.010 A 
ATOM     69  C   UNL A   1      42.257  21.844  25.587  1.00  0.00     0.020 A 
ATOM     70  C   UNL A   1      42.368  21.218  27.934  1.00  0.00     0.020 A 
ATOM     71  C   UNL A   1      42.231  20.868  26.589  1.00  0.00     0.054 A 
BRANCH  71  72
ATOM     72  S   UNL A   1      42.121  19.121  26.115  1.00  0.00     0.124 S 
ATOM     73  O   UNL A   1      43.057  19.052  24.998  1.00  0.00    -0.237 OA
ATOM     74  O   UNL A   1      42.537  18.430  27.333  1.00  0.00    -0.237 OA
ATOM     75  O   UNL A   1      40.711  18.952  25.767  1.00  0.00    -0.744 OA
ENDBRANCH  71  72
ENDBRANCH  43  66
BRANCH  55  76
ATOM     76  C   UNL A   1      48.554  27.177  27.402  1.00  0.00    -0.014 A 
ATOM     77  C   UNL A   1      49.084  27.156  26.101  1.00  0.00     0.010 A 
ATOM     78  C   UNL A   1      49.374  26.845  28.494  1.00  0.00     0.010 A 
ATOM     79  C   UNL A   1      50.410  26.771  25.892  1.00  0.00     0.020 A 
ATOM     80  C   UNL A   1      50.705  26.475  28.288  1.00  0.00     0.020 A 
ATOM     81  C   UNL A   1      51.209  26.424  26.985  1.00  0.00     0.054 A 
BRANCH  81  82
ATOM     82  S   UNL A   1      52.930  25.940  26.690  1.00  0.00     0.124 S 
ATOM     83  O   UNL A   1      53.392  26.998  25.795  1.00  0.00    -0.237 OA
ATOM     84  O   UNL A   1      53.506  25.956  28.033  1.00  0.00    -0.237 OA
ATOM     85  O   UNL A   1      52.817  24.615  26.084  1.00  0.00    -0.744 OA
ENDBRANCH  81  82
ENDBRANCH  55  76
ENDBRANCH  29  30
ENDBRANCH  22  24
ENDBRANCH  21  22
ENDBRANCH  20  21
ENDBRANCH   1  20
TORSDOF 17
ENDMDL
