MODEL 1
REMARK VINA RESULT:     -11.0      0.000      0.000
REMARK SMILES O=C(OCCOC(=O)c1cccc2cccc([S@](=O)c3ccccc3CO)c12)c1ccc(-c2c3nc(c(-c4ccc(S(=O)(=O)[O-])cc4)c4ccc([nH]4)c(-c4ccc(S(=O)(=O)[O-])cc4)c4nc(c(-c5ccc(S(=O)(=O)[O-])cc5)c5ccc2[nH]5)C=C4)C=C3)cc1
REMARK SMILES IDX 5 1 4 2 3 3 2 4 1 5 29 6 30 7 88 8 31 9 87 10 32 11 33 12
REMARK SMILES IDX 34 13 81 14 35 15 86 16 80 17 82 18 36 19 85 20 79 21 78 22
REMARK SMILES IDX 37 24 67 25 48 26 66 27 49 28 52 29 65 30 83 31 50 32 51 33
REMARK SMILES IDX 64 35 84 36 53 37 38 38 39 39 47 40 40 41 46 42 41 43 42 44
REMARK SMILES IDX 43 45 44 46 45 47 68 48 69 49 77 50 70 51 76 52 71 53 72 54
REMARK SMILES IDX 73 55 74 56 75 57 54 58 55 59 63 60 56 61 62 62 57 63 58 64
REMARK SMILES IDX 59 65 60 66 61 67 6 68 7 69 8 70 9 71 10 72 28 73 11 74
REMARK SMILES IDX 13 75 17 76 12 77 14 78 16 79 15 80 18 81 19 82 20 83 21 84
REMARK SMILES IDX 25 85 22 86 24 87 23 88 26 89 27 90
REMARK H PARENT 82 23 52 34 27 91
REMARK Flexibility Score: inf
ROOT
ATOM      1  C   UNL A   1      32.421  28.963  27.484  1.00  0.00     0.275 C 
ENDROOT
BRANCH   1   2
ATOM      2  C   UNL A   1      32.484  30.355  26.859  1.00  0.00     0.275 C 
BRANCH   2   3
ATOM      3  O   UNL A   1      33.827  30.884  26.730  1.00  0.00    -0.458 OA
BRANCH   3   4
ATOM      4  C   UNL A   1      34.530  31.588  27.653  1.00  0.00     0.338 C 
ATOM      5  O   UNL A   1      34.100  32.649  28.099  1.00  0.00    -0.246 OA
BRANCH   4   6
ATOM      6  C   UNL A   1      35.826  31.071  28.148  1.00  0.00     0.060 A 
ATOM      7  C   UNL A   1      35.981  29.738  28.531  1.00  0.00     0.016 A 
ATOM      8  C   UNL A   1      36.887  31.969  28.329  1.00  0.00     0.016 A 
ATOM      9  C   UNL A   1      37.210  29.294  29.013  1.00  0.00     0.010 A 
ATOM     10  C   UNL A   1      38.127  31.524  28.786  1.00  0.00     0.010 A 
ATOM     11  C   UNL A   1      38.284  30.185  29.153  1.00  0.00    -0.014 A 
BRANCH  11  12
ATOM     12  C   UNL A   1      39.487  29.712  29.870  1.00  0.00     0.031 A 
ATOM     13  C   UNL A   1      39.710  30.196  31.271  1.00  0.00     0.074 A 
ATOM     14  C   UNL A   1      40.273  28.760  29.335  1.00  0.00     0.049 A 
ATOM     15  N   UNL A   1      40.472  29.679  32.198  1.00  0.00    -0.248 NA
ATOM     16  C   UNL A   1      38.942  31.374  31.707  1.00  0.00     0.031 C 
ATOM     17  C   UNL A   1      40.115  28.189  28.000  1.00  0.00     0.029 A 
ATOM     18  N   UNL A   1      41.346  28.086  29.860  1.00  0.00    -0.354 N 
ATOM     19  C   UNL A   1      40.202  30.410  33.346  1.00  0.00     0.074 A 
ATOM     20  C   UNL A   1      39.290  31.469  32.980  1.00  0.00     0.031 C 
ATOM     21  C   UNL A   1      41.078  27.273  27.794  1.00  0.00     0.029 A 
ATOM     22  C   UNL A   1      41.889  27.162  29.000  1.00  0.00     0.049 A 
ATOM     23  H   UNL A   1      41.692  28.248  30.767  1.00  0.00     0.167 HD
ATOM     24  C   UNL A   1      40.637  30.181  34.605  1.00  0.00     0.031 A 
ATOM     25  C   UNL A   1      42.905  26.297  29.182  1.00  0.00     0.031 A 
ATOM     26  C   UNL A   1      41.595  29.166  34.940  1.00  0.00     0.049 A 
ATOM     27  C   UNL A   1      43.493  26.165  30.560  1.00  0.00     0.074 A 
ATOM     28  C   UNL A   1      42.119  28.848  36.179  1.00  0.00     0.029 A 
ATOM     29  N   UNL A   1      42.194  28.321  34.017  1.00  0.00    -0.354 N 
ATOM     30  N   UNL A   1      43.149  26.790  31.662  1.00  0.00    -0.248 NA
ATOM     31  C   UNL A   1      44.563  25.175  30.735  1.00  0.00     0.031 C 
ATOM     32  C   UNL A   1      43.082  27.849  35.994  1.00  0.00     0.029 A 
ATOM     33  C   UNL A   1      43.116  27.508  34.650  1.00  0.00     0.049 A 
ATOM     34  H   UNL A   1      41.993  28.303  33.053  1.00  0.00     0.167 HD
ATOM     35  C   UNL A   1      43.926  26.234  32.671  1.00  0.00     0.074 A 
ATOM     36  C   UNL A   1      44.760  25.227  32.046  1.00  0.00     0.031 C 
ATOM     37  C   UNL A   1      43.936  26.518  33.998  1.00  0.00     0.031 A 
BRANCH  24  38
ATOM     38  C   UNL A   1      40.070  31.054  35.688  1.00  0.00    -0.014 A 
ATOM     39  C   UNL A   1      40.854  32.068  36.272  1.00  0.00     0.010 A 
ATOM     40  C   UNL A   1      38.755  30.858  36.139  1.00  0.00     0.010 A 
ATOM     41  C   UNL A   1      40.345  32.843  37.318  1.00  0.00     0.020 A 
ATOM     42  C   UNL A   1      38.235  31.645  37.171  1.00  0.00     0.020 A 
ATOM     43  C   UNL A   1      39.041  32.620  37.766  1.00  0.00     0.054 A 
BRANCH  43  44
ATOM     44  S   UNL A   1      38.404  33.635  39.128  1.00  0.00     0.124 S 
ATOM     45  O   UNL A   1      37.000  33.233  39.171  1.00  0.00    -0.237 OA
ATOM     46  O   UNL A   1      39.217  33.200  40.260  1.00  0.00    -0.237 OA
ATOM     47  O   UNL A   1      38.645  35.005  38.680  1.00  0.00    -0.744 OA
ENDBRANCH  43  44
ENDBRANCH  24  38
BRANCH  25  48
ATOM     48  C   UNL A   1      43.394  25.470  28.045  1.00  0.00    -0.014 A 
ATOM     49  C   UNL A   1      44.385  25.941  27.166  1.00  0.00     0.010 A 
ATOM     50  C   UNL A   1      42.854  24.186  27.837  1.00  0.00     0.010 A 
ATOM     51  C   UNL A   1      44.806  25.155  26.086  1.00  0.00     0.020 A 
ATOM     52  C   UNL A   1      43.286  23.390  26.774  1.00  0.00     0.020 A 
ATOM     53  C   UNL A   1      44.251  23.885  25.896  1.00  0.00     0.054 A 
BRANCH  53  54
ATOM     54  S   UNL A   1      44.828  22.875  24.503  1.00  0.00     0.124 S 
ATOM     55  O   UNL A   1      45.387  21.710  25.183  1.00  0.00    -0.237 OA
ATOM     56  O   UNL A   1      43.596  22.641  23.754  1.00  0.00    -0.237 OA
ATOM     57  O   UNL A   1      45.800  23.736  23.835  1.00  0.00    -0.744 OA
ENDBRANCH  53  54
ENDBRANCH  25  48
BRANCH  37  58
ATOM     58  C   UNL A   1      44.862  25.711  34.864  1.00  0.00    -0.014 A 
ATOM     59  C   UNL A   1      44.444  24.499  35.439  1.00  0.00     0.010 A 
ATOM     60  C   UNL A   1      46.187  26.144  35.051  1.00  0.00     0.010 A 
ATOM     61  C   UNL A   1      45.329  23.745  36.211  1.00  0.00     0.020 A 
ATOM     62  C   UNL A   1      47.083  25.378  35.798  1.00  0.00     0.020 A 
ATOM     63  C   UNL A   1      46.644  24.189  36.385  1.00  0.00     0.054 A 
BRANCH  63  64
ATOM     64  S   UNL A   1      47.791  23.166  37.347  1.00  0.00     0.124 S 
ATOM     65  O   UNL A   1      48.530  24.172  38.105  1.00  0.00    -0.237 OA
ATOM     66  O   UNL A   1      46.891  22.323  38.130  1.00  0.00    -0.237 OA
ATOM     67  O   UNL A   1      48.564  22.462  36.327  1.00  0.00    -0.744 OA
ENDBRANCH  63  64
ENDBRANCH  37  58
ENDBRANCH  11  12
ENDBRANCH   4   6
ENDBRANCH   3   4
ENDBRANCH   2   3
ENDBRANCH   1   2
BRANCH   1  68
ATOM     68  O   UNL A   1      32.709  27.941  26.519  1.00  0.00    -0.458 OA
BRANCH  68  69
ATOM     69  C   UNL A   1      31.699  27.057  26.311  1.00  0.00     0.338 C 
ATOM     70  O   UNL A   1      31.163  26.328  27.143  1.00  0.00    -0.246 OA
BRANCH  69  71
ATOM     71  C   UNL A   1      31.419  26.972  24.870  1.00  0.00     0.069 A 
ATOM     72  C   UNL A   1      30.355  27.815  24.481  1.00  0.00     0.016 A 
ATOM     73  C   UNL A   1      32.215  26.232  23.917  1.00  0.00     0.013 A 
ATOM     74  C   UNL A   1      30.022  27.955  23.148  1.00  0.00     0.002 A 
ATOM     75  C   UNL A   1      31.826  26.437  22.552  1.00  0.00    -0.016 A 
ATOM     76  C   UNL A   1      33.313  25.303  24.114  1.00  0.00     0.052 A 
ATOM     77  C   UNL A   1      30.748  27.262  22.196  1.00  0.00     0.009 A 
ATOM     78  C   UNL A   1      32.493  25.816  21.489  1.00  0.00     0.009 A 
ATOM     79  C   UNL A   1      33.968  24.718  23.002  1.00  0.00     0.019 A 
ATOM     80  C   UNL A   1      33.571  24.979  21.703  1.00  0.00     0.002 A 
BRANCH  76  81
ATOM     81  S   UNL A   1      33.780  24.477  25.654  1.00  0.00     0.086 S 
ATOM     82  O   UNL A   1      35.244  24.652  25.866  1.00  0.00    -0.249 OA
BRANCH  81  83
ATOM     83  C   UNL A   1      33.520  22.720  25.327  1.00  0.00     0.049 A 
ATOM     84  C   UNL A   1      34.567  21.867  24.942  1.00  0.00     0.018 A 
ATOM     85  C   UNL A   1      32.192  22.212  25.336  1.00  0.00    -0.006 A 
ATOM     86  C   UNL A   1      34.321  20.536  24.594  1.00  0.00     0.001 A 
ATOM     87  C   UNL A   1      31.975  20.860  25.010  1.00  0.00     0.007 A 
ATOM     88  C   UNL A   1      33.027  20.032  24.631  1.00  0.00     0.000 A 
BRANCH  85  89
ATOM     89  C   UNL A   1      30.998  23.058  25.737  1.00  0.00     0.192 C 
BRANCH  89  90
ATOM     90  O   UNL A   1      30.301  23.547  24.588  1.00  0.00    -0.392 OA
ATOM     91  H   UNL A   1      30.912  23.597  23.836  1.00  0.00     0.211 HD
ENDBRANCH  89  90
ENDBRANCH  85  89
ENDBRANCH  81  83
ENDBRANCH  76  81
ENDBRANCH  69  71
ENDBRANCH  68  69
ENDBRANCH   1  68
TORSDOF 18
ENDMDL
MODEL 2
REMARK VINA RESULT:     -10.7      5.227      9.441
REMARK SMILES O=C(OCCOC(=O)c1cccc2cccc([S@](=O)c3ccccc3CO)c12)c1ccc(-c2c3nc(c(-c4ccc(S(=O)(=O)[O-])cc4)c4ccc([nH]4)c(-c4ccc(S(=O)(=O)[O-])cc4)c4nc(c(-c5ccc(S(=O)(=O)[O-])cc5)c5ccc2[nH]5)C=C4)C=C3)cc1
REMARK SMILES IDX 5 1 4 2 3 3 2 4 1 5 29 6 30 7 88 8 31 9 87 10 32 11 33 12
REMARK SMILES IDX 34 13 81 14 35 15 86 16 80 17 82 18 36 19 85 20 79 21 78 22
REMARK SMILES IDX 37 24 67 25 48 26 66 27 49 28 52 29 65 30 83 31 50 32 51 33
REMARK SMILES IDX 64 35 84 36 53 37 38 38 39 39 47 40 40 41 46 42 41 43 42 44
REMARK SMILES IDX 43 45 44 46 45 47 68 48 69 49 77 50 70 51 76 52 71 53 72 54
REMARK SMILES IDX 73 55 74 56 75 57 54 58 55 59 63 60 56 61 62 62 57 63 58 64
REMARK SMILES IDX 59 65 60 66 61 67 6 68 7 69 8 70 9 71 10 72 28 73 11 74
REMARK SMILES IDX 13 75 17 76 12 77 14 78 16 79 15 80 18 81 19 82 20 83 21 84
REMARK SMILES IDX 25 85 22 86 24 87 23 88 26 89 27 90
REMARK H PARENT 82 23 52 34 27 91
REMARK Flexibility Score: inf
ROOT
ATOM      1  C   UNL A   1      33.957  29.540  27.131  1.00  0.00     0.275 C 
ENDROOT
BRANCH   1   2
ATOM      2  C   UNL A   1      35.394  29.369  27.619  1.00  0.00     0.275 C 
BRANCH   2   3
ATOM      3  O   UNL A   1      35.745  30.226  28.734  1.00  0.00    -0.458 OA
BRANCH   3   4
ATOM      4  C   UNL A   1      36.572  29.937  29.770  1.00  0.00     0.338 C 
ATOM      5  O   UNL A   1      36.128  29.757  30.901  1.00  0.00    -0.246 OA
BRANCH   4   6
ATOM      6  C   UNL A   1      38.031  29.817  29.542  1.00  0.00     0.060 A 
ATOM      7  C   UNL A   1      38.558  29.653  28.261  1.00  0.00     0.016 A 
ATOM      8  C   UNL A   1      38.886  29.767  30.651  1.00  0.00     0.016 A 
ATOM      9  C   UNL A   1      39.933  29.522  28.088  1.00  0.00     0.010 A 
ATOM     10  C   UNL A   1      40.266  29.663  30.483  1.00  0.00     0.010 A 
ATOM     11  C   UNL A   1      40.792  29.515  29.196  1.00  0.00    -0.014 A 
BRANCH  11  12
ATOM     12  C   UNL A   1      42.208  29.155  28.973  1.00  0.00     0.031 A 
ATOM     13  C   UNL A   1      42.531  27.729  28.643  1.00  0.00     0.074 A 
ATOM     14  C   UNL A   1      43.157  30.107  28.919  1.00  0.00     0.049 A 
ATOM     15  N   UNL A   1      43.610  27.248  28.085  1.00  0.00    -0.248 NA
ATOM     16  C   UNL A   1      41.493  26.722  28.922  1.00  0.00     0.031 C 
ATOM     17  C   UNL A   1      42.939  31.529  29.178  1.00  0.00     0.029 A 
ATOM     18  N   UNL A   1      44.488  30.027  28.601  1.00  0.00    -0.354 N 
ATOM     19  C   UNL A   1      43.341  25.905  27.862  1.00  0.00     0.074 A 
ATOM     20  C   UNL A   1      42.046  25.622  28.436  1.00  0.00     0.031 C 
ATOM     21  C   UNL A   1      44.105  32.186  29.044  1.00  0.00     0.029 A 
ATOM     22  C   UNL A   1      45.138  31.238  28.643  1.00  0.00     0.049 A 
ATOM     23  H   UNL A   1      44.935  29.183  28.365  1.00  0.00     0.167 HD
ATOM     24  C   UNL A   1      44.088  25.002  27.188  1.00  0.00     0.031 A 
ATOM     25  C   UNL A   1      46.415  31.550  28.354  1.00  0.00     0.031 A 
ATOM     26  C   UNL A   1      45.401  25.282  26.682  1.00  0.00     0.049 A 
ATOM     27  C   UNL A   1      47.291  30.487  27.749  1.00  0.00     0.074 A 
ATOM     28  C   UNL A   1      46.259  24.445  25.994  1.00  0.00     0.029 A 
ATOM     29  N   UNL A   1      46.059  26.494  26.839  1.00  0.00    -0.354 N 
ATOM     30  N   UNL A   1      46.985  29.247  27.445  1.00  0.00    -0.248 NA
ATOM     31  C   UNL A   1      48.663  30.875  27.397  1.00  0.00     0.031 C 
ATOM     32  C   UNL A   1      47.459  25.133  25.788  1.00  0.00     0.029 A 
ATOM     33  C   UNL A   1      47.329  26.416  26.298  1.00  0.00     0.049 A 
ATOM     34  H   UNL A   1      45.677  27.292  27.272  1.00  0.00     0.167 HD
ATOM     35  C   UNL A   1      48.108  28.722  26.819  1.00  0.00     0.074 A 
ATOM     36  C   UNL A   1      49.102  29.777  26.795  1.00  0.00     0.031 C 
ATOM     37  C   UNL A   1      48.297  27.484  26.296  1.00  0.00     0.031 A 
BRANCH  24  38
ATOM     38  C   UNL A   1      43.484  23.643  26.977  1.00  0.00    -0.014 A 
ATOM     39  C   UNL A   1      43.356  22.743  28.053  1.00  0.00     0.010 A 
ATOM     40  C   UNL A   1      43.054  23.251  25.699  1.00  0.00     0.010 A 
ATOM     41  C   UNL A   1      42.846  21.460  27.845  1.00  0.00     0.020 A 
ATOM     42  C   UNL A   1      42.525  21.973  25.491  1.00  0.00     0.020 A 
ATOM     43  C   UNL A   1      42.441  21.080  26.563  1.00  0.00     0.054 A 
BRANCH  43  44
ATOM     44  S   UNL A   1      41.787  19.406  26.317  1.00  0.00     0.124 S 
ATOM     45  O   UNL A   1      42.468  18.994  25.093  1.00  0.00    -0.237 OA
ATOM     46  O   UNL A   1      42.207  18.716  27.533  1.00  0.00    -0.237 OA
ATOM     47  O   UNL A   1      40.347  19.614  26.187  1.00  0.00    -0.744 OA
ENDBRANCH  43  44
ENDBRANCH  24  38
BRANCH  25  48
ATOM     48  C   UNL A   1      46.920  32.929  28.595  1.00  0.00    -0.014 A 
ATOM     49  C   UNL A   1      46.980  33.882  27.564  1.00  0.00     0.010 A 
ATOM     50  C   UNL A   1      47.354  33.293  29.885  1.00  0.00     0.010 A 
ATOM     51  C   UNL A   1      47.487  35.163  27.810  1.00  0.00     0.020 A 
ATOM     52  C   UNL A   1      47.842  34.578  30.141  1.00  0.00     0.020 A 
ATOM     53  C   UNL A   1      47.918  35.502  29.097  1.00  0.00     0.054 A 
BRANCH  53  54
ATOM     54  S   UNL A   1      48.551  37.175  29.400  1.00  0.00     0.124 S 
ATOM     55  O   UNL A   1      49.946  37.051  28.988  1.00  0.00    -0.237 OA
ATOM     56  O   UNL A   1      47.704  37.993  28.535  1.00  0.00    -0.237 OA
ATOM     57  O   UNL A   1      48.335  37.368  30.832  1.00  0.00    -0.744 OA
ENDBRANCH  53  54
ENDBRANCH  25  48
BRANCH  37  58
ATOM     58  C   UNL A   1      49.618  27.215  25.633  1.00  0.00    -0.014 A 
ATOM     59  C   UNL A   1      49.845  27.578  24.294  1.00  0.00     0.010 A 
ATOM     60  C   UNL A   1      50.665  26.647  26.381  1.00  0.00     0.010 A 
ATOM     61  C   UNL A   1      51.091  27.353  23.706  1.00  0.00     0.020 A 
ATOM     62  C   UNL A   1      51.920  26.447  25.805  1.00  0.00     0.020 A 
ATOM     63  C   UNL A   1      52.121  26.788  24.465  1.00  0.00     0.054 A 
BRANCH  63  64
ATOM     64  S   UNL A   1      53.746  26.555  23.696  1.00  0.00     0.124 S 
ATOM     65  O   UNL A   1      53.383  26.116  22.352  1.00  0.00    -0.237 OA
ATOM     66  O   UNL A   1      54.337  27.889  23.783  1.00  0.00    -0.237 OA
ATOM     67  O   UNL A   1      54.383  25.542  24.534  1.00  0.00    -0.744 OA
ENDBRANCH  63  64
ENDBRANCH  37  58
ENDBRANCH  11  12
ENDBRANCH   4   6
ENDBRANCH   3   4
ENDBRANCH   2   3
ENDBRANCH   1   2
BRANCH   1  68
ATOM     68  O   UNL A   1      33.665  28.658  26.039  1.00  0.00    -0.458 OA
BRANCH  68  69
ATOM     69  C   UNL A   1      32.506  27.960  26.169  1.00  0.00     0.338 C 
ATOM     70  O   UNL A   1      32.081  27.401  27.178  1.00  0.00    -0.246 OA
BRANCH  69  71
ATOM     71  C   UNL A   1      31.870  27.828  24.850  1.00  0.00     0.069 A 
ATOM     72  C   UNL A   1      30.919  28.843  24.610  1.00  0.00     0.016 A 
ATOM     73  C   UNL A   1      32.255  26.868  23.840  1.00  0.00     0.013 A 
ATOM     74  C   UNL A   1      30.300  28.950  23.380  1.00  0.00     0.002 A 
ATOM     75  C   UNL A   1      31.589  27.047  22.583  1.00  0.00    -0.016 A 
ATOM     76  C   UNL A   1      33.177  25.747  23.897  1.00  0.00     0.052 A 
ATOM     77  C   UNL A   1      30.629  28.050  22.381  1.00  0.00     0.009 A 
ATOM     78  C   UNL A   1      31.847  26.222  21.482  1.00  0.00     0.009 A 
ATOM     79  C   UNL A   1      33.418  24.957  22.747  1.00  0.00     0.019 A 
ATOM     80  C   UNL A   1      32.770  25.196  21.549  1.00  0.00     0.002 A 
BRANCH  76  81
ATOM     81  S   UNL A   1      33.845  24.960  25.382  1.00  0.00     0.086 S 
ATOM     82  O   UNL A   1      35.333  25.013  25.323  1.00  0.00    -0.249 OA
BRANCH  81  83
ATOM     83  C   UNL A   1      33.392  23.219  25.219  1.00  0.00     0.049 A 
ATOM     84  C   UNL A   1      34.299  22.248  24.767  1.00  0.00     0.018 A 
ATOM     85  C   UNL A   1      32.038  22.843  25.435  1.00  0.00    -0.006 A 
ATOM     86  C   UNL A   1      33.894  20.927  24.551  1.00  0.00     0.001 A 
ATOM     87  C   UNL A   1      31.661  21.500  25.239  1.00  0.00     0.007 A 
ATOM     88  C   UNL A   1      32.578  20.553  24.790  1.00  0.00     0.000 A 
BRANCH  85  89
ATOM     89  C   UNL A   1      30.986  23.823  25.922  1.00  0.00     0.192 C 
BRANCH  89  90
ATOM     90  O   UNL A   1      30.901  23.822  27.350  1.00  0.00    -0.392 OA
ATOM     91  H   UNL A   1      30.703  24.719  27.662  1.00  0.00     0.211 HD
ENDBRANCH  89  90
ENDBRANCH  85  89
ENDBRANCH  81  83
ENDBRANCH  76  81
ENDBRANCH  69  71
ENDBRANCH  68  69
ENDBRANCH   1  68
TORSDOF 18
ENDMDL
MODEL 3
REMARK VINA RESULT:     -10.5      6.814     12.354
REMARK SMILES O=C(OCCOC(=O)c1cccc2cccc([S@](=O)c3ccccc3CO)c12)c1ccc(-c2c3nc(c(-c4ccc(S(=O)(=O)[O-])cc4)c4ccc([nH]4)c(-c4ccc(S(=O)(=O)[O-])cc4)c4nc(c(-c5ccc(S(=O)(=O)[O-])cc5)c5ccc2[nH]5)C=C4)C=C3)cc1
REMARK SMILES IDX 5 1 4 2 3 3 2 4 1 5 29 6 30 7 88 8 31 9 87 10 32 11 33 12
REMARK SMILES IDX 34 13 81 14 35 15 86 16 80 17 82 18 36 19 85 20 79 21 78 22
REMARK SMILES IDX 37 24 67 25 48 26 66 27 49 28 52 29 65 30 83 31 50 32 51 33
REMARK SMILES IDX 64 35 84 36 53 37 38 38 39 39 47 40 40 41 46 42 41 43 42 44
REMARK SMILES IDX 43 45 44 46 45 47 68 48 69 49 77 50 70 51 76 52 71 53 72 54
REMARK SMILES IDX 73 55 74 56 75 57 54 58 55 59 63 60 56 61 62 62 57 63 58 64
REMARK SMILES IDX 59 65 60 66 61 67 6 68 7 69 8 70 9 71 10 72 28 73 11 74
REMARK SMILES IDX 13 75 17 76 12 77 14 78 16 79 15 80 18 81 19 82 20 83 21 84
REMARK SMILES IDX 25 85 22 86 24 87 23 88 26 89 27 90
REMARK H PARENT 82 23 52 34 27 91
REMARK Flexibility Score: inf
ROOT
ATOM      1  C   UNL A   1      44.060  21.946  26.325  1.00  0.00     0.275 C 
ENDROOT
BRANCH   1   2
ATOM      2  C   UNL A   1      44.966  22.324  25.155  1.00  0.00     0.275 C 
BRANCH   2   3
ATOM      3  O   UNL A   1      45.062  23.751  24.919  1.00  0.00    -0.458 OA
BRANCH   3   4
ATOM      4  C   UNL A   1      46.186  24.510  24.890  1.00  0.00     0.338 C 
ATOM      5  O   UNL A   1      47.171  24.155  24.248  1.00  0.00    -0.246 OA
BRANCH   4   6
ATOM      6  C   UNL A   1      46.231  25.796  25.624  1.00  0.00     0.060 A 
ATOM      7  C   UNL A   1      46.369  25.839  27.012  1.00  0.00     0.016 A 
ATOM      8  C   UNL A   1      46.027  26.987  24.913  1.00  0.00     0.016 A 
ATOM      9  C   UNL A   1      46.385  27.066  27.669  1.00  0.00     0.010 A 
ATOM     10  C   UNL A   1      46.068  28.219  25.563  1.00  0.00     0.010 A 
ATOM     11  C   UNL A   1      46.224  28.261  26.951  1.00  0.00    -0.014 A 
BRANCH  11  12
ATOM     12  C   UNL A   1      46.029  29.509  27.718  1.00  0.00     0.031 A 
ATOM     13  C   UNL A   1      47.085  30.569  27.622  1.00  0.00     0.074 A 
ATOM     14  C   UNL A   1      44.870  29.746  28.359  1.00  0.00     0.049 A 
ATOM     15  N   UNL A   1      46.989  31.840  27.909  1.00  0.00    -0.248 NA
ATOM     16  C   UNL A   1      48.396  30.167  27.085  1.00  0.00     0.031 C 
ATOM     17  C   UNL A   1      43.762  28.800  28.472  1.00  0.00     0.029 A 
ATOM     18  N   UNL A   1      44.421  30.864  29.012  1.00  0.00    -0.354 N 
ATOM     19  C   UNL A   1      48.191  32.400  27.500  1.00  0.00     0.074 A 
ATOM     20  C   UNL A   1      49.038  31.323  27.044  1.00  0.00     0.031 C 
ATOM     21  C   UNL A   1      42.771  29.364  29.185  1.00  0.00     0.029 A 
ATOM     22  C   UNL A   1      43.158  30.725  29.536  1.00  0.00     0.049 A 
ATOM     23  H   UNL A   1      44.953  31.688  29.097  1.00  0.00     0.167 HD
ATOM     24  C   UNL A   1      48.533  33.708  27.459  1.00  0.00     0.031 A 
ATOM     25  C   UNL A   1      42.386  31.612  30.193  1.00  0.00     0.031 A 
ATOM     26  C   UNL A   1      47.706  34.759  27.978  1.00  0.00     0.049 A 
ATOM     27  C   UNL A   1      42.855  33.039  30.282  1.00  0.00     0.074 A 
ATOM     28  C   UNL A   1      47.952  36.119  28.003  1.00  0.00     0.029 A 
ATOM     29  N   UNL A   1      46.478  34.558  28.592  1.00  0.00    -0.354 N 
ATOM     30  N   UNL A   1      43.949  33.575  29.792  1.00  0.00    -0.248 NA
ATOM     31  C   UNL A   1      41.966  33.991  30.959  1.00  0.00     0.031 C 
ATOM     32  C   UNL A   1      46.898  36.734  28.688  1.00  0.00     0.029 A 
ATOM     33  C   UNL A   1      45.970  35.765  29.040  1.00  0.00     0.049 A 
ATOM     34  H   UNL A   1      46.034  33.686  28.695  1.00  0.00     0.167 HD
ATOM     35  C   UNL A   1      43.856  34.935  30.057  1.00  0.00     0.074 A 
ATOM     36  C   UNL A   1      42.602  35.138  30.755  1.00  0.00     0.031 C 
ATOM     37  C   UNL A   1      44.720  35.931  29.737  1.00  0.00     0.031 A 
BRANCH  24  38
ATOM     38  C   UNL A   1      49.857  34.043  26.834  1.00  0.00    -0.014 A 
ATOM     39  C   UNL A   1      51.044  33.967  27.588  1.00  0.00     0.010 A 
ATOM     40  C   UNL A   1      49.922  34.450  25.491  1.00  0.00     0.010 A 
ATOM     41  C   UNL A   1      52.267  34.333  27.022  1.00  0.00     0.020 A 
ATOM     42  C   UNL A   1      51.148  34.798  24.915  1.00  0.00     0.020 A 
ATOM     43  C   UNL A   1      52.310  34.755  25.690  1.00  0.00     0.054 A 
BRANCH  43  44
ATOM     44  S   UNL A   1      53.909  35.229  24.979  1.00  0.00     0.124 S 
ATOM     45  O   UNL A   1      54.555  33.932  24.802  1.00  0.00    -0.237 OA
ATOM     46  O   UNL A   1      53.523  35.913  23.748  1.00  0.00    -0.237 OA
ATOM     47  O   UNL A   1      54.503  36.084  26.004  1.00  0.00    -0.744 OA
ENDBRANCH  43  44
ENDBRANCH  24  38
BRANCH  25  48
ATOM     48  C   UNL A   1      41.086  31.183  30.776  1.00  0.00    -0.014 A 
ATOM     49  C   UNL A   1      40.986  30.740  32.106  1.00  0.00     0.010 A 
ATOM     50  C   UNL A   1      39.924  31.216  29.980  1.00  0.00     0.010 A 
ATOM     51  C   UNL A   1      39.756  30.314  32.620  1.00  0.00     0.020 A 
ATOM     52  C   UNL A   1      38.690  30.811  30.495  1.00  0.00     0.020 A 
ATOM     53  C   UNL A   1      38.616  30.350  31.810  1.00  0.00     0.054 A 
BRANCH  53  54
ATOM     54  S   UNL A   1      37.028  29.813  32.505  1.00  0.00     0.124 S 
ATOM     55  O   UNL A   1      36.658  30.955  33.336  1.00  0.00    -0.237 OA
ATOM     56  O   UNL A   1      36.214  29.611  31.308  1.00  0.00    -0.237 OA
ATOM     57  O   UNL A   1      37.367  28.592  33.231  1.00  0.00    -0.744 OA
ENDBRANCH  53  54
ENDBRANCH  25  48
BRANCH  37  58
ATOM     58  C   UNL A   1      44.326  37.330  30.119  1.00  0.00    -0.014 A 
ATOM     59  C   UNL A   1      43.620  38.153  29.225  1.00  0.00     0.010 A 
ATOM     60  C   UNL A   1      44.612  37.801  31.413  1.00  0.00     0.010 A 
ATOM     61  C   UNL A   1      43.230  39.437  29.611  1.00  0.00     0.020 A 
ATOM     62  C   UNL A   1      44.199  39.073  31.812  1.00  0.00     0.020 A 
ATOM     63  C   UNL A   1      43.522  39.889  30.902  1.00  0.00     0.054 A 
BRANCH  63  64
ATOM     64  S   UNL A   1      42.958  41.539  31.398  1.00  0.00     0.124 S 
ATOM     65  O   UNL A   1      42.259  41.255  32.648  1.00  0.00    -0.237 OA
ATOM     66  O   UNL A   1      44.211  42.280  31.533  1.00  0.00    -0.237 OA
ATOM     67  O   UNL A   1      42.108  41.962  30.288  1.00  0.00    -0.744 OA
ENDBRANCH  63  64
ENDBRANCH  37  58
ENDBRANCH  11  12
ENDBRANCH   4   6
ENDBRANCH   3   4
ENDBRANCH   2   3
ENDBRANCH   1   2
BRANCH   1  68
ATOM     68  O   UNL A   1      42.838  21.350  25.871  1.00  0.00    -0.458 OA
BRANCH  68  69
ATOM     69  C   UNL A   1      41.918  21.131  26.846  1.00  0.00     0.338 C 
ATOM     70  O   UNL A   1      42.132  20.873  28.029  1.00  0.00    -0.246 OA
BRANCH  69  71
ATOM     71  C   UNL A   1      40.576  21.093  26.247  1.00  0.00     0.069 A 
ATOM     72  C   UNL A   1      40.248  19.814  25.747  1.00  0.00     0.016 A 
ATOM     73  C   UNL A   1      39.626  22.182  26.282  1.00  0.00     0.013 A 
ATOM     74  C   UNL A   1      38.985  19.557  25.250  1.00  0.00     0.002 A 
ATOM     75  C   UNL A   1      38.331  21.842  25.768  1.00  0.00    -0.016 A 
ATOM     76  C   UNL A   1      39.774  23.559  26.721  1.00  0.00     0.052 A 
ATOM     77  C   UNL A   1      38.042  20.568  25.254  1.00  0.00     0.009 A 
ATOM     78  C   UNL A   1      37.278  22.764  25.737  1.00  0.00     0.009 A 
ATOM     79  C   UNL A   1      38.670  24.446  26.688  1.00  0.00     0.019 A 
ATOM     80  C   UNL A   1      37.433  24.052  26.212  1.00  0.00     0.002 A 
BRANCH  76  81
ATOM     81  S   UNL A   1      41.320  24.452  27.004  1.00  0.00     0.086 S 
ATOM     82  O   UNL A   1      41.862  24.061  28.336  1.00  0.00    -0.249 OA
BRANCH  81  83
ATOM     83  C   UNL A   1      40.828  26.185  27.145  1.00  0.00     0.049 A 
ATOM     84  C   UNL A   1      39.884  26.621  28.088  1.00  0.00     0.018 A 
ATOM     85  C   UNL A   1      41.318  27.114  26.186  1.00  0.00    -0.006 A 
ATOM     86  C   UNL A   1      39.443  27.948  28.106  1.00  0.00     0.001 A 
ATOM     87  C   UNL A   1      40.881  28.451  26.245  1.00  0.00     0.007 A 
ATOM     88  C   UNL A   1      39.944  28.862  27.189  1.00  0.00     0.000 A 
BRANCH  85  89
ATOM     89  C   UNL A   1      42.339  26.735  25.130  1.00  0.00     0.192 C 
BRANCH  89  90
ATOM     90  O   UNL A   1      42.674  27.856  24.308  1.00  0.00    -0.392 OA
ATOM     91  H   UNL A   1      42.183  28.636  24.611  1.00  0.00     0.211 HD
ENDBRANCH  89  90
ENDBRANCH  85  89
ENDBRANCH  81  83
ENDBRANCH  76  81
ENDBRANCH  69  71
ENDBRANCH  68  69
ENDBRANCH   1  68
TORSDOF 18
ENDMDL
