MODEL 1
REMARK VINA RESULT:      -9.5      0.000      0.000
REMARK SMILES C[C@@H](O)[C@H](C)[N@@H+]1CCOC[C@@H]1C(=O)OCCOC(=O)c1ccc(-c2c3nc(c(-c4ccc(S(=O)(=O)[O-])cc4)c4ccc([nH]4)c(-c4ccc(S(=O)(=O)[O-])cc4)c4nc(c(-c5ccc(S(=O)(=O)[O-])cc5)c5ccc2[nH]5)C=C4)C=C3)cc1
REMARK SMILES IDX 15 1 14 2 12 3 13 4 11 5 6 6 7 7 8 9 10 10 9 11 4 12 5 13
REMARK SMILES IDX 2 14 1 15 3 16 16 18 17 19 18 20 19 21 20 22 21 23 79 24
REMARK SMILES IDX 22 25 78 26 23 27 24 28 25 29 72 30 26 31 77 32 71 33 73 34
REMARK SMILES IDX 27 35 76 36 70 37 69 38 28 40 58 41 39 42 57 43 40 44 43 45
REMARK SMILES IDX 56 46 74 47 41 48 42 49 55 51 75 52 44 53 29 54 30 55 38 56
REMARK SMILES IDX 31 57 37 58 32 59 33 60 34 61 35 62 36 63 59 64 60 65 68 66
REMARK SMILES IDX 61 67 67 68 62 69 63 70 64 71 65 72 66 73 45 74 46 75 54 76
REMARK SMILES IDX 47 77 53 78 48 79 49 80 50 81 51 82 52 83
REMARK H PARENT 6 8 3 17 73 39 43 50
REMARK Flexibility Score: inf
ROOT
ATOM      1  C   UNL A   1      46.056  24.367  25.634  1.00  0.00     0.274 C 
ENDROOT
BRANCH   1   2
ATOM      2  O   UNL A   1      45.176  23.216  25.617  1.00  0.00    -0.458 OA
BRANCH   2   3
ATOM      3  C   UNL A   1      45.041  22.553  24.442  1.00  0.00     0.367 C 
ATOM      4  O   UNL A   1      44.863  23.115  23.366  1.00  0.00    -0.245 OA
BRANCH   3   5
ATOM      5  C   UNL A   1      45.135  21.035  24.571  1.00  0.00     0.321 C 
ATOM      6  N   UNL A   1      43.849  20.289  24.724  1.00  0.00    -0.315 N 
ATOM      7  C   UNL A   1      44.194  18.857  24.470  1.00  0.00     0.292 C 
ATOM      8  H   UNL A   1      43.216  20.744  24.065  1.00  0.00     0.349 HD
ATOM      9  C   UNL A   1      45.335  18.337  25.362  1.00  0.00     0.221 C 
ATOM     10  C   UNL A   1      46.285  20.519  25.441  1.00  0.00     0.237 C 
ATOM     11  O   UNL A   1      46.524  19.120  25.214  1.00  0.00    -0.369 OA
BRANCH   6  12
ATOM     12  C   UNL A   1      43.004  20.410  25.945  1.00  0.00     0.210 C 
ATOM     13  C   UNL A   1      42.055  21.604  26.115  1.00  0.00     0.078 C 
BRANCH  12  14
ATOM     14  C   UNL A   1      42.303  19.038  26.209  1.00  0.00     0.169 C 
ATOM     15  C   UNL A   1      42.367  18.643  27.682  1.00  0.00     0.045 C 
BRANCH  14  16
ATOM     16  O   UNL A   1      40.930  19.043  25.828  1.00  0.00    -0.387 OA
ATOM     17  H   UNL A   1      40.569  18.147  25.911  1.00  0.00     0.211 HD
ENDBRANCH  14  16
ENDBRANCH  12  14
ENDBRANCH   6  12
ENDBRANCH   3   5
ENDBRANCH   2   3
ENDBRANCH   1   2
BRANCH   1  18
ATOM     18  C   UNL A   1      45.276  25.605  26.054  1.00  0.00     0.275 C 
BRANCH  18  19
ATOM     19  O   UNL A   1      43.878  25.276  26.049  1.00  0.00    -0.458 OA
BRANCH  19  20
ATOM     20  C   UNL A   1      43.023  26.316  25.929  1.00  0.00     0.338 C 
ATOM     21  O   UNL A   1      42.506  26.723  24.899  1.00  0.00    -0.246 OA
BRANCH  20  22
ATOM     22  C   UNL A   1      42.721  26.875  27.262  1.00  0.00     0.060 A 
ATOM     23  C   UNL A   1      41.942  26.162  28.177  1.00  0.00     0.016 A 
ATOM     24  C   UNL A   1      43.101  28.187  27.547  1.00  0.00     0.016 A 
ATOM     25  C   UNL A   1      41.454  26.799  29.319  1.00  0.00     0.010 A 
ATOM     26  C   UNL A   1      42.708  28.778  28.751  1.00  0.00     0.010 A 
ATOM     27  C   UNL A   1      41.854  28.105  29.640  1.00  0.00    -0.014 A 
BRANCH  27  28
ATOM     28  C   UNL A   1      41.408  28.774  30.897  1.00  0.00     0.031 A 
ATOM     29  C   UNL A   1      40.195  29.670  30.899  1.00  0.00     0.074 A 
ATOM     30  C   UNL A   1      42.118  28.629  32.035  1.00  0.00     0.049 A 
ATOM     31  N   UNL A   1      39.836  30.572  31.777  1.00  0.00    -0.248 NA
ATOM     32  C   UNL A   1      39.277  29.549  29.754  1.00  0.00     0.031 C 
ATOM     33  C   UNL A   1      43.284  27.759  32.212  1.00  0.00     0.029 A 
ATOM     34  N   UNL A   1      41.968  29.227  33.263  1.00  0.00    -0.354 N 
ATOM     35  C   UNL A   1      38.696  31.178  31.257  1.00  0.00     0.074 A 
ATOM     36  C   UNL A   1      38.415  30.530  29.994  1.00  0.00     0.031 C 
ATOM     37  C   UNL A   1      43.719  27.853  33.475  1.00  0.00     0.029 A 
ATOM     38  C   UNL A   1      42.941  28.872  34.166  1.00  0.00     0.049 A 
ATOM     39  H   UNL A   1      41.235  29.849  33.474  1.00  0.00     0.167 HD
ATOM     40  C   UNL A   1      37.964  32.192  31.780  1.00  0.00     0.031 A 
ATOM     41  C   UNL A   1      43.230  29.351  35.390  1.00  0.00     0.031 A 
ATOM     42  C   UNL A   1      38.220  32.797  33.064  1.00  0.00     0.049 A 
ATOM     43  C   UNL A   1      42.430  30.491  35.941  1.00  0.00     0.074 A 
ATOM     44  C   UNL A   1      37.533  33.826  33.686  1.00  0.00     0.029 A 
ATOM     45  N   UNL A   1      39.230  32.412  33.931  1.00  0.00    -0.354 N 
ATOM     46  N   UNL A   1      41.422  31.125  35.392  1.00  0.00    -0.248 NA
ATOM     47  C   UNL A   1      42.824  30.998  37.262  1.00  0.00     0.031 C 
ATOM     48  C   UNL A   1      38.146  34.082  34.918  1.00  0.00     0.029 A 
ATOM     49  C   UNL A   1      39.189  33.184  35.081  1.00  0.00     0.049 A 
ATOM     50  H   UNL A   1      39.882  31.695  33.757  1.00  0.00     0.167 HD
ATOM     51  C   UNL A   1      41.057  32.107  36.304  1.00  0.00     0.074 A 
ATOM     52  C   UNL A   1      41.940  31.970  37.445  1.00  0.00     0.031 C 
ATOM     53  C   UNL A   1      40.082  33.042  36.201  1.00  0.00     0.031 A 
BRANCH  40  54
ATOM     54  C   UNL A   1      36.840  32.751  30.946  1.00  0.00    -0.014 A 
ATOM     55  C   UNL A   1      35.507  32.349  31.137  1.00  0.00     0.010 A 
ATOM     56  C   UNL A   1      37.124  33.738  29.983  1.00  0.00     0.010 A 
ATOM     57  C   UNL A   1      34.484  32.897  30.356  1.00  0.00     0.020 A 
ATOM     58  C   UNL A   1      36.102  34.305  29.216  1.00  0.00     0.020 A 
ATOM     59  C   UNL A   1      34.788  33.867  29.396  1.00  0.00     0.054 A 
BRANCH  59  60
ATOM     60  S   UNL A   1      33.443  34.581  28.408  1.00  0.00     0.124 S 
ATOM     61  O   UNL A   1      32.583  35.151  29.442  1.00  0.00    -0.237 OA
ATOM     62  O   UNL A   1      34.138  35.552  27.567  1.00  0.00    -0.237 OA
ATOM     63  O   UNL A   1      32.887  33.432  27.698  1.00  0.00    -0.744 OA
ENDBRANCH  59  60
ENDBRANCH  40  54
BRANCH  41  64
ATOM     64  C   UNL A   1      44.385  28.784  36.137  1.00  0.00    -0.014 A 
ATOM     65  C   UNL A   1      45.652  29.383  36.046  1.00  0.00     0.010 A 
ATOM     66  C   UNL A   1      44.202  27.688  37.000  1.00  0.00     0.010 A 
ATOM     67  C   UNL A   1      46.714  28.904  36.817  1.00  0.00     0.020 A 
ATOM     68  C   UNL A   1      45.254  27.224  37.793  1.00  0.00     0.020 A 
ATOM     69  C   UNL A   1      46.506  27.834  37.693  1.00  0.00     0.054 A 
BRANCH  69  70
ATOM     70  S   UNL A   1      47.864  27.298  38.770  1.00  0.00     0.124 S 
ATOM     71  O   UNL A   1      47.209  27.229  40.072  1.00  0.00    -0.237 OA
ATOM     72  O   UNL A   1      48.251  26.017  38.185  1.00  0.00    -0.237 OA
ATOM     73  O   UNL A   1      48.854  28.364  38.621  1.00  0.00    -0.744 OA
ENDBRANCH  69  70
ENDBRANCH  41  64
BRANCH  53  74
ATOM     74  C   UNL A   1      39.905  33.969  37.370  1.00  0.00    -0.014 A 
ATOM     75  C   UNL A   1      39.066  33.627  38.444  1.00  0.00     0.010 A 
ATOM     76  C   UNL A   1      40.600  35.190  37.400  1.00  0.00     0.010 A 
ATOM     77  C   UNL A   1      38.898  34.508  39.516  1.00  0.00     0.020 A 
ATOM     78  C   UNL A   1      40.450  36.065  38.478  1.00  0.00     0.020 A 
ATOM     79  C   UNL A   1      39.587  35.726  39.521  1.00  0.00     0.054 A 
BRANCH  79  80
ATOM     80  S   UNL A   1      39.373  36.847  40.930  1.00  0.00     0.124 S 
ATOM     81  O   UNL A   1      38.633  37.952  40.329  1.00  0.00    -0.237 OA
ATOM     82  O   UNL A   1      38.623  36.032  41.883  1.00  0.00    -0.237 OA
ATOM     83  O   UNL A   1      40.744  37.159  41.332  1.00  0.00    -0.744 OA
ENDBRANCH  79  80
ENDBRANCH  53  74
ENDBRANCH  27  28
ENDBRANCH  20  22
ENDBRANCH  19  20
ENDBRANCH  18  19
ENDBRANCH   1  18
TORSDOF 17
ENDMDL
MODEL 2
REMARK VINA RESULT:      -9.4      6.367     12.227
REMARK SMILES C[C@@H](O)[C@H](C)[N@@H+]1CCOC[C@@H]1C(=O)OCCOC(=O)c1ccc(-c2c3nc(c(-c4ccc(S(=O)(=O)[O-])cc4)c4ccc([nH]4)c(-c4ccc(S(=O)(=O)[O-])cc4)c4nc(c(-c5ccc(S(=O)(=O)[O-])cc5)c5ccc2[nH]5)C=C4)C=C3)cc1
REMARK SMILES IDX 15 1 14 2 12 3 13 4 11 5 6 6 7 7 8 9 10 10 9 11 4 12 5 13
REMARK SMILES IDX 2 14 1 15 3 16 16 18 17 19 18 20 19 21 20 22 21 23 79 24
REMARK SMILES IDX 22 25 78 26 23 27 24 28 25 29 72 30 26 31 77 32 71 33 73 34
REMARK SMILES IDX 27 35 76 36 70 37 69 38 28 40 58 41 39 42 57 43 40 44 43 45
REMARK SMILES IDX 56 46 74 47 41 48 42 49 55 51 75 52 44 53 29 54 30 55 38 56
REMARK SMILES IDX 31 57 37 58 32 59 33 60 34 61 35 62 36 63 59 64 60 65 68 66
REMARK SMILES IDX 61 67 67 68 62 69 63 70 64 71 65 72 66 73 45 74 46 75 54 76
REMARK SMILES IDX 47 77 53 78 48 79 49 80 50 81 51 82 52 83
REMARK H PARENT 6 8 3 17 73 39 43 50
REMARK Flexibility Score: inf
ROOT
ATOM      1  C   UNL A   1      32.785  29.234  25.678  1.00  0.00     0.274 C 
ENDROOT
BRANCH   1   2
ATOM      2  O   UNL A   1      31.478  28.639  25.876  1.00  0.00    -0.458 OA
BRANCH   2   3
ATOM      3  C   UNL A   1      31.405  27.286  25.886  1.00  0.00     0.367 C 
ATOM      4  O   UNL A   1      31.084  26.634  26.876  1.00  0.00    -0.245 OA
BRANCH   3   5
ATOM      5  C   UNL A   1      31.753  26.635  24.550  1.00  0.00     0.321 C 
ATOM      6  N   UNL A   1      31.288  27.338  23.316  1.00  0.00    -0.315 N 
ATOM      7  C   UNL A   1      32.048  26.704  22.196  1.00  0.00     0.292 C 
ATOM      8  H   UNL A   1      31.468  28.324  23.507  1.00  0.00     0.349 HD
ATOM      9  C   UNL A   1      31.898  25.174  22.145  1.00  0.00     0.221 C 
ATOM     10  C   UNL A   1      31.625  25.110  24.508  1.00  0.00     0.237 C 
ATOM     11  O   UNL A   1      32.308  24.559  23.370  1.00  0.00    -0.369 OA
BRANCH   6  12
ATOM     12  C   UNL A   1      29.845  27.450  22.965  1.00  0.00     0.210 C 
ATOM     13  C   UNL A   1      28.777  26.828  23.874  1.00  0.00     0.078 C 
BRANCH  12  14
ATOM     14  C   UNL A   1      29.532  28.936  22.593  1.00  0.00     0.169 C 
ATOM     15  C   UNL A   1      28.059  29.275  22.808  1.00  0.00     0.045 C 
BRANCH  14  16
ATOM     16  O   UNL A   1      30.300  29.863  23.353  1.00  0.00    -0.387 OA
ATOM     17  H   UNL A   1      30.963  29.384  23.873  1.00  0.00     0.211 HD
ENDBRANCH  14  16
ENDBRANCH  12  14
ENDBRANCH   6  12
ENDBRANCH   3   5
ENDBRANCH   2   3
ENDBRANCH   1   2
BRANCH   1  18
ATOM     18  C   UNL A   1      33.776  28.643  26.673  1.00  0.00     0.275 C 
BRANCH  18  19
ATOM     19  O   UNL A   1      33.695  29.404  27.888  1.00  0.00    -0.458 OA
BRANCH  19  20
ATOM     20  C   UNL A   1      34.551  30.446  27.994  1.00  0.00     0.338 C 
ATOM     21  O   UNL A   1      34.267  31.634  27.954  1.00  0.00    -0.246 OA
BRANCH  20  22
ATOM     22  C   UNL A   1      35.917  29.948  28.251  1.00  0.00     0.060 A 
ATOM     23  C   UNL A   1      36.300  29.535  29.530  1.00  0.00     0.016 A 
ATOM     24  C   UNL A   1      36.870  30.031  27.234  1.00  0.00     0.016 A 
ATOM     25  C   UNL A   1      37.649  29.314  29.815  1.00  0.00     0.010 A 
ATOM     26  C   UNL A   1      38.200  29.691  27.498  1.00  0.00     0.010 A 
ATOM     27  C   UNL A   1      38.615  29.357  28.798  1.00  0.00    -0.014 A 
BRANCH  27  28
ATOM     28  C   UNL A   1      40.049  29.044  29.066  1.00  0.00     0.031 A 
ATOM     29  C   UNL A   1      40.985  30.114  29.570  1.00  0.00     0.074 A 
ATOM     30  C   UNL A   1      40.537  27.814  28.808  1.00  0.00     0.049 A 
ATOM     31  N   UNL A   1      42.294  30.137  29.561  1.00  0.00    -0.248 NA
ATOM     32  C   UNL A   1      40.368  31.324  30.139  1.00  0.00     0.031 C 
ATOM     33  C   UNL A   1      39.754  26.657  28.366  1.00  0.00     0.029 A 
ATOM     34  N   UNL A   1      41.824  27.333  28.867  1.00  0.00    -0.354 N 
ATOM     35  C   UNL A   1      42.656  31.389  30.051  1.00  0.00     0.074 A 
ATOM     36  C   UNL A   1      41.429  32.090  30.361  1.00  0.00     0.031 C 
ATOM     37  C   UNL A   1      40.565  25.599  28.229  1.00  0.00     0.029 A 
ATOM     38  C   UNL A   1      41.938  26.027  28.459  1.00  0.00     0.049 A 
ATOM     39  H   UNL A   1      42.588  27.874  29.172  1.00  0.00     0.167 HD
ATOM     40  C   UNL A   1      43.899  31.907  30.209  1.00  0.00     0.031 A 
ATOM     41  C   UNL A   1      43.022  25.264  28.225  1.00  0.00     0.031 A 
ATOM     42  C   UNL A   1      45.118  31.183  29.946  1.00  0.00     0.049 A 
ATOM     43  C   UNL A   1      44.387  25.861  28.376  1.00  0.00     0.074 A 
ATOM     44  C   UNL A   1      46.426  31.616  30.082  1.00  0.00     0.029 A 
ATOM     45  N   UNL A   1      45.177  29.867  29.516  1.00  0.00    -0.354 N 
ATOM     46  N   UNL A   1      44.713  27.078  28.738  1.00  0.00    -0.248 NA
ATOM     47  C   UNL A   1      45.528  24.991  28.063  1.00  0.00     0.031 C 
ATOM     48  C   UNL A   1      47.277  30.570  29.706  1.00  0.00     0.029 A 
ATOM     49  C   UNL A   1      46.498  29.472  29.377  1.00  0.00     0.049 A 
ATOM     50  H   UNL A   1      44.397  29.295  29.337  1.00  0.00     0.167 HD
ATOM     51  C   UNL A   1      46.102  27.121  28.698  1.00  0.00     0.074 A 
ATOM     52  C   UNL A   1      46.551  25.803  28.296  1.00  0.00     0.031 C 
ATOM     53  C   UNL A   1      46.927  28.161  28.965  1.00  0.00     0.031 A 
BRANCH  40  54
ATOM     54  C   UNL A   1      44.010  33.345  30.645  1.00  0.00    -0.014 A 
ATOM     55  C   UNL A   1      44.238  33.695  31.987  1.00  0.00     0.010 A 
ATOM     56  C   UNL A   1      43.934  34.365  29.677  1.00  0.00     0.010 A 
ATOM     57  C   UNL A   1      44.351  35.040  32.357  1.00  0.00     0.020 A 
ATOM     58  C   UNL A   1      44.068  35.708  30.040  1.00  0.00     0.020 A 
ATOM     59  C   UNL A   1      44.259  36.038  31.382  1.00  0.00     0.054 A 
BRANCH  59  60
ATOM     60  S   UNL A   1      44.430  37.775  31.881  1.00  0.00     0.124 S 
ATOM     61  O   UNL A   1      45.806  37.811  32.372  1.00  0.00    -0.237 OA
ATOM     62  O   UNL A   1      44.191  38.496  30.634  1.00  0.00    -0.237 OA
ATOM     63  O   UNL A   1      43.400  37.946  32.903  1.00  0.00    -0.744 OA
ENDBRANCH  59  60
ENDBRANCH  40  54
BRANCH  41  64
ATOM     64  C   UNL A   1      42.837  23.867  27.750  1.00  0.00    -0.014 A 
ATOM     65  C   UNL A   1      42.546  22.840  28.663  1.00  0.00     0.010 A 
ATOM     66  C   UNL A   1      42.875  23.573  26.374  1.00  0.00     0.010 A 
ATOM     67  C   UNL A   1      42.283  21.546  28.207  1.00  0.00     0.020 A 
ATOM     68  C   UNL A   1      42.585  22.288  25.913  1.00  0.00     0.020 A 
ATOM     69  C   UNL A   1      42.294  21.280  26.835  1.00  0.00     0.054 A 
BRANCH  69  70
ATOM     70  S   UNL A   1      41.839  19.622  26.253  1.00  0.00     0.124 S 
ATOM     71  O   UNL A   1      42.296  18.780  27.352  1.00  0.00    -0.237 OA
ATOM     72  O   UNL A   1      40.391  19.725  26.091  1.00  0.00    -0.237 OA
ATOM     73  O   UNL A   1      42.587  19.486  25.004  1.00  0.00    -0.744 OA
ENDBRANCH  69  70
ENDBRANCH  41  64
BRANCH  53  74
ATOM     74  C   UNL A   1      48.403  27.901  28.856  1.00  0.00    -0.014 A 
ATOM     75  C   UNL A   1      49.132  27.399  29.948  1.00  0.00     0.010 A 
ATOM     76  C   UNL A   1      49.064  28.145  27.639  1.00  0.00     0.010 A 
ATOM     77  C   UNL A   1      50.507  27.179  29.836  1.00  0.00     0.020 A 
ATOM     78  C   UNL A   1      50.435  27.909  27.517  1.00  0.00     0.020 A 
ATOM     79  C   UNL A   1      51.151  27.442  28.621  1.00  0.00     0.054 A 
BRANCH  79  80
ATOM     80  S   UNL A   1      52.932  27.131  28.488  1.00  0.00     0.124 S 
ATOM     81  O   UNL A   1      52.982  26.079  27.476  1.00  0.00    -0.237 OA
ATOM     82  O   UNL A   1      53.459  28.429  28.071  1.00  0.00    -0.237 OA
ATOM     83  O   UNL A   1      53.311  26.717  29.838  1.00  0.00    -0.744 OA
ENDBRANCH  79  80
ENDBRANCH  53  74
ENDBRANCH  27  28
ENDBRANCH  20  22
ENDBRANCH  19  20
ENDBRANCH  18  19
ENDBRANCH   1  18
TORSDOF 17
ENDMDL
MODEL 3
REMARK VINA RESULT:      -9.4      4.379     10.200
REMARK SMILES C[C@@H](O)[C@H](C)[N@@H+]1CCOC[C@@H]1C(=O)OCCOC(=O)c1ccc(-c2c3nc(c(-c4ccc(S(=O)(=O)[O-])cc4)c4ccc([nH]4)c(-c4ccc(S(=O)(=O)[O-])cc4)c4nc(c(-c5ccc(S(=O)(=O)[O-])cc5)c5ccc2[nH]5)C=C4)C=C3)cc1
REMARK SMILES IDX 15 1 14 2 12 3 13 4 11 5 6 6 7 7 8 9 10 10 9 11 4 12 5 13
REMARK SMILES IDX 2 14 1 15 3 16 16 18 17 19 18 20 19 21 20 22 21 23 79 24
REMARK SMILES IDX 22 25 78 26 23 27 24 28 25 29 72 30 26 31 77 32 71 33 73 34
REMARK SMILES IDX 27 35 76 36 70 37 69 38 28 40 58 41 39 42 57 43 40 44 43 45
REMARK SMILES IDX 56 46 74 47 41 48 42 49 55 51 75 52 44 53 29 54 30 55 38 56
REMARK SMILES IDX 31 57 37 58 32 59 33 60 34 61 35 62 36 63 59 64 60 65 68 66
REMARK SMILES IDX 61 67 67 68 62 69 63 70 64 71 65 72 66 73 45 74 46 75 54 76
REMARK SMILES IDX 47 77 53 78 48 79 49 80 50 81 51 82 52 83
REMARK H PARENT 6 8 3 17 73 39 43 50
REMARK Flexibility Score: inf
ROOT
ATOM      1  C   UNL A   1      36.426  23.535  24.990  1.00  0.00     0.274 C 
ENDROOT
BRANCH   1   2
ATOM      2  O   UNL A   1      35.446  24.246  25.787  1.00  0.00    -0.458 OA
BRANCH   2   3
ATOM      3  C   UNL A   1      34.359  24.738  25.144  1.00  0.00     0.367 C 
ATOM      4  O   UNL A   1      34.426  25.382  24.101  1.00  0.00    -0.245 OA
BRANCH   3   5
ATOM      5  C   UNL A   1      33.034  24.415  25.827  1.00  0.00     0.321 C 
ATOM      6  N   UNL A   1      32.367  23.135  25.437  1.00  0.00    -0.315 N 
ATOM      7  C   UNL A   1      31.322  22.905  26.480  1.00  0.00     0.292 C 
ATOM      8  H   UNL A   1      33.132  22.462  25.381  1.00  0.00     0.349 HD
ATOM      9  C   UNL A   1      30.358  24.092  26.652  1.00  0.00     0.221 C 
ATOM     10  C   UNL A   1      32.085  25.602  26.017  1.00  0.00     0.237 C 
ATOM     11  O   UNL A   1      31.054  25.300  26.972  1.00  0.00    -0.369 OA
BRANCH   6  12
ATOM     12  C   UNL A   1      31.798  22.922  24.077  1.00  0.00     0.210 C 
ATOM     13  C   UNL A   1      31.250  24.108  23.272  1.00  0.00     0.078 C 
BRANCH  12  14
ATOM     14  C   UNL A   1      32.786  22.035  23.252  1.00  0.00     0.169 C 
ATOM     15  C   UNL A   1      32.049  21.134  22.265  1.00  0.00     0.045 C 
BRANCH  14  16
ATOM     16  O   UNL A   1      33.722  22.808  22.507  1.00  0.00    -0.387 OA
ATOM     17  H   UNL A   1      33.757  22.483  21.594  1.00  0.00     0.211 HD
ENDBRANCH  14  16
ENDBRANCH  12  14
ENDBRANCH   6  12
ENDBRANCH   3   5
ENDBRANCH   2   3
ENDBRANCH   1   2
BRANCH   1  18
ATOM     18  C   UNL A   1      37.629  23.176  25.854  1.00  0.00     0.275 C 
BRANCH  18  19
ATOM     19  O   UNL A   1      38.271  24.396  26.254  1.00  0.00    -0.458 OA
BRANCH  19  20
ATOM     20  C   UNL A   1      39.527  24.273  26.739  1.00  0.00     0.338 C 
ATOM     21  O   UNL A   1      40.383  23.483  26.367  1.00  0.00    -0.246 OA
BRANCH  20  22
ATOM     22  C   UNL A   1      39.772  25.307  27.765  1.00  0.00     0.060 A 
ATOM     23  C   UNL A   1      38.987  25.370  28.920  1.00  0.00     0.016 A 
ATOM     24  C   UNL A   1      40.703  26.313  27.503  1.00  0.00     0.016 A 
ATOM     25  C   UNL A   1      39.058  26.492  29.747  1.00  0.00     0.010 A 
ATOM     26  C   UNL A   1      40.853  27.373  28.401  1.00  0.00     0.010 A 
ATOM     27  C   UNL A   1      40.012  27.494  29.520  1.00  0.00    -0.014 A 
BRANCH  27  28
ATOM     28  C   UNL A   1      40.158  28.660  30.440  1.00  0.00     0.031 A 
ATOM     29  C   UNL A   1      41.210  28.658  31.519  1.00  0.00     0.074 A 
ATOM     30  C   UNL A   1      39.311  29.707  30.351  1.00  0.00     0.049 A 
ATOM     31  N   UNL A   1      41.294  29.402  32.593  1.00  0.00    -0.248 NA
ATOM     32  C   UNL A   1      42.300  27.676  31.384  1.00  0.00     0.031 C 
ATOM     33  C   UNL A   1      38.274  29.886  29.332  1.00  0.00     0.029 A 
ATOM     34  N   UNL A   1      39.183  30.820  31.147  1.00  0.00    -0.354 N 
ATOM     35  C   UNL A   1      42.398  28.930  33.299  1.00  0.00     0.074 A 
ATOM     36  C   UNL A   1      42.960  27.846  32.523  1.00  0.00     0.031 C 
ATOM     37  C   UNL A   1      37.642  31.049  29.543  1.00  0.00     0.029 A 
ATOM     38  C   UNL A   1      38.147  31.642  30.773  1.00  0.00     0.049 A 
ATOM     39  H   UNL A   1      39.775  31.009  31.910  1.00  0.00     0.167 HD
ATOM     40  C   UNL A   1      42.883  29.355  34.491  1.00  0.00     0.031 A 
ATOM     41  C   UNL A   1      37.607  32.717  31.377  1.00  0.00     0.031 A 
ATOM     42  C   UNL A   1      42.348  30.470  35.232  1.00  0.00     0.049 A 
ATOM     43  C   UNL A   1      38.137  33.155  32.708  1.00  0.00     0.074 A 
ATOM     44  C   UNL A   1      42.773  30.984  36.446  1.00  0.00     0.029 A 
ATOM     45  N   UNL A   1      41.286  31.258  34.817  1.00  0.00    -0.354 N 
ATOM     46  N   UNL A   1      39.112  32.635  33.413  1.00  0.00    -0.248 NA
ATOM     47  C   UNL A   1      37.476  34.306  33.336  1.00  0.00     0.031 C 
ATOM     48  C   UNL A   1      41.949  32.065  36.779  1.00  0.00     0.029 A 
ATOM     49  C   UNL A   1      41.038  32.250  35.751  1.00  0.00     0.049 A 
ATOM     50  H   UNL A   1      40.782  31.132  33.981  1.00  0.00     0.167 HD
ATOM     51  C   UNL A   1      39.184  33.399  34.571  1.00  0.00     0.074 A 
ATOM     52  C   UNL A   1      38.168  34.426  34.461  1.00  0.00     0.031 C 
ATOM     53  C   UNL A   1      40.015  33.257  35.632  1.00  0.00     0.031 A 
BRANCH  40  54
ATOM     54  C   UNL A   1      44.026  28.584  35.099  1.00  0.00    -0.014 A 
ATOM     55  C   UNL A   1      45.365  28.948  34.876  1.00  0.00     0.010 A 
ATOM     56  C   UNL A   1      43.747  27.500  35.954  1.00  0.00     0.010 A 
ATOM     57  C   UNL A   1      46.404  28.220  35.467  1.00  0.00     0.020 A 
ATOM     58  C   UNL A   1      44.781  26.784  36.564  1.00  0.00     0.020 A 
ATOM     59  C   UNL A   1      46.105  27.139  36.302  1.00  0.00     0.054 A 
BRANCH  59  60
ATOM     60  S   UNL A   1      47.467  26.221  37.077  1.00  0.00     0.124 S 
ATOM     61  O   UNL A   1      48.605  27.100  36.818  1.00  0.00    -0.237 OA
ATOM     62  O   UNL A   1      47.047  26.134  38.473  1.00  0.00    -0.237 OA
ATOM     63  O   UNL A   1      47.484  24.951  36.355  1.00  0.00    -0.744 OA
ENDBRANCH  59  60
ENDBRANCH  40  54
BRANCH  41  64
ATOM     64  C   UNL A   1      36.449  33.401  30.742  1.00  0.00    -0.014 A 
ATOM     65  C   UNL A   1      35.226  33.506  31.424  1.00  0.00     0.010 A 
ATOM     66  C   UNL A   1      36.590  34.015  29.483  1.00  0.00     0.010 A 
ATOM     67  C   UNL A   1      34.167  34.226  30.864  1.00  0.00     0.020 A 
ATOM     68  C   UNL A   1      35.544  34.758  28.934  1.00  0.00     0.020 A 
ATOM     69  C   UNL A   1      34.336  34.856  29.627  1.00  0.00     0.054 A 
BRANCH  69  70
ATOM     70  S   UNL A   1      32.992  35.881  28.968  1.00  0.00     0.124 S 
ATOM     71  O   UNL A   1      32.240  36.208  30.174  1.00  0.00    -0.237 OA
ATOM     72  O   UNL A   1      33.710  36.991  28.347  1.00  0.00    -0.237 OA
ATOM     73  O   UNL A   1      32.315  34.987  28.029  1.00  0.00    -0.744 OA
ENDBRANCH  69  70
ENDBRANCH  41  64
BRANCH  53  74
ATOM     74  C   UNL A   1      39.873  34.257  36.744  1.00  0.00    -0.014 A 
ATOM     75  C   UNL A   1      39.030  34.005  37.840  1.00  0.00     0.010 A 
ATOM     76  C   UNL A   1      40.605  35.456  36.697  1.00  0.00     0.010 A 
ATOM     77  C   UNL A   1      38.895  34.954  38.857  1.00  0.00     0.020 A 
ATOM     78  C   UNL A   1      40.488  36.398  37.721  1.00  0.00     0.020 A 
ATOM     79  C   UNL A   1      39.621  36.148  38.787  1.00  0.00     0.054 A 
BRANCH  79  80
ATOM     80  S   UNL A   1      39.450  37.358  40.127  1.00  0.00     0.124 S 
ATOM     81  O   UNL A   1      40.818  37.845  40.274  1.00  0.00    -0.237 OA
ATOM     82  O   UNL A   1      38.496  38.319  39.577  1.00  0.00    -0.237 OA
ATOM     83  O   UNL A   1      38.947  36.563  41.246  1.00  0.00    -0.744 OA
ENDBRANCH  79  80
ENDBRANCH  53  74
ENDBRANCH  27  28
ENDBRANCH  20  22
ENDBRANCH  19  20
ENDBRANCH  18  19
ENDBRANCH   1  18
TORSDOF 17
ENDMDL
