MODEL 1
REMARK VINA RESULT:      -9.7      0.000      0.000
REMARK SMILES COCc1cccc(C[NH2+][C@H](C)[C@H](C)C(=O)OCCOC(=O)c2ccc(-c3c4nc(c(-c5ccc(S(=O)(=O)[O-])cc5)c5ccc([nH]5)c(-c5ccc(S(=O)(=O)[O-])cc5)c5nc(c(-c6ccc(S(=O)(=O)[O-])cc6)c6ccc3[nH]6)C=C5)C=C4)cc2)c1
REMARK SMILES IDX 17 1 15 2 16 3 13 4 14 5 11 6 12 7 10 8 9 11 8 12 4 13 5 14
REMARK SMILES IDX 83 15 6 16 7 17 3 18 2 19 1 20 18 21 19 22 20 23 21 24 22 25
REMARK SMILES IDX 23 26 24 27 82 28 25 29 81 30 26 31 27 32 28 33 75 34 29 35
REMARK SMILES IDX 80 36 74 37 76 38 30 39 79 40 73 41 72 42 31 44 61 45 42 46
REMARK SMILES IDX 60 47 43 48 46 49 59 50 77 51 44 52 45 53 58 55 78 56 47 57
REMARK SMILES IDX 32 58 33 59 41 60 34 61 40 62 35 63 36 64 37 65 38 66 39 67
REMARK SMILES IDX 62 68 63 69 71 70 64 71 70 72 65 73 66 74 67 75 68 76 69 77
REMARK SMILES IDX 48 78 49 79 57 80 50 81 56 82 51 83 52 84 53 85 54 86 55 87
REMARK H PARENT 10 9 10 10 76 43 46 54
REMARK Flexibility Score: inf
ROOT
ATOM      1  O   UNL A   1      36.530  22.403  24.791  1.00  0.00    -0.462 OA
ENDROOT
BRANCH   1   2
ATOM      2  C   UNL A   1      35.849  21.231  24.911  1.00  0.00     0.314 C 
ATOM      3  O   UNL A   1      36.386  20.133  24.995  1.00  0.00    -0.252 OA
BRANCH   2   4
ATOM      4  C   UNL A   1      34.335  21.413  24.914  1.00  0.00     0.154 C 
ATOM      5  C   UNL A   1      33.610  20.071  24.743  1.00  0.00     0.026 C 
BRANCH   4   6
ATOM      6  C   UNL A   1      33.865  22.217  26.153  1.00  0.00     0.193 C 
ATOM      7  C   UNL A   1      34.407  21.612  27.460  1.00  0.00     0.076 C 
BRANCH   6   8
ATOM      8  N   UNL A   1      34.331  23.614  26.042  1.00  0.00    -0.340 N 
ATOM      9  H   UNL A   1      34.138  24.089  26.924  1.00  0.00     0.346 HD
ATOM     10  H   UNL A   1      35.328  23.582  25.832  1.00  0.00     0.346 HD
BRANCH   8  11
ATOM     11  C   UNL A   1      33.688  24.358  24.966  1.00  0.00     0.297 C 
BRANCH  11  12
ATOM     12  C   UNL A   1      32.971  25.568  25.514  1.00  0.00     0.006 A 
ATOM     13  C   UNL A   1      32.954  27.955  26.022  1.00  0.00    -0.022 A 
ATOM     14  C   UNL A   1      31.618  27.846  26.430  1.00  0.00     0.006 A 
ATOM     15  C   UNL A   1      33.625  26.804  25.585  1.00  0.00     0.015 A 
ATOM     16  C   UNL A   1      30.974  26.607  26.416  1.00  0.00     0.001 A 
ATOM     17  C   UNL A   1      31.646  25.474  25.957  1.00  0.00     0.009 A 
BRANCH  13  18
ATOM     18  C   UNL A   1      33.655  29.291  26.016  1.00  0.00     0.195 C 
BRANCH  18  19
ATOM     19  O   UNL A   1      33.383  30.063  27.188  1.00  0.00    -0.380 OA
ATOM     20  C   UNL A   1      34.552  30.567  27.820  1.00  0.00     0.195 C 
ENDBRANCH  18  19
ENDBRANCH  13  18
ENDBRANCH  11  12
ENDBRANCH   8  11
ENDBRANCH   6   8
ENDBRANCH   4   6
ENDBRANCH   2   4
ENDBRANCH   1   2
BRANCH   1  21
ATOM     21  C   UNL A   1      37.754  22.495  25.545  1.00  0.00     0.274 C 
BRANCH  21  22
ATOM     22  C   UNL A   1      38.086  23.935  25.956  1.00  0.00     0.275 C 
BRANCH  22  23
ATOM     23  O   UNL A   1      39.270  24.012  26.772  1.00  0.00    -0.458 OA
BRANCH  23  24
ATOM     24  C   UNL A   1      40.099  25.042  26.477  1.00  0.00     0.338 C 
ATOM     25  O   UNL A   1      40.554  25.321  25.380  1.00  0.00    -0.246 OA
BRANCH  24  26
ATOM     26  C   UNL A   1      40.296  25.901  27.655  1.00  0.00     0.060 A 
ATOM     27  C   UNL A   1      39.357  25.813  28.687  1.00  0.00     0.016 A 
ATOM     28  C   UNL A   1      41.302  26.866  27.698  1.00  0.00     0.016 A 
ATOM     29  C   UNL A   1      39.405  26.693  29.761  1.00  0.00     0.010 A 
ATOM     30  C   UNL A   1      41.343  27.761  28.774  1.00  0.00     0.010 A 
ATOM     31  C   UNL A   1      40.381  27.694  29.799  1.00  0.00    -0.014 A 
BRANCH  31  32
ATOM     32  C   UNL A   1      40.302  28.739  30.845  1.00  0.00     0.031 A 
ATOM     33  C   UNL A   1      41.252  28.684  32.009  1.00  0.00     0.074 A 
ATOM     34  C   UNL A   1      39.434  29.760  30.726  1.00  0.00     0.049 A 
ATOM     35  N   UNL A   1      41.313  29.453  33.065  1.00  0.00    -0.248 NA
ATOM     36  C   UNL A   1      42.270  27.620  31.978  1.00  0.00     0.031 C 
ATOM     37  C   UNL A   1      38.516  29.965  29.605  1.00  0.00     0.029 A 
ATOM     38  N   UNL A   1      39.189  30.822  31.558  1.00  0.00    -0.354 N 
ATOM     39  C   UNL A   1      42.357  28.956  33.835  1.00  0.00     0.074 A 
ATOM     40  C   UNL A   1      42.895  27.811  33.131  1.00  0.00     0.031 C 
ATOM     41  C   UNL A   1      37.806  31.085  29.821  1.00  0.00     0.029 A 
ATOM     42  C   UNL A   1      38.190  31.652  31.112  1.00  0.00     0.049 A 
ATOM     43  H   UNL A   1      39.683  30.975  32.396  1.00  0.00     0.167 HD
ATOM     44  C   UNL A   1      42.823  29.410  35.022  1.00  0.00     0.031 A 
ATOM     45  C   UNL A   1      37.631  32.733  31.690  1.00  0.00     0.031 A 
ATOM     46  C   UNL A   1      42.286  30.548  35.718  1.00  0.00     0.049 A 
ATOM     47  C   UNL A   1      38.133  33.191  33.032  1.00  0.00     0.074 A 
ATOM     48  C   UNL A   1      42.665  31.068  36.943  1.00  0.00     0.029 A 
ATOM     49  N   UNL A   1      41.257  31.348  35.244  1.00  0.00    -0.354 N 
ATOM     50  N   UNL A   1      39.089  32.680  33.771  1.00  0.00    -0.248 NA
ATOM     51  C   UNL A   1      37.485  34.374  33.615  1.00  0.00     0.031 C 
ATOM     52  C   UNL A   1      41.844  32.168  37.223  1.00  0.00     0.029 A 
ATOM     53  C   UNL A   1      40.987  32.357  36.151  1.00  0.00     0.049 A 
ATOM     54  H   UNL A   1      40.790  31.218  34.387  1.00  0.00     0.167 HD
ATOM     55  C   UNL A   1      39.172  33.493  34.897  1.00  0.00     0.074 A 
ATOM     56  C   UNL A   1      38.177  34.535  34.735  1.00  0.00     0.031 C 
ATOM     57  C   UNL A   1      39.997  33.388  35.968  1.00  0.00     0.031 A 
BRANCH  44  58
ATOM     58  C   UNL A   1      43.947  28.638  35.659  1.00  0.00    -0.014 A 
ATOM     59  C   UNL A   1      45.292  28.971  35.415  1.00  0.00     0.010 A 
ATOM     60  C   UNL A   1      43.651  27.568  36.522  1.00  0.00     0.010 A 
ATOM     61  C   UNL A   1      46.320  28.220  35.991  1.00  0.00     0.020 A 
ATOM     62  C   UNL A   1      44.677  26.829  37.118  1.00  0.00     0.020 A 
ATOM     63  C   UNL A   1      46.006  27.148  36.832  1.00  0.00     0.054 A 
BRANCH  63  64
ATOM     64  S   UNL A   1      47.357  26.188  37.571  1.00  0.00     0.124 S 
ATOM     65  O   UNL A   1      48.518  26.702  36.849  1.00  0.00    -0.237 OA
ATOM     66  O   UNL A   1      47.282  26.557  38.982  1.00  0.00    -0.237 OA
ATOM     67  O   UNL A   1      47.000  24.804  37.273  1.00  0.00    -0.744 OA
ENDBRANCH  63  64
ENDBRANCH  44  58
BRANCH  45  68
ATOM     68  C   UNL A   1      36.511  33.439  31.011  1.00  0.00    -0.014 A 
ATOM     69  C   UNL A   1      36.657  33.928  29.701  1.00  0.00     0.010 A 
ATOM     70  C   UNL A   1      35.282  33.615  31.675  1.00  0.00     0.010 A 
ATOM     71  C   UNL A   1      35.598  34.592  29.073  1.00  0.00     0.020 A 
ATOM     72  C   UNL A   1      34.216  34.256  31.041  1.00  0.00     0.020 A 
ATOM     73  C   UNL A   1      34.384  34.751  29.747  1.00  0.00     0.054 A 
BRANCH  73  74
ATOM     74  S   UNL A   1      33.003  35.565  28.896  1.00  0.00     0.124 S 
ATOM     75  O   UNL A   1      32.414  34.460  28.149  1.00  0.00    -0.237 OA
ATOM     76  O   UNL A   1      32.202  36.077  30.007  1.00  0.00    -0.237 OA
ATOM     77  O   UNL A   1      33.658  36.591  28.089  1.00  0.00    -0.744 OA
ENDBRANCH  73  74
ENDBRANCH  45  68
BRANCH  57  78
ATOM     78  C   UNL A   1      39.891  34.452  37.026  1.00  0.00    -0.014 A 
ATOM     79  C   UNL A   1      40.566  35.678  36.897  1.00  0.00     0.010 A 
ATOM     80  C   UNL A   1      39.068  34.233  38.145  1.00  0.00     0.010 A 
ATOM     81  C   UNL A   1      40.445  36.656  37.889  1.00  0.00     0.020 A 
ATOM     82  C   UNL A   1      38.928  35.216  39.127  1.00  0.00     0.020 A 
ATOM     83  C   UNL A   1      39.630  36.416  39.001  1.00  0.00     0.054 A 
BRANCH  83  84
ATOM     84  S   UNL A   1      39.460  37.710  40.259  1.00  0.00     0.124 S 
ATOM     85  O   UNL A   1      39.109  36.935  41.446  1.00  0.00    -0.237 OA
ATOM     86  O   UNL A   1      40.786  38.323  40.278  1.00  0.00    -0.237 OA
ATOM     87  O   UNL A   1      38.395  38.563  39.735  1.00  0.00    -0.744 OA
ENDBRANCH  83  84
ENDBRANCH  57  78
ENDBRANCH  31  32
ENDBRANCH  24  26
ENDBRANCH  23  24
ENDBRANCH  22  23
ENDBRANCH  21  22
ENDBRANCH   1  21
TORSDOF 20
ENDMDL
MODEL 2
REMARK VINA RESULT:      -9.7      4.483     10.601
REMARK SMILES COCc1cccc(C[NH2+][C@H](C)[C@H](C)C(=O)OCCOC(=O)c2ccc(-c3c4nc(c(-c5ccc(S(=O)(=O)[O-])cc5)c5ccc([nH]5)c(-c5ccc(S(=O)(=O)[O-])cc5)c5nc(c(-c6ccc(S(=O)(=O)[O-])cc6)c6ccc3[nH]6)C=C5)C=C4)cc2)c1
REMARK SMILES IDX 17 1 15 2 16 3 13 4 14 5 11 6 12 7 10 8 9 11 8 12 4 13 5 14
REMARK SMILES IDX 83 15 6 16 7 17 3 18 2 19 1 20 18 21 19 22 20 23 21 24 22 25
REMARK SMILES IDX 23 26 24 27 82 28 25 29 81 30 26 31 27 32 28 33 75 34 29 35
REMARK SMILES IDX 80 36 74 37 76 38 30 39 79 40 73 41 72 42 31 44 61 45 42 46
REMARK SMILES IDX 60 47 43 48 46 49 59 50 77 51 44 52 45 53 58 55 78 56 47 57
REMARK SMILES IDX 32 58 33 59 41 60 34 61 40 62 35 63 36 64 37 65 38 66 39 67
REMARK SMILES IDX 62 68 63 69 71 70 64 71 70 72 65 73 66 74 67 75 68 76 69 77
REMARK SMILES IDX 48 78 49 79 57 80 50 81 56 82 51 83 52 84 53 85 54 86 55 87
REMARK H PARENT 10 9 10 10 76 43 46 54
REMARK Flexibility Score: inf
ROOT
ATOM      1  O   UNL A   1      31.582  29.917  25.016  1.00  0.00    -0.462 OA
ENDROOT
BRANCH   1   2
ATOM      2  C   UNL A   1      32.064  28.703  24.635  1.00  0.00     0.314 C 
ATOM      3  O   UNL A   1      33.196  28.521  24.201  1.00  0.00    -0.252 OA
BRANCH   2   4
ATOM      4  C   UNL A   1      31.047  27.578  24.785  1.00  0.00     0.154 C 
ATOM      5  C   UNL A   1      30.864  26.808  23.470  1.00  0.00     0.026 C 
BRANCH   4   6
ATOM      6  C   UNL A   1      31.385  26.668  25.994  1.00  0.00     0.193 C 
ATOM      7  C   UNL A   1      30.514  25.399  26.008  1.00  0.00     0.076 C 
BRANCH   6   8
ATOM      8  N   UNL A   1      32.806  26.273  25.934  1.00  0.00    -0.340 N 
ATOM      9  H   UNL A   1      33.157  26.473  24.997  1.00  0.00     0.346 HD
ATOM     10  H   UNL A   1      33.297  26.805  26.651  1.00  0.00     0.346 HD
BRANCH   8  11
ATOM     11  C   UNL A   1      33.029  24.860  26.218  1.00  0.00     0.297 C 
BRANCH  11  12
ATOM     12  C   UNL A   1      33.865  24.226  25.132  1.00  0.00     0.006 A 
ATOM     13  C   UNL A   1      35.870  23.010  24.458  1.00  0.00    -0.022 A 
ATOM     14  C   UNL A   1      35.380  22.953  23.147  1.00  0.00     0.006 A 
ATOM     15  C   UNL A   1      35.112  23.667  25.437  1.00  0.00     0.015 A 
ATOM     16  C   UNL A   1      34.164  23.558  22.821  1.00  0.00     0.001 A 
ATOM     17  C   UNL A   1      33.408  24.188  23.809  1.00  0.00     0.009 A 
BRANCH  13  18
ATOM     18  C   UNL A   1      37.174  22.346  24.826  1.00  0.00     0.195 C 
BRANCH  18  19
ATOM     19  O   UNL A   1      37.660  22.754  26.106  1.00  0.00    -0.380 OA
ATOM     20  C   UNL A   1      39.063  22.587  26.261  1.00  0.00     0.195 C 
ENDBRANCH  18  19
ENDBRANCH  13  18
ENDBRANCH  11  12
ENDBRANCH   8  11
ENDBRANCH   6   8
ENDBRANCH   4   6
ENDBRANCH   2   4
ENDBRANCH   1   2
BRANCH   1  21
ATOM     21  C   UNL A   1      31.604  30.182  26.432  1.00  0.00     0.274 C 
BRANCH  21  22
ATOM     22  C   UNL A   1      32.788  31.065  26.848  1.00  0.00     0.275 C 
BRANCH  22  23
ATOM     23  O   UNL A   1      33.918  30.292  27.292  1.00  0.00    -0.458 OA
BRANCH  23  24
ATOM     24  C   UNL A   1      34.677  30.886  28.244  1.00  0.00     0.338 C 
ATOM     25  O   UNL A   1      34.330  31.777  29.001  1.00  0.00    -0.246 OA
BRANCH  24  26
ATOM     26  C   UNL A   1      35.983  30.217  28.356  1.00  0.00     0.060 A 
ATOM     27  C   UNL A   1      36.349  29.715  29.608  1.00  0.00     0.016 A 
ATOM     28  C   UNL A   1      36.887  30.194  27.295  1.00  0.00     0.016 A 
ATOM     29  C   UNL A   1      37.623  29.199  29.815  1.00  0.00     0.010 A 
ATOM     30  C   UNL A   1      38.175  29.686  27.506  1.00  0.00     0.010 A 
ATOM     31  C   UNL A   1      38.556  29.208  28.774  1.00  0.00    -0.014 A 
BRANCH  31  32
ATOM     32  C   UNL A   1      39.960  28.835  29.060  1.00  0.00     0.031 A 
ATOM     33  C   UNL A   1      40.856  29.828  29.748  1.00  0.00     0.074 A 
ATOM     34  C   UNL A   1      40.414  27.603  28.766  1.00  0.00     0.049 A 
ATOM     35  N   UNL A   1      42.129  29.736  30.033  1.00  0.00    -0.248 NA
ATOM     36  C   UNL A   1      40.234  31.093  30.173  1.00  0.00     0.031 C 
ATOM     37  C   UNL A   1      39.619  26.529  28.169  1.00  0.00     0.029 A 
ATOM     38  N   UNL A   1      41.656  27.048  28.936  1.00  0.00    -0.354 N 
ATOM     39  C   UNL A   1      42.467  30.935  30.648  1.00  0.00     0.074 A 
ATOM     40  C   UNL A   1      41.267  31.744  30.685  1.00  0.00     0.031 C 
ATOM     41  C   UNL A   1      40.396  25.442  28.022  1.00  0.00     0.029 A 
ATOM     42  C   UNL A   1      41.749  25.757  28.476  1.00  0.00     0.049 A 
ATOM     43  H   UNL A   1      42.409  27.527  29.350  1.00  0.00     0.167 HD
ATOM     44  C   UNL A   1      43.668  31.328  31.134  1.00  0.00     0.031 A 
ATOM     45  C   UNL A   1      42.811  24.931  28.404  1.00  0.00     0.031 A 
ATOM     46  C   UNL A   1      44.857  30.520  31.095  1.00  0.00     0.049 A 
ATOM     47  C   UNL A   1      44.146  25.405  28.908  1.00  0.00     0.074 A 
ATOM     48  C   UNL A   1      46.132  30.839  31.530  1.00  0.00     0.029 A 
ATOM     49  N   UNL A   1      44.915  29.227  30.598  1.00  0.00    -0.354 N 
ATOM     50  N   UNL A   1      44.461  26.562  29.442  1.00  0.00    -0.248 NA
ATOM     51  C   UNL A   1      45.269  24.463  28.803  1.00  0.00     0.031 C 
ATOM     52  C   UNL A   1      46.968  29.747  31.269  1.00  0.00     0.029 A 
ATOM     53  C   UNL A   1      46.203  28.733  30.714  1.00  0.00     0.049 A 
ATOM     54  H   UNL A   1      44.153  28.732  30.221  1.00  0.00     0.167 HD
ATOM     55  C   UNL A   1      45.813  26.478  29.758  1.00  0.00     0.074 A 
ATOM     56  C   UNL A   1      46.252  25.153  29.365  1.00  0.00     0.031 C 
ATOM     57  C   UNL A   1      46.619  27.410  30.323  1.00  0.00     0.031 A 
BRANCH  44  58
ATOM     58  C   UNL A   1      43.755  32.715  31.711  1.00  0.00    -0.014 A 
ATOM     59  C   UNL A   1      43.434  32.968  33.057  1.00  0.00     0.010 A 
ATOM     60  C   UNL A   1      44.173  33.780  30.893  1.00  0.00     0.010 A 
ATOM     61  C   UNL A   1      43.490  34.269  33.562  1.00  0.00     0.020 A 
ATOM     62  C   UNL A   1      44.253  35.079  31.402  1.00  0.00     0.020 A 
ATOM     63  C   UNL A   1      43.891  35.318  32.729  1.00  0.00     0.054 A 
BRANCH  63  64
ATOM     64  S   UNL A   1      43.959  37.000  33.408  1.00  0.00     0.124 S 
ATOM     65  O   UNL A   1      42.807  37.007  34.306  1.00  0.00    -0.237 OA
ATOM     66  O   UNL A   1      45.265  37.032  34.062  1.00  0.00    -0.237 OA
ATOM     67  O   UNL A   1      43.836  37.853  32.229  1.00  0.00    -0.744 OA
ENDBRANCH  63  64
ENDBRANCH  44  58
BRANCH  45  68
ATOM     68  C   UNL A   1      42.656  23.577  27.806  1.00  0.00    -0.014 A 
ATOM     69  C   UNL A   1      43.013  23.337  26.468  1.00  0.00     0.010 A 
ATOM     70  C   UNL A   1      42.159  22.515  28.583  1.00  0.00     0.010 A 
ATOM     71  C   UNL A   1      42.862  22.061  25.915  1.00  0.00     0.020 A 
ATOM     72  C   UNL A   1      42.029  21.235  28.041  1.00  0.00     0.020 A 
ATOM     73  C   UNL A   1      42.371  21.018  26.705  1.00  0.00     0.054 A 
BRANCH  73  74
ATOM     74  S   UNL A   1      42.235  19.356  25.988  1.00  0.00     0.124 S 
ATOM     75  O   UNL A   1      43.085  19.465  24.808  1.00  0.00    -0.237 OA
ATOM     76  O   UNL A   1      42.747  18.504  27.060  1.00  0.00    -0.237 OA
ATOM     77  O   UNL A   1      40.805  19.217  25.723  1.00  0.00    -0.744 OA
ENDBRANCH  73  74
ENDBRANCH  45  68
BRANCH  57  78
ATOM     78  C   UNL A   1      48.045  27.017  30.592  1.00  0.00    -0.014 A 
ATOM     79  C   UNL A   1      49.063  27.286  29.662  1.00  0.00     0.010 A 
ATOM     80  C   UNL A   1      48.374  26.406  31.816  1.00  0.00     0.010 A 
ATOM     81  C   UNL A   1      50.384  26.921  29.938  1.00  0.00     0.020 A 
ATOM     82  C   UNL A   1      49.695  26.058  32.104  1.00  0.00     0.020 A 
ATOM     83  C   UNL A   1      50.690  26.303  31.156  1.00  0.00     0.054 A 
BRANCH  83  84
ATOM     84  S   UNL A   1      52.414  25.867  31.509  1.00  0.00     0.124 S 
ATOM     85  O   UNL A   1      52.281  24.515  32.046  1.00  0.00    -0.237 OA
ATOM     86  O   UNL A   1      53.050  25.962  30.197  1.00  0.00    -0.237 OA
ATOM     87  O   UNL A   1      52.837  26.882  32.473  1.00  0.00    -0.744 OA
ENDBRANCH  83  84
ENDBRANCH  57  78
ENDBRANCH  31  32
ENDBRANCH  24  26
ENDBRANCH  23  24
ENDBRANCH  22  23
ENDBRANCH  21  22
ENDBRANCH   1  21
TORSDOF 20
ENDMDL
MODEL 3
REMARK VINA RESULT:      -9.6      1.976      9.005
REMARK SMILES COCc1cccc(C[NH2+][C@H](C)[C@H](C)C(=O)OCCOC(=O)c2ccc(-c3c4nc(c(-c5ccc(S(=O)(=O)[O-])cc5)c5ccc([nH]5)c(-c5ccc(S(=O)(=O)[O-])cc5)c5nc(c(-c6ccc(S(=O)(=O)[O-])cc6)c6ccc3[nH]6)C=C5)C=C4)cc2)c1
REMARK SMILES IDX 17 1 15 2 16 3 13 4 14 5 11 6 12 7 10 8 9 11 8 12 4 13 5 14
REMARK SMILES IDX 83 15 6 16 7 17 3 18 2 19 1 20 18 21 19 22 20 23 21 24 22 25
REMARK SMILES IDX 23 26 24 27 82 28 25 29 81 30 26 31 27 32 28 33 75 34 29 35
REMARK SMILES IDX 80 36 74 37 76 38 30 39 79 40 73 41 72 42 31 44 61 45 42 46
REMARK SMILES IDX 60 47 43 48 46 49 59 50 77 51 44 52 45 53 58 55 78 56 47 57
REMARK SMILES IDX 32 58 33 59 41 60 34 61 40 62 35 63 36 64 37 65 38 66 39 67
REMARK SMILES IDX 62 68 63 69 71 70 64 71 70 72 65 73 66 74 67 75 68 76 69 77
REMARK SMILES IDX 48 78 49 79 57 80 50 81 56 82 51 83 52 84 53 85 54 86 55 87
REMARK H PARENT 10 9 10 10 76 43 46 54
REMARK Flexibility Score: inf
ROOT
ATOM      1  O   UNL A   1      42.649  22.476  24.876  1.00  0.00    -0.462 OA
ENDROOT
BRANCH   1   2
ATOM      2  C   UNL A   1      42.855  21.491  25.792  1.00  0.00     0.314 C 
ATOM      3  O   UNL A   1      43.964  21.112  26.152  1.00  0.00    -0.252 OA
BRANCH   2   4
ATOM      4  C   UNL A   1      41.562  20.884  26.323  1.00  0.00     0.154 C 
ATOM      5  C   UNL A   1      41.826  19.570  27.073  1.00  0.00     0.026 C 
BRANCH   4   6
ATOM      6  C   UNL A   1      40.749  21.915  27.147  1.00  0.00     0.193 C 
ATOM      7  C   UNL A   1      41.601  22.546  28.262  1.00  0.00     0.076 C 
BRANCH   6   8
ATOM      8  N   UNL A   1      40.259  22.985  26.255  1.00  0.00    -0.340 N 
ATOM      9  H   UNL A   1      40.982  23.702  26.184  1.00  0.00     0.346 HD
ATOM     10  H   UNL A   1      40.053  22.555  25.354  1.00  0.00     0.346 HD
BRANCH   8  11
ATOM     11  C   UNL A   1      39.029  23.614  26.723  1.00  0.00     0.297 C 
BRANCH  11  12
ATOM     12  C   UNL A   1      37.853  23.160  25.892  1.00  0.00     0.006 A 
ATOM     13  C   UNL A   1      35.576  23.520  25.094  1.00  0.00    -0.022 A 
ATOM     14  C   UNL A   1      35.697  22.390  24.275  1.00  0.00     0.006 A 
ATOM     15  C   UNL A   1      36.654  23.883  25.913  1.00  0.00     0.015 A 
ATOM     16  C   UNL A   1      36.869  21.630  24.290  1.00  0.00     0.001 A 
ATOM     17  C   UNL A   1      37.943  22.015  25.092  1.00  0.00     0.009 A 
BRANCH  13  18
ATOM     18  C   UNL A   1      34.322  24.359  25.074  1.00  0.00     0.195 C 
BRANCH  18  19
ATOM     19  O   UNL A   1      34.418  25.476  24.187  1.00  0.00    -0.380 OA
ATOM     20  C   UNL A   1      33.713  25.295  22.966  1.00  0.00     0.195 C 
ENDBRANCH  18  19
ENDBRANCH  13  18
ENDBRANCH  11  12
ENDBRANCH   8  11
ENDBRANCH   6   8
ENDBRANCH   4   6
ENDBRANCH   2   4
ENDBRANCH   1   2
BRANCH   1  21
ATOM     21  C   UNL A   1      43.777  23.336  24.619  1.00  0.00     0.274 C 
BRANCH  21  22
ATOM     22  C   UNL A   1      43.499  24.798  24.990  1.00  0.00     0.275 C 
BRANCH  22  23
ATOM     23  O   UNL A   1      42.775  24.920  26.229  1.00  0.00    -0.458 OA
BRANCH  23  24
ATOM     24  C   UNL A   1      41.883  25.938  26.269  1.00  0.00     0.338 C 
ATOM     25  O   UNL A   1      41.061  26.223  25.414  1.00  0.00    -0.246 OA
BRANCH  24  26
ATOM     26  C   UNL A   1      41.928  26.614  27.575  1.00  0.00     0.060 A 
ATOM     27  C   UNL A   1      40.966  26.259  28.524  1.00  0.00     0.016 A 
ATOM     28  C   UNL A   1      42.811  27.665  27.825  1.00  0.00     0.016 A 
ATOM     29  C   UNL A   1      40.866  26.956  29.723  1.00  0.00     0.010 A 
ATOM     30  C   UNL A   1      42.703  28.376  29.027  1.00  0.00     0.010 A 
ATOM     31  C   UNL A   1      41.714  28.039  29.971  1.00  0.00    -0.014 A 
BRANCH  31  32
ATOM     32  C   UNL A   1      41.471  28.888  31.159  1.00  0.00     0.031 A 
ATOM     33  C   UNL A   1      40.328  29.866  31.140  1.00  0.00     0.074 A 
ATOM     34  C   UNL A   1      42.222  28.746  32.267  1.00  0.00     0.049 A 
ATOM     35  N   UNL A   1      39.978  30.748  32.040  1.00  0.00    -0.248 NA
ATOM     36  C   UNL A   1      39.464  29.845  29.948  1.00  0.00     0.031 C 
ATOM     37  C   UNL A   1      43.308  27.779  32.433  1.00  0.00     0.029 A 
ATOM     38  N   UNL A   1      42.179  29.413  33.463  1.00  0.00    -0.354 N 
ATOM     39  C   UNL A   1      38.870  31.402  31.517  1.00  0.00     0.074 A 
ATOM     40  C   UNL A   1      38.612  30.824  30.215  1.00  0.00     0.031 C 
ATOM     41  C   UNL A   1      43.830  27.918  33.664  1.00  0.00     0.029 A 
ATOM     42  C   UNL A   1      43.144  29.008  34.354  1.00  0.00     0.049 A 
ATOM     43  H   UNL A   1      41.521  30.116  33.666  1.00  0.00     0.167 HD
ATOM     44  C   UNL A   1      38.136  32.397  32.069  1.00  0.00     0.031 A 
ATOM     45  C   UNL A   1      43.454  29.479  35.577  1.00  0.00     0.031 A 
ATOM     46  C   UNL A   1      38.396  32.969  33.362  1.00  0.00     0.049 A 
ATOM     47  C   UNL A   1      42.655  30.616  36.152  1.00  0.00     0.074 A 
ATOM     48  C   UNL A   1      37.732  34.004  33.998  1.00  0.00     0.029 A 
ATOM     49  N   UNL A   1      39.397  32.546  34.224  1.00  0.00    -0.354 N 
ATOM     50  N   UNL A   1      41.640  31.259  35.623  1.00  0.00    -0.248 NA
ATOM     51  C   UNL A   1      43.039  31.090  37.489  1.00  0.00     0.031 C 
ATOM     52  C   UNL A   1      38.352  34.227  35.233  1.00  0.00     0.029 A 
ATOM     53  C   UNL A   1      39.371  33.299  35.384  1.00  0.00     0.049 A 
ATOM     54  H   UNL A   1      40.032  31.817  34.038  1.00  0.00     0.167 HD
ATOM     55  C   UNL A   1      41.250  32.198  36.572  1.00  0.00     0.074 A 
ATOM     56  C   UNL A   1      42.132  32.031  37.711  1.00  0.00     0.031 C 
ATOM     57  C   UNL A   1      40.253  33.114  36.509  1.00  0.00     0.031 A 
BRANCH  44  58
ATOM     58  C   UNL A   1      37.007  32.956  31.246  1.00  0.00    -0.014 A 
ATOM     59  C   UNL A   1      35.665  32.693  31.573  1.00  0.00     0.010 A 
ATOM     60  C   UNL A   1      37.296  33.764  30.131  1.00  0.00     0.010 A 
ATOM     61  C   UNL A   1      34.633  33.194  30.776  1.00  0.00     0.020 A 
ATOM     62  C   UNL A   1      36.266  34.287  29.345  1.00  0.00     0.020 A 
ATOM     63  C   UNL A   1      34.941  33.981  29.661  1.00  0.00     0.054 A 
BRANCH  63  64
ATOM     64  S   UNL A   1      33.584  34.624  28.641  1.00  0.00     0.124 S 
ATOM     65  O   UNL A   1      32.550  34.874  29.642  1.00  0.00    -0.237 OA
ATOM     66  O   UNL A   1      34.172  35.816  28.035  1.00  0.00    -0.237 OA
ATOM     67  O   UNL A   1      33.302  33.532  27.713  1.00  0.00    -0.744 OA
ENDBRANCH  63  64
ENDBRANCH  44  58
BRANCH  45  68
ATOM     68  C   UNL A   1      44.595  28.890  36.329  1.00  0.00    -0.014 A 
ATOM     69  C   UNL A   1      44.423  27.733  37.109  1.00  0.00     0.010 A 
ATOM     70  C   UNL A   1      45.868  29.484  36.258  1.00  0.00     0.010 A 
ATOM     71  C   UNL A   1      45.501  27.189  37.813  1.00  0.00     0.020 A 
ATOM     72  C   UNL A   1      46.953  28.929  36.942  1.00  0.00     0.020 A 
ATOM     73  C   UNL A   1      46.760  27.790  37.725  1.00  0.00     0.054 A 
BRANCH  73  74
ATOM     74  S   UNL A   1      48.161  27.038  38.600  1.00  0.00     0.124 S 
ATOM     75  O   UNL A   1      48.462  25.887  37.757  1.00  0.00    -0.237 OA
ATOM     76  O   UNL A   1      49.155  28.109  38.589  1.00  0.00    -0.237 OA
ATOM     77  O   UNL A   1      47.610  26.726  39.917  1.00  0.00    -0.744 OA
ENDBRANCH  73  74
ENDBRANCH  45  68
BRANCH  57  78
ATOM     78  C   UNL A   1      40.032  33.976  37.721  1.00  0.00    -0.014 A 
ATOM     79  C   UNL A   1      39.151  33.584  38.744  1.00  0.00     0.010 A 
ATOM     80  C   UNL A   1      40.750  35.178  37.855  1.00  0.00     0.010 A 
ATOM     81  C   UNL A   1      38.968  34.397  39.867  1.00  0.00     0.020 A 
ATOM     82  C   UNL A   1      40.586  35.982  38.984  1.00  0.00     0.020 A 
ATOM     83  C   UNL A   1      39.684  35.594  39.976  1.00  0.00     0.054 A 
BRANCH  83  84
ATOM     84  S   UNL A   1      39.458  36.618  41.456  1.00  0.00     0.124 S 
ATOM     85  O   UNL A   1      40.815  36.681  41.991  1.00  0.00    -0.237 OA
ATOM     86  O   UNL A   1      38.940  37.871  40.909  1.00  0.00    -0.237 OA
ATOM     87  O   UNL A   1      38.504  35.857  42.260  1.00  0.00    -0.744 OA
ENDBRANCH  83  84
ENDBRANCH  57  78
ENDBRANCH  31  32
ENDBRANCH  24  26
ENDBRANCH  23  24
ENDBRANCH  22  23
ENDBRANCH  21  22
ENDBRANCH   1  21
TORSDOF 20
ENDMDL
