MODEL 1
REMARK VINA RESULT:      -8.6      0.000      0.000
REMARK SMILES CC(C)C[C@H](NC(=O)[C@H](C)NC(=O)[C@@H](NC(=O)CNC(=O)OCc1ccccc1)C(C)C)C(=O)OCCOC(=O)c1ccc(-c2c3nc(c(-c4ccc(S(=O)(=O)[O-])cc4)c4ccc([nH]4)c(-c4ccc(S(=O)(=O)[O-])cc4)c4nc(c(-c5ccc(S(=O)(=O)[O-])cc5)c5ccc2[nH]5)C=C4)C=C3)cc1
REMARK SMILES IDX 5 1 4 2 2 3 1 4 3 5 33 6 34 7 35 8 36 9 37 10 38 11 39 12
REMARK SMILES IDX 40 13 41 14 42 15 100 16 43 17 99 18 44 19 45 20 46 21 93 22
REMARK SMILES IDX 47 23 98 24 92 25 94 26 48 27 97 28 91 29 90 30 49 32 79 33
REMARK SMILES IDX 60 34 78 35 61 36 64 37 77 38 95 39 62 40 63 41 76 43 96 44
REMARK SMILES IDX 65 45 50 46 51 47 59 48 52 49 58 50 53 51 54 52 55 53 56 54
REMARK SMILES IDX 57 55 80 56 81 57 89 58 82 59 88 60 83 61 84 62 85 63 86 64
REMARK SMILES IDX 87 65 66 66 67 67 75 68 68 69 74 70 69 71 70 72 71 73 72 74
REMARK SMILES IDX 73 75 6 76 7 77 8 79 9 80 10 81 11 82 12 83 13 85 14 86
REMARK SMILES IDX 15 87 16 88 17 90 18 91 19 92 20 93 21 95 22 96 23 97 24 98
REMARK SMILES IDX 25 99 29 100 26 101 28 102 27 103 30 104 31 105 32 106
REMARK H PARENT 94 31 64 42 6 78 11 84 15 89 19 94
REMARK Flexibility Score: inf
ROOT
ATOM      1  C   UNL A   1      37.398  24.159  25.404  1.00  0.00     0.192 C 
ENDROOT
BRANCH   1   2
ATOM      2  C   UNL A   1      36.111  24.760  25.998  1.00  0.00     0.040 C 
BRANCH   2   3
ATOM      3  C   UNL A   1      35.053  25.441  25.112  1.00  0.00    -0.015 C 
ATOM      4  C   UNL A   1      33.773  24.621  24.979  1.00  0.00     0.007 C 
ATOM      5  C   UNL A   1      34.652  26.804  25.708  1.00  0.00     0.007 C 
ENDBRANCH   2   3
ENDBRANCH   1   2
BRANCH   1   6
ATOM      6  C   UNL A   1      38.506  23.939  26.462  1.00  0.00     0.328 C 
ATOM      7  O   UNL A   1      38.520  24.499  27.551  1.00  0.00    -0.250 OA
BRANCH   6   8
ATOM      8  O   UNL A   1      39.451  23.028  26.084  1.00  0.00    -0.461 OA
BRANCH   8   9
ATOM      9  C   UNL A   1      39.364  21.758  26.768  1.00  0.00     0.274 C 
BRANCH   9  10
ATOM     10  C   UNL A   1      39.729  20.552  25.888  1.00  0.00     0.275 C 
BRANCH  10  11
ATOM     11  O   UNL A   1      40.778  19.734  26.439  1.00  0.00    -0.458 OA
BRANCH  11  12
ATOM     12  C   UNL A   1      42.010  19.992  25.931  1.00  0.00     0.338 C 
ATOM     13  O   UNL A   1      42.577  19.351  25.062  1.00  0.00    -0.246 OA
BRANCH  12  14
ATOM     14  C   UNL A   1      42.494  21.306  26.395  1.00  0.00     0.060 A 
ATOM     15  C   UNL A   1      42.731  22.264  25.408  1.00  0.00     0.016 A 
ATOM     16  C   UNL A   1      42.769  21.598  27.729  1.00  0.00     0.016 A 
ATOM     17  C   UNL A   1      43.183  23.533  25.732  1.00  0.00     0.010 A 
ATOM     18  C   UNL A   1      43.268  22.866  28.059  1.00  0.00     0.010 A 
ATOM     19  C   UNL A   1      43.470  23.840  27.062  1.00  0.00    -0.014 A 
BRANCH  19  20
ATOM     20  C   UNL A   1      44.099  25.146  27.360  1.00  0.00     0.031 A 
ATOM     21  C   UNL A   1      43.263  26.232  27.974  1.00  0.00     0.074 A 
ATOM     22  C   UNL A   1      45.420  25.321  27.170  1.00  0.00     0.049 A 
ATOM     23  N   UNL A   1      43.580  27.471  28.237  1.00  0.00    -0.248 NA
ATOM     24  C   UNL A   1      41.884  25.870  28.343  1.00  0.00     0.031 C 
ATOM     25  C   UNL A   1      46.348  24.297  26.684  1.00  0.00     0.029 A 
ATOM     26  N   UNL A   1      46.214  26.420  27.373  1.00  0.00    -0.354 N 
ATOM     27  C   UNL A   1      42.434  28.047  28.772  1.00  0.00     0.074 A 
ATOM     28  C   UNL A   1      41.410  27.026  28.785  1.00  0.00     0.031 C 
ATOM     29  C   UNL A   1      47.585  24.817  26.629  1.00  0.00     0.029 A 
ATOM     30  C   UNL A   1      47.527  26.224  27.013  1.00  0.00     0.049 A 
ATOM     31  H   UNL A   1      45.877  27.270  27.740  1.00  0.00     0.167 HD
ATOM     32  C   UNL A   1      42.257  29.316  29.211  1.00  0.00     0.031 A 
ATOM     33  C   UNL A   1      48.554  27.094  26.961  1.00  0.00     0.031 A 
ATOM     34  C   UNL A   1      43.290  30.317  29.190  1.00  0.00     0.049 A 
ATOM     35  C   UNL A   1      48.307  28.525  27.361  1.00  0.00     0.074 A 
ATOM     36  C   UNL A   1      43.216  31.642  29.580  1.00  0.00     0.029 A 
ATOM     37  N   UNL A   1      44.592  30.098  28.761  1.00  0.00    -0.354 N 
ATOM     38  N   UNL A   1      47.204  29.074  27.814  1.00  0.00    -0.248 NA
ATOM     39  C   UNL A   1      49.437  29.454  27.237  1.00  0.00     0.031 C 
ATOM     40  C   UNL A   1      44.458  32.237  29.337  1.00  0.00     0.029 A 
ATOM     41  C   UNL A   1      45.326  31.267  28.858  1.00  0.00     0.049 A 
ATOM     42  H   UNL A   1      44.942  29.238  28.434  1.00  0.00     0.167 HD
ATOM     43  C   UNL A   1      47.516  30.408  28.055  1.00  0.00     0.074 A 
ATOM     44  C   UNL A   1      48.914  30.575  27.713  1.00  0.00     0.031 C 
ATOM     45  C   UNL A   1      46.720  31.405  28.514  1.00  0.00     0.031 A 
BRANCH  32  46
ATOM     46  C   UNL A   1      40.882  29.699  29.690  1.00  0.00    -0.014 A 
ATOM     47  C   UNL A   1      40.543  29.668  31.056  1.00  0.00     0.010 A 
ATOM     48  C   UNL A   1      39.914  30.112  28.756  1.00  0.00     0.010 A 
ATOM     49  C   UNL A   1      39.250  30.003  31.471  1.00  0.00     0.020 A 
ATOM     50  C   UNL A   1      38.630  30.477  29.171  1.00  0.00     0.020 A 
ATOM     51  C   UNL A   1      38.301  30.402  30.526  1.00  0.00     0.054 A 
BRANCH  51  52
ATOM     52  S   UNL A   1      36.638  30.847  31.094  1.00  0.00     0.124 S 
ATOM     53  O   UNL A   1      36.277  29.690  31.909  1.00  0.00    -0.237 OA
ATOM     54  O   UNL A   1      36.872  32.085  31.832  1.00  0.00    -0.237 OA
ATOM     55  O   UNL A   1      35.875  30.999  29.857  1.00  0.00    -0.744 OA
ENDBRANCH  51  52
ENDBRANCH  32  46
BRANCH  33  56
ATOM     56  C   UNL A   1      49.889  26.654  26.463  1.00  0.00    -0.014 A 
ATOM     57  C   UNL A   1      50.793  25.986  27.306  1.00  0.00     0.010 A 
ATOM     58  C   UNL A   1      50.266  26.915  25.131  1.00  0.00     0.010 A 
ATOM     59  C   UNL A   1      52.055  25.608  26.836  1.00  0.00     0.020 A 
ATOM     60  C   UNL A   1      51.513  26.509  24.648  1.00  0.00     0.020 A 
ATOM     61  C   UNL A   1      52.407  25.871  25.509  1.00  0.00     0.054 A 
BRANCH  61  62
ATOM     62  S   UNL A   1      54.036  25.340  24.910  1.00  0.00     0.124 S 
ATOM     63  O   UNL A   1      53.903  23.886  24.924  1.00  0.00    -0.237 OA
ATOM     64  O   UNL A   1      54.104  25.957  23.589  1.00  0.00    -0.237 OA
ATOM     65  O   UNL A   1      54.960  25.893  25.897  1.00  0.00    -0.744 OA
ENDBRANCH  61  62
ENDBRANCH  33  56
BRANCH  45  66
ATOM     66  C   UNL A   1      47.357  32.753  28.718  1.00  0.00    -0.014 A 
ATOM     67  C   UNL A   1      47.343  33.730  27.707  1.00  0.00     0.010 A 
ATOM     68  C   UNL A   1      47.938  33.060  29.962  1.00  0.00     0.010 A 
ATOM     69  C   UNL A   1      47.931  34.978  27.925  1.00  0.00     0.020 A 
ATOM     70  C   UNL A   1      48.498  34.317  30.195  1.00  0.00     0.020 A 
ATOM     71  C   UNL A   1      48.505  35.264  29.169  1.00  0.00     0.054 A 
BRANCH  71  72
ATOM     72  S   UNL A   1      49.228  36.904  29.440  1.00  0.00     0.124 S 
ATOM     73  O   UNL A   1      50.472  36.818  28.680  1.00  0.00    -0.237 OA
ATOM     74  O   UNL A   1      48.214  37.796  28.885  1.00  0.00    -0.237 OA
ATOM     75  O   UNL A   1      49.388  36.978  30.890  1.00  0.00    -0.744 OA
ENDBRANCH  71  72
ENDBRANCH  45  66
ENDBRANCH  19  20
ENDBRANCH  12  14
ENDBRANCH  11  12
ENDBRANCH  10  11
ENDBRANCH   9  10
ENDBRANCH   8   9
ENDBRANCH   6   8
ENDBRANCH   1   6
BRANCH   1  76
ATOM     76  N   UNL A   1      37.185  22.925  24.594  1.00  0.00    -0.341 N 
ATOM     77  C   UNL A   1      35.966  22.383  24.259  1.00  0.00     0.242 C 
ATOM     78  H   UNL A   1      37.988  22.456  24.269  1.00  0.00     0.164 HD
ATOM     79  O   UNL A   1      35.613  22.441  23.078  1.00  0.00    -0.273 OA
BRANCH  77  80
ATOM     80  C   UNL A   1      35.288  21.384  25.228  1.00  0.00     0.168 C 
ATOM     81  C   UNL A   1      35.631  21.712  26.682  1.00  0.00     0.041 C 
BRANCH  80  82
ATOM     82  N   UNL A   1      35.515  19.978  24.972  1.00  0.00    -0.343 N 
ATOM     83  C   UNL A   1      34.651  19.002  24.587  1.00  0.00     0.243 C 
ATOM     84  H   UNL A   1      36.445  19.681  25.098  1.00  0.00     0.164 HD
ATOM     85  O   UNL A   1      35.142  17.881  24.405  1.00  0.00    -0.273 OA
BRANCH  83  86
ATOM     86  C   UNL A   1      33.120  19.212  24.380  1.00  0.00     0.174 C 
BRANCH  86  87
ATOM     87  N   UNL A   1      32.931  20.520  23.698  1.00  0.00    -0.343 N 
ATOM     88  C   UNL A   1      32.087  21.585  23.787  1.00  0.00     0.240 C 
ATOM     89  H   UNL A   1      33.598  20.654  22.987  1.00  0.00     0.164 HD
ATOM     90  O   UNL A   1      32.154  22.396  22.854  1.00  0.00    -0.273 OA
BRANCH  88  91
ATOM     91  C   UNL A   1      31.059  21.825  24.921  1.00  0.00     0.219 C 
BRANCH  91  92
ATOM     92  N   UNL A   1      31.657  22.133  26.210  1.00  0.00    -0.312 N 
ATOM     93  C   UNL A   1      31.415  23.195  27.041  1.00  0.00     0.407 C 
ATOM     94  H   UNL A   1      32.330  21.489  26.530  1.00  0.00     0.167 HD
ATOM     95  O   UNL A   1      32.195  23.446  27.935  1.00  0.00    -0.225 OA
BRANCH  93  96
ATOM     96  O   UNL A   1      30.324  23.938  26.713  1.00  0.00    -0.445 OA
BRANCH  96  97
ATOM     97  C   UNL A   1      30.452  24.761  25.533  1.00  0.00     0.270 C 
BRANCH  97  98
ATOM     98  C   UNL A   1      30.836  26.209  25.729  1.00  0.00    -0.011 A 
ATOM     99  C   UNL A   1      30.870  27.114  24.661  1.00  0.00     0.007 A 
ATOM    100  C   UNL A   1      31.215  26.665  27.002  1.00  0.00     0.007 A 
ATOM    101  C   UNL A   1      31.259  28.441  24.872  1.00  0.00     0.000 A 
ATOM    102  C   UNL A   1      31.585  27.991  27.215  1.00  0.00     0.000 A 
ATOM    103  C   UNL A   1      31.609  28.881  26.148  1.00  0.00     0.000 A 
ENDBRANCH  97  98
ENDBRANCH  96  97
ENDBRANCH  93  96
ENDBRANCH  91  92
ENDBRANCH  88  91
ENDBRANCH  86  87
BRANCH  86 104
ATOM    104  C   UNL A   1      32.159  18.102  23.910  1.00  0.00     0.015 C 
ATOM    105  C   UNL A   1      32.168  17.534  22.499  1.00  0.00     0.010 C 
ATOM    106  C   UNL A   1      32.287  16.901  24.861  1.00  0.00     0.010 C 
ENDBRANCH  86 104
ENDBRANCH  83  86
ENDBRANCH  80  82
ENDBRANCH  77  80
ENDBRANCH   1  76
TORSDOF 27
ENDMDL
MODEL 2
REMARK VINA RESULT:      -8.0      4.683      8.644
REMARK SMILES CC(C)C[C@H](NC(=O)[C@H](C)NC(=O)[C@@H](NC(=O)CNC(=O)OCc1ccccc1)C(C)C)C(=O)OCCOC(=O)c1ccc(-c2c3nc(c(-c4ccc(S(=O)(=O)[O-])cc4)c4ccc([nH]4)c(-c4ccc(S(=O)(=O)[O-])cc4)c4nc(c(-c5ccc(S(=O)(=O)[O-])cc5)c5ccc2[nH]5)C=C4)C=C3)cc1
REMARK SMILES IDX 5 1 4 2 2 3 1 4 3 5 33 6 34 7 35 8 36 9 37 10 38 11 39 12
REMARK SMILES IDX 40 13 41 14 42 15 100 16 43 17 99 18 44 19 45 20 46 21 93 22
REMARK SMILES IDX 47 23 98 24 92 25 94 26 48 27 97 28 91 29 90 30 49 32 79 33
REMARK SMILES IDX 60 34 78 35 61 36 64 37 77 38 95 39 62 40 63 41 76 43 96 44
REMARK SMILES IDX 65 45 50 46 51 47 59 48 52 49 58 50 53 51 54 52 55 53 56 54
REMARK SMILES IDX 57 55 80 56 81 57 89 58 82 59 88 60 83 61 84 62 85 63 86 64
REMARK SMILES IDX 87 65 66 66 67 67 75 68 68 69 74 70 69 71 70 72 71 73 72 74
REMARK SMILES IDX 73 75 6 76 7 77 8 79 9 80 10 81 11 82 12 83 13 85 14 86
REMARK SMILES IDX 15 87 16 88 17 90 18 91 19 92 20 93 21 95 22 96 23 97 24 98
REMARK SMILES IDX 25 99 29 100 26 101 28 102 27 103 30 104 31 105 32 106
REMARK H PARENT 94 31 64 42 6 78 11 84 15 89 19 94
REMARK Flexibility Score: inf
ROOT
ATOM      1  C   UNL A   1      37.630  24.044  25.652  1.00  0.00     0.192 C 
ENDROOT
BRANCH   1   2
ATOM      2  C   UNL A   1      36.223  24.460  26.120  1.00  0.00     0.040 C 
BRANCH   2   3
ATOM      3  C   UNL A   1      35.313  25.348  25.254  1.00  0.00    -0.015 C 
ATOM      4  C   UNL A   1      34.538  24.558  24.203  1.00  0.00     0.007 C 
ATOM      5  C   UNL A   1      34.272  26.066  26.133  1.00  0.00     0.007 C 
ENDBRANCH   2   3
ENDBRANCH   1   2
BRANCH   1   6
ATOM      6  C   UNL A   1      38.686  24.108  26.781  1.00  0.00     0.328 C 
ATOM      7  O   UNL A   1      38.496  24.674  27.851  1.00  0.00    -0.250 OA
BRANCH   6   8
ATOM      8  O   UNL A   1      39.840  23.438  26.491  1.00  0.00    -0.461 OA
BRANCH   8   9
ATOM      9  C   UNL A   1      39.851  22.056  26.909  1.00  0.00     0.274 C 
BRANCH   9  10
ATOM     10  C   UNL A   1      40.821  21.171  26.109  1.00  0.00     0.275 C 
BRANCH  10  11
ATOM     11  O   UNL A   1      42.149  21.128  26.662  1.00  0.00    -0.458 OA
BRANCH  11  12
ATOM     12  C   UNL A   1      43.001  22.045  26.137  1.00  0.00     0.338 C 
ATOM     13  O   UNL A   1      43.454  22.039  25.004  1.00  0.00    -0.246 OA
BRANCH  12  14
ATOM     14  C   UNL A   1      43.129  23.205  27.040  1.00  0.00     0.060 A 
ATOM     15  C   UNL A   1      42.817  22.984  28.383  1.00  0.00     0.016 A 
ATOM     16  C   UNL A   1      43.480  24.481  26.607  1.00  0.00     0.016 A 
ATOM     17  C   UNL A   1      42.907  24.002  29.317  1.00  0.00     0.010 A 
ATOM     18  C   UNL A   1      43.530  25.527  27.540  1.00  0.00     0.010 A 
ATOM     19  C   UNL A   1      43.249  25.288  28.901  1.00  0.00    -0.014 A 
BRANCH  19  20
ATOM     20  C   UNL A   1      43.185  26.388  29.890  1.00  0.00     0.031 A 
ATOM     21  C   UNL A   1      44.297  26.534  30.887  1.00  0.00     0.074 A 
ATOM     22  C   UNL A   1      42.190  27.293  29.831  1.00  0.00     0.049 A 
ATOM     23  N   UNL A   1      44.404  27.364  31.891  1.00  0.00    -0.248 NA
ATOM     24  C   UNL A   1      45.445  25.625  30.730  1.00  0.00     0.031 C 
ATOM     25  C   UNL A   1      41.119  27.310  28.832  1.00  0.00     0.029 A 
ATOM     26  N   UNL A   1      41.925  28.382  30.622  1.00  0.00    -0.354 N 
ATOM     27  C   UNL A   1      45.613  27.057  32.504  1.00  0.00     0.074 A 
ATOM     28  C   UNL A   1      46.197  25.958  31.769  1.00  0.00     0.031 C 
ATOM     29  C   UNL A   1      40.315  28.359  29.070  1.00  0.00     0.029 A 
ATOM     30  C   UNL A   1      40.775  29.048  30.272  1.00  0.00     0.049 A 
ATOM     31  H   UNL A   1      42.503  28.660  31.369  1.00  0.00     0.167 HD
ATOM     32  C   UNL A   1      46.179  27.643  33.586  1.00  0.00     0.031 A 
ATOM     33  C   UNL A   1      40.144  30.073  30.878  1.00  0.00     0.031 A 
ATOM     34  C   UNL A   1      45.580  28.737  34.304  1.00  0.00     0.049 A 
ATOM     35  C   UNL A   1      40.742  30.643  32.137  1.00  0.00     0.074 A 
ATOM     36  C   UNL A   1      46.047  29.389  35.431  1.00  0.00     0.029 A 
ATOM     37  N   UNL A   1      44.382  29.347  33.956  1.00  0.00    -0.354 N 
ATOM     38  N   UNL A   1      41.859  30.310  32.742  1.00  0.00    -0.248 NA
ATOM     39  C   UNL A   1      39.996  31.720  32.798  1.00  0.00     0.031 C 
ATOM     40  C   UNL A   1      45.106  30.357  35.794  1.00  0.00     0.029 A 
ATOM     41  C   UNL A   1      44.084  30.354  34.857  1.00  0.00     0.049 A 
ATOM     42  H   UNL A   1      43.825  29.099  33.183  1.00  0.00     0.167 HD
ATOM     43  C   UNL A   1      41.962  31.156  33.841  1.00  0.00     0.074 A 
ATOM     44  C   UNL A   1      40.803  32.026  33.805  1.00  0.00     0.031 C 
ATOM     45  C   UNL A   1      42.924  31.209  34.795  1.00  0.00     0.031 A 
BRANCH  32  46
ATOM     46  C   UNL A   1      47.477  27.069  34.087  1.00  0.00    -0.014 A 
ATOM     47  C   UNL A   1      48.719  27.566  33.649  1.00  0.00     0.010 A 
ATOM     48  C   UNL A   1      47.454  26.020  35.024  1.00  0.00     0.010 A 
ATOM     49  C   UNL A   1      49.911  26.996  34.109  1.00  0.00     0.020 A 
ATOM     50  C   UNL A   1      48.644  25.468  35.510  1.00  0.00     0.020 A 
ATOM     51  C   UNL A   1      49.865  25.949  35.034  1.00  0.00     0.054 A 
BRANCH  51  52
ATOM     52  S   UNL A   1      51.426  25.241  35.627  1.00  0.00     0.124 S 
ATOM     53  O   UNL A   1      51.509  25.783  36.980  1.00  0.00    -0.237 OA
ATOM     54  O   UNL A   1      51.178  23.804  35.541  1.00  0.00    -0.237 OA
ATOM     55  O   UNL A   1      52.421  25.755  34.689  1.00  0.00    -0.744 OA
ENDBRANCH  51  52
ENDBRANCH  32  46
BRANCH  33  56
ATOM     56  C   UNL A   1      38.852  30.586  30.339  1.00  0.00    -0.014 A 
ATOM     57  C   UNL A   1      37.650  29.892  30.558  1.00  0.00     0.010 A 
ATOM     58  C   UNL A   1      38.822  31.779  29.590  1.00  0.00     0.010 A 
ATOM     59  C   UNL A   1      36.448  30.366  30.020  1.00  0.00     0.020 A 
ATOM     60  C   UNL A   1      37.620  32.274  29.079  1.00  0.00     0.020 A 
ATOM     61  C   UNL A   1      36.441  31.555  29.284  1.00  0.00     0.054 A 
BRANCH  61  62
ATOM     62  S   UNL A   1      34.866  32.171  28.626  1.00  0.00     0.124 S 
ATOM     63  O   UNL A   1      34.257  30.949  28.107  1.00  0.00    -0.237 OA
ATOM     64  O   UNL A   1      34.231  32.742  29.810  1.00  0.00    -0.237 OA
ATOM     65  O   UNL A   1      35.274  33.144  27.615  1.00  0.00    -0.744 OA
ENDBRANCH  61  62
ENDBRANCH  33  56
BRANCH  45  66
ATOM     66  C   UNL A   1      42.787  32.273  35.850  1.00  0.00    -0.014 A 
ATOM     67  C   UNL A   1      43.326  33.560  35.667  1.00  0.00     0.010 A 
ATOM     68  C   UNL A   1      42.066  31.991  37.024  1.00  0.00     0.010 A 
ATOM     69  C   UNL A   1      43.175  34.533  36.656  1.00  0.00     0.020 A 
ATOM     70  C   UNL A   1      41.886  32.971  38.002  1.00  0.00     0.020 A 
ATOM     71  C   UNL A   1      42.455  34.233  37.818  1.00  0.00     0.054 A 
BRANCH  71  72
ATOM     72  S   UNL A   1      42.241  35.526  39.071  1.00  0.00     0.124 S 
ATOM     73  O   UNL A   1      42.079  34.742  40.292  1.00  0.00    -0.237 OA
ATOM     74  O   UNL A   1      43.487  36.280  38.970  1.00  0.00    -0.237 OA
ATOM     75  O   UNL A   1      41.048  36.244  38.629  1.00  0.00    -0.744 OA
ENDBRANCH  71  72
ENDBRANCH  45  66
ENDBRANCH  19  20
ENDBRANCH  12  14
ENDBRANCH  11  12
ENDBRANCH  10  11
ENDBRANCH   9  10
ENDBRANCH   8   9
ENDBRANCH   6   8
ENDBRANCH   1   6
BRANCH   1  76
ATOM     76  N   UNL A   1      37.682  22.728  24.950  1.00  0.00    -0.341 N 
ATOM     77  C   UNL A   1      36.644  22.141  24.265  1.00  0.00     0.242 C 
ATOM     78  H   UNL A   1      38.535  22.236  24.981  1.00  0.00     0.164 HD
ATOM     79  O   UNL A   1      36.731  22.069  23.036  1.00  0.00    -0.273 OA
BRANCH  77  80
ATOM     80  C   UNL A   1      35.641  21.243  25.030  1.00  0.00     0.168 C 
ATOM     81  C   UNL A   1      35.621  21.590  26.519  1.00  0.00     0.041 C 
BRANCH  80  82
ATOM     82  N   UNL A   1      35.789  19.814  24.858  1.00  0.00    -0.343 N 
ATOM     83  C   UNL A   1      34.853  18.852  24.640  1.00  0.00     0.243 C 
ATOM     84  H   UNL A   1      36.715  19.486  24.907  1.00  0.00     0.164 HD
ATOM     85  O   UNL A   1      35.281  17.701  24.492  1.00  0.00    -0.273 OA
BRANCH  83  86
ATOM     86  C   UNL A   1      33.318  19.114  24.579  1.00  0.00     0.174 C 
BRANCH  86  87
ATOM     87  N   UNL A   1      33.110  20.446  23.952  1.00  0.00    -0.343 N 
ATOM     88  C   UNL A   1      32.204  21.460  24.027  1.00  0.00     0.240 C 
ATOM     89  H   UNL A   1      33.822  20.652  23.304  1.00  0.00     0.164 HD
ATOM     90  O   UNL A   1      32.299  22.323  23.144  1.00  0.00    -0.273 OA
BRANCH  88  91
ATOM     91  C   UNL A   1      31.081  21.585  25.086  1.00  0.00     0.219 C 
BRANCH  91  92
ATOM     92  N   UNL A   1      31.473  22.306  26.286  1.00  0.00    -0.312 N 
ATOM     93  C   UNL A   1      31.271  23.623  26.605  1.00  0.00     0.407 C 
ATOM     94  H   UNL A   1      31.949  21.774  26.964  1.00  0.00     0.167 HD
ATOM     95  O   UNL A   1      31.902  24.124  27.511  1.00  0.00    -0.225 OA
BRANCH  93  96
ATOM     96  O   UNL A   1      30.409  24.283  25.784  1.00  0.00    -0.445 OA
BRANCH  96  97
ATOM     97  C   UNL A   1      31.001  24.940  24.643  1.00  0.00     0.270 C 
BRANCH  97  98
ATOM     98  C   UNL A   1      30.475  26.307  24.272  1.00  0.00    -0.011 A 
ATOM     99  C   UNL A   1      29.200  26.480  23.720  1.00  0.00     0.007 A 
ATOM    100  C   UNL A   1      31.290  27.438  24.438  1.00  0.00     0.007 A 
ATOM    101  C   UNL A   1      28.755  27.757  23.360  1.00  0.00     0.000 A 
ATOM    102  C   UNL A   1      30.841  28.711  24.097  1.00  0.00     0.000 A 
ATOM    103  C   UNL A   1      29.570  28.871  23.555  1.00  0.00     0.000 A 
ENDBRANCH  97  98
ENDBRANCH  96  97
ENDBRANCH  93  96
ENDBRANCH  91  92
ENDBRANCH  88  91
ENDBRANCH  86  87
BRANCH  86 104
ATOM    104  C   UNL A   1      32.283  18.047  24.171  1.00  0.00     0.015 C 
ATOM    105  C   UNL A   1      32.156  17.507  22.755  1.00  0.00     0.010 C 
ATOM    106  C   UNL A   1      32.444  16.823  25.087  1.00  0.00     0.010 C 
ENDBRANCH  86 104
ENDBRANCH  83  86
ENDBRANCH  80  82
ENDBRANCH  77  80
ENDBRANCH   1  76
TORSDOF 27
ENDMDL
MODEL 3
REMARK VINA RESULT:      -7.7     11.218     18.800
REMARK SMILES CC(C)C[C@H](NC(=O)[C@H](C)NC(=O)[C@@H](NC(=O)CNC(=O)OCc1ccccc1)C(C)C)C(=O)OCCOC(=O)c1ccc(-c2c3nc(c(-c4ccc(S(=O)(=O)[O-])cc4)c4ccc([nH]4)c(-c4ccc(S(=O)(=O)[O-])cc4)c4nc(c(-c5ccc(S(=O)(=O)[O-])cc5)c5ccc2[nH]5)C=C4)C=C3)cc1
REMARK SMILES IDX 5 1 4 2 2 3 1 4 3 5 33 6 34 7 35 8 36 9 37 10 38 11 39 12
REMARK SMILES IDX 40 13 41 14 42 15 100 16 43 17 99 18 44 19 45 20 46 21 93 22
REMARK SMILES IDX 47 23 98 24 92 25 94 26 48 27 97 28 91 29 90 30 49 32 79 33
REMARK SMILES IDX 60 34 78 35 61 36 64 37 77 38 95 39 62 40 63 41 76 43 96 44
REMARK SMILES IDX 65 45 50 46 51 47 59 48 52 49 58 50 53 51 54 52 55 53 56 54
REMARK SMILES IDX 57 55 80 56 81 57 89 58 82 59 88 60 83 61 84 62 85 63 86 64
REMARK SMILES IDX 87 65 66 66 67 67 75 68 68 69 74 70 69 71 70 72 71 73 72 74
REMARK SMILES IDX 73 75 6 76 7 77 8 79 9 80 10 81 11 82 12 83 13 85 14 86
REMARK SMILES IDX 15 87 16 88 17 90 18 91 19 92 20 93 21 95 22 96 23 97 24 98
REMARK SMILES IDX 25 99 29 100 26 101 28 102 27 103 30 104 31 105 32 106
REMARK H PARENT 94 31 64 42 6 78 11 84 15 89 19 94
REMARK Flexibility Score: inf
ROOT
ATOM      1  C   UNL A   1      45.037  43.217  30.290  1.00  0.00     0.192 C 
ENDROOT
BRANCH   1   2
ATOM      2  C   UNL A   1      45.251  43.300  31.814  1.00  0.00     0.040 C 
BRANCH   2   3
ATOM      3  C   UNL A   1      44.801  44.526  32.627  1.00  0.00    -0.015 C 
ATOM      4  C   UNL A   1      43.329  44.466  33.024  1.00  0.00     0.007 C 
ATOM      5  C   UNL A   1      45.614  44.629  33.932  1.00  0.00     0.007 C 
ENDBRANCH   2   3
ENDBRANCH   1   2
BRANCH   1   6
ATOM      6  C   UNL A   1      45.998  42.221  29.599  1.00  0.00     0.328 C 
ATOM      7  O   UNL A   1      46.646  42.495  28.596  1.00  0.00    -0.250 OA
BRANCH   6   8
ATOM      8  O   UNL A   1      46.089  41.016  30.234  1.00  0.00    -0.461 OA
BRANCH   8   9
ATOM      9  C   UNL A   1      47.390  40.393  30.152  1.00  0.00     0.274 C 
BRANCH   9  10
ATOM     10  C   UNL A   1      47.725  39.493  31.353  1.00  0.00     0.275 C 
BRANCH  10  11
ATOM     11  O   UNL A   1      46.564  39.018  32.059  1.00  0.00    -0.458 OA
BRANCH  11  12
ATOM     12  C   UNL A   1      46.423  39.530  33.308  1.00  0.00     0.338 C 
ATOM     13  O   UNL A   1      46.749  40.651  33.665  1.00  0.00    -0.246 OA
BRANCH  12  14
ATOM     14  C   UNL A   1      45.595  38.638  34.140  1.00  0.00     0.060 A 
ATOM     15  C   UNL A   1      44.556  39.241  34.853  1.00  0.00     0.016 A 
ATOM     16  C   UNL A   1      45.836  37.274  34.282  1.00  0.00     0.016 A 
ATOM     17  C   UNL A   1      43.714  38.497  35.662  1.00  0.00     0.010 A 
ATOM     18  C   UNL A   1      45.014  36.522  35.134  1.00  0.00     0.010 A 
ATOM     19  C   UNL A   1      43.946  37.131  35.822  1.00  0.00    -0.014 A 
BRANCH  19  20
ATOM     20  C   UNL A   1      43.130  36.391  36.811  1.00  0.00     0.031 A 
ATOM     21  C   UNL A   1      41.962  35.581  36.330  1.00  0.00     0.074 A 
ATOM     22  C   UNL A   1      43.492  36.374  38.108  1.00  0.00     0.049 A 
ATOM     23  N   UNL A   1      41.066  34.930  37.023  1.00  0.00    -0.248 NA
ATOM     24  C   UNL A   1      41.781  35.490  34.872  1.00  0.00     0.031 C 
ATOM     25  C   UNL A   1      44.674  37.035  38.666  1.00  0.00     0.029 A 
ATOM     26  N   UNL A   1      42.907  35.768  39.190  1.00  0.00    -0.354 N 
ATOM     27  C   UNL A   1      40.197  34.378  36.089  1.00  0.00     0.074 A 
ATOM     28  C   UNL A   1      40.665  34.782  34.781  1.00  0.00     0.031 C 
ATOM     29  C   UNL A   1      44.726  36.796  39.987  1.00  0.00     0.029 A 
ATOM     30  C   UNL A   1      43.552  36.022  40.378  1.00  0.00     0.049 A 
ATOM     31  H   UNL A   1      42.101  35.205  39.124  1.00  0.00     0.167 HD
ATOM     32  C   UNL A   1      39.106  33.607  36.308  1.00  0.00     0.031 A 
ATOM     33  C   UNL A   1      43.210  35.699  41.640  1.00  0.00     0.031 A 
ATOM     34  C   UNL A   1      38.658  33.215  37.618  1.00  0.00     0.049 A 
ATOM     35  C   UNL A   1      41.939  34.925  41.866  1.00  0.00     0.074 A 
ATOM     36  C   UNL A   1      37.551  32.462  37.963  1.00  0.00     0.029 A 
ATOM     37  N   UNL A   1      39.303  33.543  38.804  1.00  0.00    -0.354 N 
ATOM     38  N   UNL A   1      41.092  34.454  40.980  1.00  0.00    -0.248 NA
ATOM     39  C   UNL A   1      41.572  34.642  43.260  1.00  0.00     0.031 C 
ATOM     40  C   UNL A   1      37.498  32.378  39.358  1.00  0.00     0.029 A 
ATOM     41  C   UNL A   1      38.608  33.024  39.881  1.00  0.00     0.049 A 
ATOM     42  H   UNL A   1      40.134  34.068  38.868  1.00  0.00     0.167 HD
ATOM     43  C   UNL A   1      40.107  33.797  41.708  1.00  0.00     0.074 A 
ATOM     44  C   UNL A   1      40.473  33.916  43.104  1.00  0.00     0.031 C 
ATOM     45  C   UNL A   1      38.998  33.154  41.264  1.00  0.00     0.031 A 
BRANCH  32  46
ATOM     46  C   UNL A   1      38.297  33.191  35.109  1.00  0.00    -0.014 A 
ATOM     47  C   UNL A   1      37.092  33.837  34.773  1.00  0.00     0.010 A 
ATOM     48  C   UNL A   1      38.759  32.142  34.293  1.00  0.00     0.010 A 
ATOM     49  C   UNL A   1      36.345  33.412  33.669  1.00  0.00     0.020 A 
ATOM     50  C   UNL A   1      38.030  31.734  33.172  1.00  0.00     0.020 A 
ATOM     51  C   UNL A   1      36.818  32.361  32.877  1.00  0.00     0.054 A 
BRANCH  51  52
ATOM     52  S   UNL A   1      35.839  31.843  31.442  1.00  0.00     0.124 S 
ATOM     53  O   UNL A   1      36.610  32.399  30.333  1.00  0.00    -0.237 OA
ATOM     54  O   UNL A   1      35.858  30.387  31.551  1.00  0.00    -0.237 OA
ATOM     55  O   UNL A   1      34.536  32.464  31.666  1.00  0.00    -0.744 OA
ENDBRANCH  51  52
ENDBRANCH  32  46
BRANCH  33  56
ATOM     56  C   UNL A   1      44.048  36.154  42.787  1.00  0.00    -0.014 A 
ATOM     57  C   UNL A   1      45.085  35.351  43.289  1.00  0.00     0.010 A 
ATOM     58  C   UNL A   1      43.800  37.402  43.392  1.00  0.00     0.010 A 
ATOM     59  C   UNL A   1      45.843  35.774  44.387  1.00  0.00     0.020 A 
ATOM     60  C   UNL A   1      44.575  37.843  44.467  1.00  0.00     0.020 A 
ATOM     61  C   UNL A   1      45.583  37.019  44.968  1.00  0.00     0.054 A 
BRANCH  61  62
ATOM     62  S   UNL A   1      46.602  37.564  46.368  1.00  0.00     0.124 S 
ATOM     63  O   UNL A   1      47.378  36.363  46.663  1.00  0.00    -0.237 OA
ATOM     64  O   UNL A   1      47.352  38.679  45.798  1.00  0.00    -0.237 OA
ATOM     65  O   UNL A   1      45.618  37.937  47.382  1.00  0.00    -0.744 OA
ENDBRANCH  61  62
ENDBRANCH  33  56
BRANCH  45  66
ATOM     66  C   UNL A   1      38.128  32.491  42.297  1.00  0.00    -0.014 A 
ATOM     67  C   UNL A   1      38.388  31.182  42.743  1.00  0.00     0.010 A 
ATOM     68  C   UNL A   1      37.061  33.211  42.865  1.00  0.00     0.010 A 
ATOM     69  C   UNL A   1      37.572  30.594  43.711  1.00  0.00     0.020 A 
ATOM     70  C   UNL A   1      36.263  32.638  43.856  1.00  0.00     0.020 A 
ATOM     71  C   UNL A   1      36.515  31.326  44.263  1.00  0.00     0.054 A 
BRANCH  71  72
ATOM     72  S   UNL A   1      35.494  30.553  45.547  1.00  0.00     0.124 S 
ATOM     73  O   UNL A   1      34.154  30.663  44.976  1.00  0.00    -0.237 OA
ATOM     74  O   UNL A   1      36.038  29.200  45.616  1.00  0.00    -0.237 OA
ATOM     75  O   UNL A   1      35.738  31.378  46.727  1.00  0.00    -0.744 OA
ENDBRANCH  71  72
ENDBRANCH  45  66
ENDBRANCH  19  20
ENDBRANCH  12  14
ENDBRANCH  11  12
ENDBRANCH  10  11
ENDBRANCH   9  10
ENDBRANCH   8   9
ENDBRANCH   6   8
ENDBRANCH   1   6
BRANCH   1  76
ATOM     76  N   UNL A   1      43.625  42.966  29.879  1.00  0.00    -0.341 N 
ATOM     77  C   UNL A   1      42.901  41.826  30.144  1.00  0.00     0.242 C 
ATOM     78  H   UNL A   1      43.171  43.678  29.373  1.00  0.00     0.164 HD
ATOM     79  O   UNL A   1      41.972  41.908  30.951  1.00  0.00    -0.273 OA
BRANCH  77  80
ATOM     80  C   UNL A   1      42.980  40.632  29.163  1.00  0.00     0.168 C 
ATOM     81  C   UNL A   1      41.598  40.285  28.608  1.00  0.00     0.041 C 
BRANCH  80  82
ATOM     82  N   UNL A   1      43.631  39.435  29.649  1.00  0.00    -0.343 N 
ATOM     83  C   UNL A   1      43.989  38.299  28.994  1.00  0.00     0.243 C 
ATOM     84  H   UNL A   1      43.849  39.444  30.609  1.00  0.00     0.164 HD
ATOM     85  O   UNL A   1      44.575  37.443  29.669  1.00  0.00    -0.273 OA
BRANCH  83  86
ATOM     86  C   UNL A   1      43.702  38.023  27.487  1.00  0.00     0.174 C 
BRANCH  86  87
ATOM     87  N   UNL A   1      45.009  37.847  26.801  1.00  0.00    -0.343 N 
ATOM     88  C   UNL A   1      46.020  38.641  26.351  1.00  0.00     0.240 C 
ATOM     89  H   UNL A   1      45.196  36.897  26.623  1.00  0.00     0.164 HD
ATOM     90  O   UNL A   1      46.851  38.080  25.624  1.00  0.00    -0.273 OA
BRANCH  88  91
ATOM     91  C   UNL A   1      46.177  40.152  26.648  1.00  0.00     0.219 C 
BRANCH  91  92
ATOM     92  N   UNL A   1      46.863  40.896  25.604  1.00  0.00    -0.312 N 
ATOM     93  C   UNL A   1      46.343  41.490  24.485  1.00  0.00     0.407 C 
ATOM     94  H   UNL A   1      47.837  40.984  25.718  1.00  0.00     0.167 HD
ATOM     95  O   UNL A   1      47.083  41.823  23.584  1.00  0.00    -0.225 OA
BRANCH  93  96
ATOM     96  O   UNL A   1      44.985  41.575  24.463  1.00  0.00    -0.445 OA
BRANCH  96  97
ATOM     97  C   UNL A   1      44.438  42.851  24.068  1.00  0.00     0.270 C 
BRANCH  97  98
ATOM     98  C   UNL A   1      43.714  42.922  22.744  1.00  0.00    -0.011 A 
ATOM     99  C   UNL A   1      44.363  43.328  21.571  1.00  0.00     0.007 A 
ATOM    100  C   UNL A   1      42.345  42.619  22.678  1.00  0.00     0.007 A 
ATOM    101  C   UNL A   1      43.656  43.411  20.366  1.00  0.00     0.000 A 
ATOM    102  C   UNL A   1      41.645  42.685  21.476  1.00  0.00     0.000 A 
ATOM    103  C   UNL A   1      42.302  43.084  20.317  1.00  0.00     0.000 A 
ENDBRANCH  97  98
ENDBRANCH  96  97
ENDBRANCH  93  96
ENDBRANCH  91  92
ENDBRANCH  88  91
ENDBRANCH  86  87
BRANCH  86 104
ATOM    104  C   UNL A   1      42.587  37.083  26.986  1.00  0.00     0.015 C 
ATOM    105  C   UNL A   1      42.859  35.815  26.193  1.00  0.00     0.010 C 
ATOM    106  C   UNL A   1      41.715  36.666  28.182  1.00  0.00     0.010 C 
ENDBRANCH  86 104
ENDBRANCH  83  86
ENDBRANCH  80  82
ENDBRANCH  77  80
ENDBRANCH   1  76
TORSDOF 27
ENDMDL
