MODEL 1
REMARK VINA RESULT:      -9.8      0.000      0.000
REMARK SMILES COc1cc(Cl)c2c(c1)C=C(C(=O)OCCOC(=O)c1ccc(-c3c4nc(c(-c5ccc(S(=O)(=O)[O-])cc5)c5ccc([nH]5)c(-c5ccc(S(=O)(=O)[O-])cc5)c5nc(c(-c6ccc(S(=O)(=O)[O-])cc6)c6ccc3[nH]6)C=C5)C=C4)cc1)[C@@H](C(F)(F)F)O2
REMARK SMILES IDX 16 1 15 2 14 3 12 4 13 5 11 6 3 7 4 8 9 9 5 10 8 11 6 12
REMARK SMILES IDX 7 13 10 14 85 15 80 16 2 17 1 18 81 19 82 20 83 21 84 22
REMARK SMILES IDX 17 23 18 24 19 25 20 26 21 27 79 28 22 29 78 30 23 31 24 32
REMARK SMILES IDX 25 33 72 34 26 35 77 36 71 37 73 38 27 39 76 40 70 41 69 42
REMARK SMILES IDX 28 44 58 45 39 46 57 47 40 48 43 49 56 50 74 51 41 52 42 53
REMARK SMILES IDX 55 55 75 56 44 57 29 58 30 59 38 60 31 61 37 62 32 63 33 64
REMARK SMILES IDX 34 65 35 66 36 67 59 68 60 69 68 70 61 71 67 72 62 73 63 74
REMARK SMILES IDX 64 75 65 76 66 77 45 78 46 79 54 80 47 81 53 82 48 83 49 84
REMARK SMILES IDX 50 85 51 86 52 87
REMARK H PARENT 73 43 43 54
REMARK Flexibility Score: inf
ROOT
ATOM      1  C   UNL A   1      40.866  20.132  26.391  1.00  0.00     0.275 C 
ENDROOT
BRANCH   1   2
ATOM      2  C   UNL A   1      42.280  20.079  26.968  1.00  0.00     0.275 C 
BRANCH   2   3
ATOM      3  O   UNL A   1      43.261  20.508  25.999  1.00  0.00    -0.459 OA
BRANCH   3   4
ATOM      4  C   UNL A   1      43.255  21.832  25.722  1.00  0.00     0.338 C 
ATOM      5  O   UNL A   1      42.459  22.424  25.010  1.00  0.00    -0.246 OA
BRANCH   4   6
ATOM      6  C   UNL A   1      44.367  22.512  26.409  1.00  0.00     0.087 C 
ATOM      7  C   UNL A   1      45.778  25.606  29.813  1.00  0.00     0.121 A 
ATOM      8  C   UNL A   1      47.043  25.687  29.237  1.00  0.00     0.070 A 
ATOM      9  C   UNL A   1      44.829  24.733  29.287  1.00  0.00     0.058 A 
ATOM     10  C   UNL A   1      47.344  24.903  28.117  1.00  0.00     0.087 A 
ATOM     11  C   UNL A   1      45.123  23.973  28.148  1.00  0.00     0.022 A 
ATOM     12  Cl  UNL A   1      48.927  25.035  27.432  1.00  0.00    -0.080 Cl
ATOM     13  C   UNL A   1      46.385  24.047  27.559  1.00  0.00     0.146 A 
ATOM     14  C   UNL A   1      44.093  23.143  27.556  1.00  0.00     0.027 C 
ATOM     15  O   UNL A   1      46.734  23.294  26.468  1.00  0.00    -0.474 OA
ATOM     16  C   UNL A   1      45.699  22.591  25.726  1.00  0.00     0.316 C 
BRANCH   7  17
ATOM     17  O   UNL A   1      45.407  26.293  30.935  1.00  0.00    -0.497 OA
ATOM     18  C   UNL A   1      44.208  27.048  30.780  1.00  0.00     0.278 C 
ENDBRANCH   7  17
BRANCH  16  19
ATOM     19  C   UNL A   1      45.581  23.215  24.326  1.00  0.00     0.430 C 
ATOM     20  F   UNL A   1      46.786  23.632  23.868  1.00  0.00    -0.167 F 
ATOM     21  F   UNL A   1      45.115  22.323  23.418  1.00  0.00    -0.167 F 
ATOM     22  F   UNL A   1      44.750  24.282  24.309  1.00  0.00    -0.167 F 
ENDBRANCH  16  19
ENDBRANCH   4   6
ENDBRANCH   3   4
ENDBRANCH   2   3
ENDBRANCH   1   2
BRANCH   1  23
ATOM     23  O   UNL A   1      40.020  20.975  27.194  1.00  0.00    -0.458 OA
BRANCH  23  24
ATOM     24  C   UNL A   1      39.328  21.908  26.503  1.00  0.00     0.338 C 
ATOM     25  O   UNL A   1      38.505  21.717  25.624  1.00  0.00    -0.246 OA
BRANCH  24  26
ATOM     26  C   UNL A   1      39.661  23.254  26.990  1.00  0.00     0.060 A 
ATOM     27  C   UNL A   1      39.222  24.364  26.274  1.00  0.00     0.016 A 
ATOM     28  C   UNL A   1      40.564  23.406  28.041  1.00  0.00     0.016 A 
ATOM     29  C   UNL A   1      39.799  25.608  26.505  1.00  0.00     0.010 A 
ATOM     30  C   UNL A   1      41.041  24.682  28.357  1.00  0.00     0.010 A 
ATOM     31  C   UNL A   1      40.705  25.789  27.558  1.00  0.00    -0.014 A 
BRANCH  31  32
ATOM     32  C   UNL A   1      41.311  27.125  27.808  1.00  0.00     0.031 A 
ATOM     33  C   UNL A   1      42.697  27.442  27.305  1.00  0.00     0.074 A 
ATOM     34  C   UNL A   1      40.605  28.065  28.470  1.00  0.00     0.049 A 
ATOM     35  N   UNL A   1      43.433  28.497  27.538  1.00  0.00    -0.248 NA
ATOM     36  C   UNL A   1      43.345  26.442  26.438  1.00  0.00     0.031 C 
ATOM     37  C   UNL A   1      39.235  27.906  28.966  1.00  0.00     0.029 A 
ATOM     38  N   UNL A   1      40.936  29.349  28.829  1.00  0.00    -0.354 N 
ATOM     39  C   UNL A   1      44.641  28.272  26.886  1.00  0.00     0.074 A 
ATOM     40  C   UNL A   1      44.547  26.975  26.256  1.00  0.00     0.031 C 
ATOM     41  C   UNL A   1      38.826  29.058  29.515  1.00  0.00     0.029 A 
ATOM     42  C   UNL A   1      39.931  30.009  29.497  1.00  0.00     0.049 A 
ATOM     43  H   UNL A   1      41.808  29.758  28.627  1.00  0.00     0.167 HD
ATOM     44  C   UNL A   1      45.727  29.077  26.817  1.00  0.00     0.031 A 
ATOM     45  C   UNL A   1      39.903  31.228  30.068  1.00  0.00     0.031 A 
ATOM     46  C   UNL A   1      45.798  30.385  27.413  1.00  0.00     0.049 A 
ATOM     47  C   UNL A   1      41.137  32.080  30.028  1.00  0.00     0.074 A 
ATOM     48  C   UNL A   1      46.852  31.282  27.386  1.00  0.00     0.029 A 
ATOM     49  N   UNL A   1      44.775  30.987  28.128  1.00  0.00    -0.354 N 
ATOM     50  N   UNL A   1      42.286  31.825  29.451  1.00  0.00    -0.248 NA
ATOM     51  C   UNL A   1      41.082  33.369  30.730  1.00  0.00     0.031 C 
ATOM     52  C   UNL A   1      46.482  32.409  28.124  1.00  0.00     0.029 A 
ATOM     53  C   UNL A   1      45.180  32.235  28.566  1.00  0.00     0.049 A 
ATOM     54  H   UNL A   1      43.893  30.586  28.300  1.00  0.00     0.167 HD
ATOM     55  C   UNL A   1      43.090  32.927  29.711  1.00  0.00     0.074 A 
ATOM     56  C   UNL A   1      42.294  33.856  30.489  1.00  0.00     0.031 C 
ATOM     57  C   UNL A   1      44.373  33.146  29.338  1.00  0.00     0.031 A 
BRANCH  44  58
ATOM     58  C   UNL A   1      46.945  28.572  26.090  1.00  0.00    -0.014 A 
ATOM     59  C   UNL A   1      46.881  28.184  24.740  1.00  0.00     0.010 A 
ATOM     60  C   UNL A   1      48.191  28.575  26.744  1.00  0.00     0.010 A 
ATOM     61  C   UNL A   1      48.040  27.798  24.062  1.00  0.00     0.020 A 
ATOM     62  C   UNL A   1      49.356  28.210  26.063  1.00  0.00     0.020 A 
ATOM     63  C   UNL A   1      49.272  27.821  24.725  1.00  0.00     0.054 A 
BRANCH  63  64
ATOM     64  S   UNL A   1      50.762  27.350  23.804  1.00  0.00     0.124 S 
ATOM     65  O   UNL A   1      51.529  28.594  23.805  1.00  0.00    -0.237 OA
ATOM     66  O   UNL A   1      51.310  26.274  24.623  1.00  0.00    -0.237 OA
ATOM     67  O   UNL A   1      50.251  26.943  22.497  1.00  0.00    -0.744 OA
ENDBRANCH  63  64
ENDBRANCH  44  58
BRANCH  45  68
ATOM     68  C   UNL A   1      38.663  31.684  30.751  1.00  0.00    -0.014 A 
ATOM     69  C   UNL A   1      38.440  31.376  32.102  1.00  0.00     0.010 A 
ATOM     70  C   UNL A   1      37.736  32.496  30.071  1.00  0.00     0.010 A 
ATOM     71  C   UNL A   1      37.318  31.883  32.767  1.00  0.00     0.020 A 
ATOM     72  C   UNL A   1      36.628  33.026  30.737  1.00  0.00     0.020 A 
ATOM     73  C   UNL A   1      36.428  32.718  32.083  1.00  0.00     0.054 A 
BRANCH  73  74
ATOM     74  S   UNL A   1      35.024  33.421  32.992  1.00  0.00     0.124 S 
ATOM     75  O   UNL A   1      33.893  32.704  32.412  1.00  0.00    -0.237 OA
ATOM     76  O   UNL A   1      35.351  33.078  34.374  1.00  0.00    -0.237 OA
ATOM     77  O   UNL A   1      35.088  34.846  32.676  1.00  0.00    -0.744 OA
ENDBRANCH  73  74
ENDBRANCH  45  68
BRANCH  57  78
ATOM     78  C   UNL A   1      45.010  34.446  29.740  1.00  0.00    -0.014 A 
ATOM     79  C   UNL A   1      45.769  34.540  30.918  1.00  0.00     0.010 A 
ATOM     80  C   UNL A   1      44.952  35.545  28.862  1.00  0.00     0.010 A 
ATOM     81  C   UNL A   1      46.467  35.714  31.211  1.00  0.00     0.020 A 
ATOM     82  C   UNL A   1      45.666  36.712  29.143  1.00  0.00     0.020 A 
ATOM     83  C   UNL A   1      46.421  36.787  30.314  1.00  0.00     0.054 A 
BRANCH  83  84
ATOM     84  S   UNL A   1      47.400  38.267  30.687  1.00  0.00     0.124 S 
ATOM     85  O   UNL A   1      48.149  38.461  29.447  1.00  0.00    -0.237 OA
ATOM     86  O   UNL A   1      46.370  39.264  30.960  1.00  0.00    -0.237 OA
ATOM     87  O   UNL A   1      48.206  37.871  31.840  1.00  0.00    -0.744 OA
ENDBRANCH  83  84
ENDBRANCH  57  78
ENDBRANCH  31  32
ENDBRANCH  24  26
ENDBRANCH  23  24
ENDBRANCH   1  23
TORSDOF 16
ENDMDL
MODEL 2
REMARK VINA RESULT:      -9.4      0.474      8.287
REMARK SMILES COc1cc(Cl)c2c(c1)C=C(C(=O)OCCOC(=O)c1ccc(-c3c4nc(c(-c5ccc(S(=O)(=O)[O-])cc5)c5ccc([nH]5)c(-c5ccc(S(=O)(=O)[O-])cc5)c5nc(c(-c6ccc(S(=O)(=O)[O-])cc6)c6ccc3[nH]6)C=C5)C=C4)cc1)[C@@H](C(F)(F)F)O2
REMARK SMILES IDX 16 1 15 2 14 3 12 4 13 5 11 6 3 7 4 8 9 9 5 10 8 11 6 12
REMARK SMILES IDX 7 13 10 14 85 15 80 16 2 17 1 18 81 19 82 20 83 21 84 22
REMARK SMILES IDX 17 23 18 24 19 25 20 26 21 27 79 28 22 29 78 30 23 31 24 32
REMARK SMILES IDX 25 33 72 34 26 35 77 36 71 37 73 38 27 39 76 40 70 41 69 42
REMARK SMILES IDX 28 44 58 45 39 46 57 47 40 48 43 49 56 50 74 51 41 52 42 53
REMARK SMILES IDX 55 55 75 56 44 57 29 58 30 59 38 60 31 61 37 62 32 63 33 64
REMARK SMILES IDX 34 65 35 66 36 67 59 68 60 69 68 70 61 71 67 72 62 73 63 74
REMARK SMILES IDX 64 75 65 76 66 77 45 78 46 79 54 80 47 81 53 82 48 83 49 84
REMARK SMILES IDX 50 85 51 86 52 87
REMARK H PARENT 73 43 43 54
REMARK Flexibility Score: inf
ROOT
ATOM      1  C   UNL A   1      40.733  20.147  26.389  1.00  0.00     0.275 C 
ENDROOT
BRANCH   1   2
ATOM      2  C   UNL A   1      42.154  20.023  26.939  1.00  0.00     0.275 C 
BRANCH   2   3
ATOM      3  O   UNL A   1      43.134  20.456  25.970  1.00  0.00    -0.459 OA
BRANCH   3   4
ATOM      4  C   UNL A   1      43.156  21.787  25.731  1.00  0.00     0.338 C 
ATOM      5  O   UNL A   1      42.356  22.419  25.059  1.00  0.00    -0.246 OA
BRANCH   4   6
ATOM      6  C   UNL A   1      44.305  22.418  26.404  1.00  0.00     0.087 C 
ATOM      7  C   UNL A   1      45.897  25.353  29.868  1.00  0.00     0.121 A 
ATOM      8  C   UNL A   1      47.143  25.429  29.251  1.00  0.00     0.070 A 
ATOM      9  C   UNL A   1      44.913  24.520  29.343  1.00  0.00     0.058 A 
ATOM     10  C   UNL A   1      47.390  24.682  28.093  1.00  0.00     0.087 A 
ATOM     11  C   UNL A   1      45.151  23.797  28.168  1.00  0.00     0.022 A 
ATOM     12  Cl  UNL A   1      48.951  24.806  27.359  1.00  0.00    -0.080 Cl
ATOM     13  C   UNL A   1      46.394  23.867  27.538  1.00  0.00     0.146 A 
ATOM     14  C   UNL A   1      44.084  23.011  27.581  1.00  0.00     0.027 C 
ATOM     15  O   UNL A   1      46.688  23.149  26.409  1.00  0.00    -0.474 OA
ATOM     16  C   UNL A   1      45.614  22.494  25.678  1.00  0.00     0.316 C 
BRANCH   7  17
ATOM     17  O   UNL A   1      45.580  26.006  31.026  1.00  0.00    -0.497 OA
ATOM     18  C   UNL A   1      44.456  26.875  30.909  1.00  0.00     0.278 C 
ENDBRANCH   7  17
BRANCH  16  19
ATOM     19  C   UNL A   1      45.463  23.172  24.307  1.00  0.00     0.430 C 
ATOM     20  F   UNL A   1      44.648  24.253  24.378  1.00  0.00    -0.167 F 
ATOM     21  F   UNL A   1      46.651  23.621  23.835  1.00  0.00    -0.167 F 
ATOM     22  F   UNL A   1      44.947  22.337  23.376  1.00  0.00    -0.167 F 
ENDBRANCH  16  19
ENDBRANCH   4   6
ENDBRANCH   3   4
ENDBRANCH   2   3
ENDBRANCH   1   2
BRANCH   1  23
ATOM     23  O   UNL A   1      39.955  21.053  27.191  1.00  0.00    -0.458 OA
BRANCH  23  24
ATOM     24  C   UNL A   1      39.299  22.008  26.494  1.00  0.00     0.338 C 
ATOM     25  O   UNL A   1      38.467  21.844  25.618  1.00  0.00    -0.246 OA
BRANCH  24  26
ATOM     26  C   UNL A   1      39.688  23.343  26.970  1.00  0.00     0.060 A 
ATOM     27  C   UNL A   1      39.417  24.453  26.175  1.00  0.00     0.016 A 
ATOM     28  C   UNL A   1      40.486  23.468  28.106  1.00  0.00     0.016 A 
ATOM     29  C   UNL A   1      40.066  25.658  26.426  1.00  0.00     0.010 A 
ATOM     30  C   UNL A   1      41.029  24.715  28.430  1.00  0.00     0.010 A 
ATOM     31  C   UNL A   1      40.869  25.811  27.564  1.00  0.00    -0.014 A 
BRANCH  31  32
ATOM     32  C   UNL A   1      41.552  27.106  27.834  1.00  0.00     0.031 A 
ATOM     33  C   UNL A   1      40.855  28.186  28.622  1.00  0.00     0.074 A 
ATOM     34  C   UNL A   1      42.810  27.304  27.388  1.00  0.00     0.049 A 
ATOM     35  N   UNL A   1      41.237  29.417  28.843  1.00  0.00    -0.248 NA
ATOM     36  C   UNL A   1      39.557  27.847  29.232  1.00  0.00     0.031 C 
ATOM     37  C   UNL A   1      43.616  26.322  26.658  1.00  0.00     0.029 A 
ATOM     38  N   UNL A   1      43.639  28.393  27.496  1.00  0.00    -0.354 N 
ATOM     39  C   UNL A   1      40.215  30.010  29.577  1.00  0.00     0.074 A 
ATOM     40  C   UNL A   1      39.188  29.009  29.756  1.00  0.00     0.031 C 
ATOM     41  C   UNL A   1      44.835  26.831  26.430  1.00  0.00     0.029 A 
ATOM     42  C   UNL A   1      44.870  28.206  26.913  1.00  0.00     0.049 A 
ATOM     43  H   UNL A   1      43.378  29.227  27.949  1.00  0.00     0.167 HD
ATOM     44  C   UNL A   1      40.143  31.272  30.059  1.00  0.00     0.031 A 
ATOM     45  C   UNL A   1      45.905  29.052  26.745  1.00  0.00     0.031 A 
ATOM     46  C   UNL A   1      41.187  32.251  29.911  1.00  0.00     0.049 A 
ATOM     47  C   UNL A   1      45.781  30.463  27.238  1.00  0.00     0.074 A 
ATOM     48  C   UNL A   1      41.213  33.554  30.377  1.00  0.00     0.029 A 
ATOM     49  N   UNL A   1      42.393  32.032  29.262  1.00  0.00    -0.354 N 
ATOM     50  N   UNL A   1      44.783  31.017  27.883  1.00  0.00    -0.248 NA
ATOM     51  C   UNL A   1      46.905  31.367  26.965  1.00  0.00     0.031 C 
ATOM     52  C   UNL A   1      42.416  34.138  29.971  1.00  0.00     0.029 A 
ATOM     53  C   UNL A   1      43.160  33.182  29.297  1.00  0.00     0.049 A 
ATOM     54  H   UNL A   1      42.661  31.185  28.839  1.00  0.00     0.167 HD
ATOM     55  C   UNL A   1      45.163  32.334  28.103  1.00  0.00     0.074 A 
ATOM     56  C   UNL A   1      46.486  32.492  27.532  1.00  0.00     0.031 C 
ATOM     57  C   UNL A   1      44.475  33.321  28.724  1.00  0.00     0.031 A 
BRANCH  44  58
ATOM     58  C   UNL A   1      38.890  31.691  30.779  1.00  0.00    -0.014 A 
ATOM     59  C   UNL A   1      38.811  31.666  32.183  1.00  0.00     0.010 A 
ATOM     60  C   UNL A   1      37.807  32.205  30.041  1.00  0.00     0.010 A 
ATOM     61  C   UNL A   1      37.667  32.137  32.833  1.00  0.00     0.020 A 
ATOM     62  C   UNL A   1      36.670  32.697  30.689  1.00  0.00     0.020 A 
ATOM     63  C   UNL A   1      36.608  32.658  32.083  1.00  0.00     0.054 A 
BRANCH  63  64
ATOM     64  S   UNL A   1      35.155  33.296  32.962  1.00  0.00     0.124 S 
ATOM     65  O   UNL A   1      35.247  34.732  32.706  1.00  0.00    -0.237 OA
ATOM     66  O   UNL A   1      34.055  32.609  32.291  1.00  0.00    -0.237 OA
ATOM     67  O   UNL A   1      35.384  32.902  34.350  1.00  0.00    -0.744 OA
ENDBRANCH  63  64
ENDBRANCH  44  58
BRANCH  45  68
ATOM     68  C   UNL A   1      47.129  28.574  26.047  1.00  0.00    -0.014 A 
ATOM     69  C   UNL A   1      47.102  28.298  24.671  1.00  0.00     0.010 A 
ATOM     70  C   UNL A   1      48.348  28.469  26.744  1.00  0.00     0.010 A 
ATOM     71  C   UNL A   1      48.275  27.939  23.999  1.00  0.00     0.020 A 
ATOM     72  C   UNL A   1      49.527  28.135  26.073  1.00  0.00     0.020 A 
ATOM     73  C   UNL A   1      49.483  27.876  24.702  1.00  0.00     0.054 A 
BRANCH  73  74
ATOM     74  S   UNL A   1      51.000  27.480  23.790  1.00  0.00     0.124 S 
ATOM     75  O   UNL A   1      50.483  26.754  22.634  1.00  0.00    -0.237 OA
ATOM     76  O   UNL A   1      51.546  28.807  23.513  1.00  0.00    -0.237 OA
ATOM     77  O   UNL A   1      51.773  26.678  24.737  1.00  0.00    -0.744 OA
ENDBRANCH  73  74
ENDBRANCH  45  68
BRANCH  57  78
ATOM     78  C   UNL A   1      45.131  34.667  28.845  1.00  0.00    -0.014 A 
ATOM     79  C   UNL A   1      44.729  35.739  28.030  1.00  0.00     0.010 A 
ATOM     80  C   UNL A   1      46.069  34.889  29.870  1.00  0.00     0.010 A 
ATOM     81  C   UNL A   1      45.250  37.016  28.245  1.00  0.00     0.020 A 
ATOM     82  C   UNL A   1      46.576  36.170  30.100  1.00  0.00     0.020 A 
ATOM     83  C   UNL A   1      46.161  37.226  29.287  1.00  0.00     0.054 A 
BRANCH  83  84
ATOM     84  S   UNL A   1      46.759  38.911  29.586  1.00  0.00     0.124 S 
ATOM     85  O   UNL A   1      47.930  38.677  30.428  1.00  0.00    -0.237 OA
ATOM     86  O   UNL A   1      47.041  39.388  28.236  1.00  0.00    -0.237 OA
ATOM     87  O   UNL A   1      45.637  39.566  30.256  1.00  0.00    -0.744 OA
ENDBRANCH  83  84
ENDBRANCH  57  78
ENDBRANCH  31  32
ENDBRANCH  24  26
ENDBRANCH  23  24
ENDBRANCH   1  23
TORSDOF 16
ENDMDL
MODEL 3
REMARK VINA RESULT:      -9.2      5.254     10.969
REMARK SMILES COc1cc(Cl)c2c(c1)C=C(C(=O)OCCOC(=O)c1ccc(-c3c4nc(c(-c5ccc(S(=O)(=O)[O-])cc5)c5ccc([nH]5)c(-c5ccc(S(=O)(=O)[O-])cc5)c5nc(c(-c6ccc(S(=O)(=O)[O-])cc6)c6ccc3[nH]6)C=C5)C=C4)cc1)[C@@H](C(F)(F)F)O2
REMARK SMILES IDX 16 1 15 2 14 3 12 4 13 5 11 6 3 7 4 8 9 9 5 10 8 11 6 12
REMARK SMILES IDX 7 13 10 14 85 15 80 16 2 17 1 18 81 19 82 20 83 21 84 22
REMARK SMILES IDX 17 23 18 24 19 25 20 26 21 27 79 28 22 29 78 30 23 31 24 32
REMARK SMILES IDX 25 33 72 34 26 35 77 36 71 37 73 38 27 39 76 40 70 41 69 42
REMARK SMILES IDX 28 44 58 45 39 46 57 47 40 48 43 49 56 50 74 51 41 52 42 53
REMARK SMILES IDX 55 55 75 56 44 57 29 58 30 59 38 60 31 61 37 62 32 63 33 64
REMARK SMILES IDX 34 65 35 66 36 67 59 68 60 69 68 70 61 71 67 72 62 73 63 74
REMARK SMILES IDX 64 75 65 76 66 77 45 78 46 79 54 80 47 81 53 82 48 83 49 84
REMARK SMILES IDX 50 85 51 86 52 87
REMARK H PARENT 73 43 43 54
REMARK Flexibility Score: inf
ROOT
ATOM      1  C   UNL A   1      32.390  30.487  26.893  1.00  0.00     0.275 C 
ENDROOT
BRANCH   1   2
ATOM      2  C   UNL A   1      31.881  29.570  25.781  1.00  0.00     0.275 C 
BRANCH   2   3
ATOM      3  O   UNL A   1      32.381  28.224  25.938  1.00  0.00    -0.459 OA
BRANCH   3   4
ATOM      4  C   UNL A   1      32.696  27.591  24.785  1.00  0.00     0.338 C 
ATOM      5  O   UNL A   1      32.818  28.102  23.683  1.00  0.00    -0.246 OA
BRANCH   4   6
ATOM      6  C   UNL A   1      32.886  26.148  25.018  1.00  0.00     0.087 C 
ATOM      7  C   UNL A   1      35.906  22.407  25.197  1.00  0.00     0.121 A 
ATOM      8  C   UNL A   1      34.833  21.520  25.153  1.00  0.00     0.070 A 
ATOM      9  C   UNL A   1      35.671  23.778  25.251  1.00  0.00     0.058 A 
ATOM     10  C   UNL A   1      33.524  22.016  25.141  1.00  0.00     0.087 A 
ATOM     11  C   UNL A   1      34.362  24.273  25.208  1.00  0.00     0.022 A 
ATOM     12  Cl  UNL A   1      32.221  20.880  25.085  1.00  0.00    -0.080 Cl
ATOM     13  C   UNL A   1      33.278  23.396  25.161  1.00  0.00     0.146 A 
ATOM     14  C   UNL A   1      34.138  25.705  25.167  1.00  0.00     0.027 C 
ATOM     15  O   UNL A   1      31.978  23.830  25.157  1.00  0.00    -0.474 OA
ATOM     16  C   UNL A   1      31.697  25.239  24.931  1.00  0.00     0.316 C 
BRANCH   7  17
ATOM     17  O   UNL A   1      37.213  22.016  25.260  1.00  0.00    -0.497 OA
ATOM     18  C   UNL A   1      37.436  20.672  24.843  1.00  0.00     0.278 C 
ENDBRANCH   7  17
BRANCH  16  19
ATOM     19  C   UNL A   1      30.968  25.389  23.585  1.00  0.00     0.430 C 
ATOM     20  F   UNL A   1      30.178  26.490  23.573  1.00  0.00    -0.167 F 
ATOM     21  F   UNL A   1      31.839  25.533  22.557  1.00  0.00    -0.167 F 
ATOM     22  F   UNL A   1      30.183  24.324  23.306  1.00  0.00    -0.167 F 
ENDBRANCH  16  19
ENDBRANCH   4   6
ENDBRANCH   3   4
ENDBRANCH   2   3
ENDBRANCH   1   2
BRANCH   1  23
ATOM     23  O   UNL A   1      33.496  29.882  27.585  1.00  0.00    -0.458 OA
BRANCH  23  24
ATOM     24  C   UNL A   1      34.426  30.751  28.040  1.00  0.00     0.338 C 
ATOM     25  O   UNL A   1      34.263  31.925  28.326  1.00  0.00    -0.246 OA
BRANCH  24  26
ATOM     26  C   UNL A   1      35.720  30.074  28.205  1.00  0.00     0.060 A 
ATOM     27  C   UNL A   1      36.042  29.515  29.439  1.00  0.00     0.016 A 
ATOM     28  C   UNL A   1      36.681  30.161  27.200  1.00  0.00     0.016 A 
ATOM     29  C   UNL A   1      37.362  29.183  29.724  1.00  0.00     0.010 A 
ATOM     30  C   UNL A   1      37.978  29.701  27.447  1.00  0.00     0.010 A 
ATOM     31  C   UNL A   1      38.346  29.258  28.729  1.00  0.00    -0.014 A 
BRANCH  31  32
ATOM     32  C   UNL A   1      39.755  28.890  29.037  1.00  0.00     0.031 A 
ATOM     33  C   UNL A   1      40.661  29.865  29.746  1.00  0.00     0.074 A 
ATOM     34  C   UNL A   1      40.217  27.669  28.696  1.00  0.00     0.049 A 
ATOM     35  N   UNL A   1      41.944  29.771  29.980  1.00  0.00    -0.248 NA
ATOM     36  C   UNL A   1      40.052  31.109  30.249  1.00  0.00     0.031 C 
ATOM     37  C   UNL A   1      39.430  26.613  28.052  1.00  0.00     0.029 A 
ATOM     38  N   UNL A   1      41.456  27.100  28.858  1.00  0.00    -0.354 N 
ATOM     39  C   UNL A   1      42.304  30.955  30.616  1.00  0.00     0.074 A 
ATOM     40  C   UNL A   1      41.108  31.759  30.723  1.00  0.00     0.031 C 
ATOM     41  C   UNL A   1      40.186  25.514  27.921  1.00  0.00     0.029 A 
ATOM     42  C   UNL A   1      41.536  25.812  28.384  1.00  0.00     0.049 A 
ATOM     43  H   UNL A   1      42.214  27.570  29.275  1.00  0.00     0.167 HD
ATOM     44  C   UNL A   1      43.521  31.333  31.072  1.00  0.00     0.031 A 
ATOM     45  C   UNL A   1      42.582  24.968  28.292  1.00  0.00     0.031 A 
ATOM     46  C   UNL A   1      44.699  30.510  30.999  1.00  0.00     0.049 A 
ATOM     47  C   UNL A   1      43.933  25.430  28.752  1.00  0.00     0.074 A 
ATOM     48  C   UNL A   1      45.977  30.801  31.446  1.00  0.00     0.029 A 
ATOM     49  N   UNL A   1      44.743  29.235  30.458  1.00  0.00    -0.354 N 
ATOM     50  N   UNL A   1      44.261  26.574  29.302  1.00  0.00    -0.248 NA
ATOM     51  C   UNL A   1      45.056  24.503  28.562  1.00  0.00     0.031 C 
ATOM     52  C   UNL A   1      46.803  29.718  31.134  1.00  0.00     0.029 A 
ATOM     53  C   UNL A   1      46.029  28.733  30.541  1.00  0.00     0.049 A 
ATOM     54  H   UNL A   1      43.974  28.758  30.071  1.00  0.00     0.167 HD
ATOM     55  C   UNL A   1      45.629  26.501  29.534  1.00  0.00     0.074 A 
ATOM     56  C   UNL A   1      46.065  25.197  29.074  1.00  0.00     0.031 C 
ATOM     57  C   UNL A   1      46.446  27.433  30.079  1.00  0.00     0.031 A 
BRANCH  44  58
ATOM     58  C   UNL A   1      43.663  32.704  31.677  1.00  0.00    -0.014 A 
ATOM     59  C   UNL A   1      43.962  33.825  30.883  1.00  0.00     0.010 A 
ATOM     60  C   UNL A   1      43.399  32.886  33.048  1.00  0.00     0.010 A 
ATOM     61  C   UNL A   1      44.007  35.100  31.452  1.00  0.00     0.020 A 
ATOM     62  C   UNL A   1      43.421  34.163  33.616  1.00  0.00     0.020 A 
ATOM     63  C   UNL A   1      43.727  35.263  32.813  1.00  0.00     0.054 A 
BRANCH  63  64
ATOM     64  S   UNL A   1      43.756  36.937  33.511  1.00  0.00     0.124 S 
ATOM     65  O   UNL A   1      44.997  36.927  34.283  1.00  0.00    -0.237 OA
ATOM     66  O   UNL A   1      43.768  37.775  32.315  1.00  0.00    -0.237 OA
ATOM     67  O   UNL A   1      42.534  37.004  34.310  1.00  0.00    -0.744 OA
ENDBRANCH  63  64
ENDBRANCH  44  58
BRANCH  45  68
ATOM     68  C   UNL A   1      42.377  23.616  27.708  1.00  0.00    -0.014 A 
ATOM     69  C   UNL A   1      42.688  23.367  26.362  1.00  0.00     0.010 A 
ATOM     70  C   UNL A   1      41.943  22.551  28.520  1.00  0.00     0.010 A 
ATOM     71  C   UNL A   1      42.582  22.074  25.840  1.00  0.00     0.020 A 
ATOM     72  C   UNL A   1      41.860  21.253  28.010  1.00  0.00     0.020 A 
ATOM     73  C   UNL A   1      42.184  21.022  26.673  1.00  0.00     0.054 A 
BRANCH  73  74
ATOM     74  S   UNL A   1      42.128  19.344  25.986  1.00  0.00     0.124 S 
ATOM     75  O   UNL A   1      42.671  18.545  27.081  1.00  0.00    -0.237 OA
ATOM     76  O   UNL A   1      40.701  19.168  25.721  1.00  0.00    -0.237 OA
ATOM     77  O   UNL A   1      42.972  19.429  24.797  1.00  0.00    -0.744 OA
ENDBRANCH  73  74
ENDBRANCH  45  68
BRANCH  57  78
ATOM     78  C   UNL A   1      47.899  27.089  30.235  1.00  0.00    -0.014 A 
ATOM     79  C   UNL A   1      48.822  27.387  29.218  1.00  0.00     0.010 A 
ATOM     80  C   UNL A   1      48.361  26.579  31.463  1.00  0.00     0.010 A 
ATOM     81  C   UNL A   1      50.188  27.187  29.430  1.00  0.00     0.020 A 
ATOM     82  C   UNL A   1      49.728  26.397  31.684  1.00  0.00     0.020 A 
ATOM     83  C   UNL A   1      50.633  26.706  30.666  1.00  0.00     0.054 A 
BRANCH  83  84
ATOM     84  S   UNL A   1      52.417  26.530  30.934  1.00  0.00     0.124 S 
ATOM     85  O   UNL A   1      52.717  27.685  31.777  1.00  0.00    -0.237 OA
ATOM     86  O   UNL A   1      52.509  25.231  31.593  1.00  0.00    -0.237 OA
ATOM     87  O   UNL A   1      52.980  26.586  29.587  1.00  0.00    -0.744 OA
ENDBRANCH  83  84
ENDBRANCH  57  78
ENDBRANCH  31  32
ENDBRANCH  24  26
ENDBRANCH  23  24
ENDBRANCH   1  23
TORSDOF 16
ENDMDL
