MODEL 1
REMARK VINA RESULT:     -11.0      0.000      0.000
REMARK SMILES COc1ccc([C@H]2[C@H](C(=O)OCCOC(=O)c3ccc(-c4c5nc(c(-c6ccc(S(=O)(=O)[O-])cc6)c6ccc([nH]6)c(-c6ccc(S(=O)(=O)[O-])cc6)c6nc(c(-c7ccc(S(=O)(=O)[O-])cc7)c7ccc4[nH]7)C=C6)C=C5)cc3)CCN2c2ccc(F)cc2)cc1
REMARK SMILES IDX 13 1 12 2 11 3 9 4 10 5 8 6 7 7 79 8 77 9 78 10 6 11 3 12
REMARK SMILES IDX 4 13 88 14 5 15 87 16 2 17 1 18 80 19 81 20 86 21 82 22
REMARK SMILES IDX 85 23 83 24 84 25 14 26 15 27 16 28 17 29 18 30 76 31 19 32
REMARK SMILES IDX 75 33 20 34 21 35 22 36 69 37 23 38 74 39 68 40 70 41 24 42
REMARK SMILES IDX 73 43 67 44 66 45 25 47 55 48 36 49 54 50 37 51 40 52 53 53
REMARK SMILES IDX 71 54 38 55 39 56 52 58 72 59 41 60 26 61 27 62 35 63 28 64
REMARK SMILES IDX 34 65 29 66 30 67 31 68 32 69 33 70 56 71 57 72 65 73 58 74
REMARK SMILES IDX 64 75 59 76 60 77 61 78 62 79 63 80 42 81 43 82 51 83 44 84
REMARK SMILES IDX 50 85 45 86 46 87 47 88 48 89 49 90
REMARK H PARENT 70 46 40 57
REMARK Flexibility Score: inf
ROOT
ATOM      1  C   UNL A   1      35.926  31.102  28.515  1.00  0.00     0.275 C 
ENDROOT
BRANCH   1   2
ATOM      2  C   UNL A   1      34.510  31.230  27.949  1.00  0.00     0.274 C 
BRANCH   2   3
ATOM      3  O   UNL A   1      34.272  30.267  26.903  1.00  0.00    -0.462 OA
BRANCH   3   4
ATOM      4  C   UNL A   1      32.991  29.868  26.710  1.00  0.00     0.311 C 
ATOM      5  O   UNL A   1      32.011  30.472  27.135  1.00  0.00    -0.252 OA
BRANCH   4   6
ATOM      6  C   UNL A   1      32.849  28.559  25.959  1.00  0.00     0.128 C 
ATOM      7  C   UNL A   1      31.439  28.261  25.422  1.00  0.00     0.127 C 
ATOM      8  N   UNL A   1      31.465  28.871  24.080  1.00  0.00    -0.364 N 
ATOM      9  C   UNL A   1      33.725  28.561  24.710  1.00  0.00     0.039 C 
ATOM     10  C   UNL A   1      32.826  29.163  23.634  1.00  0.00     0.118 C 
BRANCH   7  11
ATOM     11  C   UNL A   1      31.192  26.748  25.339  1.00  0.00    -0.024 A 
ATOM     12  C   UNL A   1      30.922  23.931  25.209  1.00  0.00     0.118 A 
ATOM     13  C   UNL A   1      31.283  24.551  26.402  1.00  0.00     0.047 A 
ATOM     14  C   UNL A   1      30.637  24.716  24.096  1.00  0.00     0.047 A 
ATOM     15  C   UNL A   1      31.413  25.943  26.469  1.00  0.00     0.010 A 
ATOM     16  C   UNL A   1      30.774  26.108  24.162  1.00  0.00     0.010 A 
BRANCH  12  17
ATOM     17  O   UNL A   1      30.846  22.567  25.251  1.00  0.00    -0.497 OA
ATOM     18  C   UNL A   1      32.094  21.887  25.319  1.00  0.00     0.278 C 
ENDBRANCH  12  17
ENDBRANCH   7  11
BRANCH   8  19
ATOM     19  C   UNL A   1      30.406  29.534  23.500  1.00  0.00     0.037 A 
ATOM     20  C   UNL A   1      29.895  29.091  22.268  1.00  0.00     0.029 A 
ATOM     21  C   UNL A   1      29.812  30.666  24.075  1.00  0.00     0.029 A 
ATOM     22  C   UNL A   1      28.834  29.747  21.637  1.00  0.00     0.041 A 
ATOM     23  C   UNL A   1      28.767  31.344  23.440  1.00  0.00     0.041 A 
ATOM     24  C   UNL A   1      28.286  30.876  22.227  1.00  0.00     0.123 A 
ATOM     25  F   UNL A   1      27.284  31.520  21.616  1.00  0.00    -0.207 F 
ENDBRANCH   8  19
ENDBRANCH   4   6
ENDBRANCH   3   4
ENDBRANCH   2   3
ENDBRANCH   1   2
BRANCH   1  26
ATOM     26  O   UNL A   1      36.440  29.770  28.343  1.00  0.00    -0.458 OA
BRANCH  26  27
ATOM     27  C   UNL A   1      37.152  29.297  29.391  1.00  0.00     0.338 C 
ATOM     28  O   UNL A   1      36.736  29.023  30.504  1.00  0.00    -0.246 OA
BRANCH  27  29
ATOM     29  C   UNL A   1      38.524  29.001  28.963  1.00  0.00     0.060 A 
ATOM     30  C   UNL A   1      39.422  28.545  29.929  1.00  0.00     0.016 A 
ATOM     31  C   UNL A   1      38.949  29.261  27.661  1.00  0.00     0.016 A 
ATOM     32  C   UNL A   1      40.765  28.381  29.612  1.00  0.00     0.010 A 
ATOM     33  C   UNL A   1      40.296  29.071  27.335  1.00  0.00     0.010 A 
ATOM     34  C   UNL A   1      41.214  28.648  28.314  1.00  0.00    -0.014 A 
BRANCH  34  35
ATOM     35  C   UNL A   1      42.655  28.513  27.994  1.00  0.00     0.031 A 
ATOM     36  C   UNL A   1      43.586  29.667  28.231  1.00  0.00     0.074 A 
ATOM     37  C   UNL A   1      43.123  27.348  27.511  1.00  0.00     0.049 A 
ATOM     38  N   UNL A   1      44.856  29.773  27.941  1.00  0.00    -0.248 NA
ATOM     39  C   UNL A   1      43.014  30.859  28.878  1.00  0.00     0.031 C 
ATOM     40  C   UNL A   1      42.322  26.143  27.285  1.00  0.00     0.029 A 
ATOM     41  N   UNL A   1      44.388  26.987  27.123  1.00  0.00    -0.354 N 
ATOM     42  C   UNL A   1      45.232  31.050  28.342  1.00  0.00     0.074 A 
ATOM     43  C   UNL A   1      44.052  31.684  28.891  1.00  0.00     0.031 C 
ATOM     44  C   UNL A   1      43.116  25.174  26.802  1.00  0.00     0.029 A 
ATOM     45  C   UNL A   1      44.467  25.703  26.639  1.00  0.00     0.049 A 
ATOM     46  H   UNL A   1      45.164  27.589  27.187  1.00  0.00     0.167 HD
ATOM     47  C   UNL A   1      46.449  31.638  28.258  1.00  0.00     0.031 A 
ATOM     48  C   UNL A   1      45.504  25.037  26.096  1.00  0.00     0.031 A 
ATOM     49  C   UNL A   1      47.619  30.998  27.717  1.00  0.00     0.049 A 
ATOM     50  C   UNL A   1      46.833  25.727  25.971  1.00  0.00     0.074 A 
ATOM     51  C   UNL A   1      48.900  31.509  27.591  1.00  0.00     0.029 A 
ATOM     52  N   UNL A   1      47.654  29.706  27.216  1.00  0.00    -0.354 N 
ATOM     53  N   UNL A   1      47.167  26.941  26.342  1.00  0.00    -0.248 NA
ATOM     54  C   UNL A   1      47.924  24.961  25.354  1.00  0.00     0.031 C 
ATOM     55  C   UNL A   1      49.699  30.538  26.978  1.00  0.00     0.029 A 
ATOM     56  C   UNL A   1      48.927  29.407  26.764  1.00  0.00     0.049 A 
ATOM     57  H   UNL A   1      46.885  29.091  27.186  1.00  0.00     0.167 HD
ATOM     58  C   UNL A   1      48.513  27.078  26.017  1.00  0.00     0.074 A 
ATOM     59  C   UNL A   1      48.933  25.819  25.434  1.00  0.00     0.031 C 
ATOM     60  C   UNL A   1      49.325  28.148  26.186  1.00  0.00     0.031 A 
BRANCH  47  61
ATOM     61  C   UNL A   1      46.564  33.063  28.724  1.00  0.00    -0.014 A 
ATOM     62  C   UNL A   1      46.925  33.373  30.047  1.00  0.00     0.010 A 
ATOM     63  C   UNL A   1      46.340  34.110  27.811  1.00  0.00     0.010 A 
ATOM     64  C   UNL A   1      47.025  34.705  30.459  1.00  0.00     0.020 A 
ATOM     65  C   UNL A   1      46.459  35.443  28.214  1.00  0.00     0.020 A 
ATOM     66  C   UNL A   1      46.785  35.732  29.541  1.00  0.00     0.054 A 
BRANCH  66  67
ATOM     67  S   UNL A   1      46.937  37.454  30.093  1.00  0.00     0.124 S 
ATOM     68  O   UNL A   1      47.874  38.000  29.114  1.00  0.00    -0.237 OA
ATOM     69  O   UNL A   1      45.566  37.949  29.993  1.00  0.00    -0.237 OA
ATOM     70  O   UNL A   1      47.454  37.337  31.453  1.00  0.00    -0.744 OA
ENDBRANCH  66  67
ENDBRANCH  47  61
BRANCH  48  71
ATOM     71  C   UNL A   1      45.311  23.649  25.598  1.00  0.00    -0.014 A 
ATOM     72  C   UNL A   1      45.534  22.547  26.440  1.00  0.00     0.010 A 
ATOM     73  C   UNL A   1      44.882  23.427  24.277  1.00  0.00     0.010 A 
ATOM     74  C   UNL A   1      45.342  21.246  25.966  1.00  0.00     0.020 A 
ATOM     75  C   UNL A   1      44.665  22.129  23.806  1.00  0.00     0.020 A 
ATOM     76  C   UNL A   1      44.908  21.045  24.652  1.00  0.00     0.054 A 
BRANCH  76  77
ATOM     77  S   UNL A   1      44.604  19.353  24.072  1.00  0.00     0.124 S 
ATOM     78  O   UNL A   1      43.319  19.047  24.690  1.00  0.00    -0.237 OA
ATOM     79  O   UNL A   1      44.586  19.512  22.619  1.00  0.00    -0.237 OA
ATOM     80  O   UNL A   1      45.746  18.605  24.593  1.00  0.00    -0.744 OA
ENDBRANCH  76  77
ENDBRANCH  48  71
BRANCH  60  81
ATOM     81  C   UNL A   1      50.758  27.997  25.760  1.00  0.00    -0.014 A 
ATOM     82  C   UNL A   1      51.166  28.326  24.455  1.00  0.00     0.010 A 
ATOM     83  C   UNL A   1      51.719  27.570  26.694  1.00  0.00     0.010 A 
ATOM     84  C   UNL A   1      52.507  28.204  24.084  1.00  0.00     0.020 A 
ATOM     85  C   UNL A   1      53.064  27.466  26.332  1.00  0.00     0.020 A 
ATOM     86  C   UNL A   1      53.448  27.772  25.024  1.00  0.00     0.054 A 
BRANCH  86  87
ATOM     87  S   UNL A   1      55.191  27.663  24.535  1.00  0.00     0.124 S 
ATOM     88  O   UNL A   1      55.876  28.008  25.778  1.00  0.00    -0.237 OA
ATOM     89  O   UNL A   1      55.323  26.271  24.111  1.00  0.00    -0.237 OA
ATOM     90  O   UNL A   1      55.311  28.647  23.462  1.00  0.00    -0.744 OA
ENDBRANCH  86  87
ENDBRANCH  60  81
ENDBRANCH  34  35
ENDBRANCH  27  29
ENDBRANCH  26  27
ENDBRANCH   1  26
TORSDOF 17
ENDMDL
MODEL 2
REMARK VINA RESULT:     -10.8      4.217      5.916
REMARK SMILES COc1ccc([C@H]2[C@H](C(=O)OCCOC(=O)c3ccc(-c4c5nc(c(-c6ccc(S(=O)(=O)[O-])cc6)c6ccc([nH]6)c(-c6ccc(S(=O)(=O)[O-])cc6)c6nc(c(-c7ccc(S(=O)(=O)[O-])cc7)c7ccc4[nH]7)C=C6)C=C5)cc3)CCN2c2ccc(F)cc2)cc1
REMARK SMILES IDX 13 1 12 2 11 3 9 4 10 5 8 6 7 7 79 8 77 9 78 10 6 11 3 12
REMARK SMILES IDX 4 13 88 14 5 15 87 16 2 17 1 18 80 19 81 20 86 21 82 22
REMARK SMILES IDX 85 23 83 24 84 25 14 26 15 27 16 28 17 29 18 30 76 31 19 32
REMARK SMILES IDX 75 33 20 34 21 35 22 36 69 37 23 38 74 39 68 40 70 41 24 42
REMARK SMILES IDX 73 43 67 44 66 45 25 47 55 48 36 49 54 50 37 51 40 52 53 53
REMARK SMILES IDX 71 54 38 55 39 56 52 58 72 59 41 60 26 61 27 62 35 63 28 64
REMARK SMILES IDX 34 65 29 66 30 67 31 68 32 69 33 70 56 71 57 72 65 73 58 74
REMARK SMILES IDX 64 75 59 76 60 77 61 78 62 79 63 80 42 81 43 82 51 83 44 84
REMARK SMILES IDX 50 85 45 86 46 87 47 88 48 89 49 90
REMARK H PARENT 70 46 40 57
REMARK Flexibility Score: inf
ROOT
ATOM      1  C   UNL A   1      32.831  28.596  27.200  1.00  0.00     0.275 C 
ENDROOT
BRANCH   1   2
ATOM      2  C   UNL A   1      32.280  27.856  25.979  1.00  0.00     0.274 C 
BRANCH   2   3
ATOM      3  O   UNL A   1      32.374  26.427  26.143  1.00  0.00    -0.462 OA
BRANCH   3   4
ATOM      4  C   UNL A   1      32.936  25.724  25.130  1.00  0.00     0.311 C 
ATOM      5  O   UNL A   1      33.607  26.227  24.234  1.00  0.00    -0.252 OA
BRANCH   4   6
ATOM      6  C   UNL A   1      32.625  24.241  25.148  1.00  0.00     0.128 C 
ATOM      7  C   UNL A   1      33.756  23.328  24.642  1.00  0.00     0.127 C 
ATOM      8  N   UNL A   1      34.521  23.045  25.870  1.00  0.00    -0.364 N 
ATOM      9  C   UNL A   1      32.380  23.764  26.576  1.00  0.00     0.039 C 
ATOM     10  C   UNL A   1      33.769  23.380  27.077  1.00  0.00     0.118 C 
BRANCH   7  11
ATOM     11  C   UNL A   1      33.187  22.039  24.033  1.00  0.00    -0.024 A 
ATOM     12  C   UNL A   1      32.313  19.605  22.877  1.00  0.00     0.118 A 
ATOM     13  C   UNL A   1      32.983  19.606  24.098  1.00  0.00     0.047 A 
ATOM     14  C   UNL A   1      32.024  20.819  22.260  1.00  0.00     0.047 A 
ATOM     15  C   UNL A   1      33.412  20.808  24.672  1.00  0.00     0.010 A 
ATOM     16  C   UNL A   1      32.460  22.020  22.832  1.00  0.00     0.010 A 
BRANCH  12  17
ATOM     17  O   UNL A   1      31.960  18.374  22.397  1.00  0.00    -0.497 OA
ATOM     18  C   UNL A   1      32.881  17.324  22.668  1.00  0.00     0.278 C 
ENDBRANCH  12  17
ENDBRANCH   7  11
BRANCH   8  19
ATOM     19  C   UNL A   1      35.894  22.948  25.932  1.00  0.00     0.037 A 
ATOM     20  C   UNL A   1      36.661  24.080  26.254  1.00  0.00     0.029 A 
ATOM     21  C   UNL A   1      36.584  21.757  25.663  1.00  0.00     0.029 A 
ATOM     22  C   UNL A   1      38.056  24.028  26.308  1.00  0.00     0.041 A 
ATOM     23  C   UNL A   1      37.980  21.700  25.691  1.00  0.00     0.041 A 
ATOM     24  C   UNL A   1      38.703  22.838  26.016  1.00  0.00     0.123 A 
ATOM     25  F   UNL A   1      40.041  22.788  26.046  1.00  0.00    -0.207 F 
ENDBRANCH   8  19
ENDBRANCH   4   6
ENDBRANCH   3   4
ENDBRANCH   2   3
ENDBRANCH   1   2
BRANCH   1  26
ATOM     26  O   UNL A   1      34.219  28.934  27.025  1.00  0.00    -0.458 OA
BRANCH  26  27
ATOM     27  C   UNL A   1      34.620  30.042  27.689  1.00  0.00     0.338 C 
ATOM     28  O   UNL A   1      33.950  31.024  27.961  1.00  0.00    -0.246 OA
BRANCH  27  29
ATOM     29  C   UNL A   1      35.984  29.848  28.194  1.00  0.00     0.060 A 
ATOM     30  C   UNL A   1      37.039  30.013  27.296  1.00  0.00     0.016 A 
ATOM     31  C   UNL A   1      36.219  29.416  29.499  1.00  0.00     0.016 A 
ATOM     32  C   UNL A   1      38.339  29.709  27.682  1.00  0.00     0.010 A 
ATOM     33  C   UNL A   1      37.530  29.135  29.896  1.00  0.00     0.010 A 
ATOM     34  C   UNL A   1      38.594  29.262  28.984  1.00  0.00    -0.014 A 
BRANCH  34  35
ATOM     35  C   UNL A   1      39.976  28.897  29.376  1.00  0.00     0.031 A 
ATOM     36  C   UNL A   1      40.812  29.865  30.163  1.00  0.00     0.074 A 
ATOM     37  C   UNL A   1      40.467  27.690  29.040  1.00  0.00     0.049 A 
ATOM     38  N   UNL A   1      42.063  29.766  30.528  1.00  0.00    -0.248 NA
ATOM     39  C   UNL A   1      40.155  31.110  30.595  1.00  0.00     0.031 C 
ATOM     40  C   UNL A   1      39.732  26.649  28.318  1.00  0.00     0.029 A 
ATOM     41  N   UNL A   1      41.701  27.136  29.262  1.00  0.00    -0.354 N 
ATOM     42  C   UNL A   1      42.355  30.942  31.209  1.00  0.00     0.074 A 
ATOM     43  C   UNL A   1      41.150  31.745  31.200  1.00  0.00     0.031 C 
ATOM     44  C   UNL A   1      40.529  25.580  28.160  1.00  0.00     0.029 A 
ATOM     45  C   UNL A   1      41.842  25.879  28.724  1.00  0.00     0.049 A 
ATOM     46  H   UNL A   1      42.417  27.594  29.758  1.00  0.00     0.167 HD
ATOM     47  C   UNL A   1      43.521  31.318  31.785  1.00  0.00     0.031 A 
ATOM     48  C   UNL A   1      42.916  25.068  28.666  1.00  0.00     0.031 A 
ATOM     49  C   UNL A   1      44.713  30.511  31.795  1.00  0.00     0.049 A 
ATOM     50  C   UNL A   1      44.213  25.528  29.274  1.00  0.00     0.074 A 
ATOM     51  C   UNL A   1      45.945  30.802  32.356  1.00  0.00     0.029 A 
ATOM     52  N   UNL A   1      44.822  29.253  31.222  1.00  0.00    -0.354 N 
ATOM     53  N   UNL A   1      44.475  26.651  29.900  1.00  0.00    -0.248 NA
ATOM     54  C   UNL A   1      45.357  24.613  29.165  1.00  0.00     0.031 C 
ATOM     55  C   UNL A   1      46.810  29.736  32.087  1.00  0.00     0.029 A 
ATOM     56  C   UNL A   1      46.104  28.762  31.399  1.00  0.00     0.049 A 
ATOM     57  H   UNL A   1      44.095  28.780  30.756  1.00  0.00     0.167 HD
ATOM     58  C   UNL A   1      45.812  26.570  30.274  1.00  0.00     0.074 A 
ATOM     59  C   UNL A   1      46.298  25.283  29.817  1.00  0.00     0.031 C 
ATOM     60  C   UNL A   1      46.568  27.478  30.935  1.00  0.00     0.031 A 
BRANCH  47  61
ATOM     61  C   UNL A   1      43.576  32.682  32.415  1.00  0.00    -0.014 A 
ATOM     62  C   UNL A   1      43.423  32.853  33.802  1.00  0.00     0.010 A 
ATOM     63  C   UNL A   1      43.817  33.809  31.608  1.00  0.00     0.010 A 
ATOM     64  C   UNL A   1      43.476  34.131  34.366  1.00  0.00     0.020 A 
ATOM     65  C   UNL A   1      43.892  35.085  32.171  1.00  0.00     0.020 A 
ATOM     66  C   UNL A   1      43.704  35.241  33.546  1.00  0.00     0.054 A 
BRANCH  66  67
ATOM     67  S   UNL A   1      43.786  36.888  34.302  1.00  0.00     0.124 S 
ATOM     68  O   UNL A   1      44.162  36.568  35.677  1.00  0.00    -0.237 OA
ATOM     69  O   UNL A   1      44.813  37.557  33.509  1.00  0.00    -0.237 OA
ATOM     70  O   UNL A   1      42.434  37.414  34.133  1.00  0.00    -0.744 OA
ENDBRANCH  66  67
ENDBRANCH  47  61
BRANCH  48  71
ATOM     71  C   UNL A   1      42.815  23.756  27.976  1.00  0.00    -0.014 A 
ATOM     72  C   UNL A   1      43.287  23.599  26.661  1.00  0.00     0.010 A 
ATOM     73  C   UNL A   1      42.262  22.648  28.642  1.00  0.00     0.010 A 
ATOM     74  C   UNL A   1      43.196  22.358  26.022  1.00  0.00     0.020 A 
ATOM     75  C   UNL A   1      42.192  21.401  28.016  1.00  0.00     0.020 A 
ATOM     76  C   UNL A   1      42.650  21.267  26.704  1.00  0.00     0.054 A 
BRANCH  76  77
ATOM     77  S   UNL A   1      42.596  19.650  25.881  1.00  0.00     0.124 S 
ATOM     78  O   UNL A   1      42.999  18.751  26.957  1.00  0.00    -0.237 OA
ATOM     79  O   UNL A   1      41.199  19.552  25.464  1.00  0.00    -0.237 OA
ATOM     80  O   UNL A   1      43.555  19.793  24.789  1.00  0.00    -0.744 OA
ENDBRANCH  76  77
ENDBRANCH  48  71
BRANCH  60  81
ATOM     81  C   UNL A   1      47.994  27.104  31.229  1.00  0.00    -0.014 A 
ATOM     82  C   UNL A   1      49.025  27.409  30.324  1.00  0.00     0.010 A 
ATOM     83  C   UNL A   1      48.311  26.485  32.451  1.00  0.00     0.010 A 
ATOM     84  C   UNL A   1      50.348  27.076  30.624  1.00  0.00     0.020 A 
ATOM     85  C   UNL A   1      49.635  26.169  32.765  1.00  0.00     0.020 A 
ATOM     86  C   UNL A   1      50.645  26.455  31.842  1.00  0.00     0.054 A 
BRANCH  86  87
ATOM     87  S   UNL A   1      52.373  26.071  32.234  1.00  0.00     0.124 S 
ATOM     88  O   UNL A   1      52.458  26.459  33.640  1.00  0.00    -0.237 OA
ATOM     89  O   UNL A   1      52.455  24.636  31.972  1.00  0.00    -0.237 OA
ATOM     90  O   UNL A   1      53.131  26.910  31.308  1.00  0.00    -0.744 OA
ENDBRANCH  86  87
ENDBRANCH  60  81
ENDBRANCH  34  35
ENDBRANCH  27  29
ENDBRANCH  26  27
ENDBRANCH   1  26
TORSDOF 17
ENDMDL
MODEL 3
REMARK VINA RESULT:     -10.8      3.126      7.909
REMARK SMILES COc1ccc([C@H]2[C@H](C(=O)OCCOC(=O)c3ccc(-c4c5nc(c(-c6ccc(S(=O)(=O)[O-])cc6)c6ccc([nH]6)c(-c6ccc(S(=O)(=O)[O-])cc6)c6nc(c(-c7ccc(S(=O)(=O)[O-])cc7)c7ccc4[nH]7)C=C6)C=C5)cc3)CCN2c2ccc(F)cc2)cc1
REMARK SMILES IDX 13 1 12 2 11 3 9 4 10 5 8 6 7 7 79 8 77 9 78 10 6 11 3 12
REMARK SMILES IDX 4 13 88 14 5 15 87 16 2 17 1 18 80 19 81 20 86 21 82 22
REMARK SMILES IDX 85 23 83 24 84 25 14 26 15 27 16 28 17 29 18 30 76 31 19 32
REMARK SMILES IDX 75 33 20 34 21 35 22 36 69 37 23 38 74 39 68 40 70 41 24 42
REMARK SMILES IDX 73 43 67 44 66 45 25 47 55 48 36 49 54 50 37 51 40 52 53 53
REMARK SMILES IDX 71 54 38 55 39 56 52 58 72 59 41 60 26 61 27 62 35 63 28 64
REMARK SMILES IDX 34 65 29 66 30 67 31 68 32 69 33 70 56 71 57 72 65 73 58 74
REMARK SMILES IDX 64 75 59 76 60 77 61 78 62 79 63 80 42 81 43 82 51 83 44 84
REMARK SMILES IDX 50 85 45 86 46 87 47 88 48 89 49 90
REMARK H PARENT 70 46 40 57
REMARK Flexibility Score: inf
ROOT
ATOM      1  C   UNL A   1      39.330  20.858  25.744  1.00  0.00     0.275 C 
ENDROOT
BRANCH   1   2
ATOM      2  C   UNL A   1      38.845  22.158  26.389  1.00  0.00     0.274 C 
BRANCH   2   3
ATOM      3  O   UNL A   1      38.259  23.044  25.415  1.00  0.00    -0.462 OA
BRANCH   3   4
ATOM      4  C   UNL A   1      36.914  23.199  25.451  1.00  0.00     0.311 C 
ATOM      5  O   UNL A   1      36.339  24.063  26.105  1.00  0.00    -0.252 OA
BRANCH   4   6
ATOM      6  C   UNL A   1      36.142  22.170  24.649  1.00  0.00     0.128 C 
ATOM      7  C   UNL A   1      34.687  21.946  25.097  1.00  0.00     0.127 C 
ATOM      8  N   UNL A   1      33.943  22.932  24.293  1.00  0.00    -0.364 N 
ATOM      9  C   UNL A   1      36.014  22.612  23.195  1.00  0.00     0.039 C 
ATOM     10  C   UNL A   1      34.734  23.442  23.176  1.00  0.00     0.118 C 
BRANCH   7  11
ATOM     11  C   UNL A   1      34.231  20.514  24.782  1.00  0.00    -0.024 A 
ATOM     12  C   UNL A   1      33.504  17.876  24.052  1.00  0.00     0.118 A 
ATOM     13  C   UNL A   1      34.788  18.151  24.515  1.00  0.00     0.047 A 
ATOM     14  C   UNL A   1      32.563  18.901  24.009  1.00  0.00     0.047 A 
ATOM     15  C   UNL A   1      35.147  19.454  24.880  1.00  0.00     0.010 A 
ATOM     16  C   UNL A   1      32.926  20.205  24.367  1.00  0.00     0.010 A 
BRANCH  12  17
ATOM     17  O   UNL A   1      33.268  16.576  23.702  1.00  0.00    -0.497 OA
ATOM     18  C   UNL A   1      33.174  15.658  24.785  1.00  0.00     0.278 C 
ENDBRANCH  12  17
ENDBRANCH   7  11
BRANCH   8  19
ATOM     19  C   UNL A   1      32.865  23.660  24.748  1.00  0.00     0.037 A 
ATOM     20  C   UNL A   1      31.917  24.151  23.834  1.00  0.00     0.029 A 
ATOM     21  C   UNL A   1      32.671  23.962  26.104  1.00  0.00     0.029 A 
ATOM     22  C   UNL A   1      30.821  24.909  24.253  1.00  0.00     0.041 A 
ATOM     23  C   UNL A   1      31.591  24.741  26.530  1.00  0.00     0.041 A 
ATOM     24  C   UNL A   1      30.674  25.205  25.599  1.00  0.00     0.123 A 
ATOM     25  F   UNL A   1      29.636  25.949  26.003  1.00  0.00    -0.207 F 
ENDBRANCH   8  19
ENDBRANCH   4   6
ENDBRANCH   3   4
ENDBRANCH   2   3
ENDBRANCH   1   2
BRANCH   1  26
ATOM     26  O   UNL A   1      40.142  20.093  26.653  1.00  0.00    -0.458 OA
BRANCH  26  27
ATOM     27  C   UNL A   1      41.423  19.918  26.258  1.00  0.00     0.338 C 
ATOM     28  O   UNL A   1      41.894  18.950  25.685  1.00  0.00    -0.246 OA
BRANCH  27  29
ATOM     29  C   UNL A   1      42.182  21.154  26.481  1.00  0.00     0.060 A 
ATOM     30  C   UNL A   1      42.413  21.546  27.800  1.00  0.00     0.016 A 
ATOM     31  C   UNL A   1      42.574  21.966  25.417  1.00  0.00     0.016 A 
ATOM     32  C   UNL A   1      43.004  22.773  28.071  1.00  0.00     0.010 A 
ATOM     33  C   UNL A   1      43.192  23.190  25.689  1.00  0.00     0.010 A 
ATOM     34  C   UNL A   1      43.393  23.608  27.018  1.00  0.00    -0.014 A 
BRANCH  34  35
ATOM     35  C   UNL A   1      43.983  24.936  27.314  1.00  0.00     0.031 A 
ATOM     36  C   UNL A   1      43.112  26.044  27.832  1.00  0.00     0.074 A 
ATOM     37  C   UNL A   1      45.302  25.133  27.135  1.00  0.00     0.049 A 
ATOM     38  N   UNL A   1      43.422  27.291  28.071  1.00  0.00    -0.248 NA
ATOM     39  C   UNL A   1      41.708  25.706  28.117  1.00  0.00     0.031 C 
ATOM     40  C   UNL A   1      46.256  24.117  26.683  1.00  0.00     0.029 A 
ATOM     41  N   UNL A   1      46.069  26.256  27.312  1.00  0.00    -0.354 N 
ATOM     42  C   UNL A   1      42.250  27.896  28.508  1.00  0.00     0.074 A 
ATOM     43  C   UNL A   1      41.219  26.880  28.495  1.00  0.00     0.031 C 
ATOM     44  C   UNL A   1      47.481  24.664  26.621  1.00  0.00     0.029 A 
ATOM     45  C   UNL A   1      47.390  26.075  26.982  1.00  0.00     0.049 A 
ATOM     46  H   UNL A   1      45.707  27.109  27.644  1.00  0.00     0.167 HD
ATOM     47  C   UNL A   1      42.052  29.182  28.883  1.00  0.00     0.031 A 
ATOM     48  C   UNL A   1      48.410  26.955  26.946  1.00  0.00     0.031 A 
ATOM     49  C   UNL A   1      43.082  30.186  28.901  1.00  0.00     0.049 A 
ATOM     50  C   UNL A   1      48.154  28.388  27.323  1.00  0.00     0.074 A 
ATOM     51  C   UNL A   1      42.983  31.517  29.268  1.00  0.00     0.029 A 
ATOM     52  N   UNL A   1      44.404  29.970  28.539  1.00  0.00    -0.354 N 
ATOM     53  N   UNL A   1      47.035  28.946  27.720  1.00  0.00    -0.248 NA
ATOM     54  C   UNL A   1      49.297  29.308  27.247  1.00  0.00     0.031 C 
ATOM     55  C   UNL A   1      44.236  32.114  29.091  1.00  0.00     0.029 A 
ATOM     56  C   UNL A   1      45.126  31.144  28.657  1.00  0.00     0.049 A 
ATOM     57  H   UNL A   1      44.773  29.107  28.241  1.00  0.00     0.167 HD
ATOM     58  C   UNL A   1      47.343  30.282  27.955  1.00  0.00     0.074 A 
ATOM     59  C   UNL A   1      48.755  30.442  27.671  1.00  0.00     0.031 C 
ATOM     60  C   UNL A   1      46.531  31.284  28.368  1.00  0.00     0.031 A 
BRANCH  47  61
ATOM     61  C   UNL A   1      40.654  29.586  29.266  1.00  0.00    -0.014 A 
ATOM     62  C   UNL A   1      39.629  29.670  28.306  1.00  0.00     0.010 A 
ATOM     63  C   UNL A   1      40.354  29.852  30.614  1.00  0.00     0.010 A 
ATOM     64  C   UNL A   1      38.338  30.049  28.684  1.00  0.00     0.020 A 
ATOM     65  C   UNL A   1      39.060  30.210  30.998  1.00  0.00     0.020 A 
ATOM     66  C   UNL A   1      38.062  30.323  30.027  1.00  0.00     0.054 A 
BRANCH  66  67
ATOM     67  S   UNL A   1      36.375  30.795  30.497  1.00  0.00     0.124 S 
ATOM     68  O   UNL A   1      35.634  30.522  29.268  1.00  0.00    -0.237 OA
ATOM     69  O   UNL A   1      36.087  29.900  31.615  1.00  0.00    -0.237 OA
ATOM     70  O   UNL A   1      36.496  32.207  30.851  1.00  0.00    -0.744 OA
ENDBRANCH  66  67
ENDBRANCH  47  61
BRANCH  48  71
ATOM     71  C   UNL A   1      49.756  26.508  26.501  1.00  0.00    -0.014 A 
ATOM     72  C   UNL A   1      50.651  25.915  27.407  1.00  0.00     0.010 A 
ATOM     73  C   UNL A   1      50.140  26.657  25.156  1.00  0.00     0.010 A 
ATOM     74  C   UNL A   1      51.912  25.489  26.978  1.00  0.00     0.020 A 
ATOM     75  C   UNL A   1      51.390  26.211  24.718  1.00  0.00     0.020 A 
ATOM     76  C   UNL A   1      52.273  25.639  25.636  1.00  0.00     0.054 A 
BRANCH  76  77
ATOM     77  S   UNL A   1      53.889  25.025  25.083  1.00  0.00     0.124 S 
ATOM     78  O   UNL A   1      54.750  25.393  26.202  1.00  0.00    -0.237 OA
ATOM     79  O   UNL A   1      53.646  23.594  24.915  1.00  0.00    -0.237 OA
ATOM     80  O   UNL A   1      54.125  25.758  23.842  1.00  0.00    -0.744 OA
ENDBRANCH  76  77
ENDBRANCH  48  71
BRANCH  60  81
ATOM     81  C   UNL A   1      47.153  32.637  28.565  1.00  0.00    -0.014 A 
ATOM     82  C   UNL A   1      47.855  32.949  29.743  1.00  0.00     0.010 A 
ATOM     83  C   UNL A   1      47.079  33.592  27.535  1.00  0.00     0.010 A 
ATOM     84  C   UNL A   1      48.450  34.203  29.898  1.00  0.00     0.020 A 
ATOM     85  C   UNL A   1      47.689  34.840  27.677  1.00  0.00     0.020 A 
ATOM     86  C   UNL A   1      48.360  35.143  28.865  1.00  0.00     0.054 A 
BRANCH  86  87
ATOM     87  S   UNL A   1      49.177  36.750  29.068  1.00  0.00     0.124 S 
ATOM     88  O   UNL A   1      49.776  36.952  27.751  1.00  0.00    -0.237 OA
ATOM     89  O   UNL A   1      48.065  37.639  29.396  1.00  0.00    -0.237 OA
ATOM     90  O   UNL A   1      50.124  36.521  30.156  1.00  0.00    -0.744 OA
ENDBRANCH  86  87
ENDBRANCH  60  81
ENDBRANCH  34  35
ENDBRANCH  27  29
ENDBRANCH  26  27
ENDBRANCH   1  26
TORSDOF 17
ENDMDL
