MODEL 1
REMARK VINA RESULT:     -10.5      0.000      0.000
REMARK SMILES C[C@H]([C@@H](C)C(=O)OCCOC(=O)c1ccc(-c2c3nc(c(-c4ccc(S(=O)(=O)[O-])cc4)c4ccc([nH]4)c(-c4ccc(S(=O)(=O)[O-])cc4)c4nc(c(-c5ccc(S(=O)(=O)[O-])cc5)c5ccc2[nH]5)C=C4)C=C3)cc1)[S@@](=O)c1ccc2ccccc2c1
REMARK SMILES IDX 8 1 7 2 5 3 6 4 3 5 4 6 2 7 1 8 73 9 74 10 75 11 76 12 84 13
REMARK SMILES IDX 77 14 83 15 78 16 82 17 79 18 81 19 80 20 9 21 10 22 11 23
REMARK SMILES IDX 12 24 13 25 14 26 72 27 15 28 71 29 16 30 17 31 18 32 65 33
REMARK SMILES IDX 19 34 70 35 64 36 66 37 20 38 69 39 63 40 62 41 21 43 51 44
REMARK SMILES IDX 32 45 50 46 33 47 36 48 49 49 67 50 34 51 35 52 48 54 68 55
REMARK SMILES IDX 37 56 22 57 23 58 31 59 24 60 30 61 25 62 26 63 27 64 28 65
REMARK SMILES IDX 29 66 52 67 53 68 61 69 54 70 60 71 55 72 56 73 57 74 58 75
REMARK SMILES IDX 59 76 38 77 39 78 47 79 40 80 46 81 41 82 42 83 43 84 44 85
REMARK SMILES IDX 45 86
REMARK H PARENT 66 42 36 53
REMARK Flexibility Score: inf
ROOT
ATOM      1  C   UNL A   1      32.975  28.807  25.199  1.00  0.00     0.274 C 
ENDROOT
BRANCH   1   2
ATOM      2  O   UNL A   1      31.792  28.907  24.379  1.00  0.00    -0.462 OA
BRANCH   2   3
ATOM      3  C   UNL A   1      31.946  28.571  23.074  1.00  0.00     0.309 C 
ATOM      4  O   UNL A   1      32.714  29.139  22.303  1.00  0.00    -0.252 OA
BRANCH   3   5
ATOM      5  C   UNL A   1      31.055  27.425  22.617  1.00  0.00     0.112 C 
ATOM      6  C   UNL A   1      29.603  27.869  22.801  1.00  0.00     0.021 C 
BRANCH   5   7
ATOM      7  C   UNL A   1      31.417  26.049  23.223  1.00  0.00     0.095 C 
ATOM      8  C   UNL A   1      30.227  25.203  23.671  1.00  0.00     0.023 C 
BRANCH   7   9
ATOM      9  S   UNL A   1      32.596  25.063  22.176  1.00  0.00     0.057 S 
ATOM     10  O   UNL A   1      33.239  26.014  21.206  1.00  0.00    -0.254 OA
BRANCH   9  11
ATOM     11  C   UNL A   1      33.895  24.642  23.351  1.00  0.00     0.040 A 
ATOM     12  C   UNL A   1      33.988  25.361  24.547  1.00  0.00     0.018 A 
ATOM     13  C   UNL A   1      34.768  23.575  23.124  1.00  0.00     0.026 A 
ATOM     14  C   UNL A   1      34.974  25.048  25.485  1.00  0.00     0.010 A 
ATOM     15  C   UNL A   1      35.778  23.261  24.048  1.00  0.00    -0.017 A 
ATOM     16  C   UNL A   1      35.883  24.007  25.244  1.00  0.00    -0.018 A 
ATOM     17  C   UNL A   1      36.687  22.219  23.808  1.00  0.00     0.009 A 
ATOM     18  C   UNL A   1      36.889  23.686  26.170  1.00  0.00     0.009 A 
ATOM     19  C   UNL A   1      37.689  21.919  24.733  1.00  0.00     0.001 A 
ATOM     20  C   UNL A   1      37.787  22.649  25.914  1.00  0.00     0.001 A 
ENDBRANCH   9  11
ENDBRANCH   7   9
ENDBRANCH   5   7
ENDBRANCH   3   5
ENDBRANCH   2   3
ENDBRANCH   1   2
BRANCH   1  21
ATOM     21  C   UNL A   1      32.646  28.803  26.698  1.00  0.00     0.275 C 
BRANCH  21  22
ATOM     22  O   UNL A   1      33.823  28.781  27.528  1.00  0.00    -0.458 OA
BRANCH  22  23
ATOM     23  C   UNL A   1      34.399  29.987  27.735  1.00  0.00     0.338 C 
ATOM     24  O   UNL A   1      33.851  31.080  27.684  1.00  0.00    -0.246 OA
BRANCH  23  25
ATOM     25  C   UNL A   1      35.786  29.831  28.193  1.00  0.00     0.060 A 
ATOM     26  C   UNL A   1      36.799  29.991  27.244  1.00  0.00     0.016 A 
ATOM     27  C   UNL A   1      36.092  29.427  29.492  1.00  0.00     0.016 A 
ATOM     28  C   UNL A   1      38.120  29.725  27.577  1.00  0.00     0.010 A 
ATOM     29  C   UNL A   1      37.426  29.171  29.831  1.00  0.00     0.010 A 
ATOM     30  C   UNL A   1      38.445  29.303  28.870  1.00  0.00    -0.014 A 
BRANCH  30  31
ATOM     31  C   UNL A   1      39.853  28.966  29.188  1.00  0.00     0.031 A 
ATOM     32  C   UNL A   1      40.725  29.966  29.892  1.00  0.00     0.074 A 
ATOM     33  C   UNL A   1      40.329  27.743  28.884  1.00  0.00     0.049 A 
ATOM     34  N   UNL A   1      41.989  29.873  30.215  1.00  0.00    -0.248 NA
ATOM     35  C   UNL A   1      40.093  31.234  30.288  1.00  0.00     0.031 C 
ATOM     36  C   UNL A   1      39.558  26.669  28.253  1.00  0.00     0.029 A 
ATOM     37  N   UNL A   1      41.570  27.195  29.075  1.00  0.00    -0.354 N 
ATOM     38  C   UNL A   1      42.313  31.078  30.826  1.00  0.00     0.074 A 
ATOM     39  C   UNL A   1      41.114  31.889  30.824  1.00  0.00     0.031 C 
ATOM     40  C   UNL A   1      40.344  25.588  28.120  1.00  0.00     0.029 A 
ATOM     41  C   UNL A   1      41.681  25.907  28.609  1.00  0.00     0.049 A 
ATOM     42  H   UNL A   1      42.313  27.679  29.505  1.00  0.00     0.167 HD
ATOM     43  C   UNL A   1      43.503  31.472  31.338  1.00  0.00     0.031 A 
ATOM     44  C   UNL A   1      42.746  25.086  28.557  1.00  0.00     0.031 A 
ATOM     45  C   UNL A   1      44.690  30.660  31.342  1.00  0.00     0.049 A 
ATOM     46  C   UNL A   1      44.071  25.569  29.080  1.00  0.00     0.074 A 
ATOM     47  C   UNL A   1      45.943  30.967  31.845  1.00  0.00     0.029 A 
ATOM     48  N   UNL A   1      44.773  29.378  30.821  1.00  0.00    -0.354 N 
ATOM     49  N   UNL A   1      44.362  26.717  29.642  1.00  0.00    -0.248 NA
ATOM     50  C   UNL A   1      45.208  24.647  28.957  1.00  0.00     0.031 C 
ATOM     51  C   UNL A   1      46.794  29.887  31.589  1.00  0.00     0.029 A 
ATOM     52  C   UNL A   1      46.060  28.888  30.969  1.00  0.00     0.049 A 
ATOM     53  H   UNL A   1      44.027  28.888  30.405  1.00  0.00     0.167 HD
ATOM     54  C   UNL A   1      45.715  26.650  29.955  1.00  0.00     0.074 A 
ATOM     55  C   UNL A   1      46.179  25.344  29.533  1.00  0.00     0.031 C 
ATOM     56  C   UNL A   1      46.503  27.587  30.538  1.00  0.00     0.031 A 
BRANCH  43  57
ATOM     57  C   UNL A   1      43.590  32.868  31.894  1.00  0.00    -0.014 A 
ATOM     58  C   UNL A   1      43.338  33.132  33.253  1.00  0.00     0.010 A 
ATOM     59  C   UNL A   1      43.965  33.927  31.048  1.00  0.00     0.010 A 
ATOM     60  C   UNL A   1      43.424  34.437  33.746  1.00  0.00     0.020 A 
ATOM     61  C   UNL A   1      44.072  35.230  31.541  1.00  0.00     0.020 A 
ATOM     62  C   UNL A   1      43.783  35.479  32.885  1.00  0.00     0.054 A 
BRANCH  62  63
ATOM     63  S   UNL A   1      43.903  37.163  33.550  1.00  0.00     0.124 S 
ATOM     64  O   UNL A   1      43.861  37.970  32.332  1.00  0.00    -0.237 OA
ATOM     65  O   UNL A   1      42.725  37.258  34.406  1.00  0.00    -0.237 OA
ATOM     66  O   UNL A   1      45.184  37.166  34.255  1.00  0.00    -0.744 OA
ENDBRANCH  62  63
ENDBRANCH  43  57
BRANCH  44  67
ATOM     67  C   UNL A   1      42.608  23.732  27.957  1.00  0.00    -0.014 A 
ATOM     68  C   UNL A   1      42.112  22.659  28.716  1.00  0.00     0.010 A 
ATOM     69  C   UNL A   1      42.959  23.516  26.611  1.00  0.00     0.010 A 
ATOM     70  C   UNL A   1      41.979  21.390  28.143  1.00  0.00     0.020 A 
ATOM     71  C   UNL A   1      42.804  22.256  26.029  1.00  0.00     0.020 A 
ATOM     72  C   UNL A   1      42.325  21.197  26.802  1.00  0.00     0.054 A 
BRANCH  72  73
ATOM     73  S   UNL A   1      42.088  19.559  26.059  1.00  0.00     0.124 S 
ATOM     74  O   UNL A   1      42.619  18.678  27.094  1.00  0.00    -0.237 OA
ATOM     75  O   UNL A   1      40.641  19.505  25.862  1.00  0.00    -0.237 OA
ATOM     76  O   UNL A   1      42.873  19.627  24.829  1.00  0.00    -0.744 OA
ENDBRANCH  72  73
ENDBRANCH  44  67
BRANCH  56  77
ATOM     77  C   UNL A   1      47.941  27.222  30.778  1.00  0.00    -0.014 A 
ATOM     78  C   UNL A   1      48.353  26.664  32.000  1.00  0.00     0.010 A 
ATOM     79  C   UNL A   1      48.884  27.398  29.750  1.00  0.00     0.010 A 
ATOM     80  C   UNL A   1      49.691  26.313  32.200  1.00  0.00     0.020 A 
ATOM     81  C   UNL A   1      50.218  27.029  29.937  1.00  0.00     0.020 A 
ATOM     82  C   UNL A   1      50.616  26.500  31.168  1.00  0.00     0.054 A 
BRANCH  82  83
ATOM     83  S   UNL A   1      52.339  26.001  31.434  1.00  0.00     0.124 S 
ATOM     84  O   UNL A   1      52.912  26.167  30.101  1.00  0.00    -0.237 OA
ATOM     85  O   UNL A   1      52.801  26.955  32.439  1.00  0.00    -0.237 OA
ATOM     86  O   UNL A   1      52.230  24.620  31.899  1.00  0.00    -0.744 OA
ENDBRANCH  82  83
ENDBRANCH  56  77
ENDBRANCH  30  31
ENDBRANCH  23  25
ENDBRANCH  22  23
ENDBRANCH  21  22
ENDBRANCH   1  21
TORSDOF 17
ENDMDL
MODEL 2
REMARK VINA RESULT:     -10.3      4.547     10.414
REMARK SMILES C[C@H]([C@@H](C)C(=O)OCCOC(=O)c1ccc(-c2c3nc(c(-c4ccc(S(=O)(=O)[O-])cc4)c4ccc([nH]4)c(-c4ccc(S(=O)(=O)[O-])cc4)c4nc(c(-c5ccc(S(=O)(=O)[O-])cc5)c5ccc2[nH]5)C=C4)C=C3)cc1)[S@@](=O)c1ccc2ccccc2c1
REMARK SMILES IDX 8 1 7 2 5 3 6 4 3 5 4 6 2 7 1 8 73 9 74 10 75 11 76 12 84 13
REMARK SMILES IDX 77 14 83 15 78 16 82 17 79 18 81 19 80 20 9 21 10 22 11 23
REMARK SMILES IDX 12 24 13 25 14 26 72 27 15 28 71 29 16 30 17 31 18 32 65 33
REMARK SMILES IDX 19 34 70 35 64 36 66 37 20 38 69 39 63 40 62 41 21 43 51 44
REMARK SMILES IDX 32 45 50 46 33 47 36 48 49 49 67 50 34 51 35 52 48 54 68 55
REMARK SMILES IDX 37 56 22 57 23 58 31 59 24 60 30 61 25 62 26 63 27 64 28 65
REMARK SMILES IDX 29 66 52 67 53 68 61 69 54 70 60 71 55 72 56 73 57 74 58 75
REMARK SMILES IDX 59 76 38 77 39 78 47 79 40 80 46 81 41 82 42 83 43 84 44 85
REMARK SMILES IDX 45 86
REMARK H PARENT 66 42 36 53
REMARK Flexibility Score: inf
ROOT
ATOM      1  C   UNL A   1      38.559  21.925  25.711  1.00  0.00     0.274 C 
ENDROOT
BRANCH   1   2
ATOM      2  O   UNL A   1      37.212  22.276  26.094  1.00  0.00    -0.462 OA
BRANCH   2   3
ATOM      3  C   UNL A   1      36.231  21.475  25.609  1.00  0.00     0.309 C 
ATOM      4  O   UNL A   1      36.407  20.320  25.234  1.00  0.00    -0.252 OA
BRANCH   3   5
ATOM      5  C   UNL A   1      34.863  22.140  25.539  1.00  0.00     0.112 C 
ATOM      6  C   UNL A   1      34.079  21.710  26.780  1.00  0.00     0.021 C 
BRANCH   5   7
ATOM      7  C   UNL A   1      34.130  21.961  24.188  1.00  0.00     0.095 C 
ATOM      8  C   UNL A   1      32.762  21.286  24.275  1.00  0.00     0.023 C 
BRANCH   7   9
ATOM      9  S   UNL A   1      34.058  23.516  23.172  1.00  0.00     0.057 S 
ATOM     10  O   UNL A   1      33.056  23.290  22.075  1.00  0.00    -0.254 OA
BRANCH   9  11
ATOM     11  C   UNL A   1      33.266  24.677  24.300  1.00  0.00     0.040 A 
ATOM     12  C   UNL A   1      31.932  24.469  24.661  1.00  0.00     0.018 A 
ATOM     13  C   UNL A   1      33.971  25.740  24.869  1.00  0.00     0.026 A 
ATOM     14  C   UNL A   1      31.294  25.342  25.545  1.00  0.00     0.010 A 
ATOM     15  C   UNL A   1      33.340  26.639  25.744  1.00  0.00    -0.017 A 
ATOM     16  C   UNL A   1      31.983  26.437  26.086  1.00  0.00    -0.018 A 
ATOM     17  C   UNL A   1      34.028  27.735  26.286  1.00  0.00     0.009 A 
ATOM     18  C   UNL A   1      31.355  27.333  26.967  1.00  0.00     0.009 A 
ATOM     19  C   UNL A   1      33.387  28.623  27.152  1.00  0.00     0.001 A 
ATOM     20  C   UNL A   1      32.054  28.420  27.494  1.00  0.00     0.001 A 
ENDBRANCH   9  11
ENDBRANCH   7   9
ENDBRANCH   5   7
ENDBRANCH   3   5
ENDBRANCH   2   3
ENDBRANCH   1   2
BRANCH   1  21
ATOM     21  C   UNL A   1      39.612  22.681  26.532  1.00  0.00     0.275 C 
BRANCH  21  22
ATOM     22  O   UNL A   1      39.256  24.057  26.766  1.00  0.00    -0.458 OA
BRANCH  22  23
ATOM     23  C   UNL A   1      40.243  24.950  26.530  1.00  0.00     0.338 C 
ATOM     24  O   UNL A   1      40.876  25.088  25.492  1.00  0.00    -0.246 OA
BRANCH  23  25
ATOM     25  C   UNL A   1      40.384  25.882  27.658  1.00  0.00     0.060 A 
ATOM     26  C   UNL A   1      39.466  25.768  28.705  1.00  0.00     0.016 A 
ATOM     27  C   UNL A   1      41.318  26.916  27.646  1.00  0.00     0.016 A 
ATOM     28  C   UNL A   1      39.457  26.700  29.735  1.00  0.00     0.010 A 
ATOM     29  C   UNL A   1      41.317  27.849  28.691  1.00  0.00     0.010 A 
ATOM     30  C   UNL A   1      40.375  27.754  29.732  1.00  0.00    -0.014 A 
BRANCH  30  31
ATOM     31  C   UNL A   1      40.310  28.772  30.807  1.00  0.00     0.031 A 
ATOM     32  C   UNL A   1      41.265  28.706  31.964  1.00  0.00     0.074 A 
ATOM     33  C   UNL A   1      39.422  29.781  30.714  1.00  0.00     0.049 A 
ATOM     34  N   UNL A   1      41.334  29.476  33.019  1.00  0.00    -0.248 NA
ATOM     35  C   UNL A   1      42.276  27.637  31.929  1.00  0.00     0.031 C 
ATOM     36  C   UNL A   1      38.483  29.982  29.608  1.00  0.00     0.029 A 
ATOM     37  N   UNL A   1      39.172  30.830  31.559  1.00  0.00    -0.354 N 
ATOM     38  C   UNL A   1      42.376  28.970  33.789  1.00  0.00     0.074 A 
ATOM     39  C   UNL A   1      42.906  27.824  33.081  1.00  0.00     0.031 C 
ATOM     40  C   UNL A   1      37.768  31.095  29.839  1.00  0.00     0.029 A 
ATOM     41  C   UNL A   1      38.161  31.656  31.128  1.00  0.00     0.049 A 
ATOM     42  H   UNL A   1      39.668  30.979  32.397  1.00  0.00     0.167 HD
ATOM     43  C   UNL A   1      42.843  29.420  34.977  1.00  0.00     0.031 A 
ATOM     44  C   UNL A   1      37.596  32.727  31.716  1.00  0.00     0.031 A 
ATOM     45  C   UNL A   1      42.315  30.564  35.673  1.00  0.00     0.049 A 
ATOM     46  C   UNL A   1      38.095  33.171  33.063  1.00  0.00     0.074 A 
ATOM     47  C   UNL A   1      42.726  31.103  36.879  1.00  0.00     0.029 A 
ATOM     48  N   UNL A   1      41.262  31.346  35.224  1.00  0.00    -0.354 N 
ATOM     49  N   UNL A   1      39.073  32.673  33.782  1.00  0.00    -0.248 NA
ATOM     50  C   UNL A   1      37.413  34.318  33.677  1.00  0.00     0.031 C 
ATOM     51  C   UNL A   1      41.894  32.187  37.181  1.00  0.00     0.029 A 
ATOM     52  C   UNL A   1      40.995  32.350  36.139  1.00  0.00     0.049 A 
ATOM     53  H   UNL A   1      40.776  31.207  34.379  1.00  0.00     0.167 HD
ATOM     54  C   UNL A   1      39.133  33.456  34.929  1.00  0.00     0.074 A 
ATOM     55  C   UNL A   1      38.104  34.469  34.799  1.00  0.00     0.031 C 
ATOM     56  C   UNL A   1      39.964  33.346  35.995  1.00  0.00     0.031 A 
BRANCH  43  57
ATOM     57  C   UNL A   1      43.955  28.640  35.625  1.00  0.00    -0.014 A 
ATOM     58  C   UNL A   1      45.304  28.904  35.329  1.00  0.00     0.010 A 
ATOM     59  C   UNL A   1      43.642  27.647  36.572  1.00  0.00     0.010 A 
ATOM     60  C   UNL A   1      46.319  28.164  35.943  1.00  0.00     0.020 A 
ATOM     61  C   UNL A   1      44.654  26.920  37.203  1.00  0.00     0.020 A 
ATOM     62  C   UNL A   1      45.987  27.172  36.870  1.00  0.00     0.054 A 
BRANCH  62  63
ATOM     63  S   UNL A   1      47.322  26.235  37.666  1.00  0.00     0.124 S 
ATOM     64  O   UNL A   1      47.288  24.976  36.924  1.00  0.00    -0.237 OA
ATOM     65  O   UNL A   1      48.493  27.072  37.427  1.00  0.00    -0.237 OA
ATOM     66  O   UNL A   1      46.898  26.146  39.062  1.00  0.00    -0.744 OA
ENDBRANCH  62  63
ENDBRANCH  43  57
BRANCH  44  67
ATOM     67  C   UNL A   1      36.472  33.432  31.046  1.00  0.00    -0.014 A 
ATOM     68  C   UNL A   1      35.290  33.726  31.747  1.00  0.00     0.010 A 
ATOM     69  C   UNL A   1      36.588  33.830  29.701  1.00  0.00     0.010 A 
ATOM     70  C   UNL A   1      34.239  34.395  31.112  1.00  0.00     0.020 A 
ATOM     71  C   UNL A   1      35.551  34.521  29.071  1.00  0.00     0.020 A 
ATOM     72  C   UNL A   1      34.377  34.790  29.777  1.00  0.00     0.054 A 
BRANCH  72  73
ATOM     73  S   UNL A   1      33.028  35.711  28.988  1.00  0.00     0.124 S 
ATOM     74  O   UNL A   1      32.206  36.085  30.134  1.00  0.00    -0.237 OA
ATOM     75  O   UNL A   1      33.734  36.808  28.330  1.00  0.00    -0.237 OA
ATOM     76  O   UNL A   1      32.434  34.732  28.081  1.00  0.00    -0.744 OA
ENDBRANCH  72  73
ENDBRANCH  44  67
BRANCH  56  77
ATOM     77  C   UNL A   1      39.813  34.362  37.091  1.00  0.00    -0.014 A 
ATOM     78  C   UNL A   1      38.990  34.112  38.203  1.00  0.00     0.010 A 
ATOM     79  C   UNL A   1      40.539  35.565  37.030  1.00  0.00     0.010 A 
ATOM     80  C   UNL A   1      38.875  35.061  39.223  1.00  0.00     0.020 A 
ATOM     81  C   UNL A   1      40.444  36.506  38.057  1.00  0.00     0.020 A 
ATOM     82  C   UNL A   1      39.600  36.253  39.142  1.00  0.00     0.054 A 
BRANCH  82  83
ATOM     83  S   UNL A   1      39.468  37.454  40.495  1.00  0.00     0.124 S 
ATOM     84  O   UNL A   1      40.855  37.878  40.661  1.00  0.00    -0.237 OA
ATOM     85  O   UNL A   1      38.564  38.462  39.947  1.00  0.00    -0.237 OA
ATOM     86  O   UNL A   1      38.919  36.669  41.599  1.00  0.00    -0.744 OA
ENDBRANCH  82  83
ENDBRANCH  56  77
ENDBRANCH  30  31
ENDBRANCH  23  25
ENDBRANCH  22  23
ENDBRANCH  21  22
ENDBRANCH   1  21
TORSDOF 17
ENDMDL
MODEL 3
REMARK VINA RESULT:     -10.2      2.716      3.380
REMARK SMILES C[C@H]([C@@H](C)C(=O)OCCOC(=O)c1ccc(-c2c3nc(c(-c4ccc(S(=O)(=O)[O-])cc4)c4ccc([nH]4)c(-c4ccc(S(=O)(=O)[O-])cc4)c4nc(c(-c5ccc(S(=O)(=O)[O-])cc5)c5ccc2[nH]5)C=C4)C=C3)cc1)[S@@](=O)c1ccc2ccccc2c1
REMARK SMILES IDX 8 1 7 2 5 3 6 4 3 5 4 6 2 7 1 8 73 9 74 10 75 11 76 12 84 13
REMARK SMILES IDX 77 14 83 15 78 16 82 17 79 18 81 19 80 20 9 21 10 22 11 23
REMARK SMILES IDX 12 24 13 25 14 26 72 27 15 28 71 29 16 30 17 31 18 32 65 33
REMARK SMILES IDX 19 34 70 35 64 36 66 37 20 38 69 39 63 40 62 41 21 43 51 44
REMARK SMILES IDX 32 45 50 46 33 47 36 48 49 49 67 50 34 51 35 52 48 54 68 55
REMARK SMILES IDX 37 56 22 57 23 58 31 59 24 60 30 61 25 62 26 63 27 64 28 65
REMARK SMILES IDX 29 66 52 67 53 68 61 69 54 70 60 71 55 72 56 73 57 74 58 75
REMARK SMILES IDX 59 76 38 77 39 78 47 79 40 80 46 81 41 82 42 83 43 84 44 85
REMARK SMILES IDX 45 86
REMARK H PARENT 66 42 36 53
REMARK Flexibility Score: inf
ROOT
ATOM      1  C   UNL A   1      31.609  30.246  25.510  1.00  0.00     0.274 C 
ENDROOT
BRANCH   1   2
ATOM      2  O   UNL A   1      31.687  28.865  25.099  1.00  0.00    -0.462 OA
BRANCH   2   3
ATOM      3  C   UNL A   1      32.306  28.634  23.914  1.00  0.00     0.309 C 
ATOM      4  O   UNL A   1      33.379  29.133  23.589  1.00  0.00    -0.252 OA
BRANCH   3   5
ATOM      5  C   UNL A   1      31.540  27.706  22.982  1.00  0.00     0.112 C 
ATOM      6  C   UNL A   1      30.109  28.237  22.879  1.00  0.00     0.021 C 
BRANCH   5   7
ATOM      7  C   UNL A   1      31.674  26.202  23.320  1.00  0.00     0.095 C 
ATOM      8  C   UNL A   1      30.416  25.549  23.889  1.00  0.00     0.023 C 
BRANCH   7   9
ATOM      9  S   UNL A   1      32.399  25.193  21.937  1.00  0.00     0.057 S 
ATOM     10  O   UNL A   1      33.496  26.007  21.313  1.00  0.00    -0.254 OA
BRANCH   9  11
ATOM     11  C   UNL A   1      33.242  23.871  22.826  1.00  0.00     0.040 A 
ATOM     12  C   UNL A   1      32.498  22.782  23.287  1.00  0.00     0.018 A 
ATOM     13  C   UNL A   1      34.627  23.881  23.009  1.00  0.00     0.026 A 
ATOM     14  C   UNL A   1      33.124  21.734  23.966  1.00  0.00     0.010 A 
ATOM     15  C   UNL A   1      35.270  22.846  23.707  1.00  0.00    -0.017 A 
ATOM     16  C   UNL A   1      34.508  21.758  24.193  1.00  0.00    -0.018 A 
ATOM     17  C   UNL A   1      36.655  22.869  23.933  1.00  0.00     0.009 A 
ATOM     18  C   UNL A   1      35.155  20.720  24.884  1.00  0.00     0.009 A 
ATOM     19  C   UNL A   1      37.281  21.835  24.632  1.00  0.00     0.001 A 
ATOM     20  C   UNL A   1      36.532  20.761  25.103  1.00  0.00     0.001 A 
ENDBRANCH   9  11
ENDBRANCH   7   9
ENDBRANCH   5   7
ENDBRANCH   3   5
ENDBRANCH   2   3
ENDBRANCH   1   2
BRANCH   1  21
ATOM     21  C   UNL A   1      32.214  30.474  26.902  1.00  0.00     0.275 C 
BRANCH  21  22
ATOM     22  O   UNL A   1      33.654  30.450  26.895  1.00  0.00    -0.458 OA
BRANCH  22  23
ATOM     23  C   UNL A   1      34.246  31.436  27.605  1.00  0.00     0.338 C 
ATOM     24  O   UNL A   1      33.756  32.515  27.911  1.00  0.00    -0.246 OA
BRANCH  23  25
ATOM     25  C   UNL A   1      35.551  30.999  28.120  1.00  0.00     0.060 A 
ATOM     26  C   UNL A   1      35.616  29.741  28.723  1.00  0.00     0.016 A 
ATOM     27  C   UNL A   1      36.662  31.841  28.118  1.00  0.00     0.016 A 
ATOM     28  C   UNL A   1      36.782  29.323  29.350  1.00  0.00     0.010 A 
ATOM     29  C   UNL A   1      37.842  31.414  28.739  1.00  0.00     0.010 A 
ATOM     30  C   UNL A   1      37.903  30.159  29.373  1.00  0.00    -0.014 A 
BRANCH  30  31
ATOM     31  C   UNL A   1      39.117  29.720  30.099  1.00  0.00     0.031 A 
ATOM     32  C   UNL A   1      39.502  30.384  31.391  1.00  0.00     0.074 A 
ATOM     33  C   UNL A   1      39.845  28.694  29.619  1.00  0.00     0.049 A 
ATOM     34  N   UNL A   1      40.548  30.170  32.147  1.00  0.00    -0.248 NA
ATOM     35  C   UNL A   1      38.590  31.419  31.902  1.00  0.00     0.031 C 
ATOM     36  C   UNL A   1      39.536  27.934  28.405  1.00  0.00     0.029 A 
ATOM     37  N   UNL A   1      40.986  28.107  30.099  1.00  0.00    -0.354 N 
ATOM     38  C   UNL A   1      40.437  31.062  33.207  1.00  0.00     0.074 A 
ATOM     39  C   UNL A   1      39.224  31.823  32.994  1.00  0.00     0.031 C 
ATOM     40  C   UNL A   1      40.461  26.974  28.244  1.00  0.00     0.029 A 
ATOM     41  C   UNL A   1      41.452  27.082  29.310  1.00  0.00     0.049 A 
ATOM     42  H   UNL A   1      41.432  28.392  30.930  1.00  0.00     0.167 HD
ATOM     43  C   UNL A   1      41.273  31.231  34.258  1.00  0.00     0.031 A 
ATOM     44  C   UNL A   1      42.564  26.331  29.419  1.00  0.00     0.031 A 
ATOM     45  C   UNL A   1      42.474  30.467  34.468  1.00  0.00     0.049 A 
ATOM     46  C   UNL A   1      43.505  26.579  30.565  1.00  0.00     0.074 A 
ATOM     47  C   UNL A   1      43.383  30.559  35.508  1.00  0.00     0.029 A 
ATOM     48  N   UNL A   1      42.934  29.469  33.623  1.00  0.00    -0.354 N 
ATOM     49  N   UNL A   1      43.391  27.435  31.552  1.00  0.00    -0.248 NA
ATOM     50  C   UNL A   1      44.725  25.761  30.609  1.00  0.00     0.031 C 
ATOM     51  C   UNL A   1      44.415  29.645  35.269  1.00  0.00     0.029 A 
ATOM     52  C   UNL A   1      44.124  28.951  34.105  1.00  0.00     0.049 A 
ATOM     53  H   UNL A   1      42.481  29.172  32.801  1.00  0.00     0.167 HD
ATOM     54  C   UNL A   1      44.519  27.249  32.344  1.00  0.00     0.074 A 
ATOM     55  C   UNL A   1      45.292  26.189  31.729  1.00  0.00     0.031 C 
ATOM     56  C   UNL A   1      44.881  27.899  33.477  1.00  0.00     0.031 A 
BRANCH  43  57
ATOM     57  C   UNL A   1      40.939  32.321  35.241  1.00  0.00    -0.014 A 
ATOM     58  C   UNL A   1      40.107  32.079  36.349  1.00  0.00     0.010 A 
ATOM     59  C   UNL A   1      41.496  33.602  35.068  1.00  0.00     0.010 A 
ATOM     60  C   UNL A   1      39.810  33.109  37.247  1.00  0.00     0.020 A 
ATOM     61  C   UNL A   1      41.218  34.628  35.975  1.00  0.00     0.020 A 
ATOM     62  C   UNL A   1      40.362  34.379  37.050  1.00  0.00     0.054 A 
BRANCH  62  63
ATOM     63  S   UNL A   1      39.975  35.696  38.236  1.00  0.00     0.124 S 
ATOM     64  O   UNL A   1      38.858  35.113  38.977  1.00  0.00    -0.237 OA
ATOM     65  O   UNL A   1      41.220  35.834  38.985  1.00  0.00    -0.237 OA
ATOM     66  O   UNL A   1      39.631  36.836  37.388  1.00  0.00    -0.744 OA
ENDBRANCH  62  63
ENDBRANCH  43  57
BRANCH  44  67
ATOM     67  C   UNL A   1      42.862  25.297  28.394  1.00  0.00    -0.014 A 
ATOM     68  C   UNL A   1      42.495  23.956  28.601  1.00  0.00     0.010 A 
ATOM     69  C   UNL A   1      43.502  25.655  27.193  1.00  0.00     0.010 A 
ATOM     70  C   UNL A   1      42.773  22.989  27.629  1.00  0.00     0.020 A 
ATOM     71  C   UNL A   1      43.759  24.696  26.210  1.00  0.00     0.020 A 
ATOM     72  C   UNL A   1      43.402  23.366  26.439  1.00  0.00     0.054 A 
BRANCH  72  73
ATOM     73  S   UNL A   1      43.700  22.110  25.164  1.00  0.00     0.124 S 
ATOM     74  O   UNL A   1      42.658  21.131  25.456  1.00  0.00    -0.237 OA
ATOM     75  O   UNL A   1      43.529  22.866  23.926  1.00  0.00    -0.237 OA
ATOM     76  O   UNL A   1      45.067  21.671  25.432  1.00  0.00    -0.744 OA
ENDBRANCH  72  73
ENDBRANCH  44  67
BRANCH  56  77
ATOM     77  C   UNL A   1      46.158  27.463  34.140  1.00  0.00    -0.014 A 
ATOM     78  C   UNL A   1      47.381  28.086  33.840  1.00  0.00     0.010 A 
ATOM     79  C   UNL A   1      46.124  26.445  35.110  1.00  0.00     0.010 A 
ATOM     80  C   UNL A   1      48.555  27.680  34.480  1.00  0.00     0.020 A 
ATOM     81  C   UNL A   1      47.291  26.050  35.767  1.00  0.00     0.020 A 
ATOM     82  C   UNL A   1      48.504  26.662  35.437  1.00  0.00     0.054 A 
BRANCH  82  83
ATOM     83  S   UNL A   1      50.032  26.177  36.285  1.00  0.00     0.124 S 
ATOM     84  O   UNL A   1      49.563  25.121  37.176  1.00  0.00    -0.237 OA
ATOM     85  O   UNL A   1      50.886  25.737  35.184  1.00  0.00    -0.237 OA
ATOM     86  O   UNL A   1      50.464  27.407  36.946  1.00  0.00    -0.744 OA
ENDBRANCH  82  83
ENDBRANCH  56  77
ENDBRANCH  30  31
ENDBRANCH  23  25
ENDBRANCH  22  23
ENDBRANCH  21  22
ENDBRANCH   1  21
TORSDOF 17
ENDMDL
