MODEL 1
REMARK VINA RESULT:     -13.9      0.000      0.000
REMARK SMILES Cc1ccccc1-c1c(Cl)ccc2c1C=C(C(=O)OCCOC(=O)c1ccc(-c3c4nc(c(-c5ccc(S(=O)(=O)[O-])cc5)c5ccc([nH]5)c(-c5ccc(S(=O)(=O)[O-])cc5)c5nc(c(-c6ccc(S(=O)(=O)[O-])cc6)c6ccc3[nH]6)C=C5)C=C4)cc1)[C@@H](C(F)(F)F)O2
REMARK SMILES IDX 21 1 20 2 19 3 17 4 18 5 16 6 8 7 9 8 14 9 10 10 11 11 13 12
REMARK SMILES IDX 15 13 12 14 90 15 85 16 7 17 1 18 2 19 3 20 4 21 6 22 5 23
REMARK SMILES IDX 86 24 87 25 88 26 89 27 22 28 23 29 24 30 25 31 26 32 84 33
REMARK SMILES IDX 27 34 83 35 28 36 29 37 30 38 77 39 31 40 82 41 76 42 78 43
REMARK SMILES IDX 32 44 81 45 75 46 74 47 33 49 63 50 44 51 62 52 45 53 48 54
REMARK SMILES IDX 61 55 79 56 46 57 47 58 60 60 80 61 49 62 34 63 35 64 43 65
REMARK SMILES IDX 36 66 42 67 37 68 38 69 39 70 40 71 41 72 64 73 65 74 73 75
REMARK SMILES IDX 66 76 72 77 67 78 68 79 69 80 70 81 71 82 50 83 51 84 59 85
REMARK SMILES IDX 52 86 58 87 53 88 54 89 55 90 56 91 57 92
REMARK H PARENT 78 48 48 59
REMARK Flexibility Score: inf
ROOT
ATOM      1  C   UNL A   1      34.510  31.545  27.645  1.00  0.00     0.275 C 
ENDROOT
BRANCH   1   2
ATOM      2  C   UNL A   1      33.348  30.588  27.311  1.00  0.00     0.275 C 
BRANCH   2   3
ATOM      3  O   UNL A   1      33.472  29.893  26.053  1.00  0.00    -0.459 OA
BRANCH   3   4
ATOM      4  C   UNL A   1      33.799  28.585  26.219  1.00  0.00     0.338 C 
ATOM      5  O   UNL A   1      34.692  28.215  26.976  1.00  0.00    -0.246 OA
BRANCH   4   6
ATOM      6  C   UNL A   1      32.841  27.634  25.594  1.00  0.00     0.087 C 
ATOM      7  C   UNL A   1      33.234  23.948  25.647  1.00  0.00     0.012 A 
ATOM      8  C   UNL A   1      32.490  22.915  26.277  1.00  0.00     0.049 A 
ATOM      9  C   UNL A   1      32.619  25.234  25.567  1.00  0.00     0.027 A 
ATOM     10  Cl  UNL A   1      33.171  21.352  26.607  1.00  0.00    -0.084 Cl
ATOM     11  C   UNL A   1      31.173  23.113  26.707  1.00  0.00     0.025 A 
ATOM     12  C   UNL A   1      31.294  25.413  26.011  1.00  0.00     0.128 A 
ATOM     13  C   UNL A   1      33.392  26.450  25.282  1.00  0.00     0.028 C 
ATOM     14  C   UNL A   1      30.566  24.351  26.541  1.00  0.00     0.049 A 
ATOM     15  O   UNL A   1      30.648  26.620  26.049  1.00  0.00    -0.475 OA
ATOM     16  C   UNL A   1      31.348  27.797  25.572  1.00  0.00     0.316 C 
BRANCH   7  17
ATOM     17  C   UNL A   1      34.566  23.639  25.040  1.00  0.00    -0.013 A 
ATOM     18  C   UNL A   1      33.725  23.127  22.652  1.00  0.00     0.045 C 
ATOM     19  C   UNL A   1      34.799  23.272  23.695  1.00  0.00    -0.043 A 
ATOM     20  C   UNL A   1      36.114  22.999  23.260  1.00  0.00     0.004 A 
ATOM     21  C   UNL A   1      37.205  23.146  24.110  1.00  0.00     0.000 A 
ATOM     22  C   UNL A   1      35.699  23.765  25.881  1.00  0.00     0.009 A 
ATOM     23  C   UNL A   1      36.998  23.545  25.420  1.00  0.00     0.001 A 
ENDBRANCH   7  17
BRANCH  16  24
ATOM     24  C   UNL A   1      30.870  28.139  24.150  1.00  0.00     0.430 C 
ATOM     25  F   UNL A   1      29.892  27.319  23.707  1.00  0.00    -0.167 F 
ATOM     26  F   UNL A   1      30.386  29.407  24.083  1.00  0.00    -0.167 F 
ATOM     27  F   UNL A   1      31.879  28.068  23.242  1.00  0.00    -0.167 F 
ENDBRANCH  16  24
ENDBRANCH   4   6
ENDBRANCH   3   4
ENDBRANCH   2   3
ENDBRANCH   1   2
BRANCH   1  28
ATOM     28  O   UNL A   1      35.871  31.067  27.700  1.00  0.00    -0.458 OA
BRANCH  28  29
ATOM     29  C   UNL A   1      36.354  30.690  28.913  1.00  0.00     0.338 C 
ATOM     30  O   UNL A   1      35.755  30.891  29.950  1.00  0.00    -0.246 OA
BRANCH  29  31
ATOM     31  C   UNL A   1      37.492  29.753  28.692  1.00  0.00     0.060 A 
ATOM     32  C   UNL A   1      38.155  29.803  27.465  1.00  0.00     0.016 A 
ATOM     33  C   UNL A   1      38.077  29.090  29.780  1.00  0.00     0.016 A 
ATOM     34  C   UNL A   1      39.474  29.371  27.373  1.00  0.00     0.010 A 
ATOM     35  C   UNL A   1      39.387  28.651  29.692  1.00  0.00     0.010 A 
ATOM     36  C   UNL A   1      40.103  28.835  28.505  1.00  0.00    -0.014 A 
BRANCH  36  37
ATOM     37  C   UNL A   1      41.415  28.202  28.398  1.00  0.00     0.031 A 
ATOM     38  C   UNL A   1      41.571  26.806  27.938  1.00  0.00     0.074 A 
ATOM     39  C   UNL A   1      42.420  28.860  29.015  1.00  0.00     0.049 A 
ATOM     40  N   UNL A   1      42.195  25.885  28.595  1.00  0.00    -0.248 NA
ATOM     41  C   UNL A   1      40.993  26.338  26.679  1.00  0.00     0.031 C 
ATOM     42  C   UNL A   1      43.784  28.414  29.247  1.00  0.00     0.029 A 
ATOM     43  N   UNL A   1      42.262  29.962  29.865  1.00  0.00    -0.354 N 
ATOM     44  C   UNL A   1      42.307  24.795  27.756  1.00  0.00     0.074 A 
ATOM     45  C   UNL A   1      41.479  25.092  26.610  1.00  0.00     0.031 C 
ATOM     46  C   UNL A   1      44.200  28.977  30.399  1.00  0.00     0.029 A 
ATOM     47  C   UNL A   1      43.061  29.698  30.969  1.00  0.00     0.049 A 
ATOM     48  H   UNL A   1      41.701  30.756  29.711  1.00  0.00     0.167 HD
ATOM     49  C   UNL A   1      43.229  23.815  27.980  1.00  0.00     0.031 A 
ATOM     50  C   UNL A   1      42.563  29.551  32.229  1.00  0.00     0.031 A 
ATOM     51  C   UNL A   1      44.120  24.179  29.067  1.00  0.00     0.049 A 
ATOM     52  C   UNL A   1      43.074  28.280  32.847  1.00  0.00     0.074 A 
ATOM     53  C   UNL A   1      45.303  24.899  29.027  1.00  0.00     0.029 A 
ATOM     54  N   UNL A   1      43.695  24.159  30.389  1.00  0.00    -0.354 N 
ATOM     55  N   UNL A   1      43.203  27.152  32.204  1.00  0.00    -0.248 NA
ATOM     56  C   UNL A   1      43.517  28.218  34.233  1.00  0.00     0.031 C 
ATOM     57  C   UNL A   1      45.538  25.412  30.318  1.00  0.00     0.029 A 
ATOM     58  C   UNL A   1      44.534  24.949  31.152  1.00  0.00     0.049 A 
ATOM     59  H   UNL A   1      42.918  23.658  30.730  1.00  0.00     0.167 HD
ATOM     60  C   UNL A   1      43.873  26.272  33.022  1.00  0.00     0.074 A 
ATOM     61  C   UNL A   1      43.996  26.966  34.293  1.00  0.00     0.031 C 
ATOM     62  C   UNL A   1      44.383  25.083  32.588  1.00  0.00     0.031 A 
BRANCH  49  63
ATOM     63  C   UNL A   1      43.566  22.803  26.913  1.00  0.00    -0.014 A 
ATOM     64  C   UNL A   1      42.748  21.666  26.746  1.00  0.00     0.010 A 
ATOM     65  C   UNL A   1      44.715  22.888  26.101  1.00  0.00     0.010 A 
ATOM     66  C   UNL A   1      43.117  20.604  25.913  1.00  0.00     0.020 A 
ATOM     67  C   UNL A   1      45.101  21.821  25.267  1.00  0.00     0.020 A 
ATOM     68  C   UNL A   1      44.313  20.671  25.205  1.00  0.00     0.054 A 
BRANCH  68  69
ATOM     69  S   UNL A   1      44.844  19.206  24.272  1.00  0.00     0.124 S 
ATOM     70  O   UNL A   1      46.288  19.195  24.503  1.00  0.00    -0.237 OA
ATOM     71  O   UNL A   1      44.099  18.129  24.916  1.00  0.00    -0.237 OA
ATOM     72  O   UNL A   1      44.445  19.506  22.899  1.00  0.00    -0.744 OA
ENDBRANCH  68  69
ENDBRANCH  49  63
BRANCH  50  73
ATOM     73  C   UNL A   1      41.230  30.144  32.573  1.00  0.00    -0.014 A 
ATOM     74  C   UNL A   1      40.384  29.485  33.495  1.00  0.00     0.010 A 
ATOM     75  C   UNL A   1      40.846  31.421  32.128  1.00  0.00     0.010 A 
ATOM     76  C   UNL A   1      39.254  30.115  34.029  1.00  0.00     0.020 A 
ATOM     77  C   UNL A   1      39.698  32.048  32.640  1.00  0.00     0.020 A 
ATOM     78  C   UNL A   1      38.923  31.401  33.605  1.00  0.00     0.054 A 
BRANCH  78  79
ATOM     79  S   UNL A   1      37.579  32.285  34.452  1.00  0.00     0.124 S 
ATOM     80  O   UNL A   1      38.079  33.655  34.463  1.00  0.00    -0.237 OA
ATOM     81  O   UNL A   1      36.441  32.037  33.568  1.00  0.00    -0.237 OA
ATOM     82  O   UNL A   1      37.525  31.618  35.751  1.00  0.00    -0.744 OA
ENDBRANCH  78  79
ENDBRANCH  50  73
BRANCH  62  83
ATOM     83  C   UNL A   1      45.035  24.035  33.456  1.00  0.00    -0.014 A 
ATOM     84  C   UNL A   1      46.335  24.140  33.973  1.00  0.00     0.010 A 
ATOM     85  C   UNL A   1      44.268  22.919  33.873  1.00  0.00     0.010 A 
ATOM     86  C   UNL A   1      46.870  23.140  34.797  1.00  0.00     0.020 A 
ATOM     87  C   UNL A   1      44.776  21.938  34.725  1.00  0.00     0.020 A 
ATOM     88  C   UNL A   1      46.089  22.042  35.161  1.00  0.00     0.054 A 
BRANCH  88  89
ATOM     89  S   UNL A   1      46.765  20.790  36.278  1.00  0.00     0.124 S 
ATOM     90  O   UNL A   1      48.192  21.102  36.251  1.00  0.00    -0.237 OA
ATOM     91  O   UNL A   1      46.085  21.075  37.540  1.00  0.00    -0.237 OA
ATOM     92  O   UNL A   1      46.387  19.528  35.646  1.00  0.00    -0.744 OA
ENDBRANCH  88  89
ENDBRANCH  62  83
ENDBRANCH  36  37
ENDBRANCH  29  31
ENDBRANCH  28  29
ENDBRANCH   1  28
TORSDOF 16
ENDMDL
MODEL 2
REMARK VINA RESULT:     -13.6      4.778     11.054
REMARK SMILES Cc1ccccc1-c1c(Cl)ccc2c1C=C(C(=O)OCCOC(=O)c1ccc(-c3c4nc(c(-c5ccc(S(=O)(=O)[O-])cc5)c5ccc([nH]5)c(-c5ccc(S(=O)(=O)[O-])cc5)c5nc(c(-c6ccc(S(=O)(=O)[O-])cc6)c6ccc3[nH]6)C=C5)C=C4)cc1)[C@@H](C(F)(F)F)O2
REMARK SMILES IDX 21 1 20 2 19 3 17 4 18 5 16 6 8 7 9 8 14 9 10 10 11 11 13 12
REMARK SMILES IDX 15 13 12 14 90 15 85 16 7 17 1 18 2 19 3 20 4 21 6 22 5 23
REMARK SMILES IDX 86 24 87 25 88 26 89 27 22 28 23 29 24 30 25 31 26 32 84 33
REMARK SMILES IDX 27 34 83 35 28 36 29 37 30 38 77 39 31 40 82 41 76 42 78 43
REMARK SMILES IDX 32 44 81 45 75 46 74 47 33 49 63 50 44 51 62 52 45 53 48 54
REMARK SMILES IDX 61 55 79 56 46 57 47 58 60 60 80 61 49 62 34 63 35 64 43 65
REMARK SMILES IDX 36 66 42 67 37 68 38 69 39 70 40 71 41 72 64 73 65 74 73 75
REMARK SMILES IDX 66 76 72 77 67 78 68 79 69 80 70 81 71 82 50 83 51 84 59 85
REMARK SMILES IDX 52 86 58 87 53 88 54 89 55 90 56 91 57 92
REMARK H PARENT 78 48 48 59
REMARK Flexibility Score: inf
ROOT
ATOM      1  C   UNL A   1      38.894  22.424  26.297  1.00  0.00     0.275 C 
ENDROOT
BRANCH   1   2
ATOM      2  C   UNL A   1      37.721  22.281  25.306  1.00  0.00     0.275 C 
BRANCH   2   3
ATOM      3  O   UNL A   1      37.144  23.526  24.860  1.00  0.00    -0.459 OA
BRANCH   3   4
ATOM      4  C   UNL A   1      36.188  23.338  23.913  1.00  0.00     0.338 C 
ATOM      5  O   UNL A   1      36.452  23.171  22.726  1.00  0.00    -0.246 OA
BRANCH   4   6
ATOM      6  C   UNL A   1      34.823  23.119  24.463  1.00  0.00     0.087 C 
ATOM      7  C   UNL A   1      32.168  25.706  24.528  1.00  0.00     0.012 A 
ATOM      8  C   UNL A   1      30.925  25.819  23.851  1.00  0.00     0.049 A 
ATOM      9  C   UNL A   1      32.797  24.425  24.520  1.00  0.00     0.027 A 
ATOM     10  Cl  UNL A   1      30.129  27.346  23.623  1.00  0.00    -0.084 Cl
ATOM     11  C   UNL A   1      30.288  24.706  23.290  1.00  0.00     0.025 A 
ATOM     12  C   UNL A   1      32.141  23.319  23.944  1.00  0.00     0.128 A 
ATOM     13  C   UNL A   1      34.218  24.253  24.853  1.00  0.00     0.028 C 
ATOM     14  C   UNL A   1      30.881  23.453  23.368  1.00  0.00     0.049 A 
ATOM     15  O   UNL A   1      32.694  22.072  23.817  1.00  0.00    -0.475 OA
ATOM     16  C   UNL A   1      34.030  21.850  24.334  1.00  0.00     0.316 C 
BRANCH   7  17
ATOM     17  C   UNL A   1      32.719  26.883  25.269  1.00  0.00    -0.013 A 
ATOM     18  C   UNL A   1      34.032  27.922  23.302  1.00  0.00     0.045 C 
ATOM     19  C   UNL A   1      33.556  27.887  24.728  1.00  0.00    -0.043 A 
ATOM     20  C   UNL A   1      34.010  28.939  25.551  1.00  0.00     0.004 A 
ATOM     21  C   UNL A   1      33.601  29.055  26.875  1.00  0.00     0.000 A 
ATOM     22  C   UNL A   1      32.335  27.024  26.624  1.00  0.00     0.009 A 
ATOM     23  C   UNL A   1      32.749  28.102  27.410  1.00  0.00     0.001 A 
ENDBRANCH   7  17
BRANCH  16  24
ATOM     24  C   UNL A   1      33.943  21.136  25.694  1.00  0.00     0.430 C 
ATOM     25  F   UNL A   1      33.024  21.680  26.522  1.00  0.00    -0.167 F 
ATOM     26  F   UNL A   1      33.618  19.825  25.546  1.00  0.00    -0.167 F 
ATOM     27  F   UNL A   1      35.128  21.161  26.360  1.00  0.00    -0.167 F 
ENDBRANCH  16  24
ENDBRANCH   4   6
ENDBRANCH   3   4
ENDBRANCH   2   3
ENDBRANCH   1   2
BRANCH   1  28
ATOM     28  O   UNL A   1      38.939  23.519  27.237  1.00  0.00    -0.458 OA
BRANCH  28  29
ATOM     29  C   UNL A   1      40.026  24.334  27.197  1.00  0.00     0.338 C 
ATOM     30  O   UNL A   1      40.986  24.115  26.486  1.00  0.00    -0.246 OA
BRANCH  29  31
ATOM     31  C   UNL A   1      39.674  25.615  27.875  1.00  0.00     0.060 A 
ATOM     32  C   UNL A   1      38.999  25.547  29.095  1.00  0.00     0.016 A 
ATOM     33  C   UNL A   1      40.284  26.812  27.474  1.00  0.00     0.016 A 
ATOM     34  C   UNL A   1      39.097  26.600  29.998  1.00  0.00     0.010 A 
ATOM     35  C   UNL A   1      40.377  27.866  28.367  1.00  0.00     0.010 A 
ATOM     36  C   UNL A   1      39.827  27.744  29.646  1.00  0.00    -0.014 A 
BRANCH  36  37
ATOM     37  C   UNL A   1      39.794  28.938  30.488  1.00  0.00     0.031 A 
ATOM     38  C   UNL A   1      38.711  29.938  30.378  1.00  0.00     0.074 A 
ATOM     39  C   UNL A   1      40.943  29.207  31.145  1.00  0.00     0.049 A 
ATOM     40  N   UNL A   1      38.900  31.201  30.177  1.00  0.00    -0.248 NA
ATOM     41  C   UNL A   1      37.301  29.563  30.465  1.00  0.00     0.031 C 
ATOM     42  C   UNL A   1      41.292  30.396  31.905  1.00  0.00     0.029 A 
ATOM     43  N   UNL A   1      42.163  28.552  30.938  1.00  0.00    -0.354 N 
ATOM     44  C   UNL A   1      37.680  31.824  30.346  1.00  0.00     0.074 A 
ATOM     45  C   UNL A   1      36.705  30.762  30.444  1.00  0.00     0.031 C 
ATOM     46  C   UNL A   1      42.623  30.573  31.785  1.00  0.00     0.029 A 
ATOM     47  C   UNL A   1      43.117  29.559  30.853  1.00  0.00     0.049 A 
ATOM     48  H   UNL A   1      42.314  27.582  30.868  1.00  0.00     0.167 HD
ATOM     49  C   UNL A   1      37.592  33.162  30.590  1.00  0.00     0.031 A 
ATOM     50  C   UNL A   1      43.859  29.787  29.733  1.00  0.00     0.031 A 
ATOM     51  C   UNL A   1      38.907  33.740  30.801  1.00  0.00     0.049 A 
ATOM     52  C   UNL A   1      43.789  31.238  29.347  1.00  0.00     0.074 A 
ATOM     53  C   UNL A   1      39.637  33.856  31.973  1.00  0.00     0.029 A 
ATOM     54  N   UNL A   1      39.791  33.934  29.746  1.00  0.00    -0.354 N 
ATOM     55  N   UNL A   1      42.705  31.962  29.409  1.00  0.00    -0.248 NA
ATOM     56  C   UNL A   1      44.963  31.978  28.905  1.00  0.00     0.031 C 
ATOM     57  C   UNL A   1      40.992  34.011  31.623  1.00  0.00     0.029 A 
ATOM     58  C   UNL A   1      41.075  34.055  30.241  1.00  0.00     0.049 A 
ATOM     59  H   UNL A   1      39.540  33.978  28.794  1.00  0.00     0.167 HD
ATOM     60  C   UNL A   1      43.055  33.270  29.170  1.00  0.00     0.074 A 
ATOM     61  C   UNL A   1      44.462  33.218  28.806  1.00  0.00     0.031 C 
ATOM     62  C   UNL A   1      42.216  34.324  29.387  1.00  0.00     0.031 A 
BRANCH  49  63
ATOM     63  C   UNL A   1      36.308  33.783  31.083  1.00  0.00    -0.014 A 
ATOM     64  C   UNL A   1      35.250  34.008  30.178  1.00  0.00     0.010 A 
ATOM     65  C   UNL A   1      36.121  34.227  32.407  1.00  0.00     0.010 A 
ATOM     66  C   UNL A   1      34.119  34.752  30.531  1.00  0.00     0.020 A 
ATOM     67  C   UNL A   1      34.992  34.985  32.772  1.00  0.00     0.020 A 
ATOM     68  C   UNL A   1      34.013  35.271  31.818  1.00  0.00     0.054 A 
BRANCH  68  69
ATOM     69  S   UNL A   1      32.619  36.374  32.190  1.00  0.00     0.124 S 
ATOM     70  O   UNL A   1      33.110  37.116  33.350  1.00  0.00    -0.237 OA
ATOM     71  O   UNL A   1      32.488  37.149  30.960  1.00  0.00    -0.237 OA
ATOM     72  O   UNL A   1      31.516  35.457  32.470  1.00  0.00    -0.744 OA
ENDBRANCH  68  69
ENDBRANCH  49  63
BRANCH  50  73
ATOM     73  C   UNL A   1      44.047  28.687  28.732  1.00  0.00    -0.014 A 
ATOM     74  C   UNL A   1      43.569  28.849  27.410  1.00  0.00     0.010 A 
ATOM     75  C   UNL A   1      44.824  27.550  29.012  1.00  0.00     0.010 A 
ATOM     76  C   UNL A   1      43.934  27.966  26.388  1.00  0.00     0.020 A 
ATOM     77  C   UNL A   1      45.172  26.645  27.996  1.00  0.00     0.020 A 
ATOM     78  C   UNL A   1      44.744  26.871  26.686  1.00  0.00     0.054 A 
BRANCH  78  79
ATOM     79  S   UNL A   1      45.378  25.853  25.320  1.00  0.00     0.124 S 
ATOM     80  O   UNL A   1      46.225  24.896  26.025  1.00  0.00    -0.237 OA
ATOM     81  O   UNL A   1      44.149  25.305  24.748  1.00  0.00    -0.237 OA
ATOM     82  O   UNL A   1      46.079  26.829  24.490  1.00  0.00    -0.744 OA
ENDBRANCH  78  79
ENDBRANCH  50  73
BRANCH  62  83
ATOM     83  C   UNL A   1      42.506  35.766  29.048  1.00  0.00    -0.014 A 
ATOM     84  C   UNL A   1      43.384  36.582  29.776  1.00  0.00     0.010 A 
ATOM     85  C   UNL A   1      41.950  36.315  27.866  1.00  0.00     0.010 A 
ATOM     86  C   UNL A   1      43.629  37.908  29.390  1.00  0.00     0.020 A 
ATOM     87  C   UNL A   1      42.219  37.620  27.450  1.00  0.00     0.020 A 
ATOM     88  C   UNL A   1      43.039  38.419  28.234  1.00  0.00     0.054 A 
BRANCH  88  89
ATOM     89  S   UNL A   1      43.413  40.109  27.706  1.00  0.00     0.124 S 
ATOM     90  O   UNL A   1      44.051  39.885  26.411  1.00  0.00    -0.237 OA
ATOM     91  O   UNL A   1      42.094  40.735  27.655  1.00  0.00    -0.237 OA
ATOM     92  O   UNL A   1      44.292  40.610  28.760  1.00  0.00    -0.744 OA
ENDBRANCH  88  89
ENDBRANCH  62  83
ENDBRANCH  36  37
ENDBRANCH  29  31
ENDBRANCH  28  29
ENDBRANCH   1  28
TORSDOF 16
ENDMDL
MODEL 3
REMARK VINA RESULT:     -13.3      4.803     11.156
REMARK SMILES Cc1ccccc1-c1c(Cl)ccc2c1C=C(C(=O)OCCOC(=O)c1ccc(-c3c4nc(c(-c5ccc(S(=O)(=O)[O-])cc5)c5ccc([nH]5)c(-c5ccc(S(=O)(=O)[O-])cc5)c5nc(c(-c6ccc(S(=O)(=O)[O-])cc6)c6ccc3[nH]6)C=C5)C=C4)cc1)[C@@H](C(F)(F)F)O2
REMARK SMILES IDX 21 1 20 2 19 3 17 4 18 5 16 6 8 7 9 8 14 9 10 10 11 11 13 12
REMARK SMILES IDX 15 13 12 14 90 15 85 16 7 17 1 18 2 19 3 20 4 21 6 22 5 23
REMARK SMILES IDX 86 24 87 25 88 26 89 27 22 28 23 29 24 30 25 31 26 32 84 33
REMARK SMILES IDX 27 34 83 35 28 36 29 37 30 38 77 39 31 40 82 41 76 42 78 43
REMARK SMILES IDX 32 44 81 45 75 46 74 47 33 49 63 50 44 51 62 52 45 53 48 54
REMARK SMILES IDX 61 55 79 56 46 57 47 58 60 60 80 61 49 62 34 63 35 64 43 65
REMARK SMILES IDX 36 66 42 67 37 68 38 69 39 70 40 71 41 72 64 73 65 74 73 75
REMARK SMILES IDX 66 76 72 77 67 78 68 79 69 80 70 81 71 82 50 83 51 84 59 85
REMARK SMILES IDX 52 86 58 87 53 88 54 89 55 90 56 91 57 92
REMARK H PARENT 78 48 48 59
REMARK Flexibility Score: inf
ROOT
ATOM      1  C   UNL A   1      38.479  24.033  26.549  1.00  0.00     0.275 C 
ENDROOT
BRANCH   1   2
ATOM      2  C   UNL A   1      37.344  23.671  25.570  1.00  0.00     0.275 C 
BRANCH   2   3
ATOM      3  O   UNL A   1      36.018  23.690  26.140  1.00  0.00    -0.459 OA
BRANCH   3   4
ATOM      4  C   UNL A   1      35.311  22.572  25.829  1.00  0.00     0.338 C 
ATOM      5  O   UNL A   1      35.526  21.483  26.353  1.00  0.00    -0.246 OA
BRANCH   4   6
ATOM      6  C   UNL A   1      34.115  22.825  24.981  1.00  0.00     0.087 C 
ATOM      7  C   UNL A   1      32.927  26.201  24.013  1.00  0.00     0.012 A 
ATOM      8  C   UNL A   1      32.867  26.873  22.763  1.00  0.00     0.049 A 
ATOM      9  C   UNL A   1      33.139  24.790  23.981  1.00  0.00     0.027 A 
ATOM     10  Cl  UNL A   1      32.792  28.603  22.645  1.00  0.00    -0.084 Cl
ATOM     11  C   UNL A   1      32.908  26.176  21.550  1.00  0.00     0.025 A 
ATOM     12  C   UNL A   1      33.182  24.109  22.748  1.00  0.00     0.128 A 
ATOM     13  C   UNL A   1      33.577  24.041  25.167  1.00  0.00     0.028 C 
ATOM     14  C   UNL A   1      33.030  24.793  21.546  1.00  0.00     0.049 A 
ATOM     15  O   UNL A   1      33.459  22.774  22.611  1.00  0.00    -0.475 OA
ATOM     16  C   UNL A   1      33.692  21.988  23.807  1.00  0.00     0.316 C 
BRANCH   7  17
ATOM     17  C   UNL A   1      32.695  26.965  25.278  1.00  0.00    -0.013 A 
ATOM     18  C   UNL A   1      30.255  26.210  25.672  1.00  0.00     0.045 C 
ATOM     19  C   UNL A   1      31.499  26.974  26.034  1.00  0.00    -0.043 A 
ATOM     20  C   UNL A   1      31.418  27.752  27.209  1.00  0.00     0.004 A 
ATOM     21  C   UNL A   1      32.514  28.465  27.684  1.00  0.00     0.000 A 
ATOM     22  C   UNL A   1      33.785  27.713  25.784  1.00  0.00     0.009 A 
ATOM     23  C   UNL A   1      33.705  28.434  26.978  1.00  0.00     0.001 A 
ENDBRANCH   7  17
BRANCH  16  24
ATOM     24  C   UNL A   1      32.424  21.188  24.153  1.00  0.00     0.430 C 
ATOM     25  F   UNL A   1      32.615  20.292  25.145  1.00  0.00    -0.167 F 
ATOM     26  F   UNL A   1      31.415  22.008  24.547  1.00  0.00    -0.167 F 
ATOM     27  F   UNL A   1      31.954  20.491  23.085  1.00  0.00    -0.167 F 
ENDBRANCH  16  24
ENDBRANCH   4   6
ENDBRANCH   3   4
ENDBRANCH   2   3
ENDBRANCH   1   2
BRANCH   1  28
ATOM     28  O   UNL A   1      39.638  24.767  26.101  1.00  0.00    -0.458 OA
BRANCH  28  29
ATOM     29  C   UNL A   1      40.774  24.655  26.839  1.00  0.00     0.338 C 
ATOM     30  O   UNL A   1      41.562  23.742  26.700  1.00  0.00    -0.246 OA
BRANCH  29  31
ATOM     31  C   UNL A   1      41.005  25.953  27.538  1.00  0.00     0.060 A 
ATOM     32  C   UNL A   1      40.365  27.089  27.041  1.00  0.00     0.016 A 
ATOM     33  C   UNL A   1      41.567  25.967  28.823  1.00  0.00     0.016 A 
ATOM     34  C   UNL A   1      40.112  28.165  27.885  1.00  0.00     0.010 A 
ATOM     35  C   UNL A   1      41.324  27.040  29.665  1.00  0.00     0.010 A 
ATOM     36  C   UNL A   1      40.556  28.117  29.213  1.00  0.00    -0.014 A 
BRANCH  36  37
ATOM     37  C   UNL A   1      40.474  29.298  30.070  1.00  0.00     0.031 A 
ATOM     38  C   UNL A   1      39.313  30.213  30.024  1.00  0.00     0.074 A 
ATOM     39  C   UNL A   1      41.629  29.650  30.673  1.00  0.00     0.049 A 
ATOM     40  N   UNL A   1      39.395  31.488  29.829  1.00  0.00    -0.248 NA
ATOM     41  C   UNL A   1      37.942  29.730  30.175  1.00  0.00     0.031 C 
ATOM     42  C   UNL A   1      41.923  30.856  31.429  1.00  0.00     0.029 A 
ATOM     43  N   UNL A   1      42.884  29.093  30.399  1.00  0.00    -0.354 N 
ATOM     44  C   UNL A   1      38.141  32.014  30.064  1.00  0.00     0.074 A 
ATOM     45  C   UNL A   1      37.255  30.880  30.197  1.00  0.00     0.031 C 
ATOM     46  C   UNL A   1      43.229  31.136  31.247  1.00  0.00     0.029 A 
ATOM     47  C   UNL A   1      43.753  30.169  30.280  1.00  0.00     0.049 A 
ATOM     48  H   UNL A   1      43.105  28.137  30.311  1.00  0.00     0.167 HD
ATOM     49  C   UNL A   1      37.963  33.340  30.327  1.00  0.00     0.031 A 
ATOM     50  C   UNL A   1      44.419  30.463  29.127  1.00  0.00     0.031 A 
ATOM     51  C   UNL A   1      39.239  34.015  30.480  1.00  0.00     0.049 A 
ATOM     52  C   UNL A   1      44.219  31.907  28.763  1.00  0.00     0.074 A 
ATOM     53  C   UNL A   1      40.014  34.178  31.617  1.00  0.00     0.029 A 
ATOM     54  N   UNL A   1      40.052  34.285  29.386  1.00  0.00    -0.354 N 
ATOM     55  N   UNL A   1      43.088  32.545  28.885  1.00  0.00    -0.248 NA
ATOM     56  C   UNL A   1      45.310  32.738  28.272  1.00  0.00     0.031 C 
ATOM     57  C   UNL A   1      41.335  34.440  31.203  1.00  0.00     0.029 A 
ATOM     58  C   UNL A   1      41.347  34.500  29.820  1.00  0.00     0.049 A 
ATOM     59  H   UNL A   1      39.752  34.317  28.448  1.00  0.00     0.167 HD
ATOM     60  C   UNL A   1      43.325  33.878  28.644  1.00  0.00     0.074 A 
ATOM     61  C   UNL A   1      44.712  33.938  28.213  1.00  0.00     0.031 C 
ATOM     62  C   UNL A   1      42.420  34.863  28.914  1.00  0.00     0.031 A 
BRANCH  49  63
ATOM     63  C   UNL A   1      36.661  33.856  30.889  1.00  0.00    -0.014 A 
ATOM     64  C   UNL A   1      35.528  33.946  30.054  1.00  0.00     0.010 A 
ATOM     65  C   UNL A   1      36.521  34.332  32.208  1.00  0.00     0.010 A 
ATOM     66  C   UNL A   1      34.357  34.594  30.461  1.00  0.00     0.020 A 
ATOM     67  C   UNL A   1      35.352  34.995  32.626  1.00  0.00     0.020 A 
ATOM     68  C   UNL A   1      34.288  35.150  31.735  1.00  0.00     0.054 A 
BRANCH  68  69
ATOM     69  S   UNL A   1      32.823  36.132  32.169  1.00  0.00     0.124 S 
ATOM     70  O   UNL A   1      31.850  35.101  32.523  1.00  0.00    -0.237 OA
ATOM     71  O   UNL A   1      33.303  36.949  33.279  1.00  0.00    -0.237 OA
ATOM     72  O   UNL A   1      32.521  36.864  30.940  1.00  0.00    -0.744 OA
ENDBRANCH  68  69
ENDBRANCH  49  63
BRANCH  50  73
ATOM     73  C   UNL A   1      44.641  29.389  28.106  1.00  0.00    -0.014 A 
ATOM     74  C   UNL A   1      45.701  28.467  28.273  1.00  0.00     0.010 A 
ATOM     75  C   UNL A   1      43.736  29.162  27.054  1.00  0.00     0.010 A 
ATOM     76  C   UNL A   1      45.797  27.313  27.487  1.00  0.00     0.020 A 
ATOM     77  C   UNL A   1      43.842  28.019  26.245  1.00  0.00     0.020 A 
ATOM     78  C   UNL A   1      44.858  27.090  26.482  1.00  0.00     0.054 A 
BRANCH  78  79
ATOM     79  S   UNL A   1      44.870  25.495  25.610  1.00  0.00     0.124 S 
ATOM     80  O   UNL A   1      44.940  24.546  26.716  1.00  0.00    -0.237 OA
ATOM     81  O   UNL A   1      43.598  25.528  24.888  1.00  0.00    -0.237 OA
ATOM     82  O   UNL A   1      46.068  25.592  24.780  1.00  0.00    -0.744 OA
ENDBRANCH  78  79
ENDBRANCH  50  73
BRANCH  62  83
ATOM     83  C   UNL A   1      42.582  36.325  28.578  1.00  0.00    -0.014 A 
ATOM     84  C   UNL A   1      43.392  37.212  29.302  1.00  0.00     0.010 A 
ATOM     85  C   UNL A   1      41.972  36.828  27.403  1.00  0.00     0.010 A 
ATOM     86  C   UNL A   1      43.519  38.555  28.919  1.00  0.00     0.020 A 
ATOM     87  C   UNL A   1      42.124  38.152  26.989  1.00  0.00     0.020 A 
ATOM     88  C   UNL A   1      42.878  39.017  27.769  1.00  0.00     0.054 A 
BRANCH  88  89
ATOM     89  S   UNL A   1      43.100  40.734  27.245  1.00  0.00     0.124 S 
ATOM     90  O   UNL A   1      44.297  40.641  26.412  1.00  0.00    -0.237 OA
ATOM     91  O   UNL A   1      41.860  41.021  26.529  1.00  0.00    -0.237 OA
ATOM     92  O   UNL A   1      43.267  41.458  28.503  1.00  0.00    -0.744 OA
ENDBRANCH  88  89
ENDBRANCH  62  83
ENDBRANCH  36  37
ENDBRANCH  29  31
ENDBRANCH  28  29
ENDBRANCH   1  28
TORSDOF 16
ENDMDL
