MODEL 1
REMARK VINA RESULT:     -13.4      0.000      0.000
REMARK SMILES Cc1ccc(C2=NN(C(=O)CCC(=O)OCCOC(=O)c3ccc(-c4c5nc(c(-c6ccc(S(=O)(=O)[O-])cc6)c6ccc([nH]6)c(-c6ccc(S(=O)(=O)[O-])cc6)c6nc(c(-c7ccc(S(=O)(=O)[O-])cc7)c7ccc4[nH]7)C=C6)C=C5)cc3)[C@H](C[C@@H]3C=c4cccc(C)c4=NC3=O)C2)cc1
REMARK SMILES IDX 16 1 15 2 13 3 14 4 12 5 11 6 9 7 10 8 8 9 6 10 7 11 95 12
REMARK SMILES IDX 81 13 5 14 1 15 2 16 3 17 97 18 4 19 96 20 82 21 83 22 84 23
REMARK SMILES IDX 93 24 85 25 92 26 94 27 86 28 91 29 87 30 89 31 88 32 90 33
REMARK SMILES IDX 17 34 18 35 19 36 20 37 21 38 22 39 80 40 23 41 79 42 24 43
REMARK SMILES IDX 25 44 26 45 73 46 27 47 78 48 72 49 74 50 28 51 77 52 71 53
REMARK SMILES IDX 70 54 29 56 59 57 40 58 58 59 41 60 44 61 57 62 75 63 42 64
REMARK SMILES IDX 43 65 56 67 76 68 45 69 30 70 31 71 39 72 32 73 38 74 33 75
REMARK SMILES IDX 34 76 35 77 36 78 37 79 60 80 61 81 69 82 62 83 68 84 63 85
REMARK SMILES IDX 64 86 65 87 66 88 67 89 46 90 47 91 55 92 48 93 54 94 49 95
REMARK SMILES IDX 50 96 51 97 52 98 53 99
REMARK H PARENT 74 55 44 66
REMARK Flexibility Score: inf
ROOT
ATOM      1  C   UNL A   1      32.870  31.127  27.119  1.00  0.00     0.274 C 
ENDROOT
BRANCH   1   2
ATOM      2  O   UNL A   1      32.807  29.877  26.380  1.00  0.00    -0.462 OA
BRANCH   2   3
ATOM      3  C   UNL A   1      32.916  28.682  26.989  1.00  0.00     0.306 C 
ATOM      4  O   UNL A   1      32.115  28.240  27.775  1.00  0.00    -0.252 OA
BRANCH   3   5
ATOM      5  C   UNL A   1      34.007  27.803  26.484  1.00  0.00     0.132 C 
BRANCH   5   6
ATOM      6  C   UNL A   1      33.352  26.491  26.106  1.00  0.00     0.114 C 
BRANCH   6   7
ATOM      7  C   UNL A   1      33.204  26.417  24.603  1.00  0.00     0.243 C 
ATOM      8  O   UNL A   1      34.238  26.231  23.946  1.00  0.00    -0.273 OA
BRANCH   7   9
ATOM      9  N   UNL A   1      31.968  26.614  23.984  1.00  0.00    -0.230 N 
ATOM     10  C   UNL A   1      30.512  28.107  23.438  1.00  0.00     0.070 C 
ATOM     11  N   UNL A   1      31.753  27.953  23.739  1.00  0.00    -0.174 NA
ATOM     12  C   UNL A   1      29.709  26.875  23.244  1.00  0.00     0.086 C 
ATOM     13  C   UNL A   1      30.667  25.856  23.858  1.00  0.00     0.118 C 
BRANCH  10  14
ATOM     14  C   UNL A   1      29.932  29.405  23.177  1.00  0.00    -0.002 A 
ATOM     15  C   UNL A   1      28.086  33.118  22.219  1.00  0.00     0.044 C 
ATOM     16  C   UNL A   1      28.757  31.827  22.572  1.00  0.00    -0.051 A 
ATOM     17  C   UNL A   1      28.845  30.823  21.595  1.00  0.00     0.004 A 
ATOM     18  C   UNL A   1      29.292  31.609  23.852  1.00  0.00     0.004 A 
ATOM     19  C   UNL A   1      29.437  29.610  21.895  1.00  0.00     0.010 A 
ATOM     20  C   UNL A   1      29.887  30.389  24.163  1.00  0.00     0.010 A 
ENDBRANCH  10  14
BRANCH  13  21
ATOM     21  C   UNL A   1      30.505  24.494  23.133  1.00  0.00     0.045 C 
BRANCH  21  22
ATOM     22  C   UNL A   1      31.327  23.320  23.669  1.00  0.00     0.106 C 
ATOM     23  C   UNL A   1      31.335  23.420  25.147  1.00  0.00    -0.003 C 
ATOM     24  C   UNL A   1      32.759  23.238  23.105  1.00  0.00     0.253 C 
ATOM     25  C   UNL A   1      32.302  22.951  25.914  1.00  0.00    -0.003 A 
ATOM     26  N   UNL A   1      33.787  22.837  23.944  1.00  0.00    -0.212 NA
ATOM     27  O   UNL A   1      32.985  23.562  21.940  1.00  0.00    -0.272 OA
ATOM     28  C   UNL A   1      32.125  22.772  27.327  1.00  0.00     0.010 A 
ATOM     29  C   UNL A   1      33.586  22.725  25.219  1.00  0.00     0.077 A 
ATOM     30  C   UNL A   1      33.179  22.466  28.084  1.00  0.00     0.001 A 
ATOM     31  C   UNL A   1      34.729  22.519  26.173  1.00  0.00    -0.025 A 
ATOM     32  C   UNL A   1      34.499  22.415  27.497  1.00  0.00     0.005 A 
ATOM     33  C   UNL A   1      36.095  22.635  25.585  1.00  0.00     0.047 C 
ENDBRANCH  21  22
ENDBRANCH  13  21
ENDBRANCH   7   9
ENDBRANCH   6   7
ENDBRANCH   5   6
ENDBRANCH   3   5
ENDBRANCH   2   3
ENDBRANCH   1   2
BRANCH   1  34
ATOM     34  C   UNL A   1      34.086  31.745  27.910  1.00  0.00     0.275 C 
BRANCH  34  35
ATOM     35  O   UNL A   1      35.455  31.261  28.179  1.00  0.00    -0.458 OA
BRANCH  35  36
ATOM     36  C   UNL A   1      36.149  30.694  29.218  1.00  0.00     0.338 C 
ATOM     37  O   UNL A   1      35.876  30.973  30.377  1.00  0.00    -0.246 OA
BRANCH  36  38
ATOM     38  C   UNL A   1      37.079  29.613  28.833  1.00  0.00     0.060 A 
ATOM     39  C   UNL A   1      37.867  29.640  27.655  1.00  0.00     0.016 A 
ATOM     40  C   UNL A   1      37.407  28.795  29.874  1.00  0.00     0.016 A 
ATOM     41  C   UNL A   1      39.097  28.961  27.617  1.00  0.00     0.010 A 
ATOM     42  C   UNL A   1      38.720  28.467  29.944  1.00  0.00     0.010 A 
ATOM     43  C   UNL A   1      39.550  28.416  28.811  1.00  0.00    -0.014 A 
BRANCH  43  44
ATOM     44  C   UNL A   1      40.704  27.558  29.097  1.00  0.00     0.031 A 
ATOM     45  C   UNL A   1      40.844  26.156  28.650  1.00  0.00     0.074 A 
ATOM     46  C   UNL A   1      41.768  28.325  29.464  1.00  0.00     0.049 A 
ATOM     47  N   UNL A   1      41.714  25.329  29.113  1.00  0.00    -0.248 NA
ATOM     48  C   UNL A   1      40.039  25.533  27.607  1.00  0.00     0.031 C 
ATOM     49  C   UNL A   1      43.195  28.113  29.387  1.00  0.00     0.029 A 
ATOM     50  N   UNL A   1      41.709  29.646  29.951  1.00  0.00    -0.354 N 
ATOM     51  C   UNL A   1      41.815  24.276  28.215  1.00  0.00     0.074 A 
ATOM     52  C   UNL A   1      40.640  24.354  27.397  1.00  0.00     0.031 C 
ATOM     53  C   UNL A   1      43.805  29.057  30.143  1.00  0.00     0.029 A 
ATOM     54  C   UNL A   1      42.761  29.834  30.814  1.00  0.00     0.049 A 
ATOM     55  H   UNL A   1      41.031  30.317  29.713  1.00  0.00     0.167 HD
ATOM     56  C   UNL A   1      42.990  23.592  28.120  1.00  0.00     0.031 A 
ATOM     57  C   UNL A   1      42.444  29.880  32.145  1.00  0.00     0.031 A 
ATOM     58  C   UNL A   1      43.973  24.223  28.994  1.00  0.00     0.049 A 
ATOM     59  C   UNL A   1      42.967  28.612  32.774  1.00  0.00     0.074 A 
ATOM     60  C   UNL A   1      44.998  25.118  28.742  1.00  0.00     0.029 A 
ATOM     61  N   UNL A   1      43.726  24.265  30.356  1.00  0.00    -0.354 N 
ATOM     62  N   UNL A   1      43.076  27.472  32.142  1.00  0.00    -0.248 NA
ATOM     63  C   UNL A   1      43.555  28.580  34.104  1.00  0.00     0.031 C 
ATOM     64  C   UNL A   1      45.308  25.766  29.971  1.00  0.00     0.029 A 
ATOM     65  C   UNL A   1      44.464  25.266  30.953  1.00  0.00     0.049 A 
ATOM     66  H   UNL A   1      43.108  23.663  30.832  1.00  0.00     0.167 HD
ATOM     67  C   UNL A   1      43.878  26.637  32.865  1.00  0.00     0.074 A 
ATOM     68  C   UNL A   1      44.103  27.354  34.111  1.00  0.00     0.031 C 
ATOM     69  C   UNL A   1      44.367  25.452  32.391  1.00  0.00     0.031 A 
BRANCH  56  70
ATOM     70  C   UNL A   1      43.391  22.548  27.096  1.00  0.00    -0.014 A 
ATOM     71  C   UNL A   1      44.653  22.685  26.470  1.00  0.00     0.010 A 
ATOM     72  C   UNL A   1      42.647  21.408  26.739  1.00  0.00     0.010 A 
ATOM     73  C   UNL A   1      45.143  21.765  25.537  1.00  0.00     0.020 A 
ATOM     74  C   UNL A   1      43.127  20.474  25.791  1.00  0.00     0.020 A 
ATOM     75  C   UNL A   1      44.377  20.658  25.201  1.00  0.00     0.054 A 
BRANCH  75  76
ATOM     76  S   UNL A   1      45.070  19.466  24.024  1.00  0.00     0.124 S 
ATOM     77  O   UNL A   1      44.452  18.211  24.448  1.00  0.00    -0.237 OA
ATOM     78  O   UNL A   1      44.610  19.987  22.739  1.00  0.00    -0.237 OA
ATOM     79  O   UNL A   1      46.511  19.550  24.248  1.00  0.00    -0.744 OA
ENDBRANCH  75  76
ENDBRANCH  56  70
BRANCH  57  80
ATOM     80  C   UNL A   1      41.117  30.568  32.426  1.00  0.00    -0.014 A 
ATOM     81  C   UNL A   1      40.098  29.773  33.010  1.00  0.00     0.010 A 
ATOM     82  C   UNL A   1      41.001  31.970  32.569  1.00  0.00     0.010 A 
ATOM     83  C   UNL A   1      39.082  30.334  33.801  1.00  0.00     0.020 A 
ATOM     84  C   UNL A   1      39.970  32.538  33.354  1.00  0.00     0.020 A 
ATOM     85  C   UNL A   1      39.039  31.713  33.993  1.00  0.00     0.054 A 
BRANCH  85  86
ATOM     86  S   UNL A   1      37.880  32.361  35.250  1.00  0.00     0.124 S 
ATOM     87  O   UNL A   1      38.620  33.496  35.793  1.00  0.00    -0.237 OA
ATOM     88  O   UNL A   1      36.722  32.701  34.427  1.00  0.00    -0.237 OA
ATOM     89  O   UNL A   1      37.706  31.232  36.159  1.00  0.00    -0.744 OA
ENDBRANCH  85  86
ENDBRANCH  57  80
BRANCH  69  90
ATOM     90  C   UNL A   1      44.852  24.323  33.259  1.00  0.00    -0.014 A 
ATOM     91  C   UNL A   1      46.156  24.250  33.757  1.00  0.00     0.010 A 
ATOM     92  C   UNL A   1      43.915  23.380  33.757  1.00  0.00     0.010 A 
ATOM     93  C   UNL A   1      46.533  23.241  34.642  1.00  0.00     0.020 A 
ATOM     94  C   UNL A   1      44.260  22.422  34.704  1.00  0.00     0.020 A 
ATOM     95  C   UNL A   1      45.582  22.336  35.109  1.00  0.00     0.054 A 
BRANCH  95  96
ATOM     96  S   UNL A   1      46.094  21.066  36.280  1.00  0.00     0.124 S 
ATOM     97  O   UNL A   1      47.546  21.093  36.123  1.00  0.00    -0.237 OA
ATOM     98  O   UNL A   1      45.590  21.582  37.551  1.00  0.00    -0.237 OA
ATOM     99  O   UNL A   1      45.430  19.860  35.796  1.00  0.00    -0.744 OA
ENDBRANCH  95  96
ENDBRANCH  69  90
ENDBRANCH  43  44
ENDBRANCH  36  38
ENDBRANCH  35  36
ENDBRANCH  34  35
ENDBRANCH   1  34
TORSDOF 20
ENDMDL
MODEL 2
REMARK VINA RESULT:     -12.2      3.437      6.900
REMARK SMILES Cc1ccc(C2=NN(C(=O)CCC(=O)OCCOC(=O)c3ccc(-c4c5nc(c(-c6ccc(S(=O)(=O)[O-])cc6)c6ccc([nH]6)c(-c6ccc(S(=O)(=O)[O-])cc6)c6nc(c(-c7ccc(S(=O)(=O)[O-])cc7)c7ccc4[nH]7)C=C6)C=C5)cc3)[C@H](C[C@@H]3C=c4cccc(C)c4=NC3=O)C2)cc1
REMARK SMILES IDX 16 1 15 2 13 3 14 4 12 5 11 6 9 7 10 8 8 9 6 10 7 11 95 12
REMARK SMILES IDX 81 13 5 14 1 15 2 16 3 17 97 18 4 19 96 20 82 21 83 22 84 23
REMARK SMILES IDX 93 24 85 25 92 26 94 27 86 28 91 29 87 30 89 31 88 32 90 33
REMARK SMILES IDX 17 34 18 35 19 36 20 37 21 38 22 39 80 40 23 41 79 42 24 43
REMARK SMILES IDX 25 44 26 45 73 46 27 47 78 48 72 49 74 50 28 51 77 52 71 53
REMARK SMILES IDX 70 54 29 56 59 57 40 58 58 59 41 60 44 61 57 62 75 63 42 64
REMARK SMILES IDX 43 65 56 67 76 68 45 69 30 70 31 71 39 72 32 73 38 74 33 75
REMARK SMILES IDX 34 76 35 77 36 78 37 79 60 80 61 81 69 82 62 83 68 84 63 85
REMARK SMILES IDX 64 86 65 87 66 88 67 89 46 90 47 91 55 92 48 93 54 94 49 95
REMARK SMILES IDX 50 96 51 97 52 98 53 99
REMARK H PARENT 74 55 44 66
REMARK Flexibility Score: inf
ROOT
ATOM      1  C   UNL A   1      31.849  29.432  25.176  1.00  0.00     0.274 C 
ENDROOT
BRANCH   1   2
ATOM      2  O   UNL A   1      31.800  28.125  24.541  1.00  0.00    -0.462 OA
BRANCH   2   3
ATOM      3  C   UNL A   1      32.908  27.391  24.333  1.00  0.00     0.306 C 
ATOM      4  O   UNL A   1      34.017  27.849  24.207  1.00  0.00    -0.252 OA
BRANCH   3   5
ATOM      5  C   UNL A   1      32.736  25.918  24.466  1.00  0.00     0.132 C 
BRANCH   5   6
ATOM      6  C   UNL A   1      33.796  25.286  23.589  1.00  0.00     0.114 C 
BRANCH   6   7
ATOM      7  C   UNL A   1      33.482  23.821  23.395  1.00  0.00     0.243 C 
ATOM      8  O   UNL A   1      32.505  23.546  22.684  1.00  0.00    -0.273 OA
BRANCH   7   9
ATOM      9  N   UNL A   1      34.222  22.827  24.040  1.00  0.00    -0.230 N 
ATOM     10  C   UNL A   1      34.193  20.764  24.663  1.00  0.00     0.070 C 
ATOM     11  N   UNL A   1      33.655  21.588  23.834  1.00  0.00    -0.174 NA
ATOM     12  C   UNL A   1      35.352  21.258  25.446  1.00  0.00     0.086 C 
ATOM     13  C   UNL A   1      35.210  22.755  25.180  1.00  0.00     0.118 C 
BRANCH  10  14
ATOM     14  C   UNL A   1      33.786  19.380  24.757  1.00  0.00    -0.002 A 
ATOM     15  C   UNL A   1      32.833  15.245  25.083  1.00  0.00     0.044 C 
ATOM     16  C   UNL A   1      33.141  16.705  24.955  1.00  0.00    -0.051 A 
ATOM     17  C   UNL A   1      34.446  17.091  24.616  1.00  0.00     0.004 A 
ATOM     18  C   UNL A   1      32.153  17.680  25.168  1.00  0.00     0.004 A 
ATOM     19  C   UNL A   1      34.771  18.432  24.512  1.00  0.00     0.010 A 
ATOM     20  C   UNL A   1      32.473  19.032  25.069  1.00  0.00     0.010 A 
ENDBRANCH  10  14
BRANCH  13  21
ATOM     21  C   UNL A   1      36.614  23.414  25.175  1.00  0.00     0.045 C 
BRANCH  21  22
ATOM     22  C   UNL A   1      37.605  22.946  26.242  1.00  0.00     0.106 C 
ATOM     23  C   UNL A   1      38.308  24.145  26.754  1.00  0.00    -0.003 C 
ATOM     24  C   UNL A   1      38.603  21.877  25.755  1.00  0.00     0.253 C 
ATOM     25  C   UNL A   1      39.528  24.128  27.259  1.00  0.00    -0.003 A 
ATOM     26  N   UNL A   1      39.911  21.923  26.215  1.00  0.00    -0.212 NA
ATOM     27  O   UNL A   1      38.250  21.025  24.941  1.00  0.00    -0.272 OA
ATOM     28  C   UNL A   1      40.041  25.222  28.033  1.00  0.00     0.010 A 
ATOM     29  C   UNL A   1      40.336  22.951  26.879  1.00  0.00     0.077 A 
ATOM     30  C   UNL A   1      41.331  25.237  28.370  1.00  0.00     0.001 A 
ATOM     31  C   UNL A   1      41.796  23.130  27.187  1.00  0.00    -0.025 A 
ATOM     32  C   UNL A   1      42.219  24.212  27.871  1.00  0.00     0.005 A 
ATOM     33  C   UNL A   1      42.722  22.162  26.531  1.00  0.00     0.047 C 
ENDBRANCH  21  22
ENDBRANCH  13  21
ENDBRANCH   7   9
ENDBRANCH   6   7
ENDBRANCH   5   6
ENDBRANCH   3   5
ENDBRANCH   2   3
ENDBRANCH   1   2
BRANCH   1  34
ATOM     34  C   UNL A   1      31.789  29.785  26.711  1.00  0.00     0.275 C 
BRANCH  34  35
ATOM     35  O   UNL A   1      32.632  30.634  27.577  1.00  0.00    -0.458 OA
BRANCH  35  36
ATOM     36  C   UNL A   1      33.196  31.885  27.539  1.00  0.00     0.338 C 
ATOM     37  O   UNL A   1      32.497  32.886  27.594  1.00  0.00    -0.246 OA
BRANCH  36  38
ATOM     38  C   UNL A   1      34.670  31.910  27.625  1.00  0.00     0.060 A 
ATOM     39  C   UNL A   1      35.425  33.099  27.783  1.00  0.00     0.016 A 
ATOM     40  C   UNL A   1      35.207  30.695  27.935  1.00  0.00     0.016 A 
ATOM     41  C   UNL A   1      36.672  33.058  28.431  1.00  0.00     0.010 A 
ATOM     42  C   UNL A   1      36.202  30.733  28.853  1.00  0.00     0.010 A 
ATOM     43  C   UNL A   1      37.031  31.856  29.026  1.00  0.00    -0.014 A 
BRANCH  43  44
ATOM     44  C   UNL A   1      38.283  31.437  29.664  1.00  0.00     0.031 A 
ATOM     45  C   UNL A   1      39.099  30.280  29.242  1.00  0.00     0.074 A 
ATOM     46  C   UNL A   1      38.786  32.462  30.407  1.00  0.00     0.049 A 
ATOM     47  N   UNL A   1      40.038  29.757  29.949  1.00  0.00    -0.248 NA
ATOM     48  C   UNL A   1      38.970  29.596  27.962  1.00  0.00     0.031 C 
ATOM     49  C   UNL A   1      40.128  32.797  30.825  1.00  0.00     0.029 A 
ATOM     50  N   UNL A   1      38.060  33.569  30.892  1.00  0.00    -0.354 N 
ATOM     51  C   UNL A   1      40.820  28.981  29.103  1.00  0.00     0.074 A 
ATOM     52  C   UNL A   1      40.022  28.768  27.930  1.00  0.00     0.031 C 
ATOM     53  C   UNL A   1      40.048  33.753  31.780  1.00  0.00     0.029 A 
ATOM     54  C   UNL A   1      38.631  33.974  32.073  1.00  0.00     0.049 A 
ATOM     55  H   UNL A   1      37.279  33.980  30.457  1.00  0.00     0.167 HD
ATOM     56  C   UNL A   1      42.137  28.795  29.399  1.00  0.00     0.031 A 
ATOM     57  C   UNL A   1      37.931  33.674  33.211  1.00  0.00     0.031 A 
ATOM     58  C   UNL A   1      42.469  29.579  30.583  1.00  0.00     0.049 A 
ATOM     59  C   UNL A   1      38.695  32.593  33.936  1.00  0.00     0.074 A 
ATOM     60  C   UNL A   1      43.076  30.813  30.738  1.00  0.00     0.029 A 
ATOM     61  N   UNL A   1      41.821  29.295  31.774  1.00  0.00    -0.354 N 
ATOM     62  N   UNL A   1      39.436  31.696  33.340  1.00  0.00    -0.248 NA
ATOM     63  C   UNL A   1      38.809  32.549  35.385  1.00  0.00     0.031 C 
ATOM     64  C   UNL A   1      42.710  31.308  32.021  1.00  0.00     0.029 A 
ATOM     65  C   UNL A   1      41.879  30.377  32.628  1.00  0.00     0.049 A 
ATOM     66  H   UNL A   1      41.381  28.439  31.982  1.00  0.00     0.167 HD
ATOM     67  C   UNL A   1      40.241  31.096  34.266  1.00  0.00     0.074 A 
ATOM     68  C   UNL A   1      39.769  31.622  35.538  1.00  0.00     0.031 C 
ATOM     69  C   UNL A   1      41.280  30.267  33.948  1.00  0.00     0.031 A 
BRANCH  56  70
ATOM     70  C   UNL A   1      43.213  28.158  28.541  1.00  0.00    -0.014 A 
ATOM     71  C   UNL A   1      44.085  27.228  29.155  1.00  0.00     0.010 A 
ATOM     72  C   UNL A   1      43.400  28.360  27.160  1.00  0.00     0.010 A 
ATOM     73  C   UNL A   1      45.092  26.553  28.455  1.00  0.00     0.020 A 
ATOM     74  C   UNL A   1      44.418  27.690  26.442  1.00  0.00     0.020 A 
ATOM     75  C   UNL A   1      45.254  26.785  27.097  1.00  0.00     0.054 A 
BRANCH  75  76
ATOM     76  S   UNL A   1      46.538  25.853  26.219  1.00  0.00     0.124 S 
ATOM     77  O   UNL A   1      45.788  25.238  25.126  1.00  0.00    -0.237 OA
ATOM     78  O   UNL A   1      47.474  26.903  25.823  1.00  0.00    -0.237 OA
ATOM     79  O   UNL A   1      47.041  24.919  27.224  1.00  0.00    -0.744 OA
ENDBRANCH  75  76
ENDBRANCH  56  70
BRANCH  57  80
ATOM     80  C   UNL A   1      36.424  33.777  33.038  1.00  0.00    -0.014 A 
ATOM     81  C   UNL A   1      35.724  34.551  34.000  1.00  0.00     0.010 A 
ATOM     82  C   UNL A   1      35.782  33.558  31.798  1.00  0.00     0.010 A 
ATOM     83  C   UNL A   1      34.504  35.178  33.701  1.00  0.00     0.020 A 
ATOM     84  C   UNL A   1      34.545  34.178  31.499  1.00  0.00     0.020 A 
ATOM     85  C   UNL A   1      33.933  35.012  32.441  1.00  0.00     0.054 A 
BRANCH  85  86
ATOM     86  S   UNL A   1      32.505  36.068  32.009  1.00  0.00     0.124 S 
ATOM     87  O   UNL A   1      32.615  36.153  30.556  1.00  0.00    -0.237 OA
ATOM     88  O   UNL A   1      31.390  35.266  32.509  1.00  0.00    -0.237 OA
ATOM     89  O   UNL A   1      32.774  37.308  32.731  1.00  0.00    -0.744 OA
ENDBRANCH  85  86
ENDBRANCH  57  80
BRANCH  69  90
ATOM     90  C   UNL A   1      41.884  29.260  34.887  1.00  0.00    -0.014 A 
ATOM     91  C   UNL A   1      41.519  27.911  34.897  1.00  0.00     0.010 A 
ATOM     92  C   UNL A   1      43.004  29.633  35.676  1.00  0.00     0.010 A 
ATOM     93  C   UNL A   1      42.178  26.993  35.714  1.00  0.00     0.020 A 
ATOM     94  C   UNL A   1      43.721  28.710  36.429  1.00  0.00     0.020 A 
ATOM     95  C   UNL A   1      43.275  27.399  36.472  1.00  0.00     0.054 A 
BRANCH  95  96
ATOM     96  S   UNL A   1      44.128  26.180  37.487  1.00  0.00     0.124 S 
ATOM     97  O   UNL A   1      43.385  24.964  37.168  1.00  0.00    -0.237 OA
ATOM     98  O   UNL A   1      45.494  26.235  36.972  1.00  0.00    -0.237 OA
ATOM     99  O   UNL A   1      43.959  26.683  38.847  1.00  0.00    -0.744 OA
ENDBRANCH  95  96
ENDBRANCH  69  90
ENDBRANCH  43  44
ENDBRANCH  36  38
ENDBRANCH  35  36
ENDBRANCH  34  35
ENDBRANCH   1  34
TORSDOF 20
ENDMDL
MODEL 3
REMARK VINA RESULT:     -11.8      4.720     11.551
REMARK SMILES Cc1ccc(C2=NN(C(=O)CCC(=O)OCCOC(=O)c3ccc(-c4c5nc(c(-c6ccc(S(=O)(=O)[O-])cc6)c6ccc([nH]6)c(-c6ccc(S(=O)(=O)[O-])cc6)c6nc(c(-c7ccc(S(=O)(=O)[O-])cc7)c7ccc4[nH]7)C=C6)C=C5)cc3)[C@H](C[C@@H]3C=c4cccc(C)c4=NC3=O)C2)cc1
REMARK SMILES IDX 16 1 15 2 13 3 14 4 12 5 11 6 9 7 10 8 8 9 6 10 7 11 95 12
REMARK SMILES IDX 81 13 5 14 1 15 2 16 3 17 97 18 4 19 96 20 82 21 83 22 84 23
REMARK SMILES IDX 93 24 85 25 92 26 94 27 86 28 91 29 87 30 89 31 88 32 90 33
REMARK SMILES IDX 17 34 18 35 19 36 20 37 21 38 22 39 80 40 23 41 79 42 24 43
REMARK SMILES IDX 25 44 26 45 73 46 27 47 78 48 72 49 74 50 28 51 77 52 71 53
REMARK SMILES IDX 70 54 29 56 59 57 40 58 58 59 41 60 44 61 57 62 75 63 42 64
REMARK SMILES IDX 43 65 56 67 76 68 45 69 30 70 31 71 39 72 32 73 38 74 33 75
REMARK SMILES IDX 34 76 35 77 36 78 37 79 60 80 61 81 69 82 62 83 68 84 63 85
REMARK SMILES IDX 64 86 65 87 66 88 67 89 46 90 47 91 55 92 48 93 54 94 49 95
REMARK SMILES IDX 50 96 51 97 52 98 53 99
REMARK H PARENT 74 55 44 66
REMARK Flexibility Score: inf
ROOT
ATOM      1  C   UNL A   1      40.390  22.565  26.838  1.00  0.00     0.274 C 
ENDROOT
BRANCH   1   2
ATOM      2  O   UNL A   1      39.001  22.675  26.421  1.00  0.00    -0.462 OA
BRANCH   2   3
ATOM      3  C   UNL A   1      38.291  23.804  26.594  1.00  0.00     0.306 C 
ATOM      4  O   UNL A   1      38.775  24.893  26.782  1.00  0.00    -0.252 OA
BRANCH   3   5
ATOM      5  C   UNL A   1      36.829  23.688  26.337  1.00  0.00     0.132 C 
BRANCH   5   6
ATOM      6  C   UNL A   1      36.650  23.831  24.841  1.00  0.00     0.114 C 
BRANCH   6   7
ATOM      7  C   UNL A   1      36.263  22.494  24.250  1.00  0.00     0.243 C 
ATOM      8  O   UNL A   1      37.071  21.971  23.469  1.00  0.00    -0.273 OA
BRANCH   7   9
ATOM      9  N   UNL A   1      35.025  21.909  24.524  1.00  0.00    -0.230 N 
ATOM     10  C   UNL A   1      33.994  20.026  24.718  1.00  0.00     0.070 C 
ATOM     11  N   UNL A   1      35.165  20.558  24.754  1.00  0.00    -0.174 NA
ATOM     12  C   UNL A   1      32.837  20.952  24.644  1.00  0.00     0.086 C 
ATOM     13  C   UNL A   1      33.572  22.237  24.269  1.00  0.00     0.118 C 
BRANCH  10  14
ATOM     14  C   UNL A   1      33.782  18.604  24.865  1.00  0.00    -0.002 A 
ATOM     15  C   UNL A   1      32.918  14.468  25.375  1.00  0.00     0.044 C 
ATOM     16  C   UNL A   1      33.251  15.917  25.195  1.00  0.00    -0.051 A 
ATOM     17  C   UNL A   1      32.522  16.872  25.918  1.00  0.00     0.004 A 
ATOM     18  C   UNL A   1      34.272  16.326  24.321  1.00  0.00     0.004 A 
ATOM     19  C   UNL A   1      32.789  18.220  25.757  1.00  0.00     0.010 A 
ATOM     20  C   UNL A   1      34.545  17.681  24.151  1.00  0.00     0.010 A 
ENDBRANCH  10  14
BRANCH  13  21
ATOM     21  C   UNL A   1      32.823  23.454  24.872  1.00  0.00     0.045 C 
BRANCH  21  22
ATOM     22  C   UNL A   1      33.114  24.824  24.255  1.00  0.00     0.106 C 
ATOM     23  C   UNL A   1      33.497  25.737  25.358  1.00  0.00    -0.003 C 
ATOM     24  C   UNL A   1      31.954  25.406  23.423  1.00  0.00     0.253 C 
ATOM     25  C   UNL A   1      33.318  27.045  25.331  1.00  0.00    -0.003 A 
ATOM     26  N   UNL A   1      31.711  26.770  23.476  1.00  0.00    -0.212 NA
ATOM     27  O   UNL A   1      31.235  24.661  22.759  1.00  0.00    -0.272 OA
ATOM     28  C   UNL A   1      33.986  27.917  26.253  1.00  0.00     0.010 A 
ATOM     29  C   UNL A   1      32.314  27.510  24.352  1.00  0.00     0.077 A 
ATOM     30  C   UNL A   1      33.641  29.204  26.303  1.00  0.00     0.001 A 
ATOM     31  C   UNL A   1      31.901  28.937  24.583  1.00  0.00    -0.025 A 
ATOM     32  C   UNL A   1      32.535  29.686  25.507  1.00  0.00     0.005 A 
ATOM     33  C   UNL A   1      30.660  29.376  23.882  1.00  0.00     0.047 C 
ENDBRANCH  21  22
ENDBRANCH  13  21
ENDBRANCH   7   9
ENDBRANCH   6   7
ENDBRANCH   5   6
ENDBRANCH   3   5
ENDBRANCH   2   3
ENDBRANCH   1   2
BRANCH   1  34
ATOM     34  C   UNL A   1      41.682  23.107  26.115  1.00  0.00     0.275 C 
BRANCH  34  35
ATOM     35  O   UNL A   1      43.086  23.250  26.548  1.00  0.00    -0.458 OA
BRANCH  35  36
ATOM     36  C   UNL A   1      43.911  24.242  27.018  1.00  0.00     0.338 C 
ATOM     37  O   UNL A   1      45.092  24.272  26.702  1.00  0.00    -0.246 OA
BRANCH  36  38
ATOM     38  C   UNL A   1      43.228  25.332  27.743  1.00  0.00     0.060 A 
ATOM     39  C   UNL A   1      43.124  25.388  29.155  1.00  0.00     0.016 A 
ATOM     40  C   UNL A   1      43.061  26.454  26.985  1.00  0.00     0.016 A 
ATOM     41  C   UNL A   1      43.027  26.631  29.804  1.00  0.00     0.010 A 
ATOM     42  C   UNL A   1      43.332  27.616  27.627  1.00  0.00     0.010 A 
ATOM     43  C   UNL A   1      43.194  27.764  29.018  1.00  0.00    -0.014 A 
BRANCH  43  44
ATOM     44  C   UNL A   1      43.038  29.186  29.339  1.00  0.00     0.031 A 
ATOM     45  C   UNL A   1      41.744  29.863  29.562  1.00  0.00     0.074 A 
ATOM     46  C   UNL A   1      44.221  29.688  29.791  1.00  0.00     0.049 A 
ATOM     47  N   UNL A   1      41.585  31.139  29.580  1.00  0.00    -0.248 NA
ATOM     48  C   UNL A   1      40.484  29.179  29.821  1.00  0.00     0.031 C 
ATOM     49  C   UNL A   1      44.541  30.797  30.660  1.00  0.00     0.029 A 
ATOM     50  N   UNL A   1      45.497  29.131  29.572  1.00  0.00    -0.354 N 
ATOM     51  C   UNL A   1      40.368  31.405  30.192  1.00  0.00     0.074 A 
ATOM     52  C   UNL A   1      39.644  30.166  30.162  1.00  0.00     0.031 C 
ATOM     53  C   UNL A   1      45.869  31.042  30.563  1.00  0.00     0.029 A 
ATOM     54  C   UNL A   1      46.413  30.153  29.534  1.00  0.00     0.049 A 
ATOM     55  H   UNL A   1      45.696  28.173  29.464  1.00  0.00     0.167 HD
ATOM     56  C   UNL A   1      40.198  32.584  30.854  1.00  0.00     0.031 A 
ATOM     57  C   UNL A   1      46.908  30.469  28.298  1.00  0.00     0.031 A 
ATOM     58  C   UNL A   1      41.458  33.319  30.835  1.00  0.00     0.049 A 
ATOM     59  C   UNL A   1      46.330  31.809  27.913  1.00  0.00     0.074 A 
ATOM     60  C   UNL A   1      42.464  33.458  31.775  1.00  0.00     0.029 A 
ATOM     61  N   UNL A   1      41.990  33.701  29.615  1.00  0.00    -0.354 N 
ATOM     62  N   UNL A   1      45.160  32.241  28.304  1.00  0.00    -0.248 NA
ATOM     63  C   UNL A   1      47.096  32.818  27.198  1.00  0.00     0.031 C 
ATOM     64  C   UNL A   1      43.642  33.852  31.080  1.00  0.00     0.029 A 
ATOM     65  C   UNL A   1      43.343  33.939  29.728  1.00  0.00     0.049 A 
ATOM     66  H   UNL A   1      41.472  33.789  28.781  1.00  0.00     0.167 HD
ATOM     67  C   UNL A   1      45.081  33.585  28.074  1.00  0.00     0.074 A 
ATOM     68  C   UNL A   1      46.293  33.887  27.327  1.00  0.00     0.031 C 
ATOM     69  C   UNL A   1      44.082  34.382  28.557  1.00  0.00     0.031 A 
BRANCH  56  70
ATOM     70  C   UNL A   1      39.045  33.006  31.743  1.00  0.00    -0.014 A 
ATOM     71  C   UNL A   1      37.793  33.252  31.132  1.00  0.00     0.010 A 
ATOM     72  C   UNL A   1      39.081  33.127  33.146  1.00  0.00     0.010 A 
ATOM     73  C   UNL A   1      36.651  33.613  31.856  1.00  0.00     0.020 A 
ATOM     74  C   UNL A   1      37.936  33.499  33.889  1.00  0.00     0.020 A 
ATOM     75  C   UNL A   1      36.726  33.733  33.236  1.00  0.00     0.054 A 
BRANCH  75  76
ATOM     76  S   UNL A   1      35.211  34.155  34.140  1.00  0.00     0.124 S 
ATOM     77  O   UNL A   1      35.067  35.583  33.860  1.00  0.00    -0.237 OA
ATOM     78  O   UNL A   1      34.217  33.291  33.509  1.00  0.00    -0.237 OA
ATOM     79  O   UNL A   1      35.529  33.827  35.527  1.00  0.00    -0.744 OA
ENDBRANCH  75  76
ENDBRANCH  56  70
BRANCH  57  80
ATOM     80  C   UNL A   1      47.106  29.259  27.399  1.00  0.00    -0.014 A 
ATOM     81  C   UNL A   1      46.207  29.120  26.310  1.00  0.00     0.010 A 
ATOM     82  C   UNL A   1      48.337  28.569  27.310  1.00  0.00     0.010 A 
ATOM     83  C   UNL A   1      46.564  28.432  25.139  1.00  0.00     0.020 A 
ATOM     84  C   UNL A   1      48.692  27.863  26.136  1.00  0.00     0.020 A 
ATOM     85  C   UNL A   1      47.816  27.830  25.046  1.00  0.00     0.054 A 
BRANCH  85  86
ATOM     86  S   UNL A   1      48.337  27.199  23.411  1.00  0.00     0.124 S 
ATOM     87  O   UNL A   1      47.446  27.918  22.506  1.00  0.00    -0.237 OA
ATOM     88  O   UNL A   1      49.738  27.613  23.374  1.00  0.00    -0.237 OA
ATOM     89  O   UNL A   1      48.100  25.762  23.514  1.00  0.00    -0.744 OA
ENDBRANCH  85  86
ENDBRANCH  57  80
BRANCH  69  90
ATOM     90  C   UNL A   1      43.708  35.720  27.982  1.00  0.00    -0.014 A 
ATOM     91  C   UNL A   1      42.653  35.897  27.083  1.00  0.00     0.010 A 
ATOM     92  C   UNL A   1      44.318  36.893  28.502  1.00  0.00     0.010 A 
ATOM     93  C   UNL A   1      42.276  37.169  26.655  1.00  0.00     0.020 A 
ATOM     94  C   UNL A   1      43.894  38.168  28.148  1.00  0.00     0.020 A 
ATOM     95  C   UNL A   1      42.898  38.295  27.192  1.00  0.00     0.054 A 
BRANCH  95  96
ATOM     96  S   UNL A   1      42.362  39.926  26.647  1.00  0.00     0.124 S 
ATOM     97  O   UNL A   1      43.446  40.301  25.743  1.00  0.00    -0.237 OA
ATOM     98  O   UNL A   1      41.079  39.643  26.006  1.00  0.00    -0.237 OA
ATOM     99  O   UNL A   1      42.279  40.695  27.885  1.00  0.00    -0.744 OA
ENDBRANCH  95  96
ENDBRANCH  69  90
ENDBRANCH  43  44
ENDBRANCH  36  38
ENDBRANCH  35  36
ENDBRANCH  34  35
ENDBRANCH   1  34
TORSDOF 20
ENDMDL
