MODEL 1
REMARK VINA RESULT:     -11.3      0.000      0.000
REMARK SMILES COc1ccc(NC(=O)[C@@H]2[C@@H](C(=O)OCCOC(=O)c3ccc(-c4c5nc(c(-c6ccc(S(=O)(=O)[O-])cc6)c6ccc([nH]6)c(-c6ccc(S(=O)(=O)[O-])cc6)c6nc(c(-c7ccc(S(=O)(=O)[O-])cc7)c7ccc4[nH]7)C=C6)C=C5)cc3)[C@@H]3CC[C@H]2C3=C(C)C)cc1
REMARK SMILES IDX 15 1 14 2 12 3 13 4 11 5 10 6 83 7 80 8 82 9 84 10 81 11
REMARK SMILES IDX 85 12 86 13 87 14 8 15 7 16 9 18 6 19 3 20 4 21 89 22 5 23
REMARK SMILES IDX 88 24 2 25 1 26 16 27 17 28 18 29 19 30 20 31 21 32 79 33
REMARK SMILES IDX 22 34 78 35 23 36 24 37 25 38 72 39 26 40 77 41 71 42 73 43
REMARK SMILES IDX 27 44 76 45 70 46 69 47 28 49 58 50 39 51 57 52 40 53 43 54
REMARK SMILES IDX 56 55 74 56 41 57 42 58 55 60 75 61 44 62 29 63 30 64 38 65
REMARK SMILES IDX 31 66 37 67 32 68 33 69 34 70 35 71 36 72 59 73 60 74 68 75
REMARK SMILES IDX 61 76 67 77 62 78 63 79 64 80 65 81 66 82 45 83 46 84 54 85
REMARK SMILES IDX 47 86 53 87 48 88 49 89 50 90 51 91 52 92
REMARK H PARENT 7 17 73 48 43 59
REMARK Flexibility Score: inf
ROOT
ATOM      1  C   UNL A   1      32.885  29.071  25.781  1.00  0.00     0.274 C 
ENDROOT
BRANCH   1   2
ATOM      2  O   UNL A   1      31.519  28.609  25.818  1.00  0.00    -0.462 OA
BRANCH   2   3
ATOM      3  C   UNL A   1      31.294  27.516  26.591  1.00  0.00     0.310 C 
ATOM      4  O   UNL A   1      31.489  27.474  27.800  1.00  0.00    -0.252 OA
BRANCH   3   5
ATOM      5  C   UNL A   1      30.748  26.326  25.832  1.00  0.00     0.119 C 
ATOM      6  C   UNL A   1      31.608  25.040  25.901  1.00  0.00     0.101 C 
ATOM      7  C   UNL A   1      31.698  24.638  24.401  1.00  0.00     0.029 C 
ATOM      8  C   UNL A   1      30.636  26.631  24.323  1.00  0.00     0.030 C 
ATOM      9  C   UNL A   1      30.316  24.322  23.773  1.00  0.00     0.009 C 
ATOM     10  C   UNL A   1      31.889  25.999  23.789  1.00  0.00    -0.064 C 
ATOM     11  C   UNL A   1      29.601  25.682  23.716  1.00  0.00     0.009 C 
ATOM     12  C   UNL A   1      32.833  26.493  22.974  1.00  0.00    -0.077 C 
ATOM     13  C   UNL A   1      32.772  27.881  22.393  1.00  0.00     0.039 C 
ATOM     14  C   UNL A   1      34.017  25.677  22.542  1.00  0.00     0.039 C 
BRANCH   6  15
ATOM     15  C   UNL A   1      31.014  23.906  26.741  1.00  0.00     0.228 C 
ATOM     16  N   UNL A   1      31.761  22.822  27.105  1.00  0.00    -0.326 N 
ATOM     17  H   UNL A   1      31.432  22.357  27.908  1.00  0.00     0.169 HD
ATOM     18  O   UNL A   1      29.848  23.947  27.143  1.00  0.00    -0.274 OA
BRANCH  16  19
ATOM     19  C   UNL A   1      32.911  22.251  26.546  1.00  0.00     0.041 A 
ATOM     20  C   UNL A   1      35.132  20.988  25.390  1.00  0.00     0.119 A 
ATOM     21  C   UNL A   1      35.311  22.009  26.322  1.00  0.00     0.048 A 
ATOM     22  C   UNL A   1      33.842  20.627  25.006  1.00  0.00     0.048 A 
ATOM     23  C   UNL A   1      34.202  22.646  26.893  1.00  0.00     0.030 A 
ATOM     24  C   UNL A   1      32.736  21.279  25.557  1.00  0.00     0.030 A 
BRANCH  20  25
ATOM     25  O   UNL A   1      36.152  20.216  24.913  1.00  0.00    -0.497 OA
ATOM     26  C   UNL A   1      37.430  20.837  24.909  1.00  0.00     0.278 C 
ENDBRANCH  20  25
ENDBRANCH  16  19
ENDBRANCH   6  15
ENDBRANCH   3   5
ENDBRANCH   2   3
ENDBRANCH   1   2
BRANCH   1  27
ATOM     27  C   UNL A   1      33.108  30.354  26.585  1.00  0.00     0.275 C 
BRANCH  27  28
ATOM     28  O   UNL A   1      33.567  30.055  27.914  1.00  0.00    -0.458 OA
BRANCH  28  29
ATOM     29  C   UNL A   1      34.517  30.885  28.396  1.00  0.00     0.338 C 
ATOM     30  O   UNL A   1      34.359  32.015  28.834  1.00  0.00    -0.246 OA
BRANCH  29  31
ATOM     31  C   UNL A   1      35.816  30.200  28.448  1.00  0.00     0.060 A 
ATOM     32  C   UNL A   1      36.237  29.701  29.680  1.00  0.00     0.016 A 
ATOM     33  C   UNL A   1      36.685  30.203  27.358  1.00  0.00     0.016 A 
ATOM     34  C   UNL A   1      37.540  29.270  29.862  1.00  0.00     0.010 A 
ATOM     35  C   UNL A   1      37.993  29.732  27.529  1.00  0.00     0.010 A 
ATOM     36  C   UNL A   1      38.437  29.302  28.792  1.00  0.00    -0.014 A 
BRANCH  36  37
ATOM     37  C   UNL A   1      39.856  28.977  29.061  1.00  0.00     0.031 A 
ATOM     38  C   UNL A   1      40.723  29.978  29.773  1.00  0.00     0.074 A 
ATOM     39  C   UNL A   1      40.329  27.754  28.758  1.00  0.00     0.049 A 
ATOM     40  N   UNL A   1      41.987  29.891  30.094  1.00  0.00    -0.248 NA
ATOM     41  C   UNL A   1      40.084  31.241  30.182  1.00  0.00     0.031 C 
ATOM     42  C   UNL A   1      39.560  26.680  28.126  1.00  0.00     0.029 A 
ATOM     43  N   UNL A   1      41.568  27.202  28.961  1.00  0.00    -0.354 N 
ATOM     44  C   UNL A   1      42.306  31.099  30.703  1.00  0.00     0.074 A 
ATOM     45  C   UNL A   1      41.102  31.902  30.713  1.00  0.00     0.031 C 
ATOM     46  C   UNL A   1      40.340  25.593  28.006  1.00  0.00     0.029 A 
ATOM     47  C   UNL A   1      41.673  25.909  28.512  1.00  0.00     0.049 A 
ATOM     48  H   UNL A   1      42.311  27.687  29.389  1.00  0.00     0.167 HD
ATOM     49  C   UNL A   1      43.497  31.502  31.204  1.00  0.00     0.031 A 
ATOM     50  C   UNL A   1      42.732  25.078  28.489  1.00  0.00     0.031 A 
ATOM     51  C   UNL A   1      44.682  30.688  31.219  1.00  0.00     0.049 A 
ATOM     52  C   UNL A   1      44.047  25.558  29.038  1.00  0.00     0.074 A 
ATOM     53  C   UNL A   1      45.937  31.002  31.713  1.00  0.00     0.029 A 
ATOM     54  N   UNL A   1      44.757  29.396  30.727  1.00  0.00    -0.354 N 
ATOM     55  N   UNL A   1      44.335  26.713  29.589  1.00  0.00    -0.248 NA
ATOM     56  C   UNL A   1      45.177  24.624  28.955  1.00  0.00     0.031 C 
ATOM     57  C   UNL A   1      46.780  29.908  31.488  1.00  0.00     0.029 A 
ATOM     58  C   UNL A   1      46.040  28.903  30.888  1.00  0.00     0.049 A 
ATOM     59  H   UNL A   1      44.008  28.900  30.323  1.00  0.00     0.167 HD
ATOM     60  C   UNL A   1      45.682  26.644  29.921  1.00  0.00     0.074 A 
ATOM     61  C   UNL A   1      46.143  25.326  29.534  1.00  0.00     0.031 C 
ATOM     62  C   UNL A   1      46.473  27.590  30.486  1.00  0.00     0.031 A 
BRANCH  49  63
ATOM     63  C   UNL A   1      43.587  32.906  31.730  1.00  0.00    -0.014 A 
ATOM     64  C   UNL A   1      43.927  33.983  30.894  1.00  0.00     0.010 A 
ATOM     65  C   UNL A   1      43.290  33.152  33.083  1.00  0.00     0.010 A 
ATOM     66  C   UNL A   1      43.992  35.281  31.409  1.00  0.00     0.020 A 
ATOM     67  C   UNL A   1      43.339  34.451  33.598  1.00  0.00     0.020 A 
ATOM     68  C   UNL A   1      43.704  35.506  32.760  1.00  0.00     0.054 A 
BRANCH  68  69
ATOM     69  S   UNL A   1      43.764  37.202  33.402  1.00  0.00     0.124 S 
ATOM     70  O   UNL A   1      45.045  37.211  34.104  1.00  0.00    -0.237 OA
ATOM     71  O   UNL A   1      43.710  38.011  32.187  1.00  0.00    -0.237 OA
ATOM     72  O   UNL A   1      42.583  37.290  34.257  1.00  0.00    -0.744 OA
ENDBRANCH  68  69
ENDBRANCH  49  63
BRANCH  50  73
ATOM     73  C   UNL A   1      42.605  23.728  27.879  1.00  0.00    -0.014 A 
ATOM     74  C   UNL A   1      42.916  23.514  26.527  1.00  0.00     0.010 A 
ATOM     75  C   UNL A   1      42.169  22.644  28.664  1.00  0.00     0.010 A 
ATOM     76  C   UNL A   1      42.775  22.242  25.962  1.00  0.00     0.020 A 
ATOM     77  C   UNL A   1      42.049  21.367  28.109  1.00  0.00     0.020 A 
ATOM     78  C   UNL A   1      42.340  21.177  26.758  1.00  0.00     0.054 A 
BRANCH  78  79
ATOM     79  S   UNL A   1      42.209  19.520  26.030  1.00  0.00     0.124 S 
ATOM     80  O   UNL A   1      43.134  19.610  24.906  1.00  0.00    -0.237 OA
ATOM     81  O   UNL A   1      42.628  18.651  27.127  1.00  0.00    -0.237 OA
ATOM     82  O   UNL A   1      40.795  19.419  25.675  1.00  0.00    -0.744 OA
ENDBRANCH  78  79
ENDBRANCH  50  73
BRANCH  62  83
ATOM     83  C   UNL A   1      47.909  27.219  30.720  1.00  0.00    -0.014 A 
ATOM     84  C   UNL A   1      48.878  27.437  29.726  1.00  0.00     0.010 A 
ATOM     85  C   UNL A   1      48.294  26.661  31.952  1.00  0.00     0.010 A 
ATOM     86  C   UNL A   1      50.207  27.068  29.945  1.00  0.00     0.020 A 
ATOM     87  C   UNL A   1      49.626  26.309  32.182  1.00  0.00     0.020 A 
ATOM     88  C   UNL A   1      50.571  26.496  31.169  1.00  0.00     0.054 A 
BRANCH  88  89
ATOM     89  S   UNL A   1      52.302  26.035  31.446  1.00  0.00     0.124 S 
ATOM     90  O   UNL A   1      52.747  27.074  32.372  1.00  0.00    -0.237 OA
ATOM     91  O   UNL A   1      52.197  24.692  32.012  1.00  0.00    -0.237 OA
ATOM     92  O   UNL A   1      52.891  26.096  30.110  1.00  0.00    -0.744 OA
ENDBRANCH  88  89
ENDBRANCH  62  83
ENDBRANCH  36  37
ENDBRANCH  29  31
ENDBRANCH  28  29
ENDBRANCH  27  28
ENDBRANCH   1  27
TORSDOF 17
ENDMDL
MODEL 2
REMARK VINA RESULT:     -11.2      2.593      9.372
REMARK SMILES COc1ccc(NC(=O)[C@@H]2[C@@H](C(=O)OCCOC(=O)c3ccc(-c4c5nc(c(-c6ccc(S(=O)(=O)[O-])cc6)c6ccc([nH]6)c(-c6ccc(S(=O)(=O)[O-])cc6)c6nc(c(-c7ccc(S(=O)(=O)[O-])cc7)c7ccc4[nH]7)C=C6)C=C5)cc3)[C@@H]3CC[C@H]2C3=C(C)C)cc1
REMARK SMILES IDX 15 1 14 2 12 3 13 4 11 5 10 6 83 7 80 8 82 9 84 10 81 11
REMARK SMILES IDX 85 12 86 13 87 14 8 15 7 16 9 18 6 19 3 20 4 21 89 22 5 23
REMARK SMILES IDX 88 24 2 25 1 26 16 27 17 28 18 29 19 30 20 31 21 32 79 33
REMARK SMILES IDX 22 34 78 35 23 36 24 37 25 38 72 39 26 40 77 41 71 42 73 43
REMARK SMILES IDX 27 44 76 45 70 46 69 47 28 49 58 50 39 51 57 52 40 53 43 54
REMARK SMILES IDX 56 55 74 56 41 57 42 58 55 60 75 61 44 62 29 63 30 64 38 65
REMARK SMILES IDX 31 66 37 67 32 68 33 69 34 70 35 71 36 72 59 73 60 74 68 75
REMARK SMILES IDX 61 76 67 77 62 78 63 79 64 80 65 81 66 82 45 83 46 84 54 85
REMARK SMILES IDX 47 86 53 87 48 88 49 89 50 90 51 91 52 92
REMARK H PARENT 7 17 73 48 43 59
REMARK Flexibility Score: inf
ROOT
ATOM      1  C   UNL A   1      36.595  21.156  24.793  1.00  0.00     0.274 C 
ENDROOT
BRANCH   1   2
ATOM      2  O   UNL A   1      35.856  22.392  24.713  1.00  0.00    -0.462 OA
BRANCH   2   3
ATOM      3  C   UNL A   1      35.694  22.895  23.463  1.00  0.00     0.310 C 
ATOM      4  O   UNL A   1      36.616  23.192  22.713  1.00  0.00    -0.252 OA
BRANCH   3   5
ATOM      5  C   UNL A   1      34.247  23.048  23.042  1.00  0.00     0.119 C 
ATOM      6  C   UNL A   1      33.643  24.460  23.236  1.00  0.00     0.101 C 
ATOM      7  C   UNL A   1      32.310  24.135  23.971  1.00  0.00     0.029 C 
ATOM      8  C   UNL A   1      33.328  22.120  23.865  1.00  0.00     0.030 C 
ATOM      9  C   UNL A   1      31.351  23.256  23.128  1.00  0.00     0.009 C 
ATOM     10  C   UNL A   1      32.797  23.062  24.906  1.00  0.00    -0.064 C 
ATOM     11  C   UNL A   1      32.044  21.884  23.066  1.00  0.00     0.009 C 
ATOM     12  C   UNL A   1      32.730  22.937  26.240  1.00  0.00    -0.077 C 
ATOM     13  C   UNL A   1      33.202  21.708  26.973  1.00  0.00     0.039 C 
ATOM     14  C   UNL A   1      32.138  24.006  27.111  1.00  0.00     0.039 C 
BRANCH   6  15
ATOM     15  C   UNL A   1      33.384  25.238  21.943  1.00  0.00     0.228 C 
ATOM     16  N   UNL A   1      33.247  26.597  21.945  1.00  0.00    -0.326 N 
ATOM     17  H   UNL A   1      33.448  27.023  21.080  1.00  0.00     0.169 HD
ATOM     18  O   UNL A   1      33.320  24.667  20.851  1.00  0.00    -0.274 OA
BRANCH  16  19
ATOM     19  C   UNL A   1      32.874  27.496  22.951  1.00  0.00     0.041 A 
ATOM     20  C   UNL A   1      32.013  29.340  24.881  1.00  0.00     0.119 A 
ATOM     21  C   UNL A   1      33.327  28.875  24.892  1.00  0.00     0.048 A 
ATOM     22  C   UNL A   1      31.119  28.852  23.930  1.00  0.00     0.048 A 
ATOM     23  C   UNL A   1      33.755  27.947  23.934  1.00  0.00     0.030 A 
ATOM     24  C   UNL A   1      31.538  27.908  22.989  1.00  0.00     0.030 A 
BRANCH  20  25
ATOM     25  O   UNL A   1      31.567  30.357  25.676  1.00  0.00    -0.497 OA
ATOM     26  C   UNL A   1      32.231  30.483  26.926  1.00  0.00     0.278 C 
ENDBRANCH  20  25
ENDBRANCH  16  19
ENDBRANCH   6  15
ENDBRANCH   3   5
ENDBRANCH   2   3
ENDBRANCH   1   2
BRANCH   1  27
ATOM     27  C   UNL A   1      38.027  21.344  25.297  1.00  0.00     0.275 C 
BRANCH  27  28
ATOM     28  O   UNL A   1      38.224  22.674  25.806  1.00  0.00    -0.458 OA
BRANCH  28  29
ATOM     29  C   UNL A   1      39.461  22.933  26.280  1.00  0.00     0.338 C 
ATOM     30  O   UNL A   1      40.463  22.247  26.144  1.00  0.00    -0.246 OA
BRANCH  29  31
ATOM     31  C   UNL A   1      39.500  24.260  26.910  1.00  0.00     0.060 A 
ATOM     32  C   UNL A   1      40.225  25.263  26.265  1.00  0.00     0.016 A 
ATOM     33  C   UNL A   1      38.994  24.473  28.191  1.00  0.00     0.016 A 
ATOM     34  C   UNL A   1      40.514  26.453  26.910  1.00  0.00     0.010 A 
ATOM     35  C   UNL A   1      39.252  25.691  28.831  1.00  0.00     0.010 A 
ATOM     36  C   UNL A   1      40.049  26.670  28.208  1.00  0.00    -0.014 A 
BRANCH  36  37
ATOM     37  C   UNL A   1      40.504  27.886  28.919  1.00  0.00     0.031 A 
ATOM     38  C   UNL A   1      41.916  27.963  29.427  1.00  0.00     0.074 A 
ATOM     39  C   UNL A   1      39.683  28.949  29.014  1.00  0.00     0.049 A 
ATOM     40  N   UNL A   1      42.505  28.930  30.079  1.00  0.00    -0.248 NA
ATOM     41  C   UNL A   1      42.783  26.801  29.163  1.00  0.00     0.031 C 
ATOM     42  C   UNL A   1      38.313  29.011  28.499  1.00  0.00     0.029 A 
ATOM     43  N   UNL A   1      39.890  30.189  29.561  1.00  0.00    -0.354 N 
ATOM     44  C   UNL A   1      43.793  28.480  30.340  1.00  0.00     0.074 A 
ATOM     45  C   UNL A   1      43.905  27.155  29.771  1.00  0.00     0.031 C 
ATOM     46  C   UNL A   1      37.808  30.232  28.742  1.00  0.00     0.029 A 
ATOM     47  C   UNL A   1      38.801  31.020  29.467  1.00  0.00     0.049 A 
ATOM     48  H   UNL A   1      40.740  30.458  29.981  1.00  0.00     0.167 HD
ATOM     49  C   UNL A   1      44.791  29.115  30.999  1.00  0.00     0.031 A 
ATOM     50  C   UNL A   1      38.615  32.269  29.932  1.00  0.00     0.031 A 
ATOM     51  C   UNL A   1      44.685  30.445  31.535  1.00  0.00     0.049 A 
ATOM     52  C   UNL A   1      39.735  32.944  30.674  1.00  0.00     0.074 A 
ATOM     53  C   UNL A   1      45.643  31.180  32.212  1.00  0.00     0.029 A 
ATOM     54  N   UNL A   1      43.556  31.243  31.446  1.00  0.00    -0.354 N 
ATOM     55  N   UNL A   1      40.940  32.493  30.932  1.00  0.00    -0.248 NA
ATOM     56  C   UNL A   1      39.467  34.292  31.192  1.00  0.00     0.031 C 
ATOM     57  C   UNL A   1      45.079  32.413  32.562  1.00  0.00     0.029 A 
ATOM     58  C   UNL A   1      43.784  32.456  32.071  1.00  0.00     0.049 A 
ATOM     59  H   UNL A   1      42.715  30.985  31.003  1.00  0.00     0.167 HD
ATOM     60  C   UNL A   1      41.575  33.505  31.642  1.00  0.00     0.074 A 
ATOM     61  C   UNL A   1      40.631  34.599  31.748  1.00  0.00     0.031 C 
ATOM     62  C   UNL A   1      42.824  33.524  32.169  1.00  0.00     0.031 A 
BRANCH  49  63
ATOM     63  C   UNL A   1      46.068  28.355  31.220  1.00  0.00    -0.014 A 
ATOM     64  C   UNL A   1      47.151  28.465  30.330  1.00  0.00     0.010 A 
ATOM     65  C   UNL A   1      46.195  27.543  32.362  1.00  0.00     0.010 A 
ATOM     66  C   UNL A   1      48.331  27.754  30.567  1.00  0.00     0.020 A 
ATOM     67  C   UNL A   1      47.379  26.844  32.610  1.00  0.00     0.020 A 
ATOM     68  C   UNL A   1      48.436  26.943  31.703  1.00  0.00     0.054 A 
BRANCH  68  69
ATOM     69  S   UNL A   1      49.987  26.053  32.009  1.00  0.00     0.124 S 
ATOM     70  O   UNL A   1      49.785  25.556  33.367  1.00  0.00    -0.237 OA
ATOM     71  O   UNL A   1      49.989  25.034  30.961  1.00  0.00    -0.237 OA
ATOM     72  O   UNL A   1      51.011  27.086  31.868  1.00  0.00    -0.744 OA
ENDBRANCH  68  69
ENDBRANCH  49  63
BRANCH  50  73
ATOM     73  C   UNL A   1      37.301  32.941  29.756  1.00  0.00    -0.014 A 
ATOM     74  C   UNL A   1      36.983  33.603  28.560  1.00  0.00     0.010 A 
ATOM     75  C   UNL A   1      36.358  32.917  30.800  1.00  0.00     0.010 A 
ATOM     76  C   UNL A   1      35.749  34.246  28.415  1.00  0.00     0.020 A 
ATOM     77  C   UNL A   1      35.115  33.538  30.651  1.00  0.00     0.020 A 
ATOM     78  C   UNL A   1      34.824  34.211  29.464  1.00  0.00     0.054 A 
BRANCH  78  79
ATOM     79  S   UNL A   1      33.206  35.005  29.248  1.00  0.00     0.124 S 
ATOM     80  O   UNL A   1      32.655  34.938  30.597  1.00  0.00    -0.237 OA
ATOM     81  O   UNL A   1      33.561  36.340  28.774  1.00  0.00    -0.237 OA
ATOM     82  O   UNL A   1      32.546  34.159  28.256  1.00  0.00    -0.744 OA
ENDBRANCH  78  79
ENDBRANCH  50  73
BRANCH  62  83
ATOM     83  C   UNL A   1      43.230  34.773  32.897  1.00  0.00    -0.014 A 
ATOM     84  C   UNL A   1      43.005  34.905  34.278  1.00  0.00     0.010 A 
ATOM     85  C   UNL A   1      43.860  35.817  32.196  1.00  0.00     0.010 A 
ATOM     86  C   UNL A   1      43.367  36.079  34.941  1.00  0.00     0.020 A 
ATOM     87  C   UNL A   1      44.240  36.985  32.860  1.00  0.00     0.020 A 
ATOM     88  C   UNL A   1      43.973  37.116  34.225  1.00  0.00     0.054 A 
BRANCH  88  89
ATOM     89  S   UNL A   1      44.452  38.629  35.102  1.00  0.00     0.124 S 
ATOM     90  O   UNL A   1      44.081  38.311  36.478  1.00  0.00    -0.237 OA
ATOM     91  O   UNL A   1      45.887  38.719  34.842  1.00  0.00    -0.237 OA
ATOM     92  O   UNL A   1      43.644  39.666  34.462  1.00  0.00    -0.744 OA
ENDBRANCH  88  89
ENDBRANCH  62  83
ENDBRANCH  36  37
ENDBRANCH  29  31
ENDBRANCH  28  29
ENDBRANCH  27  28
ENDBRANCH   1  27
TORSDOF 17
ENDMDL
MODEL 3
REMARK VINA RESULT:     -11.1      0.580      8.068
REMARK SMILES COc1ccc(NC(=O)[C@@H]2[C@@H](C(=O)OCCOC(=O)c3ccc(-c4c5nc(c(-c6ccc(S(=O)(=O)[O-])cc6)c6ccc([nH]6)c(-c6ccc(S(=O)(=O)[O-])cc6)c6nc(c(-c7ccc(S(=O)(=O)[O-])cc7)c7ccc4[nH]7)C=C6)C=C5)cc3)[C@@H]3CC[C@H]2C3=C(C)C)cc1
REMARK SMILES IDX 15 1 14 2 12 3 13 4 11 5 10 6 83 7 80 8 82 9 84 10 81 11
REMARK SMILES IDX 85 12 86 13 87 14 8 15 7 16 9 18 6 19 3 20 4 21 89 22 5 23
REMARK SMILES IDX 88 24 2 25 1 26 16 27 17 28 18 29 19 30 20 31 21 32 79 33
REMARK SMILES IDX 22 34 78 35 23 36 24 37 25 38 72 39 26 40 77 41 71 42 73 43
REMARK SMILES IDX 27 44 76 45 70 46 69 47 28 49 58 50 39 51 57 52 40 53 43 54
REMARK SMILES IDX 56 55 74 56 41 57 42 58 55 60 75 61 44 62 29 63 30 64 38 65
REMARK SMILES IDX 31 66 37 67 32 68 33 69 34 70 35 71 36 72 59 73 60 74 68 75
REMARK SMILES IDX 61 76 67 77 62 78 63 79 64 80 65 81 66 82 45 83 46 84 54 85
REMARK SMILES IDX 47 86 53 87 48 88 49 89 50 90 51 91 52 92
REMARK H PARENT 7 17 73 48 43 59
REMARK Flexibility Score: inf
ROOT
ATOM      1  C   UNL A   1      31.875  29.964  26.236  1.00  0.00     0.274 C 
ENDROOT
BRANCH   1   2
ATOM      2  O   UNL A   1      32.237  28.570  26.161  1.00  0.00    -0.462 OA
BRANCH   2   3
ATOM      3  C   UNL A   1      31.456  27.725  26.880  1.00  0.00     0.310 C 
ATOM      4  O   UNL A   1      31.257  27.825  28.085  1.00  0.00    -0.252 OA
BRANCH   3   5
ATOM      5  C   UNL A   1      30.813  26.629  26.056  1.00  0.00     0.119 C 
ATOM      6  C   UNL A   1      31.657  25.343  25.883  1.00  0.00     0.101 C 
ATOM      7  C   UNL A   1      31.574  25.115  24.346  1.00  0.00     0.029 C 
ATOM      8  C   UNL A   1      30.538  27.105  24.614  1.00  0.00     0.030 C 
ATOM      9  C   UNL A   1      30.127  24.874  23.845  1.00  0.00     0.009 C 
ATOM     10  C   UNL A   1      31.715  26.536  23.875  1.00  0.00    -0.064 C 
ATOM     11  C   UNL A   1      29.429  26.232  24.022  1.00  0.00     0.009 C 
ATOM     12  C   UNL A   1      32.571  27.118  23.021  1.00  0.00    -0.077 C 
ATOM     13  C   UNL A   1      32.465  28.564  22.611  1.00  0.00     0.039 C 
ATOM     14  C   UNL A   1      33.687  26.355  22.370  1.00  0.00     0.039 C 
BRANCH   6  15
ATOM     15  C   UNL A   1      31.144  24.121  26.650  1.00  0.00     0.228 C 
ATOM     16  N   UNL A   1      31.950  23.049  26.904  1.00  0.00    -0.326 N 
ATOM     17  H   UNL A   1      31.670  22.509  27.679  1.00  0.00     0.169 HD
ATOM     18  O   UNL A   1      29.992  24.076  27.091  1.00  0.00    -0.274 OA
BRANCH  16  19
ATOM     19  C   UNL A   1      33.104  22.577  26.266  1.00  0.00     0.041 A 
ATOM     20  C   UNL A   1      35.491  21.741  25.055  1.00  0.00     0.119 A 
ATOM     21  C   UNL A   1      34.262  21.378  24.508  1.00  0.00     0.048 A 
ATOM     22  C   UNL A   1      35.526  22.489  26.231  1.00  0.00     0.048 A 
ATOM     23  C   UNL A   1      33.069  21.787  25.117  1.00  0.00     0.030 A 
ATOM     24  C   UNL A   1      34.337  22.877  26.853  1.00  0.00     0.030 A 
BRANCH  20  25
ATOM     25  O   UNL A   1      36.687  21.518  24.436  1.00  0.00    -0.497 OA
ATOM     26  C   UNL A   1      37.836  21.851  25.202  1.00  0.00     0.278 C 
ENDBRANCH  20  25
ENDBRANCH  16  19
ENDBRANCH   6  15
ENDBRANCH   3   5
ENDBRANCH   2   3
ENDBRANCH   1   2
BRANCH   1  27
ATOM     27  C   UNL A   1      32.982  30.842  26.823  1.00  0.00     0.275 C 
BRANCH  27  28
ATOM     28  O   UNL A   1      33.955  30.046  27.521  1.00  0.00    -0.458 OA
BRANCH  28  29
ATOM     29  C   UNL A   1      34.755  30.726  28.370  1.00  0.00     0.338 C 
ATOM     30  O   UNL A   1      34.448  31.679  29.071  1.00  0.00    -0.246 OA
BRANCH  29  31
ATOM     31  C   UNL A   1      36.075  30.086  28.452  1.00  0.00     0.060 A 
ATOM     32  C   UNL A   1      36.494  29.624  29.700  1.00  0.00     0.016 A 
ATOM     33  C   UNL A   1      36.959  30.099  27.374  1.00  0.00     0.016 A 
ATOM     34  C   UNL A   1      37.809  29.240  29.907  1.00  0.00     0.010 A 
ATOM     35  C   UNL A   1      38.279  29.675  27.572  1.00  0.00     0.010 A 
ATOM     36  C   UNL A   1      38.719  29.283  28.850  1.00  0.00    -0.014 A 
BRANCH  36  37
ATOM     37  C   UNL A   1      40.144  29.012  29.144  1.00  0.00     0.031 A 
ATOM     38  C   UNL A   1      40.752  27.703  28.722  1.00  0.00     0.074 A 
ATOM     39  C   UNL A   1      40.907  29.975  29.694  1.00  0.00     0.049 A 
ATOM     40  N   UNL A   1      41.973  27.269  28.893  1.00  0.00    -0.248 NA
ATOM     41  C   UNL A   1      39.872  26.759  28.010  1.00  0.00     0.031 C 
ATOM     42  C   UNL A   1      40.439  31.307  30.084  1.00  0.00     0.029 A 
ATOM     43  N   UNL A   1      42.243  29.987  30.002  1.00  0.00    -0.354 N 
ATOM     44  C   UNL A   1      41.999  25.991  28.350  1.00  0.00     0.074 A 
ATOM     45  C   UNL A   1      40.674  25.718  27.837  1.00  0.00     0.031 C 
ATOM     46  C   UNL A   1      41.476  32.013  30.565  1.00  0.00     0.029 A 
ATOM     47  C   UNL A   1      42.667  31.169  30.559  1.00  0.00     0.049 A 
ATOM     48  H   UNL A   1      42.841  29.222  29.839  1.00  0.00     0.167 HD
ATOM     49  C   UNL A   1      43.035  25.122  28.289  1.00  0.00     0.031 A 
ATOM     50  C   UNL A   1      43.876  31.524  31.032  1.00  0.00     0.031 A 
ATOM     51  C   UNL A   1      44.358  25.409  28.771  1.00  0.00     0.049 A 
ATOM     52  C   UNL A   1      45.005  30.533  30.966  1.00  0.00     0.074 A 
ATOM     53  C   UNL A   1      45.480  24.598  28.747  1.00  0.00     0.029 A 
ATOM     54  N   UNL A   1      44.741  26.605  29.356  1.00  0.00    -0.354 N 
ATOM     55  N   UNL A   1      45.004  29.319  30.469  1.00  0.00    -0.248 NA
ATOM     56  C   UNL A   1      46.292  30.959  31.528  1.00  0.00     0.031 C 
ATOM     57  C   UNL A   1      46.534  25.294  29.350  1.00  0.00     0.029 A 
ATOM     58  C   UNL A   1      46.077  26.549  29.715  1.00  0.00     0.049 A 
ATOM     59  H   UNL A   1      44.151  27.381  29.496  1.00  0.00     0.167 HD
ATOM     60  C   UNL A   1      46.293  28.836  30.659  1.00  0.00     0.074 A 
ATOM     61  C   UNL A   1      47.051  29.897  31.290  1.00  0.00     0.031 C 
ATOM     62  C   UNL A   1      46.803  27.618  30.349  1.00  0.00     0.031 A 
BRANCH  49  63
ATOM     63  C   UNL A   1      42.761  23.757  27.723  1.00  0.00    -0.014 A 
ATOM     64  C   UNL A   1      43.128  23.420  26.408  1.00  0.00     0.010 A 
ATOM     65  C   UNL A   1      42.155  22.785  28.539  1.00  0.00     0.010 A 
ATOM     66  C   UNL A   1      42.871  22.139  25.912  1.00  0.00     0.020 A 
ATOM     67  C   UNL A   1      41.911  21.498  28.051  1.00  0.00     0.020 A 
ATOM     68  C   UNL A   1      42.258  21.187  26.735  1.00  0.00     0.054 A 
BRANCH  68  69
ATOM     69  S   UNL A   1      41.961  19.521  26.082  1.00  0.00     0.124 S 
ATOM     70  O   UNL A   1      42.403  18.680  27.192  1.00  0.00    -0.237 OA
ATOM     71  O   UNL A   1      40.521  19.522  25.832  1.00  0.00    -0.237 OA
ATOM     72  O   UNL A   1      42.796  19.464  24.885  1.00  0.00    -0.744 OA
ENDBRANCH  68  69
ENDBRANCH  49  63
BRANCH  50  73
ATOM     73  C   UNL A   1      44.068  32.860  31.657  1.00  0.00    -0.014 A 
ATOM     74  C   UNL A   1      44.417  33.976  30.882  1.00  0.00     0.010 A 
ATOM     75  C   UNL A   1      43.897  33.013  33.045  1.00  0.00     0.010 A 
ATOM     76  C   UNL A   1      44.611  35.223  31.486  1.00  0.00     0.020 A 
ATOM     77  C   UNL A   1      44.068  34.261  33.649  1.00  0.00     0.020 A 
ATOM     78  C   UNL A   1      44.438  35.356  32.867  1.00  0.00     0.054 A 
BRANCH  78  79
ATOM     79  S   UNL A   1      44.641  36.987  33.635  1.00  0.00     0.124 S 
ATOM     80  O   UNL A   1      43.474  37.058  34.508  1.00  0.00    -0.237 OA
ATOM     81  O   UNL A   1      45.931  36.867  34.312  1.00  0.00    -0.237 OA
ATOM     82  O   UNL A   1      44.632  37.900  32.494  1.00  0.00    -0.744 OA
ENDBRANCH  78  79
ENDBRANCH  50  73
BRANCH  62  83
ATOM     83  C   UNL A   1      48.248  27.386  30.686  1.00  0.00    -0.014 A 
ATOM     84  C   UNL A   1      48.614  26.771  31.895  1.00  0.00     0.010 A 
ATOM     85  C   UNL A   1      49.248  27.771  29.775  1.00  0.00     0.010 A 
ATOM     86  C   UNL A   1      49.961  26.580  32.209  1.00  0.00     0.020 A 
ATOM     87  C   UNL A   1      50.595  27.563  30.077  1.00  0.00     0.020 A 
ATOM     88  C   UNL A   1      50.944  26.987  31.301  1.00  0.00     0.054 A 
BRANCH  88  89
ATOM     89  S   UNL A   1      52.689  26.718  31.714  1.00  0.00     0.124 S 
ATOM     90  O   UNL A   1      52.842  27.527  32.920  1.00  0.00    -0.237 OA
ATOM     91  O   UNL A   1      52.761  25.272  31.912  1.00  0.00    -0.237 OA
ATOM     92  O   UNL A   1      53.400  27.214  30.536  1.00  0.00    -0.744 OA
ENDBRANCH  88  89
ENDBRANCH  62  83
ENDBRANCH  36  37
ENDBRANCH  29  31
ENDBRANCH  28  29
ENDBRANCH  27  28
ENDBRANCH   1  27
TORSDOF 17
ENDMDL
