MODEL 1
REMARK VINA RESULT:     -10.7      0.000      0.000
REMARK SMILES O=C(C[C@H]1C[C@H]2CC[C@@H](C1)N2C(=O)c1c[nH]c(=O)[nH]1)OCCOC(=O)c1ccc(-c2c3nc(c(-c4ccc(S(=O)(=O)[O-])cc4)c4ccc([nH]4)c(-c4ccc(S(=O)(=O)[O-])cc4)c4nc(c(-c5ccc(S(=O)(=O)[O-])cc5)c5ccc2[nH]5)C=C4)C=C3)cc1
REMARK SMILES IDX 21 1 20 2 2 3 1 4 3 5 4 6 5 7 10 8 6 9 9 10 7 11 11 12 8 13
REMARK SMILES IDX 12 14 13 15 14 16 15 17 19 18 16 19 17 20 18 23 22 24 23 25
REMARK SMILES IDX 24 26 25 27 26 28 27 29 85 30 28 31 84 32 29 33 30 34 31 35
REMARK SMILES IDX 78 36 32 37 83 38 77 39 79 40 33 41 82 42 76 43 75 44 34 46
REMARK SMILES IDX 64 47 45 48 63 49 46 50 49 51 62 52 80 53 47 54 48 55 61 57
REMARK SMILES IDX 81 58 50 59 35 60 36 61 44 62 37 63 43 64 38 65 39 66 40 67
REMARK SMILES IDX 41 68 42 69 65 70 66 71 74 72 67 73 73 74 68 75 69 76 70 77
REMARK SMILES IDX 71 78 72 79 51 80 52 81 60 82 53 83 59 84 54 85 55 86 56 87
REMARK SMILES IDX 57 88 58 89
REMARK H PARENT 19 21 16 22 79 45 49 56
REMARK Flexibility Score: inf
ROOT
ATOM      1  C   UNL A   1      32.797  28.741  25.645  1.00  0.00     0.274 C 
ENDROOT
BRANCH   1   2
ATOM      2  O   UNL A   1      31.505  28.169  25.363  1.00  0.00    -0.462 OA
BRANCH   2   3
ATOM      3  C   UNL A   1      31.049  27.066  26.014  1.00  0.00     0.306 C 
ATOM      4  O   UNL A   1      31.080  27.007  27.239  1.00  0.00    -0.252 OA
BRANCH   3   5
ATOM      5  C   UNL A   1      30.658  25.862  25.171  1.00  0.00     0.126 C 
BRANCH   5   6
ATOM      6  C   UNL A   1      31.810  25.173  24.422  1.00  0.00     0.004 C 
ATOM      7  C   UNL A   1      33.085  25.035  25.271  1.00  0.00     0.029 C 
ATOM      8  C   UNL A   1      31.385  23.801  23.819  1.00  0.00     0.029 C 
ATOM      9  C   UNL A   1      33.184  23.720  26.057  1.00  0.00     0.086 C 
ATOM     10  C   UNL A   1      31.754  22.552  24.657  1.00  0.00     0.086 C 
ATOM     11  C   UNL A   1      31.977  23.331  26.928  1.00  0.00     0.027 C 
ATOM     12  N   UNL A   1      33.147  22.644  25.091  1.00  0.00    -0.331 N 
ATOM     13  C   UNL A   1      31.038  22.535  26.007  1.00  0.00     0.027 C 
BRANCH  12  14
ATOM     14  C   UNL A   1      34.100  21.653  25.170  1.00  0.00     0.272 C 
ATOM     15  O   UNL A   1      33.818  20.455  25.243  1.00  0.00    -0.267 OA
BRANCH  14  16
ATOM     16  C   UNL A   1      35.517  22.034  25.018  1.00  0.00     0.125 A 
ATOM     17  C   UNL A   1      36.141  22.676  24.020  1.00  0.00     0.119 A 
ATOM     18  N   UNL A   1      36.428  21.784  26.018  1.00  0.00    -0.302 N 
ATOM     19  N   UNL A   1      37.466  22.809  24.357  1.00  0.00    -0.312 N 
ATOM     20  C   UNL A   1      37.682  22.253  25.627  1.00  0.00     0.323 A 
ATOM     21  H   UNL A   1      36.226  21.343  26.876  1.00  0.00     0.172 HD
ATOM     22  H   UNL A   1      38.156  23.229  23.795  1.00  0.00     0.171 HD
ATOM     23  O   UNL A   1      38.723  22.195  26.249  1.00  0.00    -0.248 OA
ENDBRANCH  14  16
ENDBRANCH  12  14
ENDBRANCH   5   6
ENDBRANCH   3   5
ENDBRANCH   2   3
ENDBRANCH   1   2
BRANCH   1  24
ATOM     24  C   UNL A   1      32.735  30.182  26.176  1.00  0.00     0.275 C 
BRANCH  24  25
ATOM     25  O   UNL A   1      33.287  30.292  27.500  1.00  0.00    -0.458 OA
BRANCH  25  26
ATOM     26  C   UNL A   1      34.110  31.361  27.663  1.00  0.00     0.338 C 
ATOM     27  O   UNL A   1      33.770  32.532  27.671  1.00  0.00    -0.246 OA
BRANCH  26  28
ATOM     28  C   UNL A   1      35.472  30.914  28.040  1.00  0.00     0.060 A 
ATOM     29  C   UNL A   1      35.644  29.546  28.289  1.00  0.00     0.016 A 
ATOM     30  C   UNL A   1      36.561  31.783  28.154  1.00  0.00     0.016 A 
ATOM     31  C   UNL A   1      36.875  29.057  28.723  1.00  0.00     0.010 A 
ATOM     32  C   UNL A   1      37.803  31.288  28.585  1.00  0.00     0.010 A 
ATOM     33  C   UNL A   1      37.953  29.929  28.921  1.00  0.00    -0.014 A 
BRANCH  33  34
ATOM     34  C   UNL A   1      39.145  29.438  29.669  1.00  0.00     0.031 A 
ATOM     35  C   UNL A   1      39.333  29.877  31.100  1.00  0.00     0.074 A 
ATOM     36  C   UNL A   1      40.002  28.544  29.139  1.00  0.00     0.049 A 
ATOM     37  N   UNL A   1      40.229  29.493  31.975  1.00  0.00    -0.248 NA
ATOM     38  C   UNL A   1      38.382  30.877  31.612  1.00  0.00     0.031 C 
ATOM     39  C   UNL A   1      39.927  27.992  27.788  1.00  0.00     0.029 A 
ATOM     40  N   UNL A   1      41.100  27.928  29.693  1.00  0.00    -0.354 N 
ATOM     41  C   UNL A   1      39.945  30.198  33.140  1.00  0.00     0.074 A 
ATOM     42  C   UNL A   1      38.830  31.070  32.844  1.00  0.00     0.031 C 
ATOM     43  C   UNL A   1      40.929  27.109  27.623  1.00  0.00     0.029 A 
ATOM     44  C   UNL A   1      41.728  27.045  28.847  1.00  0.00     0.049 A 
ATOM     45  H   UNL A   1      41.407  28.103  30.613  1.00  0.00     0.167 HD
ATOM     46  C   UNL A   1      40.539  30.119  34.356  1.00  0.00     0.031 A 
ATOM     47  C   UNL A   1      42.818  26.271  29.033  1.00  0.00     0.031 A 
ATOM     48  C   UNL A   1      41.660  29.273  34.663  1.00  0.00     0.049 A 
ATOM     49  C   UNL A   1      43.522  26.264  30.369  1.00  0.00     0.074 A 
ATOM     50  C   UNL A   1      42.314  29.121  35.874  1.00  0.00     0.029 A 
ATOM     51  N   UNL A   1      42.306  28.448  33.755  1.00  0.00    -0.354 N 
ATOM     52  N   UNL A   1      43.209  26.902  31.471  1.00  0.00    -0.248 NA
ATOM     53  C   UNL A   1      44.719  25.417  30.486  1.00  0.00     0.031 C 
ATOM     54  C   UNL A   1      43.397  28.257  35.682  1.00  0.00     0.029 A 
ATOM     55  C   UNL A   1      43.373  27.813  34.370  1.00  0.00     0.049 A 
ATOM     56  H   UNL A   1      42.045  28.331  32.814  1.00  0.00     0.167 HD
ATOM     57  C   UNL A   1      44.151  26.506  32.419  1.00  0.00     0.074 A 
ATOM     58  C   UNL A   1      45.037  25.568  31.765  1.00  0.00     0.031 C 
ATOM     59  C   UNL A   1      44.261  26.881  33.719  1.00  0.00     0.031 A 
BRANCH  46  60
ATOM     60  C   UNL A   1      39.999  31.014  35.441  1.00  0.00    -0.014 A 
ATOM     61  C   UNL A   1      40.684  32.179  35.835  1.00  0.00     0.010 A 
ATOM     62  C   UNL A   1      38.783  30.689  36.067  1.00  0.00     0.010 A 
ATOM     63  C   UNL A   1      40.191  32.968  36.877  1.00  0.00     0.020 A 
ATOM     64  C   UNL A   1      38.270  31.495  37.086  1.00  0.00     0.020 A 
ATOM     65  C   UNL A   1      38.991  32.615  37.501  1.00  0.00     0.054 A 
BRANCH  65  66
ATOM     66  S   UNL A   1      38.381  33.651  38.859  1.00  0.00     0.124 S 
ATOM     67  O   UNL A   1      36.953  33.343  38.853  1.00  0.00    -0.237 OA
ATOM     68  O   UNL A   1      39.128  33.146  40.008  1.00  0.00    -0.237 OA
ATOM     69  O   UNL A   1      38.726  35.009  38.442  1.00  0.00    -0.744 OA
ENDBRANCH  65  66
ENDBRANCH  46  60
BRANCH  47  70
ATOM     70  C   UNL A   1      43.324  25.422  27.916  1.00  0.00    -0.014 A 
ATOM     71  C   UNL A   1      42.912  24.084  27.782  1.00  0.00     0.010 A 
ATOM     72  C   UNL A   1      44.237  25.952  26.986  1.00  0.00     0.010 A 
ATOM     73  C   UNL A   1      43.410  23.290  26.744  1.00  0.00     0.020 A 
ATOM     74  C   UNL A   1      44.714  25.170  25.931  1.00  0.00     0.020 A 
ATOM     75  C   UNL A   1      44.303  23.841  25.821  1.00  0.00     0.054 A 
BRANCH  75  76
ATOM     76  S   UNL A   1      44.885  22.812  24.443  1.00  0.00     0.124 S 
ATOM     77  O   UNL A   1      45.399  21.637  25.137  1.00  0.00    -0.237 OA
ATOM     78  O   UNL A   1      43.665  22.608  23.668  1.00  0.00    -0.237 OA
ATOM     79  O   UNL A   1      45.894  23.649  23.797  1.00  0.00    -0.744 OA
ENDBRANCH  75  76
ENDBRANCH  47  70
BRANCH  59  80
ATOM     80  C   UNL A   1      45.357  26.258  34.549  1.00  0.00    -0.014 A 
ATOM     81  C   UNL A   1      46.624  26.857  34.665  1.00  0.00     0.010 A 
ATOM     82  C   UNL A   1      45.089  25.086  35.282  1.00  0.00     0.010 A 
ATOM     83  C   UNL A   1      47.610  26.281  35.475  1.00  0.00     0.020 A 
ATOM     84  C   UNL A   1      46.060  24.524  36.116  1.00  0.00     0.020 A 
ATOM     85  C   UNL A   1      47.321  25.118  36.197  1.00  0.00     0.054 A 
BRANCH  85  86
ATOM     86  S   UNL A   1      48.600  24.418  37.276  1.00  0.00     0.124 S 
ATOM     87  O   UNL A   1      49.548  23.871  36.310  1.00  0.00    -0.237 OA
ATOM     88  O   UNL A   1      49.065  25.587  38.020  1.00  0.00    -0.237 OA
ATOM     89  O   UNL A   1      47.880  23.427  38.073  1.00  0.00    -0.744 OA
ENDBRANCH  85  86
ENDBRANCH  59  80
ENDBRANCH  33  34
ENDBRANCH  26  28
ENDBRANCH  25  26
ENDBRANCH  24  25
ENDBRANCH   1  24
TORSDOF 17
ENDMDL
MODEL 2
REMARK VINA RESULT:     -10.7      1.186      2.008
REMARK SMILES O=C(C[C@H]1C[C@H]2CC[C@@H](C1)N2C(=O)c1c[nH]c(=O)[nH]1)OCCOC(=O)c1ccc(-c2c3nc(c(-c4ccc(S(=O)(=O)[O-])cc4)c4ccc([nH]4)c(-c4ccc(S(=O)(=O)[O-])cc4)c4nc(c(-c5ccc(S(=O)(=O)[O-])cc5)c5ccc2[nH]5)C=C4)C=C3)cc1
REMARK SMILES IDX 21 1 20 2 2 3 1 4 3 5 4 6 5 7 10 8 6 9 9 10 7 11 11 12 8 13
REMARK SMILES IDX 12 14 13 15 14 16 15 17 19 18 16 19 17 20 18 23 22 24 23 25
REMARK SMILES IDX 24 26 25 27 26 28 27 29 85 30 28 31 84 32 29 33 30 34 31 35
REMARK SMILES IDX 78 36 32 37 83 38 77 39 79 40 33 41 82 42 76 43 75 44 34 46
REMARK SMILES IDX 64 47 45 48 63 49 46 50 49 51 62 52 80 53 47 54 48 55 61 57
REMARK SMILES IDX 81 58 50 59 35 60 36 61 44 62 37 63 43 64 38 65 39 66 40 67
REMARK SMILES IDX 41 68 42 69 65 70 66 71 74 72 67 73 73 74 68 75 69 76 70 77
REMARK SMILES IDX 71 78 72 79 51 80 52 81 60 82 53 83 59 84 54 85 55 86 56 87
REMARK SMILES IDX 57 88 58 89
REMARK H PARENT 19 21 16 22 79 45 49 56
REMARK Flexibility Score: inf
ROOT
ATOM      1  C   UNL A   1      31.592  30.246  25.581  1.00  0.00     0.274 C 
ENDROOT
BRANCH   1   2
ATOM      2  O   UNL A   1      31.733  28.815  25.485  1.00  0.00    -0.462 OA
BRANCH   2   3
ATOM      3  C   UNL A   1      31.580  28.155  24.306  1.00  0.00     0.306 C 
ATOM      4  O   UNL A   1      31.899  28.686  23.247  1.00  0.00    -0.252 OA
BRANCH   3   5
ATOM      5  C   UNL A   1      30.854  26.818  24.337  1.00  0.00     0.126 C 
BRANCH   5   6
ATOM      6  C   UNL A   1      31.528  25.715  25.169  1.00  0.00     0.004 C 
ATOM      7  C   UNL A   1      31.181  24.297  24.684  1.00  0.00     0.029 C 
ATOM      8  C   UNL A   1      33.069  25.912  25.273  1.00  0.00     0.029 C 
ATOM      9  C   UNL A   1      32.159  23.724  23.649  1.00  0.00     0.086 C 
ATOM     10  C   UNL A   1      33.924  25.088  24.277  1.00  0.00     0.086 C 
ATOM     11  C   UNL A   1      32.469  24.594  22.419  1.00  0.00     0.027 C 
ATOM     12  N   UNL A   1      33.467  23.699  24.269  1.00  0.00    -0.331 N 
ATOM     13  C   UNL A   1      33.655  25.483  22.826  1.00  0.00     0.027 C 
BRANCH  12  14
ATOM     14  C   UNL A   1      34.208  22.541  24.201  1.00  0.00     0.272 C 
ATOM     15  O   UNL A   1      35.312  22.482  23.657  1.00  0.00    -0.267 OA
BRANCH  14  16
ATOM     16  C   UNL A   1      33.720  21.357  24.933  1.00  0.00     0.125 A 
ATOM     17  C   UNL A   1      33.777  21.060  26.240  1.00  0.00     0.119 A 
ATOM     18  N   UNL A   1      33.041  20.353  24.283  1.00  0.00    -0.302 N 
ATOM     19  N   UNL A   1      33.166  19.844  26.431  1.00  0.00    -0.312 N 
ATOM     20  C   UNL A   1      32.683  19.367  25.203  1.00  0.00     0.323 A 
ATOM     21  H   UNL A   1      32.839  20.332  23.319  1.00  0.00     0.172 HD
ATOM     22  H   UNL A   1      33.081  19.382  27.295  1.00  0.00     0.171 HD
ATOM     23  O   UNL A   1      32.086  18.332  24.987  1.00  0.00    -0.248 OA
ENDBRANCH  14  16
ENDBRANCH  12  14
ENDBRANCH   5   6
ENDBRANCH   3   5
ENDBRANCH   2   3
ENDBRANCH   1   2
BRANCH   1  24
ATOM     24  C   UNL A   1      32.133  30.835  26.894  1.00  0.00     0.275 C 
BRANCH  24  25
ATOM     25  O   UNL A   1      33.530  30.544  27.078  1.00  0.00    -0.458 OA
BRANCH  25  26
ATOM     26  C   UNL A   1      34.225  31.551  27.671  1.00  0.00     0.338 C 
ATOM     27  O   UNL A   1      33.773  32.634  28.002  1.00  0.00    -0.246 OA
BRANCH  26  28
ATOM     28  C   UNL A   1      35.577  31.087  28.059  1.00  0.00     0.060 A 
ATOM     29  C   UNL A   1      35.749  29.708  28.233  1.00  0.00     0.016 A 
ATOM     30  C   UNL A   1      36.659  31.952  28.255  1.00  0.00     0.016 A 
ATOM     31  C   UNL A   1      36.970  29.198  28.672  1.00  0.00     0.010 A 
ATOM     32  C   UNL A   1      37.890  31.437  28.691  1.00  0.00     0.010 A 
ATOM     33  C   UNL A   1      38.038  30.062  28.951  1.00  0.00    -0.014 A 
BRANCH  33  34
ATOM     34  C   UNL A   1      39.210  29.532  29.703  1.00  0.00     0.031 A 
ATOM     35  C   UNL A   1      39.395  29.945  31.142  1.00  0.00     0.074 A 
ATOM     36  C   UNL A   1      40.051  28.625  29.168  1.00  0.00     0.049 A 
ATOM     37  N   UNL A   1      40.274  29.528  32.019  1.00  0.00    -0.248 NA
ATOM     38  C   UNL A   1      38.464  30.960  31.660  1.00  0.00     0.031 C 
ATOM     39  C   UNL A   1      39.976  28.095  27.808  1.00  0.00     0.029 A 
ATOM     40  N   UNL A   1      41.130  27.976  29.723  1.00  0.00    -0.354 N 
ATOM     41  C   UNL A   1      39.996  30.223  33.192  1.00  0.00     0.074 A 
ATOM     42  C   UNL A   1      38.904  31.125  32.898  1.00  0.00     0.031 C 
ATOM     43  C   UNL A   1      40.959  27.191  27.639  1.00  0.00     0.029 A 
ATOM     44  C   UNL A   1      41.745  27.091  28.870  1.00  0.00     0.049 A 
ATOM     45  H   UNL A   1      41.432  28.130  30.647  1.00  0.00     0.167 HD
ATOM     46  C   UNL A   1      40.576  30.112  34.411  1.00  0.00     0.031 A 
ATOM     47  C   UNL A   1      42.815  26.288  29.054  1.00  0.00     0.031 A 
ATOM     48  C   UNL A   1      41.675  29.236  34.716  1.00  0.00     0.049 A 
ATOM     49  C   UNL A   1      43.506  26.246  30.396  1.00  0.00     0.074 A 
ATOM     50  C   UNL A   1      42.314  29.051  35.931  1.00  0.00     0.029 A 
ATOM     51  N   UNL A   1      42.309  28.409  33.802  1.00  0.00    -0.354 N 
ATOM     52  N   UNL A   1      43.198  26.875  31.504  1.00  0.00    -0.248 NA
ATOM     53  C   UNL A   1      44.682  25.369  30.511  1.00  0.00     0.031 C 
ATOM     54  C   UNL A   1      43.378  28.165  35.736  1.00  0.00     0.029 A 
ATOM     55  C   UNL A   1      43.355  27.740  34.417  1.00  0.00     0.049 A 
ATOM     56  H   UNL A   1      42.054  28.312  32.857  1.00  0.00     0.167 HD
ATOM     57  C   UNL A   1      44.121  26.443  32.455  1.00  0.00     0.074 A 
ATOM     58  C   UNL A   1      44.991  25.495  31.795  1.00  0.00     0.031 C 
ATOM     59  C   UNL A   1      44.227  26.797  33.761  1.00  0.00     0.031 A 
BRANCH  46  60
ATOM     60  C   UNL A   1      40.047  31.004  35.504  1.00  0.00    -0.014 A 
ATOM     61  C   UNL A   1      40.811  32.073  36.008  1.00  0.00     0.010 A 
ATOM     62  C   UNL A   1      38.763  30.773  36.027  1.00  0.00     0.010 A 
ATOM     63  C   UNL A   1      40.322  32.857  37.056  1.00  0.00     0.020 A 
ATOM     64  C   UNL A   1      38.257  31.576  37.052  1.00  0.00     0.020 A 
ATOM     65  C   UNL A   1      39.050  32.598  37.576  1.00  0.00     0.054 A 
BRANCH  65  66
ATOM     66  S   UNL A   1      38.445  33.623  38.943  1.00  0.00     0.124 S 
ATOM     67  O   UNL A   1      37.040  33.232  39.013  1.00  0.00    -0.237 OA
ATOM     68  O   UNL A   1      39.276  33.186  40.063  1.00  0.00    -0.237 OA
ATOM     69  O   UNL A   1      38.689  34.990  38.487  1.00  0.00    -0.744 OA
ENDBRANCH  65  66
ENDBRANCH  46  60
BRANCH  47  70
ATOM     70  C   UNL A   1      43.311  25.445  27.929  1.00  0.00    -0.014 A 
ATOM     71  C   UNL A   1      44.255  25.945  27.014  1.00  0.00     0.010 A 
ATOM     72  C   UNL A   1      42.828  24.134  27.763  1.00  0.00     0.010 A 
ATOM     73  C   UNL A   1      44.698  25.153  25.949  1.00  0.00     0.020 A 
ATOM     74  C   UNL A   1      43.289  23.331  26.718  1.00  0.00     0.020 A 
ATOM     75  C   UNL A   1      44.217  23.848  25.812  1.00  0.00     0.054 A 
BRANCH  75  76
ATOM     76  S   UNL A   1      44.854  22.816  24.462  1.00  0.00     0.124 S 
ATOM     77  O   UNL A   1      43.656  22.584  23.663  1.00  0.00    -0.237 OA
ATOM     78  O   UNL A   1      45.863  23.681  23.857  1.00  0.00    -0.237 OA
ATOM     79  O   UNL A   1      45.384  21.642  25.153  1.00  0.00    -0.744 OA
ENDBRANCH  75  76
ENDBRANCH  47  70
BRANCH  59  80
ATOM     80  C   UNL A   1      45.301  26.136  34.591  1.00  0.00    -0.014 A 
ATOM     81  C   UNL A   1      46.606  26.657  34.659  1.00  0.00     0.010 A 
ATOM     82  C   UNL A   1      44.977  25.012  35.375  1.00  0.00     0.010 A 
ATOM     83  C   UNL A   1      47.571  26.049  35.469  1.00  0.00     0.020 A 
ATOM     84  C   UNL A   1      45.929  24.420  36.209  1.00  0.00     0.020 A 
ATOM     85  C   UNL A   1      47.226  24.935  36.241  1.00  0.00     0.054 A 
BRANCH  85  86
ATOM     86  S   UNL A   1      48.484  24.196  37.320  1.00  0.00     0.124 S 
ATOM     87  O   UNL A   1      47.779  23.037  37.861  1.00  0.00    -0.237 OA
ATOM     88  O   UNL A   1      49.567  23.893  36.387  1.00  0.00    -0.237 OA
ATOM     89  O   UNL A   1      48.779  25.252  38.285  1.00  0.00    -0.744 OA
ENDBRANCH  85  86
ENDBRANCH  59  80
ENDBRANCH  33  34
ENDBRANCH  26  28
ENDBRANCH  25  26
ENDBRANCH  24  25
ENDBRANCH   1  24
TORSDOF 17
ENDMDL
MODEL 3
REMARK VINA RESULT:     -10.6      3.264      4.035
REMARK SMILES O=C(C[C@H]1C[C@H]2CC[C@@H](C1)N2C(=O)c1c[nH]c(=O)[nH]1)OCCOC(=O)c1ccc(-c2c3nc(c(-c4ccc(S(=O)(=O)[O-])cc4)c4ccc([nH]4)c(-c4ccc(S(=O)(=O)[O-])cc4)c4nc(c(-c5ccc(S(=O)(=O)[O-])cc5)c5ccc2[nH]5)C=C4)C=C3)cc1
REMARK SMILES IDX 21 1 20 2 2 3 1 4 3 5 4 6 5 7 10 8 6 9 9 10 7 11 11 12 8 13
REMARK SMILES IDX 12 14 13 15 14 16 15 17 19 18 16 19 17 20 18 23 22 24 23 25
REMARK SMILES IDX 24 26 25 27 26 28 27 29 85 30 28 31 84 32 29 33 30 34 31 35
REMARK SMILES IDX 78 36 32 37 83 38 77 39 79 40 33 41 82 42 76 43 75 44 34 46
REMARK SMILES IDX 64 47 45 48 63 49 46 50 49 51 62 52 80 53 47 54 48 55 61 57
REMARK SMILES IDX 81 58 50 59 35 60 36 61 44 62 37 63 43 64 38 65 39 66 40 67
REMARK SMILES IDX 41 68 42 69 65 70 66 71 74 72 67 73 73 74 68 75 69 76 70 77
REMARK SMILES IDX 71 78 72 79 51 80 52 81 60 82 53 83 59 84 54 85 55 86 56 87
REMARK SMILES IDX 57 88 58 89
REMARK H PARENT 19 21 16 22 79 45 49 56
REMARK Flexibility Score: inf
ROOT
ATOM      1  C   UNL A   1      32.193  30.242  25.982  1.00  0.00     0.274 C 
ENDROOT
BRANCH   1   2
ATOM      2  O   UNL A   1      31.345  29.092  26.169  1.00  0.00    -0.462 OA
BRANCH   2   3
ATOM      3  C   UNL A   1      31.771  27.984  26.831  1.00  0.00     0.306 C 
ATOM      4  O   UNL A   1      31.323  27.709  27.940  1.00  0.00    -0.252 OA
BRANCH   3   5
ATOM      5  C   UNL A   1      32.927  27.202  26.225  1.00  0.00     0.126 C 
BRANCH   5   6
ATOM      6  C   UNL A   1      32.636  26.525  24.876  1.00  0.00     0.004 C 
ATOM      7  C   UNL A   1      33.881  25.877  24.246  1.00  0.00     0.029 C 
ATOM      8  C   UNL A   1      31.459  25.509  24.967  1.00  0.00     0.029 C 
ATOM      9  C   UNL A   1      34.088  24.403  24.623  1.00  0.00     0.086 C 
ATOM     10  C   UNL A   1      31.862  24.023  25.140  1.00  0.00     0.086 C 
ATOM     11  C   UNL A   1      34.064  24.051  26.120  1.00  0.00     0.027 C 
ATOM     12  N   UNL A   1      32.913  23.683  24.183  1.00  0.00    -0.331 N 
ATOM     13  C   UNL A   1      32.590  23.775  26.460  1.00  0.00     0.027 C 
BRANCH  12  14
ATOM     14  C   UNL A   1      33.081  22.529  23.450  1.00  0.00     0.272 C 
ATOM     15  O   UNL A   1      33.171  22.523  22.221  1.00  0.00    -0.267 OA
BRANCH  14  16
ATOM     16  C   UNL A   1      33.306  21.267  24.179  1.00  0.00     0.125 A 
ATOM     17  C   UNL A   1      34.421  20.772  24.736  1.00  0.00     0.119 A 
ATOM     18  N   UNL A   1      32.267  20.400  24.430  1.00  0.00    -0.302 N 
ATOM     19  N   UNL A   1      34.114  19.565  25.316  1.00  0.00    -0.312 N 
ATOM     20  C   UNL A   1      32.746  19.300  25.141  1.00  0.00     0.323 A 
ATOM     21  H   UNL A   1      31.332  20.535  24.151  1.00  0.00     0.172 HD
ATOM     22  H   UNL A   1      34.752  18.980  25.781  1.00  0.00     0.171 HD
ATOM     23  O   UNL A   1      32.119  18.334  25.524  1.00  0.00    -0.248 OA
ENDBRANCH  14  16
ENDBRANCH  12  14
ENDBRANCH   5   6
ENDBRANCH   3   5
ENDBRANCH   2   3
ENDBRANCH   1   2
BRANCH   1  24
ATOM     24  C   UNL A   1      32.814  30.772  27.283  1.00  0.00     0.275 C 
BRANCH  24  25
ATOM     25  O   UNL A   1      34.229  31.001  27.150  1.00  0.00    -0.458 OA
BRANCH  25  26
ATOM     26  C   UNL A   1      34.860  31.234  28.331  1.00  0.00     0.338 C 
ATOM     27  O   UNL A   1      34.394  31.834  29.285  1.00  0.00    -0.246 OA
BRANCH  26  28
ATOM     28  C   UNL A   1      36.133  30.478  28.396  1.00  0.00     0.060 A 
ATOM     29  C   UNL A   1      36.450  29.875  29.619  1.00  0.00     0.016 A 
ATOM     30  C   UNL A   1      37.006  30.351  27.311  1.00  0.00     0.016 A 
ATOM     31  C   UNL A   1      37.665  29.210  29.785  1.00  0.00     0.010 A 
ATOM     32  C   UNL A   1      38.226  29.677  27.477  1.00  0.00     0.010 A 
ATOM     33  C   UNL A   1      38.586  29.146  28.730  1.00  0.00    -0.014 A 
BRANCH  33  34
ATOM     34  C   UNL A   1      39.980  28.711  29.023  1.00  0.00     0.031 A 
ATOM     35  C   UNL A   1      40.878  29.634  29.808  1.00  0.00     0.074 A 
ATOM     36  C   UNL A   1      40.430  27.485  28.691  1.00  0.00     0.049 A 
ATOM     37  N   UNL A   1      42.085  29.424  30.271  1.00  0.00    -0.248 NA
ATOM     38  C   UNL A   1      40.341  30.970  30.115  1.00  0.00     0.031 C 
ATOM     39  C   UNL A   1      39.668  26.466  27.972  1.00  0.00     0.029 A 
ATOM     40  N   UNL A   1      41.643  26.885  28.938  1.00  0.00    -0.354 N 
ATOM     41  C   UNL A   1      42.447  30.594  30.929  1.00  0.00     0.074 A 
ATOM     42  C   UNL A   1      41.356  31.528  30.758  1.00  0.00     0.031 C 
ATOM     43  C   UNL A   1      40.427  25.361  27.848  1.00  0.00     0.029 A 
ATOM     44  C   UNL A   1      41.735  25.600  28.460  1.00  0.00     0.049 A 
ATOM     45  H   UNL A   1      42.378  27.336  29.414  1.00  0.00     0.167 HD
ATOM     46  C   UNL A   1      43.574  30.870  31.630  1.00  0.00     0.031 A 
ATOM     47  C   UNL A   1      42.751  24.712  28.510  1.00  0.00     0.031 A 
ATOM     48  C   UNL A   1      44.677  29.962  31.793  1.00  0.00     0.049 A 
ATOM     49  C   UNL A   1      44.035  25.071  29.219  1.00  0.00     0.074 A 
ATOM     50  C   UNL A   1      45.851  30.156  32.500  1.00  0.00     0.029 A 
ATOM     51  N   UNL A   1      44.754  28.696  31.232  1.00  0.00    -0.354 N 
ATOM     52  N   UNL A   1      44.339  26.165  29.874  1.00  0.00    -0.248 NA
ATOM     53  C   UNL A   1      45.107  24.063  29.206  1.00  0.00     0.031 C 
ATOM     54  C   UNL A   1      46.667  29.036  32.312  1.00  0.00     0.029 A 
ATOM     55  C   UNL A   1      45.970  28.113  31.548  1.00  0.00     0.049 A 
ATOM     56  H   UNL A   1      44.049  28.275  30.691  1.00  0.00     0.167 HD
ATOM     57  C   UNL A   1      45.622  25.962  30.379  1.00  0.00     0.074 A 
ATOM     58  C   UNL A   1      46.032  24.639  29.961  1.00  0.00     0.031 C 
ATOM     59  C   UNL A   1      46.384  26.797  31.130  1.00  0.00     0.031 A 
BRANCH  46  60
ATOM     60  C   UNL A   1      43.679  32.241  32.244  1.00  0.00    -0.014 A 
ATOM     61  C   UNL A   1      43.255  32.486  33.564  1.00  0.00     0.010 A 
ATOM     62  C   UNL A   1      44.220  33.299  31.492  1.00  0.00     0.010 A 
ATOM     63  C   UNL A   1      43.315  33.775  34.097  1.00  0.00     0.020 A 
ATOM     64  C   UNL A   1      44.313  34.583  32.034  1.00  0.00     0.020 A 
ATOM     65  C   UNL A   1      43.838  34.817  33.324  1.00  0.00     0.054 A 
BRANCH  65  66
ATOM     66  S   UNL A   1      43.893  36.483  34.038  1.00  0.00     0.124 S 
ATOM     67  O   UNL A   1      45.070  37.050  33.384  1.00  0.00    -0.237 OA
ATOM     68  O   UNL A   1      42.611  37.051  33.627  1.00  0.00    -0.237 OA
ATOM     69  O   UNL A   1      44.035  36.242  35.472  1.00  0.00    -0.744 OA
ENDBRANCH  65  66
ENDBRANCH  46  60
BRANCH  47  70
ATOM     70  C   UNL A   1      42.602  23.377  27.863  1.00  0.00    -0.014 A 
ATOM     71  C   UNL A   1      42.965  23.181  26.518  1.00  0.00     0.010 A 
ATOM     72  C   UNL A   1      42.079  22.293  28.593  1.00  0.00     0.010 A 
ATOM     73  C   UNL A   1      42.800  21.931  25.914  1.00  0.00     0.020 A 
ATOM     74  C   UNL A   1      41.940  21.036  28.001  1.00  0.00     0.020 A 
ATOM     75  C   UNL A   1      42.294  20.864  26.662  1.00  0.00     0.054 A 
BRANCH  75  76
ATOM     76  S   UNL A   1      42.151  19.234  25.877  1.00  0.00     0.124 S 
ATOM     77  O   UNL A   1      40.712  19.126  25.660  1.00  0.00    -0.237 OA
ATOM     78  O   UNL A   1      42.963  19.393  24.674  1.00  0.00    -0.237 OA
ATOM     79  O   UNL A   1      42.703  18.324  26.879  1.00  0.00    -0.744 OA
ENDBRANCH  75  76
ENDBRANCH  47  70
BRANCH  59  80
ATOM     80  C   UNL A   1      47.735  26.305  31.590  1.00  0.00    -0.014 A 
ATOM     81  C   UNL A   1      47.895  25.619  32.807  1.00  0.00     0.010 A 
ATOM     82  C   UNL A   1      48.855  26.471  30.752  1.00  0.00     0.010 A 
ATOM     83  C   UNL A   1      49.151  25.136  33.190  1.00  0.00     0.020 A 
ATOM     84  C   UNL A   1      50.105  25.964  31.116  1.00  0.00     0.020 A 
ATOM     85  C   UNL A   1      50.249  25.310  32.340  1.00  0.00     0.054 A 
BRANCH  85  86
ATOM     86  S   UNL A   1      51.856  24.632  32.839  1.00  0.00     0.124 S 
ATOM     87  O   UNL A   1      52.748  25.181  31.821  1.00  0.00    -0.237 OA
ATOM     88  O   UNL A   1      52.029  25.175  34.184  1.00  0.00    -0.237 OA
ATOM     89  O   UNL A   1      51.658  23.185  32.778  1.00  0.00    -0.744 OA
ENDBRANCH  85  86
ENDBRANCH  59  80
ENDBRANCH  33  34
ENDBRANCH  26  28
ENDBRANCH  25  26
ENDBRANCH  24  25
ENDBRANCH   1  24
TORSDOF 17
ENDMDL
