MODEL 1
REMARK VINA RESULT:     -11.0      0.000      0.000
REMARK SMILES COc1cc(/C=N/c2cccc(F)c2)ccc1OCc1cccc(C(=O)OCCOC(=O)c2ccc(-c3c4nc(c(-c5ccc(S(=O)(=O)[O-])cc5)c5ccc([nH]5)c(-c5ccc(S(=O)(=O)[O-])cc5)c5nc(c(-c6ccc(S(=O)(=O)[O-])cc6)c6ccc3[nH]6)C=C5)C=C4)cc2)c1
REMARK SMILES IDX 28 1 27 2 25 3 26 4 24 5 20 6 21 7 93 8 22 9 23 10 19 11
REMARK SMILES IDX 18 12 17 13 3 14 4 15 5 16 16 17 15 18 2 19 1 20 6 21 7 22
REMARK SMILES IDX 8 23 9 24 14 25 10 26 12 27 11 28 13 29 29 30 30 31 31 32
REMARK SMILES IDX 32 33 33 34 34 35 92 36 35 37 91 38 36 39 37 40 38 41 85 42
REMARK SMILES IDX 39 43 90 44 84 45 86 46 40 47 89 48 83 49 82 50 41 52 71 53
REMARK SMILES IDX 52 54 70 55 53 56 56 57 69 58 87 59 54 60 55 61 68 63 88 64
REMARK SMILES IDX 57 65 42 66 43 67 51 68 44 69 50 70 45 71 46 72 47 73 48 74
REMARK SMILES IDX 49 75 72 76 73 77 81 78 74 79 80 80 75 81 76 82 77 83 78 84
REMARK SMILES IDX 79 85 58 86 59 87 67 88 60 89 66 90 61 91 62 92 63 93 64 94
REMARK SMILES IDX 65 95
REMARK H PARENT 86 51 56 62
REMARK Flexibility Score: inf
ROOT
ATOM      1  C   UNL A   1      35.461  33.306  30.520  1.00  0.00     0.275 C 
ENDROOT
BRANCH   1   2
ATOM      2  O   UNL A   1      35.570  32.843  29.160  1.00  0.00    -0.458 OA
BRANCH   2   3
ATOM      3  C   UNL A   1      34.384  32.672  28.524  1.00  0.00     0.338 C 
ATOM      4  O   UNL A   1      33.503  33.506  28.429  1.00  0.00    -0.246 OA
BRANCH   3   5
ATOM      5  C   UNL A   1      34.261  31.323  27.913  1.00  0.00     0.060 A 
ATOM      6  C   UNL A   1      33.206  29.704  26.443  1.00  0.00    -0.010 A 
ATOM      7  C   UNL A   1      34.335  28.884  26.585  1.00  0.00     0.007 A 
ATOM      8  C   UNL A   1      33.176  30.937  27.113  1.00  0.00     0.023 A 
ATOM      9  C   UNL A   1      35.366  29.213  27.454  1.00  0.00     0.001 A 
ATOM     10  C   UNL A   1      35.337  30.439  28.098  1.00  0.00     0.016 A 
BRANCH   6  11
ATOM     11  C   UNL A   1      32.069  29.255  25.550  1.00  0.00     0.265 C 
BRANCH  11  12
ATOM     12  O   UNL A   1      31.192  28.301  26.153  1.00  0.00    -0.485 OA
BRANCH  12  13
ATOM     13  C   UNL A   1      31.170  27.003  25.712  1.00  0.00     0.161 A 
ATOM     14  C   UNL A   1      30.507  26.468  24.596  1.00  0.00     0.161 A 
ATOM     15  C   UNL A   1      30.651  25.102  24.302  1.00  0.00     0.060 A 
ATOM     16  C   UNL A   1      31.409  24.264  25.126  1.00  0.00    -0.003 A 
ATOM     17  C   UNL A   1      31.905  26.141  26.546  1.00  0.00     0.051 A 
ATOM     18  C   UNL A   1      32.023  24.777  26.264  1.00  0.00     0.014 A 
BRANCH  14  19
ATOM     19  O   UNL A   1      29.640  27.258  23.886  1.00  0.00    -0.493 OA
ATOM     20  C   UNL A   1      30.172  27.861  22.707  1.00  0.00     0.278 C 
ENDBRANCH  14  19
BRANCH  16  21
ATOM     21  C   UNL A   1      31.489  22.815  24.832  1.00  0.00     0.120 C 
ATOM     22  N   UNL A   1      32.597  22.166  24.999  1.00  0.00    -0.256 NA
BRANCH  22  23
ATOM     23  C   UNL A   1      32.656  20.824  24.596  1.00  0.00     0.066 A 
ATOM     24  C   UNL A   1      32.343  20.475  23.277  1.00  0.00     0.028 A 
ATOM     25  C   UNL A   1      32.875  19.810  25.531  1.00  0.00     0.067 A 
ATOM     26  C   UNL A   1      32.246  19.131  22.897  1.00  0.00     0.005 A 
ATOM     27  C   UNL A   1      32.773  18.477  25.147  1.00  0.00     0.125 A 
ATOM     28  C   UNL A   1      32.454  18.127  23.842  1.00  0.00     0.039 A 
ATOM     29  F   UNL A   1      32.959  17.516  26.064  1.00  0.00    -0.207 F 
ENDBRANCH  22  23
ENDBRANCH  16  21
ENDBRANCH  12  13
ENDBRANCH  11  12
ENDBRANCH   6  11
ENDBRANCH   3   5
ENDBRANCH   2   3
ENDBRANCH   1   2
BRANCH   1  30
ATOM     30  C   UNL A   1      35.293  32.143  31.500  1.00  0.00     0.275 C 
BRANCH  30  31
ATOM     31  O   UNL A   1      36.306  31.135  31.311  1.00  0.00    -0.458 OA
BRANCH  31  32
ATOM     32  C   UNL A   1      37.524  31.454  31.801  1.00  0.00     0.338 C 
ATOM     33  O   UNL A   1      37.767  32.132  32.789  1.00  0.00    -0.246 OA
BRANCH  32  34
ATOM     34  C   UNL A   1      38.589  30.802  31.027  1.00  0.00     0.060 A 
ATOM     35  C   UNL A   1      39.607  30.169  31.730  1.00  0.00     0.016 A 
ATOM     36  C   UNL A   1      38.708  30.990  29.653  1.00  0.00     0.016 A 
ATOM     37  C   UNL A   1      40.793  29.819  31.095  1.00  0.00     0.010 A 
ATOM     38  C   UNL A   1      39.859  30.531  28.993  1.00  0.00     0.010 A 
ATOM     39  C   UNL A   1      40.936  29.974  29.709  1.00  0.00    -0.014 A 
BRANCH  39  40
ATOM     40  C   UNL A   1      42.211  29.583  29.031  1.00  0.00     0.031 A 
ATOM     41  C   UNL A   1      42.379  28.196  28.455  1.00  0.00     0.074 A 
ATOM     42  C   UNL A   1      43.224  30.468  28.916  1.00  0.00     0.049 A 
ATOM     43  N   UNL A   1      43.461  27.614  28.001  1.00  0.00    -0.248 NA
ATOM     44  C   UNL A   1      41.179  27.347  28.399  1.00  0.00     0.031 C 
ATOM     45  C   UNL A   1      43.194  31.862  29.367  1.00  0.00     0.029 A 
ATOM     46  N   UNL A   1      44.481  30.331  28.375  1.00  0.00    -0.354 N 
ATOM     47  C   UNL A   1      43.088  26.313  27.674  1.00  0.00     0.074 A 
ATOM     48  C   UNL A   1      41.681  26.191  27.988  1.00  0.00     0.031 C 
ATOM     49  C   UNL A   1      44.347  32.462  29.037  1.00  0.00     0.029 A 
ATOM     50  C   UNL A   1      45.246  31.471  28.461  1.00  0.00     0.049 A 
ATOM     51  H   UNL A   1      44.803  29.496  27.964  1.00  0.00     0.167 HD
ATOM     52  C   UNL A   1      43.849  25.312  27.165  1.00  0.00     0.031 A 
ATOM     53  C   UNL A   1      46.542  31.695  28.167  1.00  0.00     0.031 A 
ATOM     54  C   UNL A   1      45.241  25.455  26.817  1.00  0.00     0.049 A 
ATOM     55  C   UNL A   1      47.382  30.559  27.661  1.00  0.00     0.074 A 
ATOM     56  C   UNL A   1      46.093  24.508  26.273  1.00  0.00     0.029 A 
ATOM     57  N   UNL A   1      45.984  26.616  26.970  1.00  0.00    -0.354 N 
ATOM     58  N   UNL A   1      47.025  29.324  27.405  1.00  0.00    -0.248 NA
ATOM     59  C   UNL A   1      48.803  30.842  27.423  1.00  0.00     0.031 C 
ATOM     60  C   UNL A   1      47.365  25.078  26.158  1.00  0.00     0.029 A 
ATOM     61  C   UNL A   1      47.290  26.402  26.559  1.00  0.00     0.049 A 
ATOM     62  H   UNL A   1      45.634  27.468  27.319  1.00  0.00     0.167 HD
ATOM     63  C   UNL A   1      48.174  28.686  26.952  1.00  0.00     0.074 A 
ATOM     64  C   UNL A   1      49.230  29.677  26.955  1.00  0.00     0.031 C 
ATOM     65  C   UNL A   1      48.336  27.395  26.569  1.00  0.00     0.031 A 
BRANCH  52  66
ATOM     66  C   UNL A   1      43.209  23.953  27.008  1.00  0.00    -0.014 A 
ATOM     67  C   UNL A   1      43.008  23.092  28.102  1.00  0.00     0.010 A 
ATOM     68  C   UNL A   1      42.778  23.541  25.732  1.00  0.00     0.010 A 
ATOM     69  C   UNL A   1      42.443  21.826  27.913  1.00  0.00     0.020 A 
ATOM     70  C   UNL A   1      42.181  22.290  25.544  1.00  0.00     0.020 A 
ATOM     71  C   UNL A   1      42.038  21.431  26.634  1.00  0.00     0.054 A 
BRANCH  71  72
ATOM     72  S   UNL A   1      41.312  19.783  26.419  1.00  0.00     0.124 S 
ATOM     73  O   UNL A   1      42.155  19.217  25.369  1.00  0.00    -0.237 OA
ATOM     74  O   UNL A   1      41.475  19.186  27.743  1.00  0.00    -0.237 OA
ATOM     75  O   UNL A   1      39.931  20.059  26.028  1.00  0.00    -0.744 OA
ENDBRANCH  71  72
ENDBRANCH  52  66
BRANCH  53  76
ATOM     76  C   UNL A   1      47.129  33.047  28.394  1.00  0.00    -0.014 A 
ATOM     77  C   UNL A   1      47.004  34.053  27.421  1.00  0.00     0.010 A 
ATOM     78  C   UNL A   1      47.784  33.346  29.605  1.00  0.00     0.010 A 
ATOM     79  C   UNL A   1      47.521  35.331  27.655  1.00  0.00     0.020 A 
ATOM     80  C   UNL A   1      48.272  34.631  29.856  1.00  0.00     0.020 A 
ATOM     81  C   UNL A   1      48.143  35.615  28.875  1.00  0.00     0.054 A 
BRANCH  81  82
ATOM     82  S   UNL A   1      48.737  37.300  29.183  1.00  0.00     0.124 S 
ATOM     83  O   UNL A   1      49.811  37.074  30.146  1.00  0.00    -0.237 OA
ATOM     84  O   UNL A   1      49.161  37.732  27.852  1.00  0.00    -0.237 OA
ATOM     85  O   UNL A   1      47.560  37.988  29.708  1.00  0.00    -0.744 OA
ENDBRANCH  81  82
ENDBRANCH  53  76
BRANCH  65  86
ATOM     86  C   UNL A   1      49.699  26.988  26.077  1.00  0.00    -0.014 A 
ATOM     87  C   UNL A   1      50.096  27.208  24.747  1.00  0.00     0.010 A 
ATOM     88  C   UNL A   1      50.614  26.413  26.979  1.00  0.00     0.010 A 
ATOM     89  C   UNL A   1      51.373  26.831  24.319  1.00  0.00     0.020 A 
ATOM     90  C   UNL A   1      51.901  26.064  26.563  1.00  0.00     0.020 A 
ATOM     91  C   UNL A   1      52.267  26.262  25.231  1.00  0.00     0.054 A 
BRANCH  91  92
ATOM     92  S   UNL A   1      53.931  25.821  24.661  1.00  0.00     0.124 S 
ATOM     93  O   UNL A   1      53.879  26.195  23.250  1.00  0.00    -0.237 OA
ATOM     94  O   UNL A   1      54.788  26.654  25.501  1.00  0.00    -0.237 OA
ATOM     95  O   UNL A   1      54.018  24.385  24.922  1.00  0.00    -0.744 OA
ENDBRANCH  91  92
ENDBRANCH  65  86
ENDBRANCH  39  40
ENDBRANCH  32  34
ENDBRANCH  31  32
ENDBRANCH  30  31
ENDBRANCH   1  30
TORSDOF 20
ENDMDL
MODEL 2
REMARK VINA RESULT:     -11.0      1.114      7.920
REMARK SMILES COc1cc(/C=N/c2cccc(F)c2)ccc1OCc1cccc(C(=O)OCCOC(=O)c2ccc(-c3c4nc(c(-c5ccc(S(=O)(=O)[O-])cc5)c5ccc([nH]5)c(-c5ccc(S(=O)(=O)[O-])cc5)c5nc(c(-c6ccc(S(=O)(=O)[O-])cc6)c6ccc3[nH]6)C=C5)C=C4)cc2)c1
REMARK SMILES IDX 28 1 27 2 25 3 26 4 24 5 20 6 21 7 93 8 22 9 23 10 19 11
REMARK SMILES IDX 18 12 17 13 3 14 4 15 5 16 16 17 15 18 2 19 1 20 6 21 7 22
REMARK SMILES IDX 8 23 9 24 14 25 10 26 12 27 11 28 13 29 29 30 30 31 31 32
REMARK SMILES IDX 32 33 33 34 34 35 92 36 35 37 91 38 36 39 37 40 38 41 85 42
REMARK SMILES IDX 39 43 90 44 84 45 86 46 40 47 89 48 83 49 82 50 41 52 71 53
REMARK SMILES IDX 52 54 70 55 53 56 56 57 69 58 87 59 54 60 55 61 68 63 88 64
REMARK SMILES IDX 57 65 42 66 43 67 51 68 44 69 50 70 45 71 46 72 47 73 48 74
REMARK SMILES IDX 49 75 72 76 73 77 81 78 74 79 80 80 75 81 76 82 77 83 78 84
REMARK SMILES IDX 79 85 58 86 59 87 67 88 60 89 66 90 61 91 62 92 63 93 64 94
REMARK SMILES IDX 65 95
REMARK H PARENT 86 51 56 62
REMARK Flexibility Score: inf
ROOT
ATOM      1  C   UNL A   1      34.574  33.460  29.796  1.00  0.00     0.275 C 
ENDROOT
BRANCH   1   2
ATOM      2  O   UNL A   1      34.760  32.945  28.463  1.00  0.00    -0.458 OA
BRANCH   2   3
ATOM      3  C   UNL A   1      33.625  32.505  27.865  1.00  0.00     0.338 C 
ATOM      4  O   UNL A   1      32.656  33.186  27.593  1.00  0.00    -0.246 OA
BRANCH   3   5
ATOM      5  C   UNL A   1      33.685  31.055  27.541  1.00  0.00     0.060 A 
ATOM      6  C   UNL A   1      32.785  29.017  26.576  1.00  0.00    -0.010 A 
ATOM      7  C   UNL A   1      34.056  28.435  26.694  1.00  0.00     0.007 A 
ATOM      8  C   UNL A   1      32.604  30.342  27.002  1.00  0.00     0.023 A 
ATOM      9  C   UNL A   1      35.102  29.099  27.318  1.00  0.00     0.001 A 
ATOM     10  C   UNL A   1      34.921  30.413  27.720  1.00  0.00     0.016 A 
BRANCH   6  11
ATOM     11  C   UNL A   1      31.654  28.216  25.967  1.00  0.00     0.265 C 
BRANCH  11  12
ATOM     12  O   UNL A   1      31.480  26.918  26.539  1.00  0.00    -0.485 OA
BRANCH  12  13
ATOM     13  C   UNL A   1      31.925  25.802  25.879  1.00  0.00     0.161 A 
ATOM     14  C   UNL A   1      32.227  25.653  24.516  1.00  0.00     0.161 A 
ATOM     15  C   UNL A   1      32.710  24.419  24.051  1.00  0.00     0.060 A 
ATOM     16  C   UNL A   1      32.854  23.329  24.917  1.00  0.00    -0.003 A 
ATOM     17  C   UNL A   1      32.048  24.689  26.729  1.00  0.00     0.051 A 
ATOM     18  C   UNL A   1      32.504  23.455  26.257  1.00  0.00     0.014 A 
BRANCH  14  19
ATOM     19  O   UNL A   1      31.935  26.672  23.646  1.00  0.00    -0.493 OA
ATOM     20  C   UNL A   1      31.383  26.279  22.391  1.00  0.00     0.278 C 
ENDBRANCH  14  19
BRANCH  16  21
ATOM     21  C   UNL A   1      33.300  22.020  24.388  1.00  0.00     0.120 C 
ATOM     22  N   UNL A   1      32.505  20.998  24.395  1.00  0.00    -0.256 NA
BRANCH  22  23
ATOM     23  C   UNL A   1      33.009  19.752  23.995  1.00  0.00     0.066 A 
ATOM     24  C   UNL A   1      32.260  18.936  23.140  1.00  0.00     0.028 A 
ATOM     25  C   UNL A   1      34.181  19.245  24.559  1.00  0.00     0.067 A 
ATOM     26  C   UNL A   1      32.673  17.629  22.856  1.00  0.00     0.005 A 
ATOM     27  C   UNL A   1      34.585  17.945  24.274  1.00  0.00     0.125 A 
ATOM     28  C   UNL A   1      33.838  17.129  23.434  1.00  0.00     0.039 A 
ATOM     29  F   UNL A   1      35.698  17.465  24.847  1.00  0.00    -0.207 F 
ENDBRANCH  22  23
ENDBRANCH  16  21
ENDBRANCH  12  13
ENDBRANCH  11  12
ENDBRANCH   6  11
ENDBRANCH   3   5
ENDBRANCH   2   3
ENDBRANCH   1   2
BRANCH   1  30
ATOM     30  C   UNL A   1      35.163  32.522  30.851  1.00  0.00     0.275 C 
BRANCH  30  31
ATOM     31  O   UNL A   1      36.338  31.843  30.366  1.00  0.00    -0.458 OA
BRANCH  31  32
ATOM     32  C   UNL A   1      36.647  30.703  31.023  1.00  0.00     0.338 C 
ATOM     33  O   UNL A   1      36.024  30.188  31.939  1.00  0.00    -0.246 OA
BRANCH  32  34
ATOM     34  C   UNL A   1      37.835  30.066  30.438  1.00  0.00     0.060 A 
ATOM     35  C   UNL A   1      38.665  29.342  31.286  1.00  0.00     0.016 A 
ATOM     36  C   UNL A   1      38.248  30.351  29.140  1.00  0.00     0.016 A 
ATOM     37  C   UNL A   1      39.950  28.991  30.886  1.00  0.00     0.010 A 
ATOM     38  C   UNL A   1      39.500  29.896  28.700  1.00  0.00     0.010 A 
ATOM     39  C   UNL A   1      40.387  29.243  29.579  1.00  0.00    -0.014 A 
BRANCH  39  40
ATOM     40  C   UNL A   1      41.767  28.851  29.153  1.00  0.00     0.031 A 
ATOM     41  C   UNL A   1      42.901  29.848  29.219  1.00  0.00     0.074 A 
ATOM     42  C   UNL A   1      42.019  27.599  28.715  1.00  0.00     0.049 A 
ATOM     43  N   UNL A   1      44.112  29.758  28.727  1.00  0.00    -0.248 NA
ATOM     44  C   UNL A   1      42.634  31.118  29.912  1.00  0.00     0.031 C 
ATOM     45  C   UNL A   1      41.046  26.507  28.649  1.00  0.00     0.029 A 
ATOM     46  N   UNL A   1      43.179  27.027  28.247  1.00  0.00    -0.354 N 
ATOM     47  C   UNL A   1      44.723  30.982  28.987  1.00  0.00     0.074 A 
ATOM     48  C   UNL A   1      43.747  31.798  29.675  1.00  0.00     0.031 C 
ATOM     49  C   UNL A   1      41.656  25.391  28.225  1.00  0.00     0.029 A 
ATOM     50  C   UNL A   1      43.032  25.711  27.872  1.00  0.00     0.049 A 
ATOM     51  H   UNL A   1      44.034  27.513  28.186  1.00  0.00     0.167 HD
ATOM     52  C   UNL A   1      45.979  31.389  28.675  1.00  0.00     0.031 A 
ATOM     53  C   UNL A   1      43.881  24.862  27.261  1.00  0.00     0.031 A 
ATOM     54  C   UNL A   1      46.959  30.555  28.025  1.00  0.00     0.049 A 
ATOM     55  C   UNL A   1      45.246  25.350  26.871  1.00  0.00     0.074 A 
ATOM     56  C   UNL A   1      48.266  30.866  27.688  1.00  0.00     0.029 A 
ATOM     57  N   UNL A   1      46.745  29.245  27.621  1.00  0.00    -0.354 N 
ATOM     58  N   UNL A   1      45.790  26.525  27.081  1.00  0.00    -0.248 NA
ATOM     59  C   UNL A   1      46.104  24.406  26.146  1.00  0.00     0.031 C 
ATOM     60  C   UNL A   1      48.820  29.767  27.023  1.00  0.00     0.029 A 
ATOM     61  C   UNL A   1      47.885  28.744  27.012  1.00  0.00     0.049 A 
ATOM     62  H   UNL A   1      45.907  28.745  27.748  1.00  0.00     0.167 HD
ATOM     63  C   UNL A   1      47.065  26.453  26.533  1.00  0.00     0.074 A 
ATOM     64  C   UNL A   1      47.215  25.114  25.999  1.00  0.00     0.031 C 
ATOM     65  C   UNL A   1      48.023  27.411  26.479  1.00  0.00     0.031 A 
BRANCH  52  66
ATOM     66  C   UNL A   1      46.350  32.821  28.980  1.00  0.00    -0.014 A 
ATOM     67  C   UNL A   1      46.980  33.190  30.182  1.00  0.00     0.010 A 
ATOM     68  C   UNL A   1      46.077  33.818  28.024  1.00  0.00     0.010 A 
ATOM     69  C   UNL A   1      47.278  34.531  30.444  1.00  0.00     0.020 A 
ATOM     70  C   UNL A   1      46.404  35.156  28.266  1.00  0.00     0.020 A 
ATOM     71  C   UNL A   1      46.983  35.507  29.486  1.00  0.00     0.054 A 
BRANCH  71  72
ATOM     72  S   UNL A   1      47.376  37.239  29.855  1.00  0.00     0.124 S 
ATOM     73  O   UNL A   1      47.682  37.181  31.282  1.00  0.00    -0.237 OA
ATOM     74  O   UNL A   1      48.517  37.501  28.980  1.00  0.00    -0.237 OA
ATOM     75  O   UNL A   1      46.152  37.956  29.509  1.00  0.00    -0.744 OA
ENDBRANCH  71  72
ENDBRANCH  52  66
BRANCH  53  76
ATOM     76  C   UNL A   1      43.437  23.476  26.939  1.00  0.00    -0.014 A 
ATOM     77  C   UNL A   1      43.554  22.973  25.632  1.00  0.00     0.010 A 
ATOM     78  C   UNL A   1      42.929  22.636  27.950  1.00  0.00     0.010 A 
ATOM     79  C   UNL A   1      43.172  21.658  25.343  1.00  0.00     0.020 A 
ATOM     80  C   UNL A   1      42.580  21.312  27.673  1.00  0.00     0.020 A 
ATOM     81  C   UNL A   1      42.697  20.833  26.368  1.00  0.00     0.054 A 
BRANCH  81  82
ATOM     82  S   UNL A   1      42.282  19.111  25.982  1.00  0.00     0.124 S 
ATOM     83  O   UNL A   1      43.084  18.864  24.788  1.00  0.00    -0.237 OA
ATOM     84  O   UNL A   1      42.710  18.407  27.189  1.00  0.00    -0.237 OA
ATOM     85  O   UNL A   1      40.837  19.146  25.769  1.00  0.00    -0.744 OA
ENDBRANCH  81  82
ENDBRANCH  53  76
BRANCH  65  86
ATOM     86  C   UNL A   1      49.341  27.033  25.857  1.00  0.00    -0.014 A 
ATOM     87  C   UNL A   1      49.639  27.346  24.519  1.00  0.00     0.010 A 
ATOM     88  C   UNL A   1      50.314  26.389  26.643  1.00  0.00     0.010 A 
ATOM     89  C   UNL A   1      50.875  26.993  23.969  1.00  0.00     0.020 A 
ATOM     90  C   UNL A   1      51.562  26.063  26.106  1.00  0.00     0.020 A 
ATOM     91  C   UNL A   1      51.829  26.355  24.768  1.00  0.00     0.054 A 
BRANCH  91  92
ATOM     92  S   UNL A   1      53.441  25.946  24.042  1.00  0.00     0.124 S 
ATOM     93  O   UNL A   1      53.727  24.649  24.648  1.00  0.00    -0.237 OA
ATOM     94  O   UNL A   1      53.149  25.922  22.611  1.00  0.00    -0.237 OA
ATOM     95  O   UNL A   1      54.305  27.042  24.477  1.00  0.00    -0.744 OA
ENDBRANCH  91  92
ENDBRANCH  65  86
ENDBRANCH  39  40
ENDBRANCH  32  34
ENDBRANCH  31  32
ENDBRANCH  30  31
ENDBRANCH   1  30
TORSDOF 20
ENDMDL
MODEL 3
REMARK VINA RESULT:     -10.8      5.842     10.190
REMARK SMILES COc1cc(/C=N/c2cccc(F)c2)ccc1OCc1cccc(C(=O)OCCOC(=O)c2ccc(-c3c4nc(c(-c5ccc(S(=O)(=O)[O-])cc5)c5ccc([nH]5)c(-c5ccc(S(=O)(=O)[O-])cc5)c5nc(c(-c6ccc(S(=O)(=O)[O-])cc6)c6ccc3[nH]6)C=C5)C=C4)cc2)c1
REMARK SMILES IDX 28 1 27 2 25 3 26 4 24 5 20 6 21 7 93 8 22 9 23 10 19 11
REMARK SMILES IDX 18 12 17 13 3 14 4 15 5 16 16 17 15 18 2 19 1 20 6 21 7 22
REMARK SMILES IDX 8 23 9 24 14 25 10 26 12 27 11 28 13 29 29 30 30 31 31 32
REMARK SMILES IDX 32 33 33 34 34 35 92 36 35 37 91 38 36 39 37 40 38 41 85 42
REMARK SMILES IDX 39 43 90 44 84 45 86 46 40 47 89 48 83 49 82 50 41 52 71 53
REMARK SMILES IDX 52 54 70 55 53 56 56 57 69 58 87 59 54 60 55 61 68 63 88 64
REMARK SMILES IDX 57 65 42 66 43 67 51 68 44 69 50 70 45 71 46 72 47 73 48 74
REMARK SMILES IDX 49 75 72 76 73 77 81 78 74 79 80 80 75 81 76 82 77 83 78 84
REMARK SMILES IDX 79 85 58 86 59 87 67 88 60 89 66 90 61 91 62 92 63 93 64 94
REMARK SMILES IDX 65 95
REMARK H PARENT 86 51 56 62
REMARK Flexibility Score: inf
ROOT
ATOM      1  C   UNL A   1      34.744  33.739  28.044  1.00  0.00     0.275 C 
ENDROOT
BRANCH   1   2
ATOM      2  O   UNL A   1      34.210  32.487  28.516  1.00  0.00    -0.458 OA
BRANCH   2   3
ATOM      3  C   UNL A   1      34.826  31.386  28.018  1.00  0.00     0.338 C 
ATOM      4  O   UNL A   1      36.006  31.117  28.140  1.00  0.00    -0.246 OA
BRANCH   3   5
ATOM      5  C   UNL A   1      33.884  30.491  27.295  1.00  0.00     0.060 A 
ATOM      6  C   UNL A   1      33.168  28.325  26.463  1.00  0.00    -0.010 A 
ATOM      7  C   UNL A   1      31.898  28.871  26.225  1.00  0.00     0.007 A 
ATOM      8  C   UNL A   1      34.167  29.148  27.008  1.00  0.00     0.023 A 
ATOM      9  C   UNL A   1      31.642  30.222  26.411  1.00  0.00     0.001 A 
ATOM     10  C   UNL A   1      32.628  31.023  26.964  1.00  0.00     0.016 A 
BRANCH   6  11
ATOM     11  C   UNL A   1      33.419  26.864  26.159  1.00  0.00     0.265 C 
BRANCH  11  12
ATOM     12  O   UNL A   1      32.250  26.045  26.215  1.00  0.00    -0.485 OA
BRANCH  12  13
ATOM     13  C   UNL A   1      32.350  24.682  26.106  1.00  0.00     0.161 A 
ATOM     14  C   UNL A   1      31.408  23.703  26.465  1.00  0.00     0.161 A 
ATOM     15  C   UNL A   1      31.703  22.350  26.231  1.00  0.00     0.060 A 
ATOM     16  C   UNL A   1      32.931  21.964  25.685  1.00  0.00    -0.003 A 
ATOM     17  C   UNL A   1      33.590  24.274  25.585  1.00  0.00     0.051 A 
ATOM     18  C   UNL A   1      33.889  22.925  25.378  1.00  0.00     0.014 A 
BRANCH  14  19
ATOM     19  O   UNL A   1      30.277  24.075  27.144  1.00  0.00    -0.493 OA
ATOM     20  C   UNL A   1      29.301  23.051  27.332  1.00  0.00     0.278 C 
ENDBRANCH  14  19
BRANCH  16  21
ATOM     21  C   UNL A   1      33.243  20.527  25.511  1.00  0.00     0.120 C 
ATOM     22  N   UNL A   1      32.620  19.817  24.625  1.00  0.00    -0.256 NA
BRANCH  22  23
ATOM     23  C   UNL A   1      32.864  18.437  24.578  1.00  0.00     0.066 A 
ATOM     24  C   UNL A   1      32.600  17.641  25.698  1.00  0.00     0.028 A 
ATOM     25  C   UNL A   1      33.512  17.866  23.480  1.00  0.00     0.067 A 
ATOM     26  C   UNL A   1      32.981  16.294  25.724  1.00  0.00     0.005 A 
ATOM     27  C   UNL A   1      33.891  16.529  23.514  1.00  0.00     0.125 A 
ATOM     28  C   UNL A   1      33.638  15.738  24.628  1.00  0.00     0.039 A 
ATOM     29  F   UNL A   1      34.537  16.005  22.462  1.00  0.00    -0.207 F 
ENDBRANCH  22  23
ENDBRANCH  16  21
ENDBRANCH  12  13
ENDBRANCH  11  12
ENDBRANCH   6  11
ENDBRANCH   3   5
ENDBRANCH   2   3
ENDBRANCH   1   2
BRANCH   1  30
ATOM     30  C   UNL A   1      34.129  34.930  28.782  1.00  0.00     0.275 C 
BRANCH  30  31
ATOM     31  O   UNL A   1      33.168  34.507  29.769  1.00  0.00    -0.458 OA
BRANCH  31  32
ATOM     32  C   UNL A   1      33.289  35.111  30.973  1.00  0.00     0.338 C 
ATOM     33  O   UNL A   1      32.592  36.009  31.420  1.00  0.00    -0.246 OA
BRANCH  32  34
ATOM     34  C   UNL A   1      34.356  34.487  31.768  1.00  0.00     0.060 A 
ATOM     35  C   UNL A   1      35.428  35.284  32.152  1.00  0.00     0.016 A 
ATOM     36  C   UNL A   1      34.418  33.108  31.947  1.00  0.00     0.016 A 
ATOM     37  C   UNL A   1      36.606  34.709  32.614  1.00  0.00     0.010 A 
ATOM     38  C   UNL A   1      35.565  32.539  32.521  1.00  0.00     0.010 A 
ATOM     39  C   UNL A   1      36.692  33.326  32.827  1.00  0.00    -0.014 A 
BRANCH  39  40
ATOM     40  C   UNL A   1      37.960  32.716  33.336  1.00  0.00     0.031 A 
ATOM     41  C   UNL A   1      38.355  32.867  34.788  1.00  0.00     0.074 A 
ATOM     42  C   UNL A   1      38.763  32.015  32.508  1.00  0.00     0.049 A 
ATOM     43  N   UNL A   1      39.491  32.575  35.371  1.00  0.00    -0.248 NA
ATOM     44  C   UNL A   1      37.348  33.437  35.697  1.00  0.00     0.031 C 
ATOM     45  C   UNL A   1      38.492  31.729  31.097  1.00  0.00     0.029 A 
ATOM     46  N   UNL A   1      39.973  31.402  32.735  1.00  0.00    -0.354 N 
ATOM     47  C   UNL A   1      39.360  32.990  36.693  1.00  0.00     0.074 A 
ATOM     48  C   UNL A   1      38.037  33.560  36.823  1.00  0.00     0.031 C 
ATOM     49  C   UNL A   1      39.470  30.957  30.602  1.00  0.00     0.029 A 
ATOM     50  C   UNL A   1      40.499  30.791  31.619  1.00  0.00     0.049 A 
ATOM     51  H   UNL A   1      40.421  31.400  33.611  1.00  0.00     0.167 HD
ATOM     52  C   UNL A   1      40.262  32.910  37.704  1.00  0.00     0.031 A 
ATOM     53  C   UNL A   1      41.695  30.208  31.407  1.00  0.00     0.031 A 
ATOM     54  C   UNL A   1      41.564  32.304  37.575  1.00  0.00     0.049 A 
ATOM     55  C   UNL A   1      42.702  30.183  32.520  1.00  0.00     0.074 A 
ATOM     56  C   UNL A   1      42.541  32.152  38.545  1.00  0.00     0.029 A 
ATOM     57  N   UNL A   1      42.069  31.744  36.411  1.00  0.00    -0.354 N 
ATOM     58  N   UNL A   1      42.580  30.624  33.749  1.00  0.00    -0.248 NA
ATOM     59  C   UNL A   1      44.013  29.598  32.213  1.00  0.00     0.031 C 
ATOM     60  C   UNL A   1      43.660  31.558  37.951  1.00  0.00     0.029 A 
ATOM     61  C   UNL A   1      43.354  31.272  36.630  1.00  0.00     0.049 A 
ATOM     62  H   UNL A   1      41.586  31.690  35.555  1.00  0.00     0.167 HD
ATOM     63  C   UNL A   1      43.792  30.349  34.370  1.00  0.00     0.074 A 
ATOM     64  C   UNL A   1      44.625  29.689  33.386  1.00  0.00     0.031 C 
ATOM     65  C   UNL A   1      44.177  30.620  35.642  1.00  0.00     0.031 A 
BRANCH  52  66
ATOM     66  C   UNL A   1      39.896  33.545  39.025  1.00  0.00    -0.014 A 
ATOM     67  C   UNL A   1      40.262  34.865  39.345  1.00  0.00     0.010 A 
ATOM     68  C   UNL A   1      39.146  32.804  39.958  1.00  0.00     0.010 A 
ATOM     69  C   UNL A   1      39.935  35.408  40.592  1.00  0.00     0.020 A 
ATOM     70  C   UNL A   1      38.786  33.354  41.192  1.00  0.00     0.020 A 
ATOM     71  C   UNL A   1      39.204  34.647  41.510  1.00  0.00     0.054 A 
BRANCH  71  72
ATOM     72  S   UNL A   1      38.798  35.376  43.120  1.00  0.00     0.124 S 
ATOM     73  O   UNL A   1      39.564  34.533  44.035  1.00  0.00    -0.237 OA
ATOM     74  O   UNL A   1      39.281  36.749  42.981  1.00  0.00    -0.237 OA
ATOM     75  O   UNL A   1      37.347  35.236  43.210  1.00  0.00    -0.744 OA
ENDBRANCH  71  72
ENDBRANCH  52  66
BRANCH  53  76
ATOM     76  C   UNL A   1      42.016  29.646  30.064  1.00  0.00    -0.014 A 
ATOM     77  C   UNL A   1      41.599  28.351  29.713  1.00  0.00     0.010 A 
ATOM     78  C   UNL A   1      42.710  30.421  29.113  1.00  0.00     0.010 A 
ATOM     79  C   UNL A   1      41.868  27.843  28.438  1.00  0.00     0.020 A 
ATOM     80  C   UNL A   1      42.950  29.930  27.827  1.00  0.00     0.020 A 
ATOM     81  C   UNL A   1      42.533  28.639  27.500  1.00  0.00     0.054 A 
BRANCH  81  82
ATOM     82  S   UNL A   1      42.802  27.985  25.830  1.00  0.00     0.124 S 
ATOM     83  O   UNL A   1      41.977  28.874  25.018  1.00  0.00    -0.237 OA
ATOM     84  O   UNL A   1      44.246  28.132  25.663  1.00  0.00    -0.237 OA
ATOM     85  O   UNL A   1      42.330  26.605  25.923  1.00  0.00    -0.744 OA
ENDBRANCH  81  82
ENDBRANCH  53  76
BRANCH  65  86
ATOM     86  C   UNL A   1      45.550  30.162  36.058  1.00  0.00    -0.014 A 
ATOM     87  C   UNL A   1      46.673  30.998  35.929  1.00  0.00     0.010 A 
ATOM     88  C   UNL A   1      45.707  28.885  36.628  1.00  0.00     0.010 A 
ATOM     89  C   UNL A   1      47.935  30.552  36.334  1.00  0.00     0.020 A 
ATOM     90  C   UNL A   1      46.961  28.448  37.062  1.00  0.00     0.020 A 
ATOM     91  C   UNL A   1      48.070  29.280  36.899  1.00  0.00     0.054 A 
BRANCH  91  92
ATOM     92  S   UNL A   1      49.710  28.742  37.456  1.00  0.00     0.124 S 
ATOM     93  O   UNL A   1      49.457  28.385  38.849  1.00  0.00    -0.237 OA
ATOM     94  O   UNL A   1      50.000  27.624  36.561  1.00  0.00    -0.237 OA
ATOM     95  O   UNL A   1      50.548  29.924  37.258  1.00  0.00    -0.744 OA
ENDBRANCH  91  92
ENDBRANCH  65  86
ENDBRANCH  39  40
ENDBRANCH  32  34
ENDBRANCH  31  32
ENDBRANCH  30  31
ENDBRANCH   1  30
TORSDOF 20
ENDMDL
