MODEL 1
REMARK VINA RESULT:     -11.3      0.000      0.000
REMARK SMILES CC[C@@](C)(NC(=O)Cn1cnc2ccccc21)C(=O)OCCOC(=O)c1ccc(-c2c3nc(c(-c4ccc(S(=O)(=O)[O-])cc4)c4ccc([nH]4)c(-c4ccc(S(=O)(=O)[O-])cc4)c4nc(c(-c5ccc(S(=O)(=O)[O-])cc5)c5ccc2[nH]5)C=C4)C=C3)cc1
REMARK SMILES IDX 21 1 20 2 18 3 19 4 3 5 4 6 2 7 1 8 5 9 6 10 7 12 8 13 9 14
REMARK SMILES IDX 10 15 17 16 11 17 12 18 16 19 13 20 15 21 14 22 22 23 23 24
REMARK SMILES IDX 24 25 25 26 26 27 27 28 85 29 28 30 84 31 29 32 30 33 31 34
REMARK SMILES IDX 78 35 32 36 83 37 77 38 79 39 33 40 82 41 76 42 75 43 34 45
REMARK SMILES IDX 64 46 45 47 63 48 46 49 49 50 62 51 80 52 47 53 48 54 61 56
REMARK SMILES IDX 81 57 50 58 35 59 36 60 44 61 37 62 43 63 38 64 39 65 40 66
REMARK SMILES IDX 41 67 42 68 65 69 66 70 74 71 67 72 73 73 68 74 69 75 70 76
REMARK SMILES IDX 71 77 72 78 51 79 52 80 60 81 53 82 59 83 54 84 55 85 56 86
REMARK SMILES IDX 57 87 58 88
REMARK H PARENT 5 11 79 44 49 55
REMARK Flexibility Score: inf
ROOT
ATOM      1  C   UNL A   1      37.046  22.188  25.267  1.00  0.00     0.274 C 
ENDROOT
BRANCH   1   2
ATOM      2  O   UNL A   1      35.866  21.713  25.956  1.00  0.00    -0.460 OA
BRANCH   2   3
ATOM      3  C   UNL A   1      34.798  22.560  25.918  1.00  0.00     0.331 C 
ATOM      4  O   UNL A   1      34.847  23.705  26.354  1.00  0.00    -0.249 OA
BRANCH   3   5
ATOM      5  C   UNL A   1      33.491  21.861  25.431  1.00  0.00     0.135 C 
ATOM      6  C   UNL A   1      33.542  22.097  23.896  1.00  0.00     0.047 C 
BRANCH   5   7
ATOM      7  C   UNL A   1      33.478  20.325  25.679  1.00  0.00     0.037 C 
ATOM      8  C   UNL A   1      33.547  19.446  24.443  1.00  0.00     0.007 C 
ENDBRANCH   5   7
BRANCH   5   9
ATOM      9  N   UNL A   1      32.164  22.411  25.919  1.00  0.00    -0.339 N 
ATOM     10  C   UNL A   1      31.907  23.685  26.392  1.00  0.00     0.240 C 
ATOM     11  H   UNL A   1      31.399  21.792  25.896  1.00  0.00     0.164 HD
ATOM     12  O   UNL A   1      31.757  23.789  27.615  1.00  0.00    -0.273 OA
BRANCH  10  13
ATOM     13  C   UNL A   1      31.500  24.823  25.446  1.00  0.00     0.223 C 
BRANCH  13  14
ATOM     14  N   UNL A   1      32.464  25.921  25.263  1.00  0.00    -0.321 N 
ATOM     15  C   UNL A   1      33.346  26.065  24.223  1.00  0.00     0.201 A 
ATOM     16  C   UNL A   1      32.425  27.147  25.922  1.00  0.00     0.068 A 
ATOM     17  N   UNL A   1      33.700  27.321  24.044  1.00  0.00    -0.237 NA
ATOM     18  C   UNL A   1      33.060  28.017  25.034  1.00  0.00     0.088 A 
ATOM     19  C   UNL A   1      31.782  27.611  27.079  1.00  0.00     0.028 A 
ATOM     20  C   UNL A   1      32.927  29.406  25.207  1.00  0.00     0.030 A 
ATOM     21  C   UNL A   1      31.644  29.001  27.224  1.00  0.00     0.002 A 
ATOM     22  C   UNL A   1      32.177  29.886  26.287  1.00  0.00     0.002 A 
ENDBRANCH  13  14
ENDBRANCH  10  13
ENDBRANCH   5   9
ENDBRANCH   3   5
ENDBRANCH   2   3
ENDBRANCH   1   2
BRANCH   1  23
ATOM     23  C   UNL A   1      38.321  21.891  26.059  1.00  0.00     0.275 C 
BRANCH  23  24
ATOM     24  O   UNL A   1      39.164  23.018  26.351  1.00  0.00    -0.458 OA
BRANCH  24  25
ATOM     25  C   UNL A   1      40.159  22.765  27.233  1.00  0.00     0.338 C 
ATOM     26  O   UNL A   1      40.302  21.718  27.835  1.00  0.00    -0.246 OA
BRANCH  25  27
ATOM     27  C   UNL A   1      41.250  23.759  27.220  1.00  0.00     0.060 A 
ATOM     28  C   UNL A   1      41.848  24.055  28.440  1.00  0.00     0.016 A 
ATOM     29  C   UNL A   1      41.018  24.761  26.277  1.00  0.00     0.016 A 
ATOM     30  C   UNL A   1      41.738  25.353  28.908  1.00  0.00     0.010 A 
ATOM     31  C   UNL A   1      40.878  26.041  26.756  1.00  0.00     0.010 A 
ATOM     32  C   UNL A   1      41.094  26.305  28.116  1.00  0.00    -0.014 A 
BRANCH  32  33
ATOM     33  C   UNL A   1      40.907  27.674  28.585  1.00  0.00     0.031 A 
ATOM     34  C   UNL A   1      42.008  28.495  28.077  1.00  0.00     0.074 A 
ATOM     35  C   UNL A   1      39.945  28.227  29.353  1.00  0.00     0.049 A 
ATOM     36  N   UNL A   1      43.190  28.458  28.596  1.00  0.00    -0.248 NA
ATOM     37  C   UNL A   1      41.933  29.141  26.762  1.00  0.00     0.031 C 
ATOM     38  C   UNL A   1      38.706  27.651  29.881  1.00  0.00     0.029 A 
ATOM     39  N   UNL A   1      39.879  29.522  29.797  1.00  0.00    -0.354 N 
ATOM     40  C   UNL A   1      43.916  29.349  27.848  1.00  0.00     0.074 A 
ATOM     41  C   UNL A   1      43.220  29.460  26.589  1.00  0.00     0.031 C 
ATOM     42  C   UNL A   1      37.916  28.633  30.388  1.00  0.00     0.029 A 
ATOM     43  C   UNL A   1      38.676  29.874  30.398  1.00  0.00     0.049 A 
ATOM     44  H   UNL A   1      40.626  30.154  29.699  1.00  0.00     0.167 HD
ATOM     45  C   UNL A   1      44.768  30.201  28.475  1.00  0.00     0.031 A 
ATOM     46  C   UNL A   1      38.389  31.009  31.088  1.00  0.00     0.031 A 
ATOM     47  C   UNL A   1      44.929  29.853  29.873  1.00  0.00     0.049 A 
ATOM     48  C   UNL A   1      39.673  31.488  31.643  1.00  0.00     0.074 A 
ATOM     49  C   UNL A   1      45.369  28.742  30.564  1.00  0.00     0.029 A 
ATOM     50  N   UNL A   1      44.157  30.586  30.746  1.00  0.00    -0.354 N 
ATOM     51  N   UNL A   1      40.303  30.873  32.602  1.00  0.00    -0.248 NA
ATOM     52  C   UNL A   1      40.456  32.472  30.910  1.00  0.00     0.031 C 
ATOM     53  C   UNL A   1      44.589  28.688  31.755  1.00  0.00     0.029 A 
ATOM     54  C   UNL A   1      43.744  29.800  31.794  1.00  0.00     0.049 A 
ATOM     55  H   UNL A   1      43.932  31.538  30.636  1.00  0.00     0.167 HD
ATOM     56  C   UNL A   1      41.639  31.036  32.288  1.00  0.00     0.074 A 
ATOM     57  C   UNL A   1      41.673  32.157  31.356  1.00  0.00     0.031 C 
ATOM     58  C   UNL A   1      42.547  30.061  32.578  1.00  0.00     0.031 A 
BRANCH  45  59
ATOM     59  C   UNL A   1      45.064  31.578  27.957  1.00  0.00    -0.014 A 
ATOM     60  C   UNL A   1      44.139  32.641  27.992  1.00  0.00     0.010 A 
ATOM     61  C   UNL A   1      46.389  31.892  27.609  1.00  0.00     0.010 A 
ATOM     62  C   UNL A   1      44.487  33.938  27.634  1.00  0.00     0.020 A 
ATOM     63  C   UNL A   1      46.764  33.203  27.293  1.00  0.00     0.020 A 
ATOM     64  C   UNL A   1      45.802  34.211  27.284  1.00  0.00     0.054 A 
BRANCH  64  65
ATOM     65  S   UNL A   1      46.219  35.913  26.857  1.00  0.00     0.124 S 
ATOM     66  O   UNL A   1      46.961  35.730  25.611  1.00  0.00    -0.237 OA
ATOM     67  O   UNL A   1      44.904  36.532  26.722  1.00  0.00    -0.237 OA
ATOM     68  O   UNL A   1      47.011  36.367  27.996  1.00  0.00    -0.744 OA
ENDBRANCH  64  65
ENDBRANCH  45  59
BRANCH  46  69
ATOM     69  C   UNL A   1      37.239  31.937  30.916  1.00  0.00    -0.014 A 
ATOM     70  C   UNL A   1      35.917  31.459  30.894  1.00  0.00     0.010 A 
ATOM     71  C   UNL A   1      37.473  33.250  30.451  1.00  0.00     0.010 A 
ATOM     72  C   UNL A   1      34.888  32.217  30.315  1.00  0.00     0.020 A 
ATOM     73  C   UNL A   1      36.449  34.011  29.865  1.00  0.00     0.020 A 
ATOM     74  C   UNL A   1      35.169  33.469  29.762  1.00  0.00     0.054 A 
BRANCH  74  75
ATOM     75  S   UNL A   1      33.867  34.322  28.824  1.00  0.00     0.124 S 
ATOM     76  O   UNL A   1      33.347  33.250  27.980  1.00  0.00    -0.237 OA
ATOM     77  O   UNL A   1      32.968  34.782  29.879  1.00  0.00    -0.237 OA
ATOM     78  O   UNL A   1      34.583  35.381  28.116  1.00  0.00    -0.744 OA
ENDBRANCH  74  75
ENDBRANCH  46  69
BRANCH  58  79
ATOM     79  C   UNL A   1      42.205  29.058  33.662  1.00  0.00    -0.014 A 
ATOM     80  C   UNL A   1      42.740  29.305  34.941  1.00  0.00     0.010 A 
ATOM     81  C   UNL A   1      41.504  27.853  33.456  1.00  0.00     0.010 A 
ATOM     82  C   UNL A   1      42.626  28.367  35.968  1.00  0.00     0.020 A 
ATOM     83  C   UNL A   1      41.357  26.918  34.495  1.00  0.00     0.020 A 
ATOM     84  C   UNL A   1      41.944  27.172  35.737  1.00  0.00     0.054 A 
BRANCH  84  85
ATOM     85  S   UNL A   1      41.870  25.962  37.085  1.00  0.00     0.124 S 
ATOM     86  O   UNL A   1      40.473  26.053  37.508  1.00  0.00    -0.237 OA
ATOM     87  O   UNL A   1      42.239  24.714  36.422  1.00  0.00    -0.237 OA
ATOM     88  O   UNL A   1      42.844  26.453  38.058  1.00  0.00    -0.744 OA
ENDBRANCH  84  85
ENDBRANCH  58  79
ENDBRANCH  32  33
ENDBRANCH  25  27
ENDBRANCH  24  25
ENDBRANCH  23  24
ENDBRANCH   1  23
TORSDOF 18
ENDMDL
MODEL 2
REMARK VINA RESULT:     -11.1      2.622      9.406
REMARK SMILES CC[C@@](C)(NC(=O)Cn1cnc2ccccc21)C(=O)OCCOC(=O)c1ccc(-c2c3nc(c(-c4ccc(S(=O)(=O)[O-])cc4)c4ccc([nH]4)c(-c4ccc(S(=O)(=O)[O-])cc4)c4nc(c(-c5ccc(S(=O)(=O)[O-])cc5)c5ccc2[nH]5)C=C4)C=C3)cc1
REMARK SMILES IDX 21 1 20 2 18 3 19 4 3 5 4 6 2 7 1 8 5 9 6 10 7 12 8 13 9 14
REMARK SMILES IDX 10 15 17 16 11 17 12 18 16 19 13 20 15 21 14 22 22 23 23 24
REMARK SMILES IDX 24 25 25 26 26 27 27 28 85 29 28 30 84 31 29 32 30 33 31 34
REMARK SMILES IDX 78 35 32 36 83 37 77 38 79 39 33 40 82 41 76 42 75 43 34 45
REMARK SMILES IDX 64 46 45 47 63 48 46 49 49 50 62 51 80 52 47 53 48 54 61 56
REMARK SMILES IDX 81 57 50 58 35 59 36 60 44 61 37 62 43 63 38 64 39 65 40 66
REMARK SMILES IDX 41 67 42 68 65 69 66 70 74 71 67 72 73 73 68 74 69 75 70 76
REMARK SMILES IDX 71 77 72 78 51 79 52 80 60 81 53 82 59 83 54 84 55 85 56 86
REMARK SMILES IDX 57 87 58 88
REMARK H PARENT 5 11 79 44 49 55
REMARK Flexibility Score: inf
ROOT
ATOM      1  C   UNL A   1      33.836  29.810  27.206  1.00  0.00     0.274 C 
ENDROOT
BRANCH   1   2
ATOM      2  O   UNL A   1      32.532  29.190  27.131  1.00  0.00    -0.460 OA
BRANCH   2   3
ATOM      3  C   UNL A   1      32.015  29.089  25.873  1.00  0.00     0.331 C 
ATOM      4  O   UNL A   1      31.349  29.980  25.359  1.00  0.00    -0.249 OA
BRANCH   3   5
ATOM      5  C   UNL A   1      32.214  27.672  25.251  1.00  0.00     0.135 C 
ATOM      6  C   UNL A   1      30.866  27.439  24.516  1.00  0.00     0.047 C 
BRANCH   5   7
ATOM      7  C   UNL A   1      33.353  27.613  24.191  1.00  0.00     0.037 C 
ATOM      8  C   UNL A   1      33.583  28.879  23.386  1.00  0.00     0.007 C 
ENDBRANCH   5   7
BRANCH   5   9
ATOM      9  N   UNL A   1      32.412  26.501  26.195  1.00  0.00    -0.339 N 
ATOM     10  C   UNL A   1      31.848  25.242  26.100  1.00  0.00     0.240 C 
ATOM     11  H   UNL A   1      33.010  26.654  26.962  1.00  0.00     0.164 HD
ATOM     12  O   UNL A   1      30.930  24.998  26.893  1.00  0.00    -0.273 OA
BRANCH  10  13
ATOM     13  C   UNL A   1      32.529  24.117  25.309  1.00  0.00     0.223 C 
BRANCH  13  14
ATOM     14  N   UNL A   1      33.661  23.432  25.956  1.00  0.00    -0.321 N 
ATOM     15  C   UNL A   1      33.603  22.647  27.079  1.00  0.00     0.201 A 
ATOM     16  C   UNL A   1      34.903  23.196  25.372  1.00  0.00     0.068 A 
ATOM     17  N   UNL A   1      34.600  21.788  27.134  1.00  0.00    -0.237 NA
ATOM     18  C   UNL A   1      35.364  22.055  26.030  1.00  0.00     0.088 A 
ATOM     19  C   UNL A   1      35.576  23.735  24.265  1.00  0.00     0.028 A 
ATOM     20  C   UNL A   1      36.439  21.328  25.490  1.00  0.00     0.030 A 
ATOM     21  C   UNL A   1      36.636  22.984  23.730  1.00  0.00     0.002 A 
ATOM     22  C   UNL A   1      37.040  21.782  24.311  1.00  0.00     0.002 A 
ENDBRANCH  13  14
ENDBRANCH  10  13
ENDBRANCH   5   9
ENDBRANCH   3   5
ENDBRANCH   2   3
ENDBRANCH   1   2
BRANCH   1  23
ATOM     23  C   UNL A   1      33.738  31.290  27.585  1.00  0.00     0.275 C 
BRANCH  23  24
ATOM     24  O   UNL A   1      34.468  31.695  28.754  1.00  0.00    -0.458 OA
BRANCH  24  25
ATOM     25  C   UNL A   1      35.717  32.156  28.507  1.00  0.00     0.338 C 
ATOM     26  O   UNL A   1      36.019  32.875  27.573  1.00  0.00    -0.246 OA
BRANCH  25  27
ATOM     27  C   UNL A   1      36.670  31.956  29.617  1.00  0.00     0.060 A 
ATOM     28  C   UNL A   1      37.934  32.515  29.471  1.00  0.00     0.016 A 
ATOM     29  C   UNL A   1      36.507  30.705  30.211  1.00  0.00     0.016 A 
ATOM     30  C   UNL A   1      39.016  31.651  29.436  1.00  0.00     0.010 A 
ATOM     31  C   UNL A   1      37.575  29.843  30.142  1.00  0.00     0.010 A 
ATOM     32  C   UNL A   1      38.794  30.284  29.609  1.00  0.00    -0.014 A 
BRANCH  32  33
ATOM     33  C   UNL A   1      39.893  29.327  29.531  1.00  0.00     0.031 A 
ATOM     34  C   UNL A   1      40.344  29.024  30.891  1.00  0.00     0.074 A 
ATOM     35  C   UNL A   1      40.490  28.743  28.470  1.00  0.00     0.049 A 
ATOM     36  N   UNL A   1      41.078  29.840  31.570  1.00  0.00    -0.248 NA
ATOM     37  C   UNL A   1      39.723  27.953  31.679  1.00  0.00     0.031 C 
ATOM     38  C   UNL A   1      40.154  28.797  27.045  1.00  0.00     0.029 A 
ATOM     39  N   UNL A   1      41.563  27.892  28.486  1.00  0.00    -0.354 N 
ATOM     40  C   UNL A   1      41.275  29.203  32.767  1.00  0.00     0.074 A 
ATOM     41  C   UNL A   1      40.186  28.265  32.894  1.00  0.00     0.031 C 
ATOM     42  C   UNL A   1      40.864  27.860  26.365  1.00  0.00     0.029 A 
ATOM     43  C   UNL A   1      41.842  27.278  27.271  1.00  0.00     0.049 A 
ATOM     44  H   UNL A   1      42.098  27.728  29.296  1.00  0.00     0.167 HD
ATOM     45  C   UNL A   1      42.511  29.216  33.330  1.00  0.00     0.031 A 
ATOM     46  C   UNL A   1      42.935  26.543  26.939  1.00  0.00     0.031 A 
ATOM     47  C   UNL A   1      43.397  30.132  32.639  1.00  0.00     0.049 A 
ATOM     48  C   UNL A   1      44.033  27.025  27.804  1.00  0.00     0.074 A 
ATOM     49  C   UNL A   1      43.392  31.486  32.369  1.00  0.00     0.029 A 
ATOM     50  N   UNL A   1      44.237  29.545  31.720  1.00  0.00    -0.354 N 
ATOM     51  N   UNL A   1      44.580  28.198  27.665  1.00  0.00    -0.248 NA
ATOM     52  C   UNL A   1      44.313  26.349  29.062  1.00  0.00     0.031 C 
ATOM     53  C   UNL A   1      44.002  31.631  31.090  1.00  0.00     0.029 A 
ATOM     54  C   UNL A   1      44.424  30.376  30.644  1.00  0.00     0.049 A 
ATOM     55  H   UNL A   1      44.647  28.655  31.820  1.00  0.00     0.167 HD
ATOM     56  C   UNL A   1      44.862  28.596  28.958  1.00  0.00     0.074 A 
ATOM     57  C   UNL A   1      44.841  27.368  29.743  1.00  0.00     0.031 C 
ATOM     58  C   UNL A   1      44.786  29.911  29.314  1.00  0.00     0.031 A 
BRANCH  45  59
ATOM     59  C   UNL A   1      43.032  28.086  34.171  1.00  0.00    -0.014 A 
ATOM     60  C   UNL A   1      43.354  26.814  33.656  1.00  0.00     0.010 A 
ATOM     61  C   UNL A   1      43.416  28.358  35.495  1.00  0.00     0.010 A 
ATOM     62  C   UNL A   1      43.963  25.834  34.431  1.00  0.00     0.020 A 
ATOM     63  C   UNL A   1      44.074  27.397  36.271  1.00  0.00     0.020 A 
ATOM     64  C   UNL A   1      44.320  26.133  35.737  1.00  0.00     0.054 A 
BRANCH  64  65
ATOM     65  S   UNL A   1      45.137  24.844  36.698  1.00  0.00     0.124 S 
ATOM     66  O   UNL A   1      44.039  24.355  37.529  1.00  0.00    -0.237 OA
ATOM     67  O   UNL A   1      45.599  23.927  35.660  1.00  0.00    -0.237 OA
ATOM     68  O   UNL A   1      46.188  25.564  37.411  1.00  0.00    -0.744 OA
ENDBRANCH  64  65
ENDBRANCH  45  59
BRANCH  46  69
ATOM     69  C   UNL A   1      42.995  25.195  26.312  1.00  0.00    -0.014 A 
ATOM     70  C   UNL A   1      42.675  24.038  27.044  1.00  0.00     0.010 A 
ATOM     71  C   UNL A   1      43.682  25.031  25.088  1.00  0.00     0.010 A 
ATOM     72  C   UNL A   1      43.130  22.776  26.631  1.00  0.00     0.020 A 
ATOM     73  C   UNL A   1      44.145  23.773  24.672  1.00  0.00     0.020 A 
ATOM     74  C   UNL A   1      43.902  22.658  25.472  1.00  0.00     0.054 A 
BRANCH  74  75
ATOM     75  S   UNL A   1      44.661  21.051  25.090  1.00  0.00     0.124 S 
ATOM     76  O   UNL A   1      43.761  20.121  25.766  1.00  0.00    -0.237 OA
ATOM     77  O   UNL A   1      44.615  21.020  23.630  1.00  0.00    -0.237 OA
ATOM     78  O   UNL A   1      46.001  21.152  25.665  1.00  0.00    -0.744 OA
ENDBRANCH  74  75
ENDBRANCH  46  69
BRANCH  58  79
ATOM     79  C   UNL A   1      44.894  30.959  28.225  1.00  0.00    -0.014 A 
ATOM     80  C   UNL A   1      46.188  31.418  27.917  1.00  0.00     0.010 A 
ATOM     81  C   UNL A   1      43.799  31.585  27.596  1.00  0.00     0.010 A 
ATOM     82  C   UNL A   1      46.390  32.493  27.051  1.00  0.00     0.020 A 
ATOM     83  C   UNL A   1      43.996  32.648  26.697  1.00  0.00     0.020 A 
ATOM     84  C   UNL A   1      45.292  33.111  26.453  1.00  0.00     0.054 A 
BRANCH  84  85
ATOM     85  S   UNL A   1      45.601  34.539  25.379  1.00  0.00     0.124 S 
ATOM     86  O   UNL A   1      44.897  34.164  24.154  1.00  0.00    -0.237 OA
ATOM     87  O   UNL A   1      45.003  35.643  26.127  1.00  0.00    -0.237 OA
ATOM     88  O   UNL A   1      47.057  34.590  25.265  1.00  0.00    -0.744 OA
ENDBRANCH  84  85
ENDBRANCH  58  79
ENDBRANCH  32  33
ENDBRANCH  25  27
ENDBRANCH  24  25
ENDBRANCH  23  24
ENDBRANCH   1  23
TORSDOF 18
ENDMDL
MODEL 3
REMARK VINA RESULT:     -10.9      2.780      9.309
REMARK SMILES CC[C@@](C)(NC(=O)Cn1cnc2ccccc21)C(=O)OCCOC(=O)c1ccc(-c2c3nc(c(-c4ccc(S(=O)(=O)[O-])cc4)c4ccc([nH]4)c(-c4ccc(S(=O)(=O)[O-])cc4)c4nc(c(-c5ccc(S(=O)(=O)[O-])cc5)c5ccc2[nH]5)C=C4)C=C3)cc1
REMARK SMILES IDX 21 1 20 2 18 3 19 4 3 5 4 6 2 7 1 8 5 9 6 10 7 12 8 13 9 14
REMARK SMILES IDX 10 15 17 16 11 17 12 18 16 19 13 20 15 21 14 22 22 23 23 24
REMARK SMILES IDX 24 25 25 26 26 27 27 28 85 29 28 30 84 31 29 32 30 33 31 34
REMARK SMILES IDX 78 35 32 36 83 37 77 38 79 39 33 40 82 41 76 42 75 43 34 45
REMARK SMILES IDX 64 46 45 47 63 48 46 49 49 50 62 51 80 52 47 53 48 54 61 56
REMARK SMILES IDX 81 57 50 58 35 59 36 60 44 61 37 62 43 63 38 64 39 65 40 66
REMARK SMILES IDX 41 67 42 68 65 69 66 70 74 71 67 72 73 73 68 74 69 75 70 76
REMARK SMILES IDX 71 77 72 78 51 79 52 80 60 81 53 82 59 83 54 84 55 85 56 86
REMARK SMILES IDX 57 87 58 88
REMARK H PARENT 5 11 79 44 49 55
REMARK Flexibility Score: inf
ROOT
ATOM      1  C   UNL A   1      33.620  29.789  26.678  1.00  0.00     0.274 C 
ENDROOT
BRANCH   1   2
ATOM      2  O   UNL A   1      33.796  29.070  25.436  1.00  0.00    -0.460 OA
BRANCH   2   3
ATOM      3  C   UNL A   1      33.157  27.866  25.372  1.00  0.00     0.331 C 
ATOM      4  O   UNL A   1      33.619  26.846  25.870  1.00  0.00    -0.249 OA
BRANCH   3   5
ATOM      5  C   UNL A   1      31.889  27.905  24.463  1.00  0.00     0.135 C 
ATOM      6  C   UNL A   1      30.968  26.850  25.134  1.00  0.00     0.047 C 
BRANCH   5   7
ATOM      7  C   UNL A   1      31.148  29.273  24.488  1.00  0.00     0.037 C 
ATOM      8  C   UNL A   1      30.133  29.505  23.383  1.00  0.00     0.007 C 
ENDBRANCH   5   7
BRANCH   5   9
ATOM      9  N   UNL A   1      32.043  27.498  23.010  1.00  0.00    -0.339 N 
ATOM     10  C   UNL A   1      32.963  26.612  22.479  1.00  0.00     0.240 C 
ATOM     11  H   UNL A   1      31.417  27.911  22.371  1.00  0.00     0.164 HD
ATOM     12  O   UNL A   1      33.901  27.116  21.850  1.00  0.00    -0.273 OA
BRANCH  10  13
ATOM     13  C   UNL A   1      32.663  25.110  22.383  1.00  0.00     0.223 C 
BRANCH  13  14
ATOM     14  N   UNL A   1      33.262  24.239  23.409  1.00  0.00    -0.321 N 
ATOM     15  C   UNL A   1      34.590  24.168  23.743  1.00  0.00     0.201 A 
ATOM     16  C   UNL A   1      32.564  23.587  24.423  1.00  0.00     0.068 A 
ATOM     17  N   UNL A   1      34.769  23.722  24.969  1.00  0.00    -0.237 NA
ATOM     18  C   UNL A   1      33.512  23.447  25.437  1.00  0.00     0.088 A 
ATOM     19  C   UNL A   1      31.213  23.267  24.623  1.00  0.00     0.028 A 
ATOM     20  C   UNL A   1      33.094  23.127  26.740  1.00  0.00     0.030 A 
ATOM     21  C   UNL A   1      30.813  22.967  25.936  1.00  0.00     0.002 A 
ATOM     22  C   UNL A   1      31.731  22.930  26.985  1.00  0.00     0.002 A 
ENDBRANCH  13  14
ENDBRANCH  10  13
ENDBRANCH   5   9
ENDBRANCH   3   5
ENDBRANCH   2   3
ENDBRANCH   1   2
BRANCH   1  23
ATOM     23  C   UNL A   1      34.870  29.716  27.558  1.00  0.00     0.275 C 
BRANCH  23  24
ATOM     24  O   UNL A   1      35.685  30.897  27.601  1.00  0.00    -0.458 OA
BRANCH  24  25
ATOM     25  C   UNL A   1      35.476  31.688  28.680  1.00  0.00     0.338 C 
ATOM     26  O   UNL A   1      34.404  32.176  28.984  1.00  0.00    -0.246 OA
BRANCH  25  27
ATOM     27  C   UNL A   1      36.592  31.705  29.647  1.00  0.00     0.060 A 
ATOM     28  C   UNL A   1      37.801  32.230  29.205  1.00  0.00     0.016 A 
ATOM     29  C   UNL A   1      36.561  30.590  30.483  1.00  0.00     0.016 A 
ATOM     30  C   UNL A   1      38.892  31.379  29.166  1.00  0.00     0.010 A 
ATOM     31  C   UNL A   1      37.633  29.733  30.413  1.00  0.00     0.010 A 
ATOM     32  C   UNL A   1      38.743  30.068  29.624  1.00  0.00    -0.014 A 
BRANCH  32  33
ATOM     33  C   UNL A   1      39.847  29.117  29.558  1.00  0.00     0.031 A 
ATOM     34  C   UNL A   1      40.301  28.835  30.922  1.00  0.00     0.074 A 
ATOM     35  C   UNL A   1      40.447  28.523  28.505  1.00  0.00     0.049 A 
ATOM     36  N   UNL A   1      41.030  29.664  31.589  1.00  0.00    -0.248 NA
ATOM     37  C   UNL A   1      39.688  27.770  31.724  1.00  0.00     0.031 C 
ATOM     38  C   UNL A   1      40.111  28.557  27.079  1.00  0.00     0.029 A 
ATOM     39  N   UNL A   1      41.526  27.679  28.531  1.00  0.00    -0.354 N 
ATOM     40  C   UNL A   1      41.232  29.044  32.795  1.00  0.00     0.074 A 
ATOM     41  C   UNL A   1      40.149  28.101  32.934  1.00  0.00     0.031 C 
ATOM     42  C   UNL A   1      40.826  27.616  26.411  1.00  0.00     0.029 A 
ATOM     43  C   UNL A   1      41.808  27.051  27.323  1.00  0.00     0.049 A 
ATOM     44  H   UNL A   1      42.062  27.529  29.343  1.00  0.00     0.167 HD
ATOM     45  C   UNL A   1      42.469  29.072  33.357  1.00  0.00     0.031 A 
ATOM     46  C   UNL A   1      42.905  26.318  27.001  1.00  0.00     0.031 A 
ATOM     47  C   UNL A   1      43.348  29.984  32.653  1.00  0.00     0.049 A 
ATOM     48  C   UNL A   1      44.000  26.819  27.859  1.00  0.00     0.074 A 
ATOM     49  C   UNL A   1      43.335  31.334  32.366  1.00  0.00     0.029 A 
ATOM     50  N   UNL A   1      44.192  29.390  31.741  1.00  0.00    -0.354 N 
ATOM     51  N   UNL A   1      44.541  27.993  27.704  1.00  0.00    -0.248 NA
ATOM     52  C   UNL A   1      44.286  26.161  29.125  1.00  0.00     0.031 C 
ATOM     53  C   UNL A   1      43.944  31.467  31.084  1.00  0.00     0.029 A 
ATOM     54  C   UNL A   1      44.372  30.209  30.654  1.00  0.00     0.049 A 
ATOM     55  H   UNL A   1      44.606  28.504  31.852  1.00  0.00     0.167 HD
ATOM     56  C   UNL A   1      44.821  28.410  28.991  1.00  0.00     0.074 A 
ATOM     57  C   UNL A   1      44.808  27.192  29.793  1.00  0.00     0.031 C 
ATOM     58  C   UNL A   1      44.737  29.728  29.330  1.00  0.00     0.031 A 
BRANCH  45  59
ATOM     59  C   UNL A   1      42.996  27.956  34.211  1.00  0.00    -0.014 A 
ATOM     60  C   UNL A   1      42.810  26.591  33.916  1.00  0.00     0.010 A 
ATOM     61  C   UNL A   1      43.896  28.272  35.244  1.00  0.00     0.010 A 
ATOM     62  C   UNL A   1      43.427  25.583  34.648  1.00  0.00     0.020 A 
ATOM     63  C   UNL A   1      44.562  27.268  35.957  1.00  0.00     0.020 A 
ATOM     64  C   UNL A   1      44.301  25.930  35.668  1.00  0.00     0.054 A 
BRANCH  64  65
ATOM     65  S   UNL A   1      45.106  24.594  36.572  1.00  0.00     0.124 S 
ATOM     66  O   UNL A   1      46.497  25.039  36.581  1.00  0.00    -0.237 OA
ATOM     67  O   UNL A   1      44.422  24.635  37.862  1.00  0.00    -0.237 OA
ATOM     68  O   UNL A   1      44.830  23.415  35.756  1.00  0.00    -0.744 OA
ENDBRANCH  64  65
ENDBRANCH  45  59
BRANCH  46  69
ATOM     69  C   UNL A   1      42.973  24.963  26.391  1.00  0.00    -0.014 A 
ATOM     70  C   UNL A   1      42.776  23.807  27.167  1.00  0.00     0.010 A 
ATOM     71  C   UNL A   1      43.553  24.808  25.112  1.00  0.00     0.010 A 
ATOM     72  C   UNL A   1      43.252  22.560  26.733  1.00  0.00     0.020 A 
ATOM     73  C   UNL A   1      44.037  23.564  24.675  1.00  0.00     0.020 A 
ATOM     74  C   UNL A   1      43.922  22.455  25.511  1.00  0.00     0.054 A 
BRANCH  74  75
ATOM     75  S   UNL A   1      44.720  20.878  25.085  1.00  0.00     0.124 S 
ATOM     76  O   UNL A   1      44.613  20.867  23.629  1.00  0.00    -0.237 OA
ATOM     77  O   UNL A   1      46.069  21.054  25.614  1.00  0.00    -0.237 OA
ATOM     78  O   UNL A   1      43.910  19.878  25.777  1.00  0.00    -0.744 OA
ENDBRANCH  74  75
ENDBRANCH  46  69
BRANCH  58  79
ATOM     79  C   UNL A   1      44.837  30.763  28.227  1.00  0.00    -0.014 A 
ATOM     80  C   UNL A   1      46.064  31.443  28.111  1.00  0.00     0.010 A 
ATOM     81  C   UNL A   1      43.769  31.173  27.404  1.00  0.00     0.010 A 
ATOM     82  C   UNL A   1      46.215  32.524  27.242  1.00  0.00     0.020 A 
ATOM     83  C   UNL A   1      43.922  32.241  26.503  1.00  0.00     0.020 A 
ATOM     84  C   UNL A   1      45.139  32.926  26.449  1.00  0.00     0.054 A 
BRANCH  84  85
ATOM     85  S   UNL A   1      45.366  34.370  25.377  1.00  0.00     0.124 S 
ATOM     86  O   UNL A   1      44.738  35.436  26.156  1.00  0.00    -0.237 OA
ATOM     87  O   UNL A   1      46.820  34.461  25.260  1.00  0.00    -0.237 OA
ATOM     88  O   UNL A   1      44.669  34.012  24.144  1.00  0.00    -0.744 OA
ENDBRANCH  84  85
ENDBRANCH  58  79
ENDBRANCH  32  33
ENDBRANCH  25  27
ENDBRANCH  24  25
ENDBRANCH  23  24
ENDBRANCH   1  23
TORSDOF 18
ENDMDL
