MODEL 1
REMARK VINA RESULT:     -11.4      0.000      0.000
REMARK SMILES O=C(CCC(=O)OCCOC(=O)c1ccc(-c2c3nc(c(-c4ccc(S(=O)(=O)[O-])cc4)c4ccc([nH]4)c(-c4ccc(S(=O)(=O)[O-])cc4)c4nc(c(-c5ccc(S(=O)(=O)[O-])cc5)c5ccc2[nH]5)C=C4)C=C3)cc1)Nc1ccccc1C(=O)N1CCN(c2ccc(Cl)cc2)CC1
REMARK SMILES IDX 8 1 7 2 5 3 6 4 4 5 3 6 2 7 1 8 73 9 74 11 75 12 79 13 76 14
REMARK SMILES IDX 78 15 77 16 80 17 81 18 82 19 83 20 94 21 84 22 93 23 85 24
REMARK SMILES IDX 86 25 87 26 92 27 88 28 91 29 89 30 90 31 9 32 10 33 11 34
REMARK SMILES IDX 12 35 13 36 14 37 72 38 15 39 71 40 16 41 17 42 18 43 65 44
REMARK SMILES IDX 19 45 70 46 64 47 66 48 20 49 69 50 63 51 62 52 21 54 51 55
REMARK SMILES IDX 32 56 50 57 33 58 36 59 49 60 67 61 34 62 35 63 48 65 68 66
REMARK SMILES IDX 37 67 22 68 23 69 31 70 24 71 30 72 25 73 26 74 27 75 28 76
REMARK SMILES IDX 29 77 52 78 53 79 61 80 54 81 60 82 55 83 56 84 57 85 58 86
REMARK SMILES IDX 59 87 38 88 39 89 47 90 40 91 46 92 41 93 42 94 43 95 44 96
REMARK SMILES IDX 45 97
REMARK H PARENT 73 10 66 53 36 64
REMARK Flexibility Score: inf
ROOT
ATOM      1  C   UNL A   1      38.753  21.587  25.753  1.00  0.00     0.274 C 
ENDROOT
BRANCH   1   2
ATOM      2  O   UNL A   1      37.310  21.664  25.678  1.00  0.00    -0.462 OA
BRANCH   2   3
ATOM      3  C   UNL A   1      36.790  22.475  24.713  1.00  0.00     0.306 C 
ATOM      4  O   UNL A   1      36.826  22.239  23.515  1.00  0.00    -0.252 OA
BRANCH   3   5
ATOM      5  C   UNL A   1      36.214  23.747  25.301  1.00  0.00     0.132 C 
BRANCH   5   6
ATOM      6  C   UNL A   1      35.045  23.529  26.248  1.00  0.00     0.112 C 
BRANCH   6   7
ATOM      7  C   UNL A   1      33.986  24.614  26.139  1.00  0.00     0.224 C 
ATOM      8  O   UNL A   1      32.854  24.446  26.580  1.00  0.00    -0.275 OA
ATOM      9  N   UNL A   1      34.418  25.725  25.446  1.00  0.00    -0.325 N 
ATOM     10  H   UNL A   1      35.357  25.739  25.153  1.00  0.00     0.169 HD
BRANCH   9  11
ATOM     11  C   UNL A   1      33.621  26.840  25.124  1.00  0.00     0.054 A 
ATOM     12  C   UNL A   1      33.462  27.764  26.173  1.00  0.00     0.027 A 
ATOM     13  C   UNL A   1      33.024  27.105  23.880  1.00  0.00     0.063 A 
ATOM     14  C   UNL A   1      32.783  28.967  25.981  1.00  0.00     0.002 A 
ATOM     15  C   UNL A   1      32.316  28.312  23.711  1.00  0.00     0.016 A 
ATOM     16  C   UNL A   1      32.205  29.241  24.748  1.00  0.00     0.001 A 
BRANCH  13  17
ATOM     17  C   UNL A   1      33.112  26.244  22.671  1.00  0.00     0.256 C 
ATOM     18  O   UNL A   1      33.690  26.722  21.691  1.00  0.00    -0.269 OA
ATOM     19  N   UNL A   1      32.547  24.976  22.634  1.00  0.00    -0.335 N 
ATOM     20  C   UNL A   1      33.010  24.038  21.615  1.00  0.00     0.141 C 
ATOM     21  C   UNL A   1      31.395  24.494  23.403  1.00  0.00     0.141 C 
ATOM     22  C   UNL A   1      33.378  22.690  22.249  1.00  0.00     0.138 C 
ATOM     23  C   UNL A   1      31.600  23.075  23.972  1.00  0.00     0.138 C 
ATOM     24  N   UNL A   1      32.251  22.141  23.028  1.00  0.00    -0.368 N 
BRANCH  24  25
ATOM     25  C   UNL A   1      32.339  20.814  23.464  1.00  0.00     0.037 A 
ATOM     26  C   UNL A   1      32.594  20.469  24.802  1.00  0.00     0.027 A 
ATOM     27  C   UNL A   1      32.193  19.763  22.545  1.00  0.00     0.027 A 
ATOM     28  C   UNL A   1      32.727  19.135  25.201  1.00  0.00     0.022 A 
ATOM     29  C   UNL A   1      32.339  18.425  22.933  1.00  0.00     0.022 A 
ATOM     30  C   UNL A   1      32.615  18.119  24.261  1.00  0.00     0.041 A 
ATOM     31  Cl  UNL A   1      32.830  16.485  24.747  1.00  0.00    -0.084 Cl
ENDBRANCH  24  25
ENDBRANCH  13  17
ENDBRANCH   9  11
ENDBRANCH   6   7
ENDBRANCH   5   6
ENDBRANCH   3   5
ENDBRANCH   2   3
ENDBRANCH   1   2
BRANCH   1  32
ATOM     32  C   UNL A   1      39.292  20.167  25.538  1.00  0.00     0.275 C 
BRANCH  32  33
ATOM     33  O   UNL A   1      40.270  19.808  26.528  1.00  0.00    -0.458 OA
BRANCH  33  34
ATOM     34  C   UNL A   1      41.547  19.872  26.089  1.00  0.00     0.338 C 
ATOM     35  O   UNL A   1      42.093  19.028  25.392  1.00  0.00    -0.246 OA
BRANCH  34  36
ATOM     36  C   UNL A   1      42.165  21.162  26.442  1.00  0.00     0.060 A 
ATOM     37  C   UNL A   1      42.473  22.051  25.407  1.00  0.00     0.016 A 
ATOM     38  C   UNL A   1      42.463  21.493  27.766  1.00  0.00     0.016 A 
ATOM     39  C   UNL A   1      43.061  23.281  25.695  1.00  0.00     0.010 A 
ATOM     40  C   UNL A   1      43.053  22.730  28.052  1.00  0.00     0.010 A 
ATOM     41  C   UNL A   1      43.354  23.634  27.019  1.00  0.00    -0.014 A 
BRANCH  41  42
ATOM     42  C   UNL A   1      43.942  24.961  27.323  1.00  0.00     0.031 A 
ATOM     43  C   UNL A   1      43.075  26.092  27.799  1.00  0.00     0.074 A 
ATOM     44  C   UNL A   1      45.266  25.147  27.162  1.00  0.00     0.049 A 
ATOM     45  N   UNL A   1      43.409  27.326  28.081  1.00  0.00    -0.248 NA
ATOM     46  C   UNL A   1      41.645  25.799  27.984  1.00  0.00     0.031 C 
ATOM     47  C   UNL A   1      46.216  24.120  26.727  1.00  0.00     0.029 A 
ATOM     48  N   UNL A   1      46.042  26.265  27.338  1.00  0.00    -0.354 N 
ATOM     49  C   UNL A   1      42.240  27.952  28.494  1.00  0.00     0.074 A 
ATOM     50  C   UNL A   1      41.179  26.972  28.394  1.00  0.00     0.031 C 
ATOM     51  C   UNL A   1      47.445  24.658  26.666  1.00  0.00     0.029 A 
ATOM     52  C   UNL A   1      47.365  26.074  27.015  1.00  0.00     0.049 A 
ATOM     53  H   UNL A   1      45.685  27.123  27.663  1.00  0.00     0.167 HD
ATOM     54  C   UNL A   1      42.067  29.226  28.921  1.00  0.00     0.031 A 
ATOM     55  C   UNL A   1      48.392  26.943  26.975  1.00  0.00     0.031 A 
ATOM     56  C   UNL A   1      43.118  30.209  28.982  1.00  0.00     0.049 A 
ATOM     57  C   UNL A   1      48.153  28.379  27.355  1.00  0.00     0.074 A 
ATOM     58  C   UNL A   1      43.040  31.529  29.394  1.00  0.00     0.029 A 
ATOM     59  N   UNL A   1      44.435  29.987  28.608  1.00  0.00    -0.354 N 
ATOM     60  N   UNL A   1      47.045  28.949  27.765  1.00  0.00    -0.248 NA
ATOM     61  C   UNL A   1      49.303  29.289  27.268  1.00  0.00     0.031 C 
ATOM     62  C   UNL A   1      44.295  32.121  29.211  1.00  0.00     0.029 A 
ATOM     63  C   UNL A   1      45.170  31.153  28.745  1.00  0.00     0.049 A 
ATOM     64  H   UNL A   1      44.795  29.127  28.293  1.00  0.00     0.167 HD
ATOM     65  C   UNL A   1      47.371  30.278  28.008  1.00  0.00     0.074 A 
ATOM     66  C   UNL A   1      48.781  30.424  27.712  1.00  0.00     0.031 C 
ATOM     67  C   UNL A   1      46.573  31.287  28.439  1.00  0.00     0.031 A 
BRANCH  54  68
ATOM     68  C   UNL A   1      40.677  29.645  29.318  1.00  0.00    -0.014 A 
ATOM     69  C   UNL A   1      39.670  29.832  28.353  1.00  0.00     0.010 A 
ATOM     70  C   UNL A   1      40.359  29.809  30.679  1.00  0.00     0.010 A 
ATOM     71  C   UNL A   1      38.381  30.210  28.741  1.00  0.00     0.020 A 
ATOM     72  C   UNL A   1      39.066  30.165  31.071  1.00  0.00     0.020 A 
ATOM     73  C   UNL A   1      38.089  30.379  30.098  1.00  0.00     0.054 A 
BRANCH  73  74
ATOM     74  S   UNL A   1      36.406  30.859  30.575  1.00  0.00     0.124 S 
ATOM     75  O   UNL A   1      36.604  32.230  31.043  1.00  0.00    -0.237 OA
ATOM     76  O   UNL A   1      35.666  30.725  29.323  1.00  0.00    -0.237 OA
ATOM     77  O   UNL A   1      36.049  29.895  31.612  1.00  0.00    -0.744 OA
ENDBRANCH  73  74
ENDBRANCH  54  68
BRANCH  55  78
ATOM     78  C   UNL A   1      49.735  26.485  26.527  1.00  0.00    -0.014 A 
ATOM     79  C   UNL A   1      50.122  26.596  25.181  1.00  0.00     0.010 A 
ATOM     80  C   UNL A   1      50.640  25.938  27.456  1.00  0.00     0.010 A 
ATOM     81  C   UNL A   1      51.384  26.154  24.769  1.00  0.00     0.020 A 
ATOM     82  C   UNL A   1      51.912  25.522  27.053  1.00  0.00     0.020 A 
ATOM     83  C   UNL A   1      52.271  25.622  25.709  1.00  0.00     0.054 A 
BRANCH  83  84
ATOM     84  S   UNL A   1      53.921  25.102  25.163  1.00  0.00     0.124 S 
ATOM     85  O   UNL A   1      54.729  25.359  26.351  1.00  0.00    -0.237 OA
ATOM     86  O   UNL A   1      53.716  23.694  24.830  1.00  0.00    -0.237 OA
ATOM     87  O   UNL A   1      54.193  25.970  24.020  1.00  0.00    -0.744 OA
ENDBRANCH  83  84
ENDBRANCH  55  78
BRANCH  67  88
ATOM     88  C   UNL A   1      47.213  32.634  28.644  1.00  0.00    -0.014 A 
ATOM     89  C   UNL A   1      47.230  33.596  27.619  1.00  0.00     0.010 A 
ATOM     90  C   UNL A   1      47.763  32.958  29.897  1.00  0.00     0.010 A 
ATOM     91  C   UNL A   1      47.814  34.846  27.834  1.00  0.00     0.020 A 
ATOM     92  C   UNL A   1      48.324  34.217  30.125  1.00  0.00     0.020 A 
ATOM     93  C   UNL A   1      48.359  35.149  29.086  1.00  0.00     0.054 A 
BRANCH  93  94
ATOM     94  S   UNL A   1      49.075  36.795  29.355  1.00  0.00     0.124 S 
ATOM     95  O   UNL A   1      49.019  36.917  30.809  1.00  0.00    -0.237 OA
ATOM     96  O   UNL A   1      50.414  36.659  28.787  1.00  0.00    -0.237 OA
ATOM     97  O   UNL A   1      48.181  37.686  28.618  1.00  0.00    -0.744 OA
ENDBRANCH  93  94
ENDBRANCH  67  88
ENDBRANCH  41  42
ENDBRANCH  34  36
ENDBRANCH  33  34
ENDBRANCH  32  33
ENDBRANCH   1  32
TORSDOF 19
ENDMDL
MODEL 2
REMARK VINA RESULT:     -11.4      5.958     10.158
REMARK SMILES O=C(CCC(=O)OCCOC(=O)c1ccc(-c2c3nc(c(-c4ccc(S(=O)(=O)[O-])cc4)c4ccc([nH]4)c(-c4ccc(S(=O)(=O)[O-])cc4)c4nc(c(-c5ccc(S(=O)(=O)[O-])cc5)c5ccc2[nH]5)C=C4)C=C3)cc1)Nc1ccccc1C(=O)N1CCN(c2ccc(Cl)cc2)CC1
REMARK SMILES IDX 8 1 7 2 5 3 6 4 4 5 3 6 2 7 1 8 73 9 74 11 75 12 79 13 76 14
REMARK SMILES IDX 78 15 77 16 80 17 81 18 82 19 83 20 94 21 84 22 93 23 85 24
REMARK SMILES IDX 86 25 87 26 92 27 88 28 91 29 89 30 90 31 9 32 10 33 11 34
REMARK SMILES IDX 12 35 13 36 14 37 72 38 15 39 71 40 16 41 17 42 18 43 65 44
REMARK SMILES IDX 19 45 70 46 64 47 66 48 20 49 69 50 63 51 62 52 21 54 51 55
REMARK SMILES IDX 32 56 50 57 33 58 36 59 49 60 67 61 34 62 35 63 48 65 68 66
REMARK SMILES IDX 37 67 22 68 23 69 31 70 24 71 30 72 25 73 26 74 27 75 28 76
REMARK SMILES IDX 29 77 52 78 53 79 61 80 54 81 60 82 55 83 56 84 57 85 58 86
REMARK SMILES IDX 59 87 38 88 39 89 47 90 40 91 46 92 41 93 42 94 43 95 44 96
REMARK SMILES IDX 45 97
REMARK H PARENT 73 10 66 53 36 64
REMARK Flexibility Score: inf
ROOT
ATOM      1  C   UNL A   1      38.779  21.656  25.751  1.00  0.00     0.274 C 
ENDROOT
BRANCH   1   2
ATOM      2  O   UNL A   1      37.781  22.546  25.199  1.00  0.00    -0.462 OA
BRANCH   2   3
ATOM      3  C   UNL A   1      36.477  22.226  25.435  1.00  0.00     0.306 C 
ATOM      4  O   UNL A   1      35.845  21.389  24.810  1.00  0.00    -0.252 OA
BRANCH   3   5
ATOM      5  C   UNL A   1      35.878  23.086  26.528  1.00  0.00     0.132 C 
BRANCH   5   6
ATOM      6  C   UNL A   1      34.400  23.391  26.349  1.00  0.00     0.112 C 
BRANCH   6   7
ATOM      7  C   UNL A   1      34.148  24.767  25.752  1.00  0.00     0.224 C 
ATOM      8  O   UNL A   1      35.011  25.346  25.101  1.00  0.00    -0.275 OA
ATOM      9  N   UNL A   1      32.914  25.285  26.086  1.00  0.00    -0.325 N 
ATOM     10  H   UNL A   1      32.308  24.712  26.607  1.00  0.00     0.169 HD
BRANCH   9  11
ATOM     11  C   UNL A   1      32.455  26.570  25.742  1.00  0.00     0.054 A 
ATOM     12  C   UNL A   1      32.151  27.394  26.841  1.00  0.00     0.027 A 
ATOM     13  C   UNL A   1      32.312  27.082  24.441  1.00  0.00     0.063 A 
ATOM     14  C   UNL A   1      31.779  28.726  26.666  1.00  0.00     0.002 A 
ATOM     15  C   UNL A   1      31.906  28.423  24.280  1.00  0.00     0.016 A 
ATOM     16  C   UNL A   1      31.652  29.242  25.383  1.00  0.00     0.001 A 
BRANCH  13  17
ATOM     17  C   UNL A   1      32.609  26.352  23.180  1.00  0.00     0.256 C 
ATOM     18  O   UNL A   1      33.241  26.968  22.318  1.00  0.00    -0.269 OA
ATOM     19  N   UNL A   1      32.171  25.051  22.970  1.00  0.00    -0.335 N 
ATOM     20  C   UNL A   1      32.825  24.256  21.933  1.00  0.00     0.141 C 
ATOM     21  C   UNL A   1      30.994  24.404  23.557  1.00  0.00     0.141 C 
ATOM     22  C   UNL A   1      33.247  22.889  22.486  1.00  0.00     0.138 C 
ATOM     23  C   UNL A   1      31.268  22.958  24.021  1.00  0.00     0.138 C 
ATOM     24  N   UNL A   1      32.100  22.176  23.081  1.00  0.00    -0.368 N 
BRANCH  24  25
ATOM     25  C   UNL A   1      32.264  20.825  23.408  1.00  0.00     0.037 A 
ATOM     26  C   UNL A   1      32.562  20.389  24.710  1.00  0.00     0.027 A 
ATOM     27  C   UNL A   1      32.153  19.844  22.411  1.00  0.00     0.027 A 
ATOM     28  C   UNL A   1      32.771  19.037  24.999  1.00  0.00     0.022 A 
ATOM     29  C   UNL A   1      32.375  18.489  22.688  1.00  0.00     0.022 A 
ATOM     30  C   UNL A   1      32.692  18.093  23.983  1.00  0.00     0.041 A 
ATOM     31  Cl  UNL A   1      33.000  16.440  24.334  1.00  0.00    -0.084 Cl
ENDBRANCH  24  25
ENDBRANCH  13  17
ENDBRANCH   9  11
ENDBRANCH   6   7
ENDBRANCH   5   6
ENDBRANCH   3   5
ENDBRANCH   2   3
ENDBRANCH   1   2
BRANCH   1  32
ATOM     32  C   UNL A   1      39.729  22.352  26.734  1.00  0.00     0.275 C 
BRANCH  32  33
ATOM     33  O   UNL A   1      39.540  23.777  26.745  1.00  0.00    -0.458 OA
BRANCH  33  34
ATOM     34  C   UNL A   1      40.690  24.486  26.727  1.00  0.00     0.338 C 
ATOM     35  O   UNL A   1      41.588  24.349  25.907  1.00  0.00    -0.246 OA
BRANCH  34  36
ATOM     36  C   UNL A   1      40.672  25.552  27.745  1.00  0.00     0.060 A 
ATOM     37  C   UNL A   1      39.565  25.632  28.596  1.00  0.00     0.016 A 
ATOM     38  C   UNL A   1      41.713  26.477  27.854  1.00  0.00     0.016 A 
ATOM     39  C   UNL A   1      39.505  26.626  29.571  1.00  0.00     0.010 A 
ATOM     40  C   UNL A   1      41.650  27.473  28.835  1.00  0.00     0.010 A 
ATOM     41  C   UNL A   1      40.547  27.554  29.702  1.00  0.00    -0.014 A 
BRANCH  41  42
ATOM     42  C   UNL A   1      40.496  28.583  30.769  1.00  0.00     0.031 A 
ATOM     43  C   UNL A   1      41.383  28.478  31.977  1.00  0.00     0.074 A 
ATOM     44  C   UNL A   1      39.641  29.616  30.646  1.00  0.00     0.049 A 
ATOM     45  N   UNL A   1      41.452  29.266  33.020  1.00  0.00    -0.248 NA
ATOM     46  C   UNL A   1      42.316  27.342  32.019  1.00  0.00     0.031 C 
ATOM     47  C   UNL A   1      38.744  29.840  29.509  1.00  0.00     0.029 A 
ATOM     48  N   UNL A   1      39.378  30.666  31.489  1.00  0.00    -0.354 N 
ATOM     49  C   UNL A   1      42.444  28.734  33.834  1.00  0.00     0.074 A 
ATOM     50  C   UNL A   1      42.928  27.536  33.180  1.00  0.00     0.031 C 
ATOM     51  C   UNL A   1      38.029  30.955  29.729  1.00  0.00     0.029 A 
ATOM     52  C   UNL A   1      38.382  31.500  31.037  1.00  0.00     0.049 A 
ATOM     53  H   UNL A   1      39.856  30.809  32.338  1.00  0.00     0.167 HD
ATOM     54  C   UNL A   1      42.912  29.203  35.016  1.00  0.00     0.031 A 
ATOM     55  C   UNL A   1      37.798  32.565  31.618  1.00  0.00     0.031 A 
ATOM     56  C   UNL A   1      42.401  30.373  35.682  1.00  0.00     0.049 A 
ATOM     57  C   UNL A   1      38.264  33.005  32.979  1.00  0.00     0.074 A 
ATOM     58  C   UNL A   1      42.805  30.923  36.887  1.00  0.00     0.029 A 
ATOM     59  N   UNL A   1      41.365  31.165  35.210  1.00  0.00    -0.354 N 
ATOM     60  N   UNL A   1      39.220  32.503  33.724  1.00  0.00    -0.248 NA
ATOM     61  C   UNL A   1      37.574  34.155  33.577  1.00  0.00     0.031 C 
ATOM     62  C   UNL A   1      41.973  32.011  37.173  1.00  0.00     0.029 A 
ATOM     63  C   UNL A   1      41.092  32.177  36.116  1.00  0.00     0.049 A 
ATOM     64  H   UNL A   1      40.894  31.029  34.357  1.00  0.00     0.167 HD
ATOM     65  C   UNL A   1      39.262  33.292  34.867  1.00  0.00     0.074 A 
ATOM     66  C   UNL A   1      38.245  34.312  34.710  1.00  0.00     0.031 C 
ATOM     67  C   UNL A   1      40.072  33.182  35.950  1.00  0.00     0.031 A 
BRANCH  54  68
ATOM     68  C   UNL A   1      44.009  28.422  35.689  1.00  0.00    -0.014 A 
ATOM     69  C   UNL A   1      45.360  28.777  35.527  1.00  0.00     0.010 A 
ATOM     70  C   UNL A   1      43.682  27.344  36.533  1.00  0.00     0.010 A 
ATOM     71  C   UNL A   1      46.365  28.048  36.169  1.00  0.00     0.020 A 
ATOM     72  C   UNL A   1      44.682  26.627  37.194  1.00  0.00     0.020 A 
ATOM     73  C   UNL A   1      46.020  26.973  36.995  1.00  0.00     0.054 A 
BRANCH  73  74
ATOM     74  S   UNL A   1      47.343  26.050  37.825  1.00  0.00     0.124 S 
ATOM     75  O   UNL A   1      47.098  26.370  39.230  1.00  0.00    -0.237 OA
ATOM     76  O   UNL A   1      47.064  24.670  37.437  1.00  0.00    -0.237 OA
ATOM     77  O   UNL A   1      48.567  26.616  37.263  1.00  0.00    -0.744 OA
ENDBRANCH  73  74
ENDBRANCH  54  68
BRANCH  55  78
ATOM     78  C   UNL A   1      36.683  33.268  30.928  1.00  0.00    -0.014 A 
ATOM     79  C   UNL A   1      36.891  33.914  29.697  1.00  0.00     0.010 A 
ATOM     80  C   UNL A   1      35.398  33.287  31.502  1.00  0.00     0.010 A 
ATOM     81  C   UNL A   1      35.837  34.579  29.061  1.00  0.00     0.020 A 
ATOM     82  C   UNL A   1      34.337  33.926  30.854  1.00  0.00     0.020 A 
ATOM     83  C   UNL A   1      34.567  34.578  29.643  1.00  0.00     0.054 A 
BRANCH  83  84
ATOM     84  S   UNL A   1      33.203  35.403  28.776  1.00  0.00     0.124 S 
ATOM     85  O   UNL A   1      33.908  36.412  27.992  1.00  0.00    -0.237 OA
ATOM     86  O   UNL A   1      32.606  34.310  28.011  1.00  0.00    -0.237 OA
ATOM     87  O   UNL A   1      32.371  35.920  29.860  1.00  0.00    -0.744 OA
ENDBRANCH  83  84
ENDBRANCH  55  78
BRANCH  67  88
ATOM     88  C   UNL A   1      39.910  34.209  37.040  1.00  0.00    -0.014 A 
ATOM     89  C   UNL A   1      40.528  35.469  36.951  1.00  0.00     0.010 A 
ATOM     90  C   UNL A   1      39.090  33.924  38.146  1.00  0.00     0.010 A 
ATOM     91  C   UNL A   1      40.353  36.414  37.965  1.00  0.00     0.020 A 
ATOM     92  C   UNL A   1      38.890  34.876  39.149  1.00  0.00     0.020 A 
ATOM     93  C   UNL A   1      39.536  36.111  39.058  1.00  0.00     0.054 A 
BRANCH  93  94
ATOM     94  S   UNL A   1      39.290  37.370  40.342  1.00  0.00     0.124 S 
ATOM     95  O   UNL A   1      38.516  38.383  39.629  1.00  0.00    -0.237 OA
ATOM     96  O   UNL A   1      38.563  36.637  41.376  1.00  0.00    -0.237 OA
ATOM     97  O   UNL A   1      40.649  37.764  40.706  1.00  0.00    -0.744 OA
ENDBRANCH  93  94
ENDBRANCH  67  88
ENDBRANCH  41  42
ENDBRANCH  34  36
ENDBRANCH  33  34
ENDBRANCH  32  33
ENDBRANCH   1  32
TORSDOF 19
ENDMDL
MODEL 3
REMARK VINA RESULT:     -10.8      6.339     10.495
REMARK SMILES O=C(CCC(=O)OCCOC(=O)c1ccc(-c2c3nc(c(-c4ccc(S(=O)(=O)[O-])cc4)c4ccc([nH]4)c(-c4ccc(S(=O)(=O)[O-])cc4)c4nc(c(-c5ccc(S(=O)(=O)[O-])cc5)c5ccc2[nH]5)C=C4)C=C3)cc1)Nc1ccccc1C(=O)N1CCN(c2ccc(Cl)cc2)CC1
REMARK SMILES IDX 8 1 7 2 5 3 6 4 4 5 3 6 2 7 1 8 73 9 74 11 75 12 79 13 76 14
REMARK SMILES IDX 78 15 77 16 80 17 81 18 82 19 83 20 94 21 84 22 93 23 85 24
REMARK SMILES IDX 86 25 87 26 92 27 88 28 91 29 89 30 90 31 9 32 10 33 11 34
REMARK SMILES IDX 12 35 13 36 14 37 72 38 15 39 71 40 16 41 17 42 18 43 65 44
REMARK SMILES IDX 19 45 70 46 64 47 66 48 20 49 69 50 63 51 62 52 21 54 51 55
REMARK SMILES IDX 32 56 50 57 33 58 36 59 49 60 67 61 34 62 35 63 48 65 68 66
REMARK SMILES IDX 37 67 22 68 23 69 31 70 24 71 30 72 25 73 26 74 27 75 28 76
REMARK SMILES IDX 29 77 52 78 53 79 61 80 54 81 60 82 55 83 56 84 57 85 58 86
REMARK SMILES IDX 59 87 38 88 39 89 47 90 40 91 46 92 41 93 42 94 43 95 44 96
REMARK SMILES IDX 45 97
REMARK H PARENT 73 10 66 53 36 64
REMARK Flexibility Score: inf
ROOT
ATOM      1  C   UNL A   1      33.984  34.823  28.471  1.00  0.00     0.274 C 
ENDROOT
BRANCH   1   2
ATOM      2  O   UNL A   1      33.513  33.473  28.249  1.00  0.00    -0.462 OA
BRANCH   2   3
ATOM      3  C   UNL A   1      34.360  32.464  28.599  1.00  0.00     0.306 C 
ATOM      4  O   UNL A   1      34.972  32.406  29.655  1.00  0.00    -0.252 OA
BRANCH   3   5
ATOM      5  C   UNL A   1      34.507  31.445  27.488  1.00  0.00     0.132 C 
BRANCH   5   6
ATOM      6  C   UNL A   1      33.539  30.276  27.573  1.00  0.00     0.112 C 
BRANCH   6   7
ATOM      7  C   UNL A   1      33.073  29.793  26.209  1.00  0.00     0.224 C 
ATOM      8  O   UNL A   1      32.016  30.180  25.723  1.00  0.00    -0.275 OA
ATOM      9  N   UNL A   1      33.913  28.851  25.652  1.00  0.00    -0.325 N 
ATOM     10  H   UNL A   1      34.738  28.634  26.142  1.00  0.00     0.169 HD
BRANCH   9  11
ATOM     11  C   UNL A   1      33.682  28.174  24.440  1.00  0.00     0.054 A 
ATOM     12  C   UNL A   1      34.126  28.862  23.296  1.00  0.00     0.027 A 
ATOM     13  C   UNL A   1      33.094  26.907  24.294  1.00  0.00     0.063 A 
ATOM     14  C   UNL A   1      34.057  28.280  22.030  1.00  0.00     0.002 A 
ATOM     15  C   UNL A   1      33.005  26.344  23.004  1.00  0.00     0.016 A 
ATOM     16  C   UNL A   1      33.493  27.020  21.883  1.00  0.00     0.001 A 
BRANCH  13  17
ATOM     17  C   UNL A   1      32.593  26.046  25.398  1.00  0.00     0.256 C 
ATOM     18  O   UNL A   1      31.713  26.525  26.119  1.00  0.00    -0.269 OA
ATOM     19  N   UNL A   1      33.109  24.777  25.627  1.00  0.00    -0.335 N 
ATOM     20  C   UNL A   1      32.321  23.840  26.424  1.00  0.00     0.141 C 
ATOM     21  C   UNL A   1      34.454  24.294  25.302  1.00  0.00     0.141 C 
ATOM     22  C   UNL A   1      32.192  22.493  25.701  1.00  0.00     0.138 C 
ATOM     23  C   UNL A   1      34.455  22.875  24.697  1.00  0.00     0.138 C 
ATOM     24  N   UNL A   1      33.518  21.942  25.358  1.00  0.00    -0.368 N 
BRANCH  24  25
ATOM     25  C   UNL A   1      33.583  20.615  24.918  1.00  0.00     0.037 A 
ATOM     26  C   UNL A   1      32.455  19.906  24.470  1.00  0.00     0.027 A 
ATOM     27  C   UNL A   1      34.808  19.930  24.935  1.00  0.00     0.027 A 
ATOM     28  C   UNL A   1      32.540  18.565  24.083  1.00  0.00     0.022 A 
ATOM     29  C   UNL A   1      34.899  18.583  24.563  1.00  0.00     0.022 A 
ATOM     30  C   UNL A   1      33.760  17.903  24.147  1.00  0.00     0.041 A 
ATOM     31  Cl  UNL A   1      33.847  16.242  23.721  1.00  0.00    -0.084 Cl
ENDBRANCH  24  25
ENDBRANCH  13  17
ENDBRANCH   9  11
ENDBRANCH   6   7
ENDBRANCH   5   6
ENDBRANCH   3   5
ENDBRANCH   2   3
ENDBRANCH   1   2
BRANCH   1  32
ATOM     32  C   UNL A   1      33.091  35.623  29.428  1.00  0.00     0.275 C 
BRANCH  32  33
ATOM     33  O   UNL A   1      32.650  34.827  30.541  1.00  0.00    -0.458 OA
BRANCH  33  34
ATOM     34  C   UNL A   1      33.028  35.309  31.746  1.00  0.00     0.338 C 
ATOM     35  O   UNL A   1      32.382  36.098  32.422  1.00  0.00    -0.246 OA
BRANCH  34  36
ATOM     36  C   UNL A   1      34.262  34.655  32.215  1.00  0.00     0.060 A 
ATOM     37  C   UNL A   1      34.143  33.465  32.941  1.00  0.00     0.016 A 
ATOM     38  C   UNL A   1      35.522  35.207  31.970  1.00  0.00     0.016 A 
ATOM     39  C   UNL A   1      35.284  32.814  33.406  1.00  0.00     0.010 A 
ATOM     40  C   UNL A   1      36.666  34.550  32.438  1.00  0.00     0.010 A 
ATOM     41  C   UNL A   1      36.556  33.348  33.157  1.00  0.00    -0.014 A 
BRANCH  41  42
ATOM     42  C   UNL A   1      37.768  32.629  33.619  1.00  0.00     0.031 A 
ATOM     43  C   UNL A   1      38.430  32.999  34.916  1.00  0.00     0.074 A 
ATOM     44  C   UNL A   1      38.275  31.639  32.861  1.00  0.00     0.049 A 
ATOM     45  N   UNL A   1      39.512  32.503  35.461  1.00  0.00    -0.248 NA
ATOM     46  C   UNL A   1      37.794  34.066  35.705  1.00  0.00     0.031 C 
ATOM     47  C   UNL A   1      37.709  31.172  31.592  1.00  0.00     0.029 A 
ATOM     48  N   UNL A   1      39.385  30.852  33.039  1.00  0.00    -0.354 N 
ATOM     49  C   UNL A   1      39.677  33.180  36.663  1.00  0.00     0.074 A 
ATOM     50  C   UNL A   1      38.604  34.147  36.753  1.00  0.00     0.031 C 
ATOM     51  C   UNL A   1      38.479  30.184  31.107  1.00  0.00     0.029 A 
ATOM     52  C   UNL A   1      39.612  29.976  32.003  1.00  0.00     0.049 A 
ATOM     53  H   UNL A   1      39.965  30.909  33.833  1.00  0.00     0.167 HD
ATOM     54  C   UNL A   1      40.635  33.009  37.606  1.00  0.00     0.031 A 
ATOM     55  C   UNL A   1      40.631  29.123  31.784  1.00  0.00     0.031 A 
ATOM     56  C   UNL A   1      41.723  32.072  37.495  1.00  0.00     0.049 A 
ATOM     57  C   UNL A   1      41.737  29.025  32.798  1.00  0.00     0.074 A 
ATOM     58  C   UNL A   1      42.747  31.831  38.395  1.00  0.00     0.029 A 
ATOM     59  N   UNL A   1      41.939  31.233  36.412  1.00  0.00    -0.354 N 
ATOM     60  N   UNL A   1      41.866  29.657  33.940  1.00  0.00    -0.248 NA
ATOM     61  C   UNL A   1      42.836  28.098  32.494  1.00  0.00     0.031 C 
ATOM     62  C   UNL A   1      43.616  30.890  37.830  1.00  0.00     0.029 A 
ATOM     63  C   UNL A   1      43.098  30.499  36.605  1.00  0.00     0.049 A 
ATOM     64  H   UNL A   1      41.355  31.167  35.623  1.00  0.00     0.167 HD
ATOM     65  C   UNL A   1      43.046  29.186  34.502  1.00  0.00     0.074 A 
ATOM     66  C   UNL A   1      43.587  28.207  33.581  1.00  0.00     0.031 C 
ATOM     67  C   UNL A   1      43.630  29.532  35.677  1.00  0.00     0.031 A 
BRANCH  54  68
ATOM     68  C   UNL A   1      40.572  33.885  38.829  1.00  0.00    -0.014 A 
ATOM     69  C   UNL A   1      39.878  33.477  39.982  1.00  0.00     0.010 A 
ATOM     70  C   UNL A   1      41.255  35.116  38.840  1.00  0.00     0.010 A 
ATOM     71  C   UNL A   1      39.840  34.299  41.112  1.00  0.00     0.020 A 
ATOM     72  C   UNL A   1      41.238  35.930  39.976  1.00  0.00     0.020 A 
ATOM     73  C   UNL A   1      40.516  35.524  41.100  1.00  0.00     0.054 A 
BRANCH  73  74
ATOM     74  S   UNL A   1      40.460  36.567  42.583  1.00  0.00     0.124 S 
ATOM     75  O   UNL A   1      39.753  37.748  42.093  1.00  0.00    -0.237 OA
ATOM     76  O   UNL A   1      39.718  35.739  43.530  1.00  0.00    -0.237 OA
ATOM     77  O   UNL A   1      41.867  36.777  42.914  1.00  0.00    -0.744 OA
ENDBRANCH  73  74
ENDBRANCH  54  68
BRANCH  55  78
ATOM     78  C   UNL A   1      40.666  28.317  30.533  1.00  0.00    -0.014 A 
ATOM     79  C   UNL A   1      41.749  28.415  29.643  1.00  0.00     0.010 A 
ATOM     80  C   UNL A   1      39.611  27.435  30.232  1.00  0.00     0.010 A 
ATOM     81  C   UNL A   1      41.768  27.659  28.467  1.00  0.00     0.020 A 
ATOM     82  C   UNL A   1      39.641  26.657  29.072  1.00  0.00     0.020 A 
ATOM     83  C   UNL A   1      40.714  26.784  28.190  1.00  0.00     0.054 A 
BRANCH  83  84
ATOM     84  S   UNL A   1      40.783  25.774  26.684  1.00  0.00     0.124 S 
ATOM     85  O   UNL A   1      41.939  24.921  26.943  1.00  0.00    -0.237 OA
ATOM     86  O   UNL A   1      39.486  25.102  26.692  1.00  0.00    -0.237 OA
ATOM     87  O   UNL A   1      40.957  26.760  25.619  1.00  0.00    -0.744 OA
ENDBRANCH  83  84
ENDBRANCH  55  78
BRANCH  67  88
ATOM     88  C   UNL A   1      44.907  28.827  36.048  1.00  0.00    -0.014 A 
ATOM     89  C   UNL A   1      44.889  27.612  36.755  1.00  0.00     0.010 A 
ATOM     90  C   UNL A   1      46.141  29.366  35.642  1.00  0.00     0.010 A 
ATOM     91  C   UNL A   1      46.085  26.965  37.076  1.00  0.00     0.020 A 
ATOM     92  C   UNL A   1      47.338  28.708  35.937  1.00  0.00     0.020 A 
ATOM     93  C   UNL A   1      47.302  27.517  36.665  1.00  0.00     0.054 A 
BRANCH  93  94
ATOM     94  S   UNL A   1      48.839  26.636  37.057  1.00  0.00     0.124 S 
ATOM     95  O   UNL A   1      48.500  25.978  38.316  1.00  0.00    -0.237 OA
ATOM     96  O   UNL A   1      49.002  25.748  35.908  1.00  0.00    -0.237 OA
ATOM     97  O   UNL A   1      49.834  27.702  37.159  1.00  0.00    -0.744 OA
ENDBRANCH  93  94
ENDBRANCH  67  88
ENDBRANCH  41  42
ENDBRANCH  34  36
ENDBRANCH  33  34
ENDBRANCH  32  33
ENDBRANCH   1  32
TORSDOF 19
ENDMDL
