MODEL 1
REMARK VINA RESULT:     -11.1      0.000      0.000
REMARK SMILES CC(C)(C)c1cc2c(cc1Cl)C=C(C(=O)OCCOC(=O)c1ccc(-c3c4nc(c(-c5ccc(S(=O)(=O)[O-])cc5)c5ccc([nH]5)c(-c5ccc(S(=O)(=O)[O-])cc5)c5nc(c(-c6ccc(S(=O)(=O)[O-])cc6)c6ccc3[nH]6)C=C5)C=C4)cc1)[C@H](C(F)(F)F)O2
REMARK SMILES IDX 18 1 17 2 16 3 14 4 15 5 13 6 5 7 6 8 10 9 7 10 9 11 11 12
REMARK SMILES IDX 8 13 87 14 12 15 82 16 2 17 1 18 3 19 4 20 83 21 84 22 85 23
REMARK SMILES IDX 86 24 19 25 20 26 21 27 22 28 23 29 81 30 24 31 80 32 25 33
REMARK SMILES IDX 26 34 27 35 74 36 28 37 79 38 73 39 75 40 29 41 78 42 72 43
REMARK SMILES IDX 71 44 30 46 60 47 41 48 59 49 42 50 45 51 58 52 76 53 43 54
REMARK SMILES IDX 44 55 57 57 77 58 46 59 31 60 32 61 40 62 33 63 39 64 34 65
REMARK SMILES IDX 35 66 36 67 37 68 38 69 61 70 62 71 70 72 63 73 69 74 64 75
REMARK SMILES IDX 65 76 66 77 67 78 68 79 47 80 48 81 56 82 49 83 55 84 50 85
REMARK SMILES IDX 51 86 52 87 53 88 54 89
REMARK H PARENT 75 45 45 56
REMARK Flexibility Score: inf
ROOT
ATOM      1  C   UNL A   1      34.153  32.325  28.623  1.00  0.00     0.275 C 
ENDROOT
BRANCH   1   2
ATOM      2  C   UNL A   1      33.808  33.781  28.298  1.00  0.00     0.275 C 
BRANCH   2   3
ATOM      3  O   UNL A   1      32.855  34.309  29.246  1.00  0.00    -0.459 OA
BRANCH   3   4
ATOM      4  C   UNL A   1      33.179  35.480  29.835  1.00  0.00     0.338 C 
ATOM      5  O   UNL A   1      32.853  36.587  29.445  1.00  0.00    -0.246 OA
BRANCH   4   6
ATOM      6  C   UNL A   1      33.898  35.249  31.106  1.00  0.00     0.087 C 
ATOM      7  C   UNL A   1      37.493  34.026  34.470  1.00  0.00    -0.020 A 
ATOM      8  C   UNL A   1      36.076  34.158  34.506  1.00  0.00     0.053 A 
ATOM      9  C   UNL A   1      38.115  34.307  33.230  1.00  0.00     0.045 A 
ATOM     10  C   UNL A   1      35.327  34.502  33.376  1.00  0.00     0.128 A 
ATOM     11  C   UNL A   1      37.358  34.634  32.098  1.00  0.00     0.032 A 
ATOM     12  Cl  UNL A   1      39.819  34.235  32.942  1.00  0.00    -0.084 Cl
ATOM     13  C   UNL A   1      35.970  34.696  32.166  1.00  0.00     0.019 A 
ATOM     14  O   UNL A   1      33.962  34.554  33.496  1.00  0.00    -0.475 OA
ATOM     15  C   UNL A   1      35.183  34.897  30.971  1.00  0.00     0.027 C 
ATOM     16  C   UNL A   1      33.219  35.279  32.452  1.00  0.00     0.316 C 
BRANCH   7  17
ATOM     17  C   UNL A   1      38.259  33.522  35.720  1.00  0.00    -0.012 C 
ATOM     18  C   UNL A   1      38.814  32.107  35.438  1.00  0.00     0.016 C 
ATOM     19  C   UNL A   1      37.359  33.383  36.978  1.00  0.00     0.016 C 
ATOM     20  C   UNL A   1      39.404  34.469  36.143  1.00  0.00     0.016 C 
ENDBRANCH   7  17
BRANCH  16  21
ATOM     21  C   UNL A   1      32.819  36.659  33.002  1.00  0.00     0.430 C 
ATOM     22  F   UNL A   1      31.492  36.756  33.250  1.00  0.00    -0.167 F 
ATOM     23  F   UNL A   1      33.427  36.881  34.199  1.00  0.00    -0.167 F 
ATOM     24  F   UNL A   1      33.171  37.671  32.183  1.00  0.00    -0.167 F 
ENDBRANCH  16  21
ENDBRANCH   4   6
ENDBRANCH   3   4
ENDBRANCH   2   3
ENDBRANCH   1   2
BRANCH   1  25
ATOM     25  O   UNL A   1      34.168  31.522  27.427  1.00  0.00    -0.458 OA
BRANCH  25  26
ATOM     26  C   UNL A   1      34.302  30.191  27.621  1.00  0.00     0.338 C 
ATOM     27  O   UNL A   1      33.503  29.315  27.327  1.00  0.00    -0.246 OA
BRANCH  26  28
ATOM     28  C   UNL A   1      35.658  29.906  28.111  1.00  0.00     0.060 A 
ATOM     29  C   UNL A   1      35.907  29.384  29.376  1.00  0.00     0.016 A 
ATOM     30  C   UNL A   1      36.705  30.077  27.211  1.00  0.00     0.016 A 
ATOM     31  C   UNL A   1      37.225  29.059  29.731  1.00  0.00     0.010 A 
ATOM     32  C   UNL A   1      37.998  29.675  27.530  1.00  0.00     0.010 A 
ATOM     33  C   UNL A   1      38.285  29.183  28.807  1.00  0.00    -0.014 A 
BRANCH  33  34
ATOM     34  C   UNL A   1      39.684  28.795  29.151  1.00  0.00     0.031 A 
ATOM     35  C   UNL A   1      40.574  29.723  29.949  1.00  0.00     0.074 A 
ATOM     36  C   UNL A   1      40.186  27.625  28.703  1.00  0.00     0.049 A 
ATOM     37  N   UNL A   1      41.817  29.549  30.325  1.00  0.00    -0.248 NA
ATOM     38  C   UNL A   1      40.013  31.025  30.346  1.00  0.00     0.031 C 
ATOM     39  C   UNL A   1      39.468  26.671  27.855  1.00  0.00     0.029 A 
ATOM     40  N   UNL A   1      41.408  27.029  28.908  1.00  0.00    -0.354 N 
ATOM     41  C   UNL A   1      42.186  30.720  30.982  1.00  0.00     0.074 A 
ATOM     42  C   UNL A   1      41.061  31.622  30.896  1.00  0.00     0.031 C 
ATOM     43  C   UNL A   1      40.231  25.582  27.675  1.00  0.00     0.029 A 
ATOM     44  C   UNL A   1      41.511  25.773  28.353  1.00  0.00     0.049 A 
ATOM     45  H   UNL A   1      42.140  27.459  29.404  1.00  0.00     0.167 HD
ATOM     46  C   UNL A   1      43.339  31.004  31.632  1.00  0.00     0.031 A 
ATOM     47  C   UNL A   1      42.507  24.865  28.397  1.00  0.00     0.031 A 
ATOM     48  C   UNL A   1      44.437  30.084  31.766  1.00  0.00     0.049 A 
ATOM     49  C   UNL A   1      43.760  25.179  29.165  1.00  0.00     0.074 A 
ATOM     50  C   UNL A   1      45.614  30.253  32.475  1.00  0.00     0.029 A 
ATOM     51  N   UNL A   1      44.488  28.818  31.201  1.00  0.00    -0.354 N 
ATOM     52  N   UNL A   1      44.059  26.265  29.835  1.00  0.00    -0.248 NA
ATOM     53  C   UNL A   1      44.807  24.146  29.195  1.00  0.00     0.031 C 
ATOM     54  C   UNL A   1      46.396  29.111  32.301  1.00  0.00     0.029 A 
ATOM     55  C   UNL A   1      45.682  28.203  31.536  1.00  0.00     0.049 A 
ATOM     56  H   UNL A   1      43.781  28.418  30.645  1.00  0.00     0.167 HD
ATOM     57  C   UNL A   1      45.319  26.043  30.380  1.00  0.00     0.074 A 
ATOM     58  C   UNL A   1      45.721  24.711  29.976  1.00  0.00     0.031 C 
ATOM     59  C   UNL A   1      46.072  26.873  31.139  1.00  0.00     0.031 A 
BRANCH  46  60
ATOM     60  C   UNL A   1      43.470  32.346  32.309  1.00  0.00    -0.014 A 
ATOM     61  C   UNL A   1      43.084  32.503  33.653  1.00  0.00     0.010 A 
ATOM     62  C   UNL A   1      43.859  33.483  31.575  1.00  0.00     0.010 A 
ATOM     63  C   UNL A   1      43.060  33.771  34.244  1.00  0.00     0.020 A 
ATOM     64  C   UNL A   1      43.866  34.747  32.171  1.00  0.00     0.020 A 
ATOM     65  C   UNL A   1      43.442  34.887  33.495  1.00  0.00     0.054 A 
BRANCH  65  66
ATOM     66  S   UNL A   1      43.386  36.528  34.267  1.00  0.00     0.124 S 
ATOM     67  O   UNL A   1      44.581  36.515  35.104  1.00  0.00    -0.237 OA
ATOM     68  O   UNL A   1      43.428  37.427  33.116  1.00  0.00    -0.237 OA
ATOM     69  O   UNL A   1      42.115  36.520  34.991  1.00  0.00    -0.744 OA
ENDBRANCH  65  66
ENDBRANCH  46  60
BRANCH  47  70
ATOM     70  C   UNL A   1      42.304  23.537  27.751  1.00  0.00    -0.014 A 
ATOM     71  C   UNL A   1      41.645  22.496  28.432  1.00  0.00     0.010 A 
ATOM     72  C   UNL A   1      42.859  23.280  26.484  1.00  0.00     0.010 A 
ATOM     73  C   UNL A   1      41.597  21.211  27.887  1.00  0.00     0.020 A 
ATOM     74  C   UNL A   1      42.789  22.000  25.922  1.00  0.00     0.020 A 
ATOM     75  C   UNL A   1      42.185  20.967  26.642  1.00  0.00     0.054 A 
BRANCH  75  76
ATOM     76  S   UNL A   1      42.171  19.278  25.982  1.00  0.00     0.124 S 
ATOM     77  O   UNL A   1      42.685  18.510  27.114  1.00  0.00    -0.237 OA
ATOM     78  O   UNL A   1      40.760  19.067  25.669  1.00  0.00    -0.237 OA
ATOM     79  O   UNL A   1      43.058  19.355  24.825  1.00  0.00    -0.744 OA
ENDBRANCH  75  76
ENDBRANCH  47  70
BRANCH  59  80
ATOM     80  C   UNL A   1      47.421  26.396  31.609  1.00  0.00    -0.014 A 
ATOM     81  C   UNL A   1      48.527  26.467  30.740  1.00  0.00     0.010 A 
ATOM     82  C   UNL A   1      47.556  25.725  32.837  1.00  0.00     0.010 A 
ATOM     83  C   UNL A   1      49.727  25.834  31.067  1.00  0.00     0.020 A 
ATOM     84  C   UNL A   1      48.765  25.113  33.180  1.00  0.00     0.020 A 
ATOM     85  C   UNL A   1      49.833  25.147  32.279  1.00  0.00     0.054 A 
BRANCH  85  86
ATOM     86  S   UNL A   1      51.378  24.273  32.658  1.00  0.00     0.124 S 
ATOM     87  O   UNL A   1      51.465  24.418  34.108  1.00  0.00    -0.237 OA
ATOM     88  O   UNL A   1      51.108  22.920  32.175  1.00  0.00    -0.237 OA
ATOM     89  O   UNL A   1      52.384  25.008  31.894  1.00  0.00    -0.744 OA
ENDBRANCH  85  86
ENDBRANCH  59  80
ENDBRANCH  33  34
ENDBRANCH  26  28
ENDBRANCH  25  26
ENDBRANCH   1  25
TORSDOF 16
ENDMDL
MODEL 2
REMARK VINA RESULT:     -11.1      5.424     12.980
REMARK SMILES CC(C)(C)c1cc2c(cc1Cl)C=C(C(=O)OCCOC(=O)c1ccc(-c3c4nc(c(-c5ccc(S(=O)(=O)[O-])cc5)c5ccc([nH]5)c(-c5ccc(S(=O)(=O)[O-])cc5)c5nc(c(-c6ccc(S(=O)(=O)[O-])cc6)c6ccc3[nH]6)C=C5)C=C4)cc1)[C@H](C(F)(F)F)O2
REMARK SMILES IDX 18 1 17 2 16 3 14 4 15 5 13 6 5 7 6 8 10 9 7 10 9 11 11 12
REMARK SMILES IDX 8 13 87 14 12 15 82 16 2 17 1 18 3 19 4 20 83 21 84 22 85 23
REMARK SMILES IDX 86 24 19 25 20 26 21 27 22 28 23 29 81 30 24 31 80 32 25 33
REMARK SMILES IDX 26 34 27 35 74 36 28 37 79 38 73 39 75 40 29 41 78 42 72 43
REMARK SMILES IDX 71 44 30 46 60 47 41 48 59 49 42 50 45 51 58 52 76 53 43 54
REMARK SMILES IDX 44 55 57 57 77 58 46 59 31 60 32 61 40 62 33 63 39 64 34 65
REMARK SMILES IDX 35 66 36 67 37 68 38 69 61 70 62 71 70 72 63 73 69 74 64 75
REMARK SMILES IDX 65 76 66 77 67 78 68 79 47 80 48 81 56 82 49 83 55 84 50 85
REMARK SMILES IDX 51 86 52 87 53 88 54 89
REMARK H PARENT 75 45 45 56
REMARK Flexibility Score: inf
ROOT
ATOM      1  C   UNL A   1      40.509  21.849  26.893  1.00  0.00     0.275 C 
ENDROOT
BRANCH   1   2
ATOM      2  C   UNL A   1      40.906  20.381  27.081  1.00  0.00     0.275 C 
BRANCH   2   3
ATOM      3  O   UNL A   1      42.342  20.233  27.081  1.00  0.00    -0.459 OA
BRANCH   3   4
ATOM      4  C   UNL A   1      42.923  20.011  25.882  1.00  0.00     0.338 C 
ATOM      5  O   UNL A   1      42.533  19.226  25.037  1.00  0.00    -0.246 OA
BRANCH   4   6
ATOM      6  C   UNL A   1      44.053  20.939  25.665  1.00  0.00     0.087 C 
ATOM      7  C   UNL A   1      47.282  24.821  26.159  1.00  0.00    -0.020 A 
ATOM      8  C   UNL A   1      46.918  23.935  25.106  1.00  0.00     0.053 A 
ATOM      9  C   UNL A   1      46.637  24.612  27.402  1.00  0.00     0.045 A 
ATOM     10  C   UNL A   1      45.948  22.940  25.266  1.00  0.00     0.128 A 
ATOM     11  C   UNL A   1      45.654  23.625  27.551  1.00  0.00     0.032 A 
ATOM     12  Cl  UNL A   1      46.922  25.543  28.832  1.00  0.00    -0.084 Cl
ATOM     13  C   UNL A   1      45.290  22.819  26.477  1.00  0.00     0.019 A 
ATOM     14  O   UNL A   1      45.628  22.169  24.178  1.00  0.00    -0.475 OA
ATOM     15  C   UNL A   1      44.183  21.897  26.592  1.00  0.00     0.027 C 
ATOM     16  C   UNL A   1      44.922  20.902  24.433  1.00  0.00     0.316 C 
BRANCH   7  17
ATOM     17  C   UNL A   1      48.271  25.984  25.891  1.00  0.00    -0.012 C 
ATOM     18  C   UNL A   1      47.562  27.329  26.172  1.00  0.00     0.016 C 
ATOM     19  C   UNL A   1      48.749  26.055  24.416  1.00  0.00     0.016 C 
ATOM     20  C   UNL A   1      49.563  25.877  26.732  1.00  0.00     0.016 C 
ENDBRANCH   7  17
BRANCH  16  21
ATOM     21  C   UNL A   1      45.932  19.747  24.326  1.00  0.00     0.430 C 
ATOM     22  F   UNL A   1      45.895  18.921  25.397  1.00  0.00    -0.167 F 
ATOM     23  F   UNL A   1      45.634  18.961  23.254  1.00  0.00    -0.167 F 
ATOM     24  F   UNL A   1      47.201  20.174  24.165  1.00  0.00    -0.167 F 
ENDBRANCH  16  21
ENDBRANCH   4   6
ENDBRANCH   3   4
ENDBRANCH   2   3
ENDBRANCH   1   2
BRANCH   1  25
ATOM     25  O   UNL A   1      39.079  21.983  26.782  1.00  0.00    -0.458 OA
BRANCH  25  26
ATOM     26  C   UNL A   1      38.646  23.076  26.114  1.00  0.00     0.338 C 
ATOM     27  O   UNL A   1      37.787  23.124  25.248  1.00  0.00    -0.246 OA
BRANCH  26  28
ATOM     28  C   UNL A   1      39.261  24.276  26.699  1.00  0.00     0.060 A 
ATOM     29  C   UNL A   1      40.028  25.168  25.957  1.00  0.00     0.016 A 
ATOM     30  C   UNL A   1      38.955  24.560  28.027  1.00  0.00     0.016 A 
ATOM     31  C   UNL A   1      40.503  26.335  26.574  1.00  0.00     0.010 A 
ATOM     32  C   UNL A   1      39.353  25.756  28.614  1.00  0.00     0.010 A 
ATOM     33  C   UNL A   1      40.157  26.654  27.905  1.00  0.00    -0.014 A 
BRANCH  33  34
ATOM     34  C   UNL A   1      40.612  27.915  28.561  1.00  0.00     0.031 A 
ATOM     35  C   UNL A   1      42.051  28.089  28.994  1.00  0.00     0.074 A 
ATOM     36  C   UNL A   1      39.722  28.895  28.821  1.00  0.00     0.049 A 
ATOM     37  N   UNL A   1      42.613  29.113  29.588  1.00  0.00    -0.248 NA
ATOM     38  C   UNL A   1      42.970  26.961  28.766  1.00  0.00     0.031 C 
ATOM     39  C   UNL A   1      38.288  28.828  28.532  1.00  0.00     0.029 A 
ATOM     40  N   UNL A   1      39.890  30.144  29.370  1.00  0.00    -0.354 N 
ATOM     41  C   UNL A   1      43.936  28.745  29.817  1.00  0.00     0.074 A 
ATOM     42  C   UNL A   1      44.078  27.382  29.361  1.00  0.00     0.031 C 
ATOM     43  C   UNL A   1      37.723  30.006  28.837  1.00  0.00     0.029 A 
ATOM     44  C   UNL A   1      38.739  30.901  29.385  1.00  0.00     0.049 A 
ATOM     45  H   UNL A   1      40.751  30.467  29.720  1.00  0.00     0.167 HD
ATOM     46  C   UNL A   1      44.950  29.485  30.322  1.00  0.00     0.031 A 
ATOM     47  C   UNL A   1      38.522  32.174  29.774  1.00  0.00     0.031 A 
ATOM     48  C   UNL A   1      44.822  30.861  30.724  1.00  0.00     0.049 A 
ATOM     49  C   UNL A   1      39.672  32.996  30.287  1.00  0.00     0.074 A 
ATOM     50  C   UNL A   1      45.813  31.717  31.173  1.00  0.00     0.029 A 
ATOM     51  N   UNL A   1      43.642  31.589  30.706  1.00  0.00    -0.354 N 
ATOM     52  N   UNL A   1      40.927  32.648  30.431  1.00  0.00    -0.248 NA
ATOM     53  C   UNL A   1      39.382  34.383  30.681  1.00  0.00     0.031 C 
ATOM     54  C   UNL A   1      45.225  32.947  31.470  1.00  0.00     0.029 A 
ATOM     55  C   UNL A   1      43.880  32.879  31.147  1.00  0.00     0.049 A 
ATOM     56  H   UNL A   1      42.767  31.240  30.421  1.00  0.00     0.167 HD
ATOM     57  C   UNL A   1      41.582  33.775  30.916  1.00  0.00     0.074 A 
ATOM     58  C   UNL A   1      40.588  34.822  31.025  1.00  0.00     0.031 C 
ATOM     59  C   UNL A   1      42.887  33.920  31.244  1.00  0.00     0.031 A 
BRANCH  46  60
ATOM     60  C   UNL A   1      46.318  28.855  30.426  1.00  0.00    -0.014 A 
ATOM     61  C   UNL A   1      46.672  28.115  31.569  1.00  0.00     0.010 A 
ATOM     62  C   UNL A   1      47.296  29.101  29.444  1.00  0.00     0.010 A 
ATOM     63  C   UNL A   1      47.982  27.656  31.742  1.00  0.00     0.020 A 
ATOM     64  C   UNL A   1      48.597  28.617  29.598  1.00  0.00     0.020 A 
ATOM     65  C   UNL A   1      48.939  27.919  30.758  1.00  0.00     0.054 A 
BRANCH  65  66
ATOM     66  S   UNL A   1      50.640  27.335  31.004  1.00  0.00     0.124 S 
ATOM     67  O   UNL A   1      50.471  25.886  31.004  1.00  0.00    -0.237 OA
ATOM     68  O   UNL A   1      51.341  27.892  29.850  1.00  0.00    -0.237 OA
ATOM     69  O   UNL A   1      51.017  27.920  32.291  1.00  0.00    -0.744 OA
ENDBRANCH  65  66
ENDBRANCH  46  60
BRANCH  47  70
ATOM     70  C   UNL A   1      37.162  32.759  29.606  1.00  0.00    -0.014 A 
ATOM     71  C   UNL A   1      36.773  33.341  28.384  1.00  0.00     0.010 A 
ATOM     72  C   UNL A   1      36.284  32.825  30.703  1.00  0.00     0.010 A 
ATOM     73  C   UNL A   1      35.561  34.027  28.280  1.00  0.00     0.020 A 
ATOM     74  C   UNL A   1      35.057  33.487  30.594  1.00  0.00     0.020 A 
ATOM     75  C   UNL A   1      34.718  34.111  29.392  1.00  0.00     0.054 A 
BRANCH  75  76
ATOM     76  S   UNL A   1      33.179  35.062  29.256  1.00  0.00     0.124 S 
ATOM     77  O   UNL A   1      32.415  34.260  28.304  1.00  0.00    -0.237 OA
ATOM     78  O   UNL A   1      32.677  35.060  30.627  1.00  0.00    -0.237 OA
ATOM     79  O   UNL A   1      33.625  36.362  28.761  1.00  0.00    -0.744 OA
ENDBRANCH  75  76
ENDBRANCH  47  70
BRANCH  59  80
ATOM     80  C   UNL A   1      43.357  35.256  31.757  1.00  0.00    -0.014 A 
ATOM     81  C   UNL A   1      43.078  35.630  33.086  1.00  0.00     0.010 A 
ATOM     82  C   UNL A   1      43.920  36.202  30.882  1.00  0.00     0.010 A 
ATOM     83  C   UNL A   1      43.305  36.938  33.516  1.00  0.00     0.020 A 
ATOM     84  C   UNL A   1      44.174  37.506  31.318  1.00  0.00     0.020 A 
ATOM     85  C   UNL A   1      43.836  37.872  32.624  1.00  0.00     0.054 A 
BRANCH  85  86
ATOM     86  S   UNL A   1      44.062  39.585  33.180  1.00  0.00     0.124 S 
ATOM     87  O   UNL A   1      44.446  40.261  31.945  1.00  0.00    -0.237 OA
ATOM     88  O   UNL A   1      42.741  39.929  33.703  1.00  0.00    -0.237 OA
ATOM     89  O   UNL A   1      45.114  39.482  34.190  1.00  0.00    -0.744 OA
ENDBRANCH  85  86
ENDBRANCH  59  80
ENDBRANCH  33  34
ENDBRANCH  26  28
ENDBRANCH  25  26
ENDBRANCH   1  25
TORSDOF 16
ENDMDL
MODEL 3
REMARK VINA RESULT:     -10.8      5.680     11.989
REMARK SMILES CC(C)(C)c1cc2c(cc1Cl)C=C(C(=O)OCCOC(=O)c1ccc(-c3c4nc(c(-c5ccc(S(=O)(=O)[O-])cc5)c5ccc([nH]5)c(-c5ccc(S(=O)(=O)[O-])cc5)c5nc(c(-c6ccc(S(=O)(=O)[O-])cc6)c6ccc3[nH]6)C=C5)C=C4)cc1)[C@H](C(F)(F)F)O2
REMARK SMILES IDX 18 1 17 2 16 3 14 4 15 5 13 6 5 7 6 8 10 9 7 10 9 11 11 12
REMARK SMILES IDX 8 13 87 14 12 15 82 16 2 17 1 18 3 19 4 20 83 21 84 22 85 23
REMARK SMILES IDX 86 24 19 25 20 26 21 27 22 28 23 29 81 30 24 31 80 32 25 33
REMARK SMILES IDX 26 34 27 35 74 36 28 37 79 38 73 39 75 40 29 41 78 42 72 43
REMARK SMILES IDX 71 44 30 46 60 47 41 48 59 49 42 50 45 51 58 52 76 53 43 54
REMARK SMILES IDX 44 55 57 57 77 58 46 59 31 60 32 61 40 62 33 63 39 64 34 65
REMARK SMILES IDX 35 66 36 67 37 68 38 69 61 70 62 71 70 72 63 73 69 74 64 75
REMARK SMILES IDX 65 76 66 77 67 78 68 79 47 80 48 81 56 82 49 83 55 84 50 85
REMARK SMILES IDX 51 86 52 87 53 88 54 89
REMARK H PARENT 75 45 45 56
REMARK Flexibility Score: inf
ROOT
ATOM      1  C   UNL A   1      40.343  22.679  26.509  1.00  0.00     0.275 C 
ENDROOT
BRANCH   1   2
ATOM      2  C   UNL A   1      39.349  21.561  26.181  1.00  0.00     0.275 C 
BRANCH   2   3
ATOM      3  O   UNL A   1      38.256  22.062  25.382  1.00  0.00    -0.459 OA
BRANCH   3   4
ATOM      4  C   UNL A   1      37.218  21.220  25.187  1.00  0.00     0.338 C 
ATOM      5  O   UNL A   1      37.300  20.017  25.016  1.00  0.00    -0.246 OA
BRANCH   4   6
ATOM      6  C   UNL A   1      35.930  21.932  25.323  1.00  0.00     0.087 C 
ATOM      7  C   UNL A   1      32.422  25.596  25.441  1.00  0.00    -0.020 A 
ATOM      8  C   UNL A   1      32.534  24.284  25.981  1.00  0.00     0.053 A 
ATOM      9  C   UNL A   1      33.512  26.042  24.656  1.00  0.00     0.045 A 
ATOM     10  C   UNL A   1      33.669  23.489  25.791  1.00  0.00     0.128 A 
ATOM     11  C   UNL A   1      34.653  25.249  24.482  1.00  0.00     0.032 A 
ATOM     12  Cl  UNL A   1      33.603  27.586  23.880  1.00  0.00    -0.084 Cl
ATOM     13  C   UNL A   1      34.741  23.993  25.077  1.00  0.00     0.019 A 
ATOM     14  O   UNL A   1      33.705  22.258  26.394  1.00  0.00    -0.475 OA
ATOM     15  C   UNL A   1      35.969  23.235  25.013  1.00  0.00     0.027 C 
ATOM     16  C   UNL A   1      34.689  21.287  25.888  1.00  0.00     0.316 C 
BRANCH   7  17
ATOM     17  C   UNL A   1      31.196  26.478  25.788  1.00  0.00    -0.012 C 
ATOM     18  C   UNL A   1      30.030  25.571  26.244  1.00  0.00     0.016 C 
ATOM     19  C   UNL A   1      30.658  27.287  24.577  1.00  0.00     0.016 C 
ATOM     20  C   UNL A   1      31.506  27.533  26.874  1.00  0.00     0.016 C 
ENDBRANCH   7  17
BRANCH  16  21
ATOM     21  C   UNL A   1      33.962  20.270  24.992  1.00  0.00     0.430 C 
ATOM     22  F   UNL A   1      32.776  19.875  25.510  1.00  0.00    -0.167 F 
ATOM     23  F   UNL A   1      33.661  20.835  23.791  1.00  0.00    -0.167 F 
ATOM     24  F   UNL A   1      34.701  19.170  24.741  1.00  0.00    -0.167 F 
ENDBRANCH  16  21
ENDBRANCH   4   6
ENDBRANCH   3   4
ENDBRANCH   2   3
ENDBRANCH   1   2
BRANCH   1  25
ATOM     25  O   UNL A   1      39.706  23.970  26.435  1.00  0.00    -0.458 OA
BRANCH  25  26
ATOM     26  C   UNL A   1      40.539  25.021  26.260  1.00  0.00     0.338 C 
ATOM     27  O   UNL A   1      41.250  25.248  25.294  1.00  0.00    -0.246 OA
BRANCH  26  28
ATOM     28  C   UNL A   1      40.354  25.975  27.362  1.00  0.00     0.060 A 
ATOM     29  C   UNL A   1      39.547  25.707  28.463  1.00  0.00     0.016 A 
ATOM     30  C   UNL A   1      41.113  27.140  27.324  1.00  0.00     0.016 A 
ATOM     31  C   UNL A   1      39.497  26.637  29.512  1.00  0.00     0.010 A 
ATOM     32  C   UNL A   1      41.130  28.021  28.400  1.00  0.00     0.010 A 
ATOM     33  C   UNL A   1      40.301  27.797  29.504  1.00  0.00    -0.014 A 
BRANCH  33  34
ATOM     34  C   UNL A   1      40.297  28.772  30.634  1.00  0.00     0.031 A 
ATOM     35  C   UNL A   1      39.281  29.891  30.691  1.00  0.00     0.074 A 
ATOM     36  C   UNL A   1      41.243  28.690  31.593  1.00  0.00     0.049 A 
ATOM     37  N   UNL A   1      39.142  30.831  31.593  1.00  0.00    -0.248 NA
ATOM     38  C   UNL A   1      38.320  29.991  29.580  1.00  0.00     0.031 C 
ATOM     39  C   UNL A   1      42.333  27.713  31.620  1.00  0.00     0.029 A 
ATOM     40  N   UNL A   1      41.433  29.427  32.738  1.00  0.00    -0.354 N 
ATOM     41  C   UNL A   1      38.098  31.637  31.149  1.00  0.00     0.074 A 
ATOM     42  C   UNL A   1      37.682  31.118  29.867  1.00  0.00     0.031 C 
ATOM     43  C   UNL A   1      43.030  27.863  32.757  1.00  0.00     0.029 A 
ATOM     44  C   UNL A   1      42.470  28.974  33.522  1.00  0.00     0.049 A 
ATOM     45  H   UNL A   1      40.880  30.207  32.975  1.00  0.00     0.167 HD
ATOM     46  C   UNL A   1      37.511  32.688  31.769  1.00  0.00     0.031 A 
ATOM     47  C   UNL A   1      42.913  29.384  34.728  1.00  0.00     0.031 A 
ATOM     48  C   UNL A   1      37.888  33.169  33.072  1.00  0.00     0.049 A 
ATOM     49  C   UNL A   1      42.217  30.522  35.423  1.00  0.00     0.074 A 
ATOM     50  C   UNL A   1      37.299  34.177  33.815  1.00  0.00     0.029 A 
ATOM     51  N   UNL A   1      38.933  32.668  33.834  1.00  0.00    -0.354 N 
ATOM     52  N   UNL A   1      41.189  31.224  35.014  1.00  0.00    -0.248 NA
ATOM     53  C   UNL A   1      42.730  30.917  36.743  1.00  0.00     0.031 C 
ATOM     54  C   UNL A   1      38.014  34.317  35.005  1.00  0.00     0.029 A 
ATOM     55  C   UNL A   1      39.011  33.354  35.033  1.00  0.00     0.049 A 
ATOM     56  H   UNL A   1      39.529  31.932  33.562  1.00  0.00     0.167 HD
ATOM     57  C   UNL A   1      40.921  32.133  36.031  1.00  0.00     0.074 A 
ATOM     58  C   UNL A   1      41.883  31.882  37.084  1.00  0.00     0.031 C 
ATOM     59  C   UNL A   1      39.965  33.092  36.080  1.00  0.00     0.031 A 
BRANCH  46  60
ATOM     60  C   UNL A   1      36.352  33.370  31.084  1.00  0.00    -0.014 A 
ATOM     61  C   UNL A   1      36.495  33.864  29.774  1.00  0.00     0.010 A 
ATOM     62  C   UNL A   1      35.160  33.634  31.785  1.00  0.00     0.010 A 
ATOM     63  C   UNL A   1      35.481  34.629  29.187  1.00  0.00     0.020 A 
ATOM     64  C   UNL A   1      34.132  34.370  31.191  1.00  0.00     0.020 A 
ATOM     65  C   UNL A   1      34.309  34.885  29.905  1.00  0.00     0.054 A 
BRANCH  65  66
ATOM     66  S   UNL A   1      33.011  35.895  29.140  1.00  0.00     0.124 S 
ATOM     67  O   UNL A   1      32.206  36.286  30.292  1.00  0.00    -0.237 OA
ATOM     68  O   UNL A   1      33.771  36.969  28.504  1.00  0.00    -0.237 OA
ATOM     69  O   UNL A   1      32.363  34.971  28.210  1.00  0.00    -0.744 OA
ENDBRANCH  65  66
ENDBRANCH  46  60
BRANCH  47  70
ATOM     70  C   UNL A   1      44.030  28.644  35.378  1.00  0.00    -0.014 A 
ATOM     71  C   UNL A   1      43.776  27.528  36.198  1.00  0.00     0.010 A 
ATOM     72  C   UNL A   1      45.350  29.114  35.258  1.00  0.00     0.010 A 
ATOM     73  C   UNL A   1      44.808  26.936  36.930  1.00  0.00     0.020 A 
ATOM     74  C   UNL A   1      46.391  28.506  35.967  1.00  0.00     0.020 A 
ATOM     75  C   UNL A   1      46.107  27.440  36.823  1.00  0.00     0.054 A 
BRANCH  75  76
ATOM     76  S   UNL A   1      47.420  26.700  37.832  1.00  0.00     0.124 S 
ATOM     77  O   UNL A   1      48.187  25.964  36.831  1.00  0.00    -0.237 OA
ATOM     78  O   UNL A   1      48.087  27.869  38.401  1.00  0.00    -0.237 OA
ATOM     79  O   UNL A   1      46.690  25.875  38.791  1.00  0.00    -0.744 OA
ENDBRANCH  75  76
ENDBRANCH  47  70
BRANCH  59  80
ATOM     80  C   UNL A   1      39.880  33.963  37.306  1.00  0.00    -0.014 A 
ATOM     81  C   UNL A   1      39.162  33.515  38.431  1.00  0.00     0.010 A 
ATOM     82  C   UNL A   1      40.362  35.284  37.281  1.00  0.00     0.010 A 
ATOM     83  C   UNL A   1      38.883  34.386  39.487  1.00  0.00     0.020 A 
ATOM     84  C   UNL A   1      40.108  36.150  38.348  1.00  0.00     0.020 A 
ATOM     85  C   UNL A   1      39.344  35.703  39.430  1.00  0.00     0.054 A 
BRANCH  85  86
ATOM     86  S   UNL A   1      38.915  36.839  40.779  1.00  0.00     0.124 S 
ATOM     87  O   UNL A   1      38.248  37.924  40.066  1.00  0.00    -0.237 OA
ATOM     88  O   UNL A   1      38.053  36.018  41.628  1.00  0.00    -0.237 OA
ATOM     89  O   UNL A   1      40.210  37.179  41.366  1.00  0.00    -0.744 OA
ENDBRANCH  85  86
ENDBRANCH  59  80
ENDBRANCH  33  34
ENDBRANCH  26  28
ENDBRANCH  25  26
ENDBRANCH   1  25
TORSDOF 16
ENDMDL
