MODEL 1
REMARK VINA RESULT:     -10.4      0.000      0.000
REMARK SMILES COc1cccc(C(=O)N[C@H]2C=C[C@@H](C(=O)OCCOC(=O)c3ccc(-c4c5nc(c(-c6ccc(S(=O)(=O)[O-])cc6)c6ccc([nH]6)c(-c6ccc(S(=O)(=O)[O-])cc6)c6nc(c(-c7ccc(S(=O)(=O)[O-])cc7)c7ccc4[nH]7)C=C6)C=C5)cc3)C2)c1
REMARK SMILES IDX 18 1 17 2 15 3 16 4 14 5 11 6 12 7 83 8 13 9 10 10 8 11 9 12
REMARK SMILES IDX 7 14 3 15 4 16 84 17 5 18 6 19 2 20 1 21 19 22 20 23 21 24
REMARK SMILES IDX 22 25 23 26 24 27 82 28 25 29 81 30 26 31 27 32 28 33 75 34
REMARK SMILES IDX 29 35 80 36 74 37 76 38 30 39 79 40 73 41 72 42 31 44 61 45
REMARK SMILES IDX 42 46 60 47 43 48 46 49 59 50 77 51 44 52 45 53 58 55 78 56
REMARK SMILES IDX 47 57 32 58 33 59 41 60 34 61 40 62 35 63 36 64 37 65 38 66
REMARK SMILES IDX 39 67 62 68 63 69 71 70 64 71 70 72 65 73 66 74 67 75 68 76
REMARK SMILES IDX 69 77 48 78 49 79 57 80 50 81 56 82 51 83 52 84 53 85 54 86
REMARK SMILES IDX 55 87
REMARK H PARENT 10 13 76 43 46 54
REMARK Flexibility Score: inf
ROOT
ATOM      1  C   UNL A   1      32.167  29.856  25.701  1.00  0.00     0.274 C 
ENDROOT
BRANCH   1   2
ATOM      2  O   UNL A   1      31.690  28.810  24.842  1.00  0.00    -0.462 OA
BRANCH   2   3
ATOM      3  C   UNL A   1      32.631  28.307  24.008  1.00  0.00     0.312 C 
ATOM      4  O   UNL A   1      33.281  28.976  23.208  1.00  0.00    -0.252 OA
BRANCH   3   5
ATOM      5  C   UNL A   1      32.758  26.805  24.063  1.00  0.00     0.124 C 
ATOM      6  C   UNL A   1      32.374  24.787  25.286  1.00  0.00     0.106 C 
ATOM      7  C   UNL A   1      31.114  25.278  24.646  1.00  0.00    -0.006 C 
ATOM      8  C   UNL A   1      33.167  26.098  25.365  1.00  0.00     0.048 C 
ATOM      9  C   UNL A   1      31.359  26.320  23.857  1.00  0.00    -0.014 C 
BRANCH   6  10
ATOM     10  N   UNL A   1      32.149  24.080  26.525  1.00  0.00    -0.346 N 
ATOM     11  C   UNL A   1      32.874  23.011  27.022  1.00  0.00     0.251 C 
ATOM     12  O   UNL A   1      32.716  22.620  28.174  1.00  0.00    -0.269 OA
ATOM     13  H   UNL A   1      31.397  24.394  27.077  1.00  0.00     0.164 HD
BRANCH  11  14
ATOM     14  C   UNL A   1      33.739  22.237  26.094  1.00  0.00     0.043 A 
ATOM     15  C   UNL A   1      34.173  20.168  24.937  1.00  0.00     0.119 A 
ATOM     16  C   UNL A   1      35.546  20.422  25.024  1.00  0.00     0.046 A 
ATOM     17  C   UNL A   1      33.259  21.113  25.406  1.00  0.00     0.060 A 
ATOM     18  C   UNL A   1      36.018  21.597  25.612  1.00  0.00     0.005 A 
ATOM     19  C   UNL A   1      35.113  22.506  26.158  1.00  0.00     0.014 A 
BRANCH  15  20
ATOM     20  O   UNL A   1      33.835  18.944  24.428  1.00  0.00    -0.497 OA
ATOM     21  C   UNL A   1      32.579  18.872  23.755  1.00  0.00     0.278 C 
ENDBRANCH  15  20
ENDBRANCH  11  14
ENDBRANCH   6  10
ENDBRANCH   3   5
ENDBRANCH   2   3
ENDBRANCH   1   2
BRANCH   1  22
ATOM     22  C   UNL A   1      32.568  29.318  27.078  1.00  0.00     0.275 C 
BRANCH  22  23
ATOM     23  O   UNL A   1      33.995  29.263  27.276  1.00  0.00    -0.458 OA
BRANCH  23  24
ATOM     24  C   UNL A   1      34.535  30.326  27.923  1.00  0.00     0.338 C 
ATOM     25  O   UNL A   1      33.962  31.339  28.284  1.00  0.00    -0.246 OA
BRANCH  24  26
ATOM     26  C   UNL A   1      35.934  30.041  28.280  1.00  0.00     0.060 A 
ATOM     27  C   UNL A   1      36.900  30.080  27.272  1.00  0.00     0.016 A 
ATOM     28  C   UNL A   1      36.279  29.646  29.571  1.00  0.00     0.016 A 
ATOM     29  C   UNL A   1      38.217  29.728  27.538  1.00  0.00     0.010 A 
ATOM     30  C   UNL A   1      37.609  29.309  29.845  1.00  0.00     0.010 A 
ATOM     31  C   UNL A   1      38.584  29.350  28.831  1.00  0.00    -0.014 A 
BRANCH  31  32
ATOM     32  C   UNL A   1      39.991  28.995  29.126  1.00  0.00     0.031 A 
ATOM     33  C   UNL A   1      40.920  30.035  29.676  1.00  0.00     0.074 A 
ATOM     34  C   UNL A   1      40.425  27.743  28.887  1.00  0.00     0.049 A 
ATOM     35  N   UNL A   1      42.219  29.989  29.808  1.00  0.00    -0.248 NA
ATOM     36  C   UNL A   1      40.307  31.291  30.139  1.00  0.00     0.031 C 
ATOM     37  C   UNL A   1      39.591  26.629  28.430  1.00  0.00     0.029 A 
ATOM     38  N   UNL A   1      41.682  27.202  28.980  1.00  0.00    -0.354 N 
ATOM     39  C   UNL A   1      42.587  31.223  30.331  1.00  0.00     0.074 A 
ATOM     40  C   UNL A   1      41.374  31.994  30.496  1.00  0.00     0.031 C 
ATOM     41  C   UNL A   1      40.359  25.539  28.278  1.00  0.00     0.029 A 
ATOM     42  C   UNL A   1      41.747  25.898  28.547  1.00  0.00     0.049 A 
ATOM     43  H   UNL A   1      42.461  27.698  29.323  1.00  0.00     0.167 HD
ATOM     44  C   UNL A   1      43.829  31.668  30.633  1.00  0.00     0.031 A 
ATOM     45  C   UNL A   1      42.812  25.103  28.329  1.00  0.00     0.031 A 
ATOM     46  C   UNL A   1      45.023  30.884  30.461  1.00  0.00     0.049 A 
ATOM     47  C   UNL A   1      44.188  25.656  28.566  1.00  0.00     0.074 A 
ATOM     48  C   UNL A   1      46.333  31.236  30.737  1.00  0.00     0.029 A 
ATOM     49  N   UNL A   1      45.052  29.588  29.968  1.00  0.00    -0.354 N 
ATOM     50  N   UNL A   1      44.530  26.836  29.027  1.00  0.00    -0.248 NA
ATOM     51  C   UNL A   1      45.321  24.783  28.233  1.00  0.00     0.031 C 
ATOM     52  C   UNL A   1      47.158  30.171  30.358  1.00  0.00     0.029 A 
ATOM     53  C   UNL A   1      46.358  29.137  29.897  1.00  0.00     0.049 A 
ATOM     54  H   UNL A   1      44.260  29.066  29.706  1.00  0.00     0.167 HD
ATOM     55  C   UNL A   1      45.920  26.846  29.043  1.00  0.00     0.074 A 
ATOM     56  C   UNL A   1      46.353  25.547  28.567  1.00  0.00     0.031 C 
ATOM     57  C   UNL A   1      46.763  27.842  29.411  1.00  0.00     0.031 A 
BRANCH  44  58
ATOM     58  C   UNL A   1      43.964  33.084  31.124  1.00  0.00    -0.014 A 
ATOM     59  C   UNL A   1      43.966  34.172  30.235  1.00  0.00     0.010 A 
ATOM     60  C   UNL A   1      44.056  33.328  32.507  1.00  0.00     0.010 A 
ATOM     61  C   UNL A   1      44.090  35.479  30.718  1.00  0.00     0.020 A 
ATOM     62  C   UNL A   1      44.158  34.634  32.995  1.00  0.00     0.020 A 
ATOM     63  C   UNL A   1      44.189  35.701  32.095  1.00  0.00     0.054 A 
BRANCH  63  64
ATOM     64  S   UNL A   1      44.330  37.407  32.696  1.00  0.00     0.124 S 
ATOM     65  O   UNL A   1      44.191  38.173  31.461  1.00  0.00    -0.237 OA
ATOM     66  O   UNL A   1      43.211  37.512  33.630  1.00  0.00    -0.237 OA
ATOM     67  O   UNL A   1      45.655  37.451  33.310  1.00  0.00    -0.744 OA
ENDBRANCH  63  64
ENDBRANCH  44  58
BRANCH  45  68
ATOM     68  C   UNL A   1      42.615  23.732  27.784  1.00  0.00    -0.014 A 
ATOM     69  C   UNL A   1      42.474  22.631  28.644  1.00  0.00     0.010 A 
ATOM     70  C   UNL A   1      42.550  23.525  26.392  1.00  0.00     0.010 A 
ATOM     71  C   UNL A   1      42.278  21.347  28.125  1.00  0.00     0.020 A 
ATOM     72  C   UNL A   1      42.328  22.249  25.870  1.00  0.00     0.020 A 
ATOM     73  C   UNL A   1      42.204  21.165  26.741  1.00  0.00     0.054 A 
BRANCH  73  74
ATOM     74  S   UNL A   1      41.891  19.500  26.089  1.00  0.00     0.124 S 
ATOM     75  O   UNL A   1      42.767  19.463  24.923  1.00  0.00    -0.237 OA
ATOM     76  O   UNL A   1      42.287  18.645  27.205  1.00  0.00    -0.237 OA
ATOM     77  O   UNL A   1      40.459  19.510  25.801  1.00  0.00    -0.744 OA
ENDBRANCH  73  74
ENDBRANCH  45  68
BRANCH  57  78
ATOM     78  C   UNL A   1      48.237  27.562  29.322  1.00  0.00    -0.014 A 
ATOM     79  C   UNL A   1      48.962  27.888  28.164  1.00  0.00     0.010 A 
ATOM     80  C   UNL A   1      48.913  27.030  30.434  1.00  0.00     0.010 A 
ATOM     81  C   UNL A   1      50.342  27.673  28.114  1.00  0.00     0.020 A 
ATOM     82  C   UNL A   1      50.296  26.837  30.396  1.00  0.00     0.020 A 
ATOM     83  C   UNL A   1      51.000  27.151  29.232  1.00  0.00     0.054 A 
BRANCH  83  84
ATOM     84  S   UNL A   1      52.800  26.945  29.165  1.00  0.00     0.124 S 
ATOM     85  O   UNL A   1      52.967  26.126  27.968  1.00  0.00    -0.237 OA
ATOM     86  O   UNL A   1      53.278  28.321  29.057  1.00  0.00    -0.237 OA
ATOM     87  O   UNL A   1      53.119  26.279  30.426  1.00  0.00    -0.744 OA
ENDBRANCH  83  84
ENDBRANCH  57  78
ENDBRANCH  31  32
ENDBRANCH  24  26
ENDBRANCH  23  24
ENDBRANCH  22  23
ENDBRANCH   1  22
TORSDOF 17
ENDMDL
MODEL 2
REMARK VINA RESULT:     -10.2      3.659      8.876
REMARK SMILES COc1cccc(C(=O)N[C@H]2C=C[C@@H](C(=O)OCCOC(=O)c3ccc(-c4c5nc(c(-c6ccc(S(=O)(=O)[O-])cc6)c6ccc([nH]6)c(-c6ccc(S(=O)(=O)[O-])cc6)c6nc(c(-c7ccc(S(=O)(=O)[O-])cc7)c7ccc4[nH]7)C=C6)C=C5)cc3)C2)c1
REMARK SMILES IDX 18 1 17 2 15 3 16 4 14 5 11 6 12 7 83 8 13 9 10 10 8 11 9 12
REMARK SMILES IDX 7 14 3 15 4 16 84 17 5 18 6 19 2 20 1 21 19 22 20 23 21 24
REMARK SMILES IDX 22 25 23 26 24 27 82 28 25 29 81 30 26 31 27 32 28 33 75 34
REMARK SMILES IDX 29 35 80 36 74 37 76 38 30 39 79 40 73 41 72 42 31 44 61 45
REMARK SMILES IDX 42 46 60 47 43 48 46 49 59 50 77 51 44 52 45 53 58 55 78 56
REMARK SMILES IDX 47 57 32 58 33 59 41 60 34 61 40 62 35 63 36 64 37 65 38 66
REMARK SMILES IDX 39 67 62 68 63 69 71 70 64 71 70 72 65 73 66 74 67 75 68 76
REMARK SMILES IDX 69 77 48 78 49 79 57 80 50 81 56 82 51 83 52 84 53 85 54 86
REMARK SMILES IDX 55 87
REMARK H PARENT 10 13 76 43 46 54
REMARK Flexibility Score: inf
ROOT
ATOM      1  C   UNL A   1      31.798  30.415  25.756  1.00  0.00     0.274 C 
ENDROOT
BRANCH   1   2
ATOM      2  O   UNL A   1      31.265  29.412  24.877  1.00  0.00    -0.462 OA
BRANCH   2   3
ATOM      3  C   UNL A   1      32.207  28.716  24.199  1.00  0.00     0.312 C 
ATOM      4  O   UNL A   1      33.183  29.220  23.647  1.00  0.00    -0.252 OA
BRANCH   3   5
ATOM      5  C   UNL A   1      31.912  27.241  24.079  1.00  0.00     0.124 C 
ATOM      6  C   UNL A   1      30.643  25.366  24.845  1.00  0.00     0.106 C 
ATOM      7  C   UNL A   1      29.828  26.235  23.940  1.00  0.00    -0.006 C 
ATOM      8  C   UNL A   1      31.683  26.382  25.333  1.00  0.00     0.048 C 
ATOM      9  C   UNL A   1      30.576  27.198  23.409  1.00  0.00    -0.014 C 
BRANCH   6  10
ATOM     10  N   UNL A   1      29.858  24.695  25.854  1.00  0.00    -0.346 N 
ATOM     11  C   UNL A   1      30.251  23.637  26.656  1.00  0.00     0.251 C 
ATOM     12  O   UNL A   1      29.571  23.280  27.611  1.00  0.00    -0.269 OA
ATOM     13  H   UNL A   1      28.941  25.027  25.987  1.00  0.00     0.164 HD
BRANCH  11  14
ATOM     14  C   UNL A   1      31.436  22.835  26.253  1.00  0.00     0.043 A 
ATOM     15  C   UNL A   1      32.312  20.771  25.369  1.00  0.00     0.119 A 
ATOM     16  C   UNL A   1      33.462  20.939  26.150  1.00  0.00     0.046 A 
ATOM     17  C   UNL A   1      31.327  21.759  25.360  1.00  0.00     0.060 A 
ATOM     18  C   UNL A   1      33.616  22.069  26.956  1.00  0.00     0.005 A 
ATOM     19  C   UNL A   1      32.598  23.018  27.016  1.00  0.00     0.014 A 
BRANCH  15  20
ATOM     20  O   UNL A   1      32.231  19.582  24.697  1.00  0.00    -0.497 OA
ATOM     21  C   UNL A   1      32.879  18.470  25.313  1.00  0.00     0.278 C 
ENDBRANCH  15  20
ENDBRANCH  11  14
ENDBRANCH   6  10
ENDBRANCH   3   5
ENDBRANCH   2   3
ENDBRANCH   1   2
BRANCH   1  22
ATOM     22  C   UNL A   1      32.481  29.792  26.977  1.00  0.00     0.275 C 
BRANCH  22  23
ATOM     23  O   UNL A   1      33.905  30.010  27.008  1.00  0.00    -0.458 OA
BRANCH  23  24
ATOM     24  C   UNL A   1      34.310  31.127  27.664  1.00  0.00     0.338 C 
ATOM     25  O   UNL A   1      33.711  32.185  27.757  1.00  0.00    -0.246 OA
BRANCH  24  26
ATOM     26  C   UNL A   1      35.553  30.855  28.402  1.00  0.00     0.060 A 
ATOM     27  C   UNL A   1      36.623  31.741  28.254  1.00  0.00     0.016 A 
ATOM     28  C   UNL A   1      35.700  29.695  29.158  1.00  0.00     0.016 A 
ATOM     29  C   UNL A   1      37.848  31.480  28.855  1.00  0.00     0.010 A 
ATOM     30  C   UNL A   1      36.927  29.439  29.780  1.00  0.00     0.010 A 
ATOM     31  C   UNL A   1      38.005  30.331  29.633  1.00  0.00    -0.014 A 
BRANCH  31  32
ATOM     32  C   UNL A   1      39.301  30.059  30.295  1.00  0.00     0.031 A 
ATOM     33  C   UNL A   1      40.174  28.949  29.793  1.00  0.00     0.074 A 
ATOM     34  C   UNL A   1      39.677  30.804  31.352  1.00  0.00     0.049 A 
ATOM     35  N   UNL A   1      41.232  28.420  30.348  1.00  0.00    -0.248 NA
ATOM     36  C   UNL A   1      39.809  28.356  28.496  1.00  0.00     0.031 C 
ATOM     37  C   UNL A   1      38.947  31.961  31.876  1.00  0.00     0.029 A 
ATOM     38  N   UNL A   1      40.760  30.689  32.185  1.00  0.00    -0.354 N 
ATOM     39  C   UNL A   1      41.639  27.405  29.490  1.00  0.00     0.074 A 
ATOM     40  C   UNL A   1      40.716  27.395  28.376  1.00  0.00     0.031 C 
ATOM     41  C   UNL A   1      39.601  32.446  32.943  1.00  0.00     0.029 A 
ATOM     42  C   UNL A   1      40.746  31.588  33.226  1.00  0.00     0.049 A 
ATOM     43  H   UNL A   1      41.479  30.029  32.050  1.00  0.00     0.167 HD
ATOM     44  C   UNL A   1      42.683  26.555  29.633  1.00  0.00     0.031 A 
ATOM     45  C   UNL A   1      41.528  31.670  34.319  1.00  0.00     0.031 A 
ATOM     46  C   UNL A   1      43.589  26.583  30.751  1.00  0.00     0.049 A 
ATOM     47  C   UNL A   1      42.611  30.647  34.511  1.00  0.00     0.074 A 
ATOM     48  C   UNL A   1      44.681  25.770  30.995  1.00  0.00     0.029 A 
ATOM     49  N   UNL A   1      43.506  27.472  31.812  1.00  0.00    -0.354 N 
ATOM     50  N   UNL A   1      42.968  29.669  33.713  1.00  0.00    -0.248 NA
ATOM     51  C   UNL A   1      43.382  30.724  35.759  1.00  0.00     0.031 C 
ATOM     52  C   UNL A   1      45.226  26.133  32.231  1.00  0.00     0.029 A 
ATOM     53  C   UNL A   1      44.505  27.206  32.732  1.00  0.00     0.049 A 
ATOM     54  H   UNL A   1      42.835  28.187  31.899  1.00  0.00     0.167 HD
ATOM     55  C   UNL A   1      44.008  29.014  34.361  1.00  0.00     0.074 A 
ATOM     56  C   UNL A   1      44.238  29.721  35.605  1.00  0.00     0.031 C 
ATOM     57  C   UNL A   1      44.707  27.921  33.967  1.00  0.00     0.031 A 
BRANCH  44  58
ATOM     58  C   UNL A   1      42.866  25.490  28.587  1.00  0.00    -0.014 A 
ATOM     59  C   UNL A   1      42.230  24.241  28.691  1.00  0.00     0.010 A 
ATOM     60  C   UNL A   1      43.663  25.761  27.459  1.00  0.00     0.010 A 
ATOM     61  C   UNL A   1      42.414  23.269  27.702  1.00  0.00     0.020 A 
ATOM     62  C   UNL A   1      43.832  24.800  26.458  1.00  0.00     0.020 A 
ATOM     63  C   UNL A   1      43.218  23.554  26.594  1.00  0.00     0.054 A 
BRANCH  63  64
ATOM     64  S   UNL A   1      43.425  22.283  25.317  1.00  0.00     0.124 S 
ATOM     65  O   UNL A   1      44.735  21.730  25.652  1.00  0.00    -0.237 OA
ATOM     66  O   UNL A   1      42.289  21.396  25.558  1.00  0.00    -0.237 OA
ATOM     67  O   UNL A   1      43.369  23.034  24.065  1.00  0.00    -0.744 OA
ENDBRANCH  63  64
ENDBRANCH  44  58
BRANCH  45  68
ATOM     68  C   UNL A   1      41.257  32.709  35.349  1.00  0.00    -0.014 A 
ATOM     69  C   UNL A   1      40.370  32.456  36.408  1.00  0.00     0.010 A 
ATOM     70  C   UNL A   1      41.904  33.958  35.284  1.00  0.00     0.010 A 
ATOM     71  C   UNL A   1      40.129  33.433  37.379  1.00  0.00     0.020 A 
ATOM     72  C   UNL A   1      41.687  34.927  36.265  1.00  0.00     0.020 A 
ATOM     73  C   UNL A   1      40.792  34.662  37.303  1.00  0.00     0.054 A 
BRANCH  73  74
ATOM     74  S   UNL A   1      40.509  35.895  38.604  1.00  0.00     0.124 S 
ATOM     75  O   UNL A   1      39.753  35.127  39.588  1.00  0.00    -0.237 OA
ATOM     76  O   UNL A   1      41.869  36.260  38.995  1.00  0.00    -0.237 OA
ATOM     77  O   UNL A   1      39.764  36.949  37.920  1.00  0.00    -0.744 OA
ENDBRANCH  73  74
ENDBRANCH  45  68
BRANCH  57  78
ATOM     78  C   UNL A   1      45.790  27.430  34.885  1.00  0.00    -0.014 A 
ATOM     79  C   UNL A   1      45.523  26.445  35.851  1.00  0.00     0.010 A 
ATOM     80  C   UNL A   1      47.103  27.911  34.734  1.00  0.00     0.010 A 
ATOM     81  C   UNL A   1      46.551  25.958  36.662  1.00  0.00     0.020 A 
ATOM     82  C   UNL A   1      48.137  27.410  35.527  1.00  0.00     0.020 A 
ATOM     83  C   UNL A   1      47.853  26.442  36.493  1.00  0.00     0.054 A 
BRANCH  83  84
ATOM     84  S   UNL A   1      49.180  25.745  37.512  1.00  0.00     0.124 S 
ATOM     85  O   UNL A   1      49.228  26.682  38.630  1.00  0.00    -0.237 OA
ATOM     86  O   UNL A   1      48.675  24.412  37.830  1.00  0.00    -0.237 OA
ATOM     87  O   UNL A   1      50.344  25.769  36.628  1.00  0.00    -0.744 OA
ENDBRANCH  83  84
ENDBRANCH  57  78
ENDBRANCH  31  32
ENDBRANCH  24  26
ENDBRANCH  23  24
ENDBRANCH  22  23
ENDBRANCH   1  22
TORSDOF 17
ENDMDL
MODEL 3
REMARK VINA RESULT:     -10.2      2.491      3.600
REMARK SMILES COc1cccc(C(=O)N[C@H]2C=C[C@@H](C(=O)OCCOC(=O)c3ccc(-c4c5nc(c(-c6ccc(S(=O)(=O)[O-])cc6)c6ccc([nH]6)c(-c6ccc(S(=O)(=O)[O-])cc6)c6nc(c(-c7ccc(S(=O)(=O)[O-])cc7)c7ccc4[nH]7)C=C6)C=C5)cc3)C2)c1
REMARK SMILES IDX 18 1 17 2 15 3 16 4 14 5 11 6 12 7 83 8 13 9 10 10 8 11 9 12
REMARK SMILES IDX 7 14 3 15 4 16 84 17 5 18 6 19 2 20 1 21 19 22 20 23 21 24
REMARK SMILES IDX 22 25 23 26 24 27 82 28 25 29 81 30 26 31 27 32 28 33 75 34
REMARK SMILES IDX 29 35 80 36 74 37 76 38 30 39 79 40 73 41 72 42 31 44 61 45
REMARK SMILES IDX 42 46 60 47 43 48 46 49 59 50 77 51 44 52 45 53 58 55 78 56
REMARK SMILES IDX 47 57 32 58 33 59 41 60 34 61 40 62 35 63 36 64 37 65 38 66
REMARK SMILES IDX 39 67 62 68 63 69 71 70 64 71 70 72 65 73 66 74 67 75 68 76
REMARK SMILES IDX 69 77 48 78 49 79 57 80 50 81 56 82 51 83 52 84 53 85 54 86
REMARK SMILES IDX 55 87
REMARK H PARENT 10 13 76 43 46 54
REMARK Flexibility Score: inf
ROOT
ATOM      1  C   UNL A   1      33.770  32.042  27.824  1.00  0.00     0.274 C 
ENDROOT
BRANCH   1   2
ATOM      2  O   UNL A   1      33.504  30.695  27.405  1.00  0.00    -0.462 OA
BRANCH   2   3
ATOM      3  C   UNL A   1      32.338  30.545  26.733  1.00  0.00     0.312 C 
ATOM      4  O   UNL A   1      31.449  31.393  26.684  1.00  0.00    -0.252 OA
BRANCH   3   5
ATOM      5  C   UNL A   1      32.158  29.182  26.113  1.00  0.00     0.124 C 
ATOM      6  C   UNL A   1      32.766  27.656  24.377  1.00  0.00     0.106 C 
ATOM      7  C   UNL A   1      33.823  27.720  25.433  1.00  0.00    -0.006 C 
ATOM      8  C   UNL A   1      32.089  29.016  24.587  1.00  0.00     0.048 C 
ATOM      9  C   UNL A   1      33.422  28.463  26.461  1.00  0.00    -0.014 C 
BRANCH   6  10
ATOM     10  N   UNL A   1      33.288  27.378  23.060  1.00  0.00    -0.346 N 
ATOM     11  C   UNL A   1      33.194  26.191  22.354  1.00  0.00     0.251 C 
ATOM     12  O   UNL A   1      33.499  26.134  21.167  1.00  0.00    -0.269 OA
ATOM     13  H   UNL A   1      33.763  28.116  22.614  1.00  0.00     0.164 HD
BRANCH  11  14
ATOM     14  C   UNL A   1      32.862  24.944  23.090  1.00  0.00     0.043 A 
ATOM     15  C   UNL A   1      33.557  22.766  23.856  1.00  0.00     0.119 A 
ATOM     16  C   UNL A   1      32.236  22.318  23.741  1.00  0.00     0.046 A 
ATOM     17  C   UNL A   1      33.862  24.105  23.603  1.00  0.00     0.060 A 
ATOM     18  C   UNL A   1      31.222  23.188  23.335  1.00  0.00     0.005 A 
ATOM     19  C   UNL A   1      31.534  24.503  23.000  1.00  0.00     0.014 A 
BRANCH  15  20
ATOM     20  O   UNL A   1      34.477  21.803  24.169  1.00  0.00    -0.497 OA
ATOM     21  C   UNL A   1      35.401  22.134  25.204  1.00  0.00     0.278 C 
ENDBRANCH  15  20
ENDBRANCH  11  14
ENDBRANCH   6  10
ENDBRANCH   3   5
ENDBRANCH   2   3
ENDBRANCH   1   2
BRANCH   1  22
ATOM     22  C   UNL A   1      34.668  32.081  29.065  1.00  0.00     0.275 C 
BRANCH  22  23
ATOM     23  O   UNL A   1      35.940  31.431  28.869  1.00  0.00    -0.458 OA
BRANCH  23  24
ATOM     24  C   UNL A   1      36.482  30.866  29.978  1.00  0.00     0.338 C 
ATOM     25  O   UNL A   1      35.938  30.683  31.053  1.00  0.00    -0.246 OA
BRANCH  24  26
ATOM     26  C   UNL A   1      37.825  30.348  29.673  1.00  0.00     0.060 A 
ATOM     27  C   UNL A   1      38.728  30.176  30.726  1.00  0.00     0.016 A 
ATOM     28  C   UNL A   1      38.226  30.121  28.359  1.00  0.00     0.016 A 
ATOM     29  C   UNL A   1      40.036  29.779  30.481  1.00  0.00     0.010 A 
ATOM     30  C   UNL A   1      39.538  29.702  28.111  1.00  0.00     0.010 A 
ATOM     31  C   UNL A   1      40.448  29.528  29.171  1.00  0.00    -0.014 A 
BRANCH  31  32
ATOM     32  C   UNL A   1      41.834  29.082  28.904  1.00  0.00     0.031 A 
ATOM     33  C   UNL A   1      42.957  30.074  28.948  1.00  0.00     0.074 A 
ATOM     34  C   UNL A   1      42.072  27.789  28.612  1.00  0.00     0.049 A 
ATOM     35  N   UNL A   1      44.193  29.935  28.550  1.00  0.00    -0.248 NA
ATOM     36  C   UNL A   1      42.647  31.398  29.514  1.00  0.00     0.031 C 
ATOM     37  C   UNL A   1      41.070  26.720  28.622  1.00  0.00     0.029 A 
ATOM     38  N   UNL A   1      43.229  27.157  28.237  1.00  0.00    -0.354 N 
ATOM     39  C   UNL A   1      44.802  31.163  28.780  1.00  0.00     0.074 A 
ATOM     40  C   UNL A   1      43.800  32.034  29.355  1.00  0.00     0.031 C 
ATOM     41  C   UNL A   1      41.656  25.567  28.263  1.00  0.00     0.029 A 
ATOM     42  C   UNL A   1      43.049  25.830  27.922  1.00  0.00     0.049 A 
ATOM     43  H   UNL A   1      44.104  27.608  28.197  1.00  0.00     0.167 HD
ATOM     44  C   UNL A   1      46.080  31.526  28.519  1.00  0.00     0.031 A 
ATOM     45  C   UNL A   1      43.893  24.944  27.360  1.00  0.00     0.031 A 
ATOM     46  C   UNL A   1      47.062  30.642  27.947  1.00  0.00     0.049 A 
ATOM     47  C   UNL A   1      45.272  25.401  26.978  1.00  0.00     0.074 A 
ATOM     48  C   UNL A   1      48.385  30.906  27.644  1.00  0.00     0.029 A 
ATOM     49  N   UNL A   1      46.823  29.323  27.590  1.00  0.00    -0.354 N 
ATOM     50  N   UNL A   1      45.830  26.573  27.165  1.00  0.00    -0.248 NA
ATOM     51  C   UNL A   1      46.128  24.425  26.290  1.00  0.00     0.031 C 
ATOM     52  C   UNL A   1      48.932  29.761  27.053  1.00  0.00     0.029 A 
ATOM     53  C   UNL A   1      47.964  28.769  27.038  1.00  0.00     0.049 A 
ATOM     54  H   UNL A   1      45.968  28.851  27.712  1.00  0.00     0.167 HD
ATOM     55  C   UNL A   1      47.105  26.476  26.621  1.00  0.00     0.074 A 
ATOM     56  C   UNL A   1      47.243  25.124  26.118  1.00  0.00     0.031 C 
ATOM     57  C   UNL A   1      48.072  27.422  26.537  1.00  0.00     0.031 A 
BRANCH  44  58
ATOM     58  C   UNL A   1      46.473  32.951  28.798  1.00  0.00    -0.014 A 
ATOM     59  C   UNL A   1      47.085  33.320  30.009  1.00  0.00     0.010 A 
ATOM     60  C   UNL A   1      46.255  33.933  27.814  1.00  0.00     0.010 A 
ATOM     61  C   UNL A   1      47.443  34.652  30.242  1.00  0.00     0.020 A 
ATOM     62  C   UNL A   1      46.632  35.260  28.035  1.00  0.00     0.020 A 
ATOM     63  C   UNL A   1      47.210  35.614  29.255  1.00  0.00     0.054 A 
BRANCH  63  64
ATOM     64  S   UNL A   1      47.701  37.331  29.576  1.00  0.00     0.124 S 
ATOM     65  O   UNL A   1      48.585  37.607  28.447  1.00  0.00    -0.237 OA
ATOM     66  O   UNL A   1      46.422  38.038  29.562  1.00  0.00    -0.237 OA
ATOM     67  O   UNL A   1      48.358  37.267  30.879  1.00  0.00    -0.744 OA
ENDBRANCH  63  64
ENDBRANCH  44  58
BRANCH  45  68
ATOM     68  C   UNL A   1      43.425  23.565  27.053  1.00  0.00    -0.014 A 
ATOM     69  C   UNL A   1      43.137  23.183  25.732  1.00  0.00     0.010 A 
ATOM     70  C   UNL A   1      43.282  22.618  28.085  1.00  0.00     0.010 A 
ATOM     71  C   UNL A   1      42.708  21.882  25.450  1.00  0.00     0.020 A 
ATOM     72  C   UNL A   1      42.881  21.310  27.804  1.00  0.00     0.020 A 
ATOM     73  C   UNL A   1      42.586  20.953  26.488  1.00  0.00     0.054 A 
BRANCH  73  74
ATOM     74  S   UNL A   1      42.085  19.254  26.092  1.00  0.00     0.124 S 
ATOM     75  O   UNL A   1      42.864  18.982  24.889  1.00  0.00    -0.237 OA
ATOM     76  O   UNL A   1      42.487  18.519  27.288  1.00  0.00    -0.237 OA
ATOM     77  O   UNL A   1      40.641  19.361  25.895  1.00  0.00    -0.744 OA
ENDBRANCH  73  74
ENDBRANCH  45  68
BRANCH  57  78
ATOM     78  C   UNL A   1      49.367  27.024  25.887  1.00  0.00    -0.014 A 
ATOM     79  C   UNL A   1      49.620  27.331  24.539  1.00  0.00     0.010 A 
ATOM     80  C   UNL A   1      50.367  26.396  26.651  1.00  0.00     0.010 A 
ATOM     81  C   UNL A   1      50.849  27.004  23.961  1.00  0.00     0.020 A 
ATOM     82  C   UNL A   1      51.605  26.089  26.084  1.00  0.00     0.020 A 
ATOM     83  C   UNL A   1      51.836  26.388  24.738  1.00  0.00     0.054 A 
BRANCH  83  84
ATOM     84  S   UNL A   1      53.445  26.035  23.983  1.00  0.00     0.124 S 
ATOM     85  O   UNL A   1      53.798  24.761  24.602  1.00  0.00    -0.237 OA
ATOM     86  O   UNL A   1      53.125  25.974  22.559  1.00  0.00    -0.237 OA
ATOM     87  O   UNL A   1      54.271  27.172  24.381  1.00  0.00    -0.744 OA
ENDBRANCH  83  84
ENDBRANCH  57  78
ENDBRANCH  31  32
ENDBRANCH  24  26
ENDBRANCH  23  24
ENDBRANCH  22  23
ENDBRANCH   1  22
TORSDOF 17
ENDMDL
