MODEL 1
REMARK VINA RESULT:     -12.5      0.000      0.000
REMARK SMILES Cc1ccc(-c2cc3cccnc3n2CCC(=O)OCCOC(=O)c2ccc(-c3c4nc(c(-c5ccc(S(=O)(=O)[O-])cc5)c5ccc([nH]5)c(-c5ccc(S(=O)(=O)[O-])cc5)c5nc(c(-c6ccc(S(=O)(=O)[O-])cc6)c6ccc3[nH]6)C=C5)C=C4)cc2)cn1
REMARK SMILES IDX 20 1 19 2 17 3 18 4 16 5 15 6 14 7 6 8 7 9 8 10 13 11 9 12
REMARK SMILES IDX 12 13 10 14 11 15 5 16 1 17 2 18 3 19 86 20 4 21 85 22 21 23
REMARK SMILES IDX 22 24 23 25 24 26 25 27 26 28 84 29 27 30 83 31 28 32 29 33
REMARK SMILES IDX 30 34 77 35 31 36 82 37 76 38 78 39 32 40 81 41 75 42 74 43
REMARK SMILES IDX 33 45 63 46 44 47 62 48 45 49 48 50 61 51 79 52 46 53 47 54
REMARK SMILES IDX 60 56 80 57 49 58 34 59 35 60 43 61 36 62 42 63 37 64 38 65
REMARK SMILES IDX 39 66 40 67 41 68 64 69 65 70 73 71 66 72 72 73 67 74 68 75
REMARK SMILES IDX 69 76 70 77 71 78 50 79 51 80 59 81 52 82 58 83 53 84 54 85
REMARK SMILES IDX 55 86 56 87 57 88
REMARK H PARENT 78 44 48 55
REMARK Flexibility Score: inf
ROOT
ATOM      1  C   UNL A   1      38.012  23.894  25.887  1.00  0.00     0.274 C 
ENDROOT
BRANCH   1   2
ATOM      2  O   UNL A   1      36.747  23.484  25.291  1.00  0.00    -0.462 OA
BRANCH   2   3
ATOM      3  C   UNL A   1      36.786  22.479  24.375  1.00  0.00     0.307 C 
ATOM      4  O   UNL A   1      37.088  22.650  23.197  1.00  0.00    -0.252 OA
BRANCH   3   5
ATOM      5  C   UNL A   1      36.481  21.087  24.929  1.00  0.00     0.144 C 
BRANCH   5   6
ATOM      6  C   UNL A   1      35.276  20.885  25.856  1.00  0.00     0.136 C 
BRANCH   6   7
ATOM      7  N   UNL A   1      34.072  20.523  25.144  1.00  0.00    -0.325 N 
ATOM      8  C   UNL A   1      33.007  21.347  24.863  1.00  0.00     0.052 A 
ATOM      9  C   UNL A   1      32.220  20.666  23.943  1.00  0.00     0.039 A 
ATOM     10  C   UNL A   1      32.798  19.405  23.694  1.00  0.00     0.020 A 
ATOM     11  C   UNL A   1      33.916  19.313  24.510  1.00  0.00     0.140 A 
ATOM     12  C   UNL A   1      32.510  18.335  22.838  1.00  0.00     0.013 A 
ATOM     13  N   UNL A   1      34.752  18.258  24.610  1.00  0.00    -0.238 NA
ATOM     14  C   UNL A   1      33.333  17.216  22.919  1.00  0.00     0.021 A 
ATOM     15  C   UNL A   1      34.392  17.223  23.818  1.00  0.00     0.113 A 
BRANCH   8  16
ATOM     16  C   UNL A   1      32.831  22.743  25.257  1.00  0.00     0.017 A 
ATOM     17  C   UNL A   1      31.477  27.391  26.778  1.00  0.00     0.066 C 
ATOM     18  C   UNL A   1      31.869  26.042  26.271  1.00  0.00     0.037 A 
ATOM     19  C   UNL A   1      32.994  25.872  24.897  1.00  0.00     0.024 A 
ATOM     20  N   UNL A   1      31.219  24.649  27.114  1.00  0.00    -0.261 NA
ATOM     21  C   UNL A   1      33.528  24.216  24.413  1.00  0.00     0.014 A 
ATOM     22  C   UNL A   1      31.707  23.025  26.642  1.00  0.00     0.121 A 
ENDBRANCH   8  16
ENDBRANCH   6   7
ENDBRANCH   5   6
ENDBRANCH   3   5
ENDBRANCH   2   3
ENDBRANCH   1   2
BRANCH   1  23
ATOM     23  C   UNL A   1      38.960  22.759  26.706  1.00  0.00     0.275 C 
BRANCH  23  24
ATOM     24  O   UNL A   1      40.590  21.764  26.034  1.00  0.00    -0.458 OA
BRANCH  24  25
ATOM     25  C   UNL A   1      41.933  21.388  25.912  1.00  0.00     0.338 C 
ATOM     26  O   UNL A   1      42.414  20.303  25.585  1.00  0.00    -0.246 OA
BRANCH  25  27
ATOM     27  C   UNL A   1      42.820  22.531  25.983  1.00  0.00     0.060 A 
ATOM     28  C   UNL A   1      43.727  22.554  27.053  1.00  0.00     0.016 A 
ATOM     29  C   UNL A   1      42.373  23.662  25.314  1.00  0.00     0.016 A 
ATOM     30  C   UNL A   1      44.009  23.772  27.620  1.00  0.00     0.010 A 
ATOM     31  C   UNL A   1      42.679  24.874  25.862  1.00  0.00     0.010 A 
ATOM     32  C   UNL A   1      43.377  24.889  27.074  1.00  0.00    -0.014 A 
BRANCH  32  33
ATOM     33  C   UNL A   1      43.292  26.084  27.881  1.00  0.00     0.031 A 
ATOM     34  C   UNL A   1      44.384  27.046  27.669  1.00  0.00     0.074 A 
ATOM     35  C   UNL A   1      42.171  26.327  28.589  1.00  0.00     0.049 A 
ATOM     36  N   UNL A   1      45.206  27.527  28.537  1.00  0.00    -0.248 NA
ATOM     37  C   UNL A   1      44.670  27.424  26.274  1.00  0.00     0.031 C 
ATOM     38  C   UNL A   1      40.924  25.549  28.577  1.00  0.00     0.029 A 
ATOM     39  N   UNL A   1      41.845  27.420  29.324  1.00  0.00    -0.354 N 
ATOM     40  C   UNL A   1      45.995  28.421  27.828  1.00  0.00     0.074 A 
ATOM     41  C   UNL A   1      45.752  28.181  26.427  1.00  0.00     0.031 C 
ATOM     42  C   UNL A   1      39.920  26.324  29.041  1.00  0.00     0.029 A 
ATOM     43  C   UNL A   1      40.474  27.593  29.483  1.00  0.00     0.049 A 
ATOM     44  H   UNL A   1      42.514  28.031  29.709  1.00  0.00     0.167 HD
ATOM     45  C   UNL A   1      46.599  29.486  28.414  1.00  0.00     0.031 A 
ATOM     46  C   UNL A   1      39.852  28.744  29.836  1.00  0.00     0.031 A 
ATOM     47  C   UNL A   1      46.635  29.394  29.843  1.00  0.00     0.049 A 
ATOM     48  C   UNL A   1      40.885  29.631  30.435  1.00  0.00     0.074 A 
ATOM     49  C   UNL A   1      47.200  28.509  30.739  1.00  0.00     0.029 A 
ATOM     50  N   UNL A   1      45.685  30.102  30.542  1.00  0.00    -0.354 N 
ATOM     51  N   UNL A   1      41.497  29.381  31.559  1.00  0.00    -0.248 NA
ATOM     52  C   UNL A   1      41.537  30.616  29.583  1.00  0.00     0.031 C 
ATOM     53  C   UNL A   1      46.282  28.435  31.824  1.00  0.00     0.029 A 
ATOM     54  C   UNL A   1      45.215  29.294  31.547  1.00  0.00     0.049 A 
ATOM     55  H   UNL A   1      45.394  31.023  30.353  1.00  0.00     0.167 HD
ATOM     56  C   UNL A   1      42.789  29.856  31.379  1.00  0.00     0.074 A 
ATOM     57  C   UNL A   1      42.717  30.715  30.203  1.00  0.00     0.031 C 
ATOM     58  C   UNL A   1      43.846  29.287  32.029  1.00  0.00     0.031 A 
BRANCH  45  59
ATOM     59  C   UNL A   1      46.797  30.769  27.668  1.00  0.00    -0.014 A 
ATOM     60  C   UNL A   1      48.090  31.223  27.375  1.00  0.00     0.010 A 
ATOM     61  C   UNL A   1      45.721  31.659  27.443  1.00  0.00     0.010 A 
ATOM     62  C   UNL A   1      48.294  32.517  26.877  1.00  0.00     0.020 A 
ATOM     63  C   UNL A   1      45.908  32.926  26.902  1.00  0.00     0.020 A 
ATOM     64  C   UNL A   1      47.200  33.358  26.645  1.00  0.00     0.054 A 
BRANCH  64  65
ATOM     65  S   UNL A   1      47.486  35.055  26.087  1.00  0.00     0.124 S 
ATOM     66  O   UNL A   1      46.229  35.366  25.414  1.00  0.00    -0.237 OA
ATOM     67  O   UNL A   1      47.724  35.756  27.345  1.00  0.00    -0.237 OA
ATOM     68  O   UNL A   1      48.651  34.938  25.213  1.00  0.00    -0.744 OA
ENDBRANCH  64  65
ENDBRANCH  45  59
BRANCH  46  69
ATOM     69  C   UNL A   1      38.521  29.239  29.394  1.00  0.00    -0.014 A 
ATOM     70  C   UNL A   1      37.575  29.670  30.342  1.00  0.00     0.010 A 
ATOM     71  C   UNL A   1      38.262  29.536  28.038  1.00  0.00     0.010 A 
ATOM     72  C   UNL A   1      36.461  30.437  29.960  1.00  0.00     0.020 A 
ATOM     73  C   UNL A   1      37.144  30.281  27.646  1.00  0.00     0.020 A 
ATOM     74  C   UNL A   1      36.270  30.762  28.615  1.00  0.00     0.054 A 
BRANCH  74  75
ATOM     75  S   UNL A   1      34.933  31.901  28.158  1.00  0.00     0.124 S 
ATOM     76  O   UNL A   1      35.651  32.979  27.484  1.00  0.00    -0.237 OA
ATOM     77  O   UNL A   1      34.097  31.065  27.299  1.00  0.00    -0.237 OA
ATOM     78  O   UNL A   1      34.332  32.263  29.440  1.00  0.00    -0.744 OA
ENDBRANCH  74  75
ENDBRANCH  46  69
BRANCH  58  79
ATOM     79  C   UNL A   1      43.551  28.343  33.171  1.00  0.00    -0.014 A 
ATOM     80  C   UNL A   1      43.269  28.786  34.478  1.00  0.00     0.010 A 
ATOM     81  C   UNL A   1      43.377  26.981  32.872  1.00  0.00     0.010 A 
ATOM     82  C   UNL A   1      42.824  27.889  35.460  1.00  0.00     0.020 A 
ATOM     83  C   UNL A   1      42.919  26.084  33.841  1.00  0.00     0.020 A 
ATOM     84  C   UNL A   1      42.638  26.543  35.130  1.00  0.00     0.054 A 
BRANCH  84  85
ATOM     85  S   UNL A   1      41.979  25.407  36.382  1.00  0.00     0.124 S 
ATOM     86  O   UNL A   1      40.845  26.148  36.927  1.00  0.00    -0.237 OA
ATOM     87  O   UNL A   1      41.637  24.225  35.593  1.00  0.00    -0.237 OA
ATOM     88  O   UNL A   1      43.095  25.222  37.308  1.00  0.00    -0.744 OA
ENDBRANCH  84  85
ENDBRANCH  58  79
ENDBRANCH  32  33
ENDBRANCH  25  27
ENDBRANCH  24  25
ENDBRANCH  23  24
ENDBRANCH   1  23
TORSDOF 17
ENDMDL
MODEL 2
REMARK VINA RESULT:     -12.5      2.622      7.409
REMARK SMILES Cc1ccc(-c2cc3cccnc3n2CCC(=O)OCCOC(=O)c2ccc(-c3c4nc(c(-c5ccc(S(=O)(=O)[O-])cc5)c5ccc([nH]5)c(-c5ccc(S(=O)(=O)[O-])cc5)c5nc(c(-c6ccc(S(=O)(=O)[O-])cc6)c6ccc3[nH]6)C=C5)C=C4)cc2)cn1
REMARK SMILES IDX 20 1 19 2 17 3 18 4 16 5 15 6 14 7 6 8 7 9 8 10 13 11 9 12
REMARK SMILES IDX 12 13 10 14 11 15 5 16 1 17 2 18 3 19 86 20 4 21 85 22 21 23
REMARK SMILES IDX 22 24 23 25 24 26 25 27 26 28 84 29 27 30 83 31 28 32 29 33
REMARK SMILES IDX 30 34 77 35 31 36 82 37 76 38 78 39 32 40 81 41 75 42 74 43
REMARK SMILES IDX 33 45 63 46 44 47 62 48 45 49 48 50 61 51 79 52 46 53 47 54
REMARK SMILES IDX 60 56 80 57 49 58 34 59 35 60 43 61 36 62 42 63 37 64 38 65
REMARK SMILES IDX 39 66 40 67 41 68 64 69 65 70 73 71 66 72 72 73 67 74 68 75
REMARK SMILES IDX 69 76 70 77 71 78 50 79 51 80 59 81 52 82 58 83 53 84 54 85
REMARK SMILES IDX 55 86 56 87 57 88
REMARK H PARENT 78 44 48 55
REMARK Flexibility Score: inf
ROOT
ATOM      1  C   UNL A   1      36.519  23.842  24.992  1.00  0.00     0.274 C 
ENDROOT
BRANCH   1   2
ATOM      2  O   UNL A   1      35.339  22.990  24.917  1.00  0.00    -0.462 OA
BRANCH   2   3
ATOM      3  C   UNL A   1      34.445  23.071  25.940  1.00  0.00     0.307 C 
ATOM      4  O   UNL A   1      34.067  24.135  26.424  1.00  0.00    -0.252 OA
BRANCH   3   5
ATOM      5  C   UNL A   1      33.885  21.730  26.417  1.00  0.00     0.144 C 
BRANCH   5   6
ATOM      6  C   UNL A   1      32.435  21.353  26.090  1.00  0.00     0.136 C 
BRANCH   6   7
ATOM      7  N   UNL A   1      32.302  20.672  24.823  1.00  0.00    -0.325 N 
ATOM      8  C   UNL A   1      32.171  21.260  23.586  1.00  0.00     0.052 A 
ATOM      9  C   UNL A   1      32.350  20.247  22.653  1.00  0.00     0.039 A 
ATOM     10  C   UNL A   1      32.558  19.031  23.333  1.00  0.00     0.020 A 
ATOM     11  C   UNL A   1      32.453  19.311  24.688  1.00  0.00     0.140 A 
ATOM     12  C   UNL A   1      32.854  17.718  22.949  1.00  0.00     0.013 A 
ATOM     13  N   UNL A   1      32.558  18.427  25.702  1.00  0.00    -0.238 NA
ATOM     14  C   UNL A   1      32.953  16.765  23.958  1.00  0.00     0.021 A 
ATOM     15  C   UNL A   1      32.773  17.162  25.278  1.00  0.00     0.113 A 
BRANCH   8  16
ATOM     16  C   UNL A   1      32.087  22.686  23.281  1.00  0.00     0.017 A 
ATOM     17  C   UNL A   1      31.019  27.531  22.211  1.00  0.00     0.066 C 
ATOM     18  C   UNL A   1      31.346  26.095  22.465  1.00  0.00     0.037 A 
ATOM     19  C   UNL A   1      32.769  25.332  21.706  1.00  0.00     0.024 A 
ATOM     20  N   UNL A   1      30.307  25.221  23.574  1.00  0.00    -0.261 NA
ATOM     21  C   UNL A   1      33.182  23.631  22.152  1.00  0.00     0.014 A 
ATOM     22  C   UNL A   1      30.678  23.554  24.003  1.00  0.00     0.121 A 
ENDBRANCH   8  16
ENDBRANCH   6   7
ENDBRANCH   5   6
ENDBRANCH   3   5
ENDBRANCH   2   3
ENDBRANCH   1   2
BRANCH   1  23
ATOM     23  C   UNL A   1      37.894  23.300  25.812  1.00  0.00     0.275 C 
BRANCH  23  24
ATOM     24  O   UNL A   1      38.825  21.508  25.660  1.00  0.00    -0.458 OA
BRANCH  24  25
ATOM     25  C   UNL A   1      39.741  20.485  25.930  1.00  0.00     0.338 C 
ATOM     26  O   UNL A   1      39.742  19.316  25.545  1.00  0.00    -0.246 OA
BRANCH  25  27
ATOM     27  C   UNL A   1      40.936  20.989  26.574  1.00  0.00     0.060 A 
ATOM     28  C   UNL A   1      40.931  21.008  27.978  1.00  0.00     0.016 A 
ATOM     29  C   UNL A   1      41.722  21.818  25.785  1.00  0.00     0.016 A 
ATOM     30  C   UNL A   1      41.560  22.057  28.600  1.00  0.00     0.010 A 
ATOM     31  C   UNL A   1      42.371  22.843  26.409  1.00  0.00     0.010 A 
ATOM     32  C   UNL A   1      42.164  23.012  27.783  1.00  0.00    -0.014 A 
BRANCH  32  33
ATOM     33  C   UNL A   1      42.439  24.313  28.347  1.00  0.00     0.031 A 
ATOM     34  C   UNL A   1      41.429  25.338  28.046  1.00  0.00     0.074 A 
ATOM     35  C   UNL A   1      43.441  24.450  29.238  1.00  0.00     0.049 A 
ATOM     36  N   UNL A   1      41.594  26.480  27.471  1.00  0.00    -0.248 NA
ATOM     37  C   UNL A   1      40.025  24.982  28.316  1.00  0.00     0.031 C 
ATOM     38  C   UNL A   1      44.275  23.385  29.813  1.00  0.00     0.029 A 
ATOM     39  N   UNL A   1      43.804  25.544  29.954  1.00  0.00    -0.354 N 
ATOM     40  C   UNL A   1      40.339  27.071  27.479  1.00  0.00     0.074 A 
ATOM     41  C   UNL A   1      39.390  26.046  27.833  1.00  0.00     0.031 C 
ATOM     42  C   UNL A   1      44.836  23.835  30.955  1.00  0.00     0.029 A 
ATOM     43  C   UNL A   1      44.496  25.238  31.121  1.00  0.00     0.049 A 
ATOM     44  H   UNL A   1      43.598  26.466  29.675  1.00  0.00     0.167 HD
ATOM     45  C   UNL A   1      40.166  28.418  27.462  1.00  0.00     0.031 A 
ATOM     46  C   UNL A   1      44.660  26.058  32.188  1.00  0.00     0.031 A 
ATOM     47  C   UNL A   1      41.351  29.130  27.085  1.00  0.00     0.049 A 
ATOM     48  C   UNL A   1      44.366  27.440  31.724  1.00  0.00     0.074 A 
ATOM     49  C   UNL A   1      42.138  29.160  25.952  1.00  0.00     0.029 A 
ATOM     50  N   UNL A   1      42.103  29.677  28.098  1.00  0.00    -0.354 N 
ATOM     51  N   UNL A   1      45.094  28.089  30.859  1.00  0.00    -0.248 NA
ATOM     52  C   UNL A   1      43.025  27.972  31.923  1.00  0.00     0.031 C 
ATOM     53  C   UNL A   1      43.470  29.339  26.425  1.00  0.00     0.029 A 
ATOM     54  C   UNL A   1      43.425  29.431  27.819  1.00  0.00     0.049 A 
ATOM     55  H   UNL A   1      41.756  30.158  28.883  1.00  0.00     0.167 HD
ATOM     56  C   UNL A   1      44.192  28.842  30.119  1.00  0.00     0.074 A 
ATOM     57  C   UNL A   1      42.959  28.828  30.898  1.00  0.00     0.031 C 
ATOM     58  C   UNL A   1      44.443  29.164  28.817  1.00  0.00     0.031 A 
BRANCH  45  59
ATOM     59  C   UNL A   1      39.012  29.058  28.170  1.00  0.00    -0.014 A 
ATOM     60  C   UNL A   1      38.057  29.786  27.449  1.00  0.00     0.010 A 
ATOM     61  C   UNL A   1      38.975  29.142  29.582  1.00  0.00     0.010 A 
ATOM     62  C   UNL A   1      37.104  30.567  28.116  1.00  0.00     0.020 A 
ATOM     63  C   UNL A   1      38.002  29.873  30.255  1.00  0.00     0.020 A 
ATOM     64  C   UNL A   1      37.085  30.603  29.515  1.00  0.00     0.054 A 
BRANCH  64  65
ATOM     65  S   UNL A   1      35.907  31.685  30.360  1.00  0.00     0.124 S 
ATOM     66  O   UNL A   1      34.777  31.679  29.437  1.00  0.00    -0.237 OA
ATOM     67  O   UNL A   1      35.700  30.986  31.624  1.00  0.00    -0.237 OA
ATOM     68  O   UNL A   1      36.622  32.955  30.465  1.00  0.00    -0.744 OA
ENDBRANCH  64  65
ENDBRANCH  45  59
BRANCH  46  69
ATOM     69  C   UNL A   1      44.729  25.687  33.626  1.00  0.00    -0.014 A 
ATOM     70  C   UNL A   1      45.901  25.933  34.366  1.00  0.00     0.010 A 
ATOM     71  C   UNL A   1      43.570  25.330  34.348  1.00  0.00     0.010 A 
ATOM     72  C   UNL A   1      45.892  25.904  35.771  1.00  0.00     0.020 A 
ATOM     73  C   UNL A   1      43.558  25.279  35.747  1.00  0.00     0.020 A 
ATOM     74  C   UNL A   1      44.711  25.605  36.453  1.00  0.00     0.054 A 
BRANCH  74  75
ATOM     75  S   UNL A   1      44.667  25.749  38.261  1.00  0.00     0.124 S 
ATOM     76  O   UNL A   1      43.373  26.382  38.498  1.00  0.00    -0.237 OA
ATOM     77  O   UNL A   1      44.777  24.355  38.683  1.00  0.00    -0.237 OA
ATOM     78  O   UNL A   1      45.829  26.580  38.570  1.00  0.00    -0.744 OA
ENDBRANCH  74  75
ENDBRANCH  46  69
BRANCH  58  79
ATOM     79  C   UNL A   1      45.845  28.956  28.293  1.00  0.00    -0.014 A 
ATOM     80  C   UNL A   1      46.852  29.937  28.386  1.00  0.00     0.010 A 
ATOM     81  C   UNL A   1      46.201  27.667  27.859  1.00  0.00     0.010 A 
ATOM     82  C   UNL A   1      48.180  29.635  28.054  1.00  0.00     0.020 A 
ATOM     83  C   UNL A   1      47.526  27.356  27.541  1.00  0.00     0.020 A 
ATOM     84  C   UNL A   1      48.511  28.340  27.645  1.00  0.00     0.054 A 
BRANCH  84  85
ATOM     85  S   UNL A   1      50.247  27.936  27.301  1.00  0.00     0.124 S 
ATOM     86  O   UNL A   1      50.483  28.591  26.017  1.00  0.00    -0.237 OA
ATOM     87  O   UNL A   1      50.944  28.521  28.444  1.00  0.00    -0.237 OA
ATOM     88  O   UNL A   1      50.263  26.474  27.257  1.00  0.00    -0.744 OA
ENDBRANCH  84  85
ENDBRANCH  58  79
ENDBRANCH  32  33
ENDBRANCH  25  27
ENDBRANCH  24  25
ENDBRANCH  23  24
ENDBRANCH   1  23
TORSDOF 17
ENDMDL
MODEL 3
REMARK VINA RESULT:     -12.1      2.763      8.855
REMARK SMILES Cc1ccc(-c2cc3cccnc3n2CCC(=O)OCCOC(=O)c2ccc(-c3c4nc(c(-c5ccc(S(=O)(=O)[O-])cc5)c5ccc([nH]5)c(-c5ccc(S(=O)(=O)[O-])cc5)c5nc(c(-c6ccc(S(=O)(=O)[O-])cc6)c6ccc3[nH]6)C=C5)C=C4)cc2)cn1
REMARK SMILES IDX 20 1 19 2 17 3 18 4 16 5 15 6 14 7 6 8 7 9 8 10 13 11 9 12
REMARK SMILES IDX 12 13 10 14 11 15 5 16 1 17 2 18 3 19 86 20 4 21 85 22 21 23
REMARK SMILES IDX 22 24 23 25 24 26 25 27 26 28 84 29 27 30 83 31 28 32 29 33
REMARK SMILES IDX 30 34 77 35 31 36 82 37 76 38 78 39 32 40 81 41 75 42 74 43
REMARK SMILES IDX 33 45 63 46 44 47 62 48 45 49 48 50 61 51 79 52 46 53 47 54
REMARK SMILES IDX 60 56 80 57 49 58 34 59 35 60 43 61 36 62 42 63 37 64 38 65
REMARK SMILES IDX 39 66 40 67 41 68 64 69 65 70 73 71 66 72 72 73 67 74 68 75
REMARK SMILES IDX 69 76 70 77 71 78 50 79 51 80 59 81 52 82 58 83 53 84 54 85
REMARK SMILES IDX 55 86 56 87 57 88
REMARK H PARENT 78 44 48 55
REMARK Flexibility Score: inf
ROOT
ATOM      1  C   UNL A   1      33.948  30.030  26.992  1.00  0.00     0.274 C 
ENDROOT
BRANCH   1   2
ATOM      2  O   UNL A   1      33.897  28.607  26.682  1.00  0.00    -0.462 OA
BRANCH   2   3
ATOM      3  C   UNL A   1      33.420  28.251  25.458  1.00  0.00     0.307 C 
ATOM      4  O   UNL A   1      33.200  29.058  24.559  1.00  0.00    -0.252 OA
BRANCH   3   5
ATOM      5  C   UNL A   1      33.228  26.748  25.251  1.00  0.00     0.144 C 
BRANCH   5   6
ATOM      6  C   UNL A   1      31.980  26.058  25.814  1.00  0.00     0.136 C 
BRANCH   6   7
ATOM      7  N   UNL A   1      31.535  24.949  25.001  1.00  0.00    -0.325 N 
ATOM      8  C   UNL A   1      30.638  25.004  23.959  1.00  0.00     0.052 A 
ATOM      9  C   UNL A   1      30.722  23.780  23.309  1.00  0.00     0.039 A 
ATOM     10  C   UNL A   1      31.652  22.966  23.984  1.00  0.00     0.020 A 
ATOM     11  C   UNL A   1      32.094  23.694  25.079  1.00  0.00     0.140 A 
ATOM     12  C   UNL A   1      32.196  21.694  23.770  1.00  0.00     0.013 A 
ATOM     13  N   UNL A   1      32.975  23.283  26.015  1.00  0.00    -0.238 NA
ATOM     14  C   UNL A   1      33.095  21.218  24.719  1.00  0.00     0.021 A 
ATOM     15  C   UNL A   1      33.417  22.023  25.805  1.00  0.00     0.113 A 
BRANCH   8  16
ATOM     16  C   UNL A   1      29.904  26.171  23.475  1.00  0.00     0.017 A 
ATOM     17  C   UNL A   1      28.035  30.612  21.881  1.00  0.00     0.066 C 
ATOM     18  C   UNL A   1      28.560  29.316  22.407  1.00  0.00     0.037 A 
ATOM     19  C   UNL A   1      27.540  28.257  23.418  1.00  0.00     0.024 A 
ATOM     20  N   UNL A   1      30.190  28.864  21.944  1.00  0.00    -0.261 NA
ATOM     21  C   UNL A   1      28.188  26.647  23.916  1.00  0.00     0.014 A 
ATOM     22  C   UNL A   1      30.850  27.310  22.440  1.00  0.00     0.121 A 
ENDBRANCH   8  16
ENDBRANCH   6   7
ENDBRANCH   5   6
ENDBRANCH   3   5
ENDBRANCH   2   3
ENDBRANCH   1   2
BRANCH   1  23
ATOM     23  C   UNL A   1      35.159  30.624  28.009  1.00  0.00     0.275 C 
BRANCH  23  24
ATOM     24  O   UNL A   1      35.039  32.123  29.365  1.00  0.00    -0.458 OA
BRANCH  24  25
ATOM     25  C   UNL A   1      34.967  32.752  30.614  1.00  0.00     0.338 C 
ATOM     26  O   UNL A   1      34.063  33.438  31.091  1.00  0.00    -0.246 OA
BRANCH  25  27
ATOM     27  C   UNL A   1      36.032  32.322  31.495  1.00  0.00     0.060 A 
ATOM     28  C   UNL A   1      37.098  33.217  31.674  1.00  0.00     0.016 A 
ATOM     29  C   UNL A   1      36.129  30.948  31.671  1.00  0.00     0.016 A 
ATOM     30  C   UNL A   1      38.357  32.687  31.801  1.00  0.00     0.010 A 
ATOM     31  C   UNL A   1      37.380  30.425  31.827  1.00  0.00     0.010 A 
ATOM     32  C   UNL A   1      38.471  31.298  31.754  1.00  0.00    -0.014 A 
BRANCH  32  33
ATOM     33  C   UNL A   1      39.763  30.731  31.446  1.00  0.00     0.031 A 
ATOM     34  C   UNL A   1      40.653  30.566  32.604  1.00  0.00     0.074 A 
ATOM     35  C   UNL A   1      39.987  30.224  30.217  1.00  0.00     0.049 A 
ATOM     36  N   UNL A   1      41.837  31.043  32.779  1.00  0.00    -0.248 NA
ATOM     37  C   UNL A   1      40.089  29.874  33.777  1.00  0.00     0.031 C 
ATOM     38  C   UNL A   1      39.017  30.078  29.123  1.00  0.00     0.029 A 
ATOM     39  N   UNL A   1      41.078  29.566  29.751  1.00  0.00    -0.354 N 
ATOM     40  C   UNL A   1      42.246  30.550  34.009  1.00  0.00     0.074 A 
ATOM     41  C   UNL A   1      41.080  30.001  34.655  1.00  0.00     0.031 C 
ATOM     42  C   UNL A   1      39.475  29.154  28.252  1.00  0.00     0.029 A 
ATOM     43  C   UNL A   1      40.806  28.741  28.665  1.00  0.00     0.049 A 
ATOM     44  H   UNL A   1      41.977  29.663  30.143  1.00  0.00     0.167 HD
ATOM     45  C   UNL A   1      43.555  30.370  34.325  1.00  0.00     0.031 A 
ATOM     46  C   UNL A   1      41.578  27.715  28.231  1.00  0.00     0.031 A 
ATOM     47  C   UNL A   1      44.445  31.052  33.434  1.00  0.00     0.049 A 
ATOM     48  C   UNL A   1      42.930  27.908  28.819  1.00  0.00     0.074 A 
ATOM     49  C   UNL A   1      44.649  32.375  33.100  1.00  0.00     0.029 A 
ATOM     50  N   UNL A   1      45.033  30.304  32.440  1.00  0.00    -0.354 N 
ATOM     51  N   UNL A   1      43.722  28.899  28.516  1.00  0.00    -0.248 NA
ATOM     52  C   UNL A   1      43.257  27.213  30.057  1.00  0.00     0.031 C 
ATOM     53  C   UNL A   1      44.985  32.366  31.716  1.00  0.00     0.029 A 
ATOM     54  C   UNL A   1      44.990  31.039  31.281  1.00  0.00     0.049 A 
ATOM     55  H   UNL A   1      45.415  29.403  32.542  1.00  0.00     0.167 HD
ATOM     56  C   UNL A   1      44.383  29.207  29.698  1.00  0.00     0.074 A 
ATOM     57  C   UNL A   1      44.153  28.062  30.571  1.00  0.00     0.031 C 
ATOM     58  C   UNL A   1      44.811  30.477  29.955  1.00  0.00     0.031 A 
BRANCH  45  59
ATOM     59  C   UNL A   1      43.986  29.251  35.222  1.00  0.00    -0.014 A 
ATOM     60  C   UNL A   1      43.768  27.919  34.844  1.00  0.00     0.010 A 
ATOM     61  C   UNL A   1      44.405  29.498  36.550  1.00  0.00     0.010 A 
ATOM     62  C   UNL A   1      43.964  26.878  35.761  1.00  0.00     0.020 A 
ATOM     63  C   UNL A   1      44.651  28.469  37.453  1.00  0.00     0.020 A 
ATOM     64  C   UNL A   1      44.404  27.163  37.059  1.00  0.00     0.054 A 
BRANCH  64  65
ATOM     65  S   UNL A   1      44.566  25.818  38.258  1.00  0.00     0.124 S 
ATOM     66  O   UNL A   1      43.936  26.393  39.442  1.00  0.00    -0.237 OA
ATOM     67  O   UNL A   1      43.831  24.737  37.608  1.00  0.00    -0.237 OA
ATOM     68  O   UNL A   1      46.009  25.615  38.354  1.00  0.00    -0.744 OA
ENDBRANCH  64  65
ENDBRANCH  45  59
BRANCH  46  69
ATOM     69  C   UNL A   1      41.139  26.431  27.623  1.00  0.00    -0.014 A 
ATOM     70  C   UNL A   1      41.971  25.759  26.708  1.00  0.00     0.010 A 
ATOM     71  C   UNL A   1      40.023  25.726  28.123  1.00  0.00     0.010 A 
ATOM     72  C   UNL A   1      41.744  24.413  26.374  1.00  0.00     0.020 A 
ATOM     73  C   UNL A   1      39.779  24.391  27.780  1.00  0.00     0.020 A 
ATOM     74  C   UNL A   1      40.664  23.729  26.937  1.00  0.00     0.054 A 
BRANCH  74  75
ATOM     75  S   UNL A   1      40.489  21.947  26.641  1.00  0.00     0.124 S 
ATOM     76  O   UNL A   1      40.677  21.384  27.975  1.00  0.00    -0.237 OA
ATOM     77  O   UNL A   1      39.134  21.857  26.102  1.00  0.00    -0.237 OA
ATOM     78  O   UNL A   1      41.554  21.648  25.686  1.00  0.00    -0.744 OA
ENDBRANCH  74  75
ENDBRANCH  46  69
BRANCH  58  79
ATOM     79  C   UNL A   1      44.830  31.465  28.811  1.00  0.00    -0.014 A 
ATOM     80  C   UNL A   1      45.904  31.567  27.905  1.00  0.00     0.010 A 
ATOM     81  C   UNL A   1      43.651  32.180  28.538  1.00  0.00     0.010 A 
ATOM     82  C   UNL A   1      45.800  32.365  26.757  1.00  0.00     0.020 A 
ATOM     83  C   UNL A   1      43.536  32.965  27.388  1.00  0.00     0.020 A 
ATOM     84  C   UNL A   1      44.609  33.049  26.499  1.00  0.00     0.054 A 
BRANCH  84  85
ATOM     85  S   UNL A   1      44.453  34.010  24.966  1.00  0.00     0.124 S 
ATOM     86  O   UNL A   1      45.786  34.583  24.806  1.00  0.00    -0.237 OA
ATOM     87  O   UNL A   1      44.084  32.990  23.986  1.00  0.00    -0.237 OA
ATOM     88  O   UNL A   1      43.399  34.979  25.267  1.00  0.00    -0.744 OA
ENDBRANCH  84  85
ENDBRANCH  58  79
ENDBRANCH  32  33
ENDBRANCH  25  27
ENDBRANCH  24  25
ENDBRANCH  23  24
ENDBRANCH   1  23
TORSDOF 17
ENDMDL
