MODEL 1
REMARK VINA RESULT:     -10.2      0.000      0.000
REMARK SMILES CC[C@H](C(=O)OCCOC(=O)c1ccc(-c2c3nc(c(-c4ccc(S(=O)(=O)[O-])cc4)c4ccc([nH]4)c(-c4ccc(S(=O)(=O)[O-])cc4)c4nc(c(-c5ccc(S(=O)(=O)[O-])cc5)c5ccc2[nH]5)C=C4)C=C3)cc1)C1=CCCc2c(C)ccc(C)c21
REMARK SMILES IDX 8 1 7 2 6 3 4 4 5 5 3 6 2 7 1 8 72 9 73 10 83 11 74 12 76 13
REMARK SMILES IDX 81 14 75 15 77 16 80 17 82 18 78 19 79 20 9 21 10 22 11 23
REMARK SMILES IDX 12 24 13 25 71 26 14 27 70 28 15 29 16 30 17 31 64 32 18 33
REMARK SMILES IDX 69 34 63 35 65 36 19 37 68 38 62 39 61 40 20 42 50 43 31 44
REMARK SMILES IDX 49 45 32 46 35 47 48 48 66 49 33 50 34 51 47 53 67 54 36 55
REMARK SMILES IDX 21 56 22 57 30 58 23 59 29 60 24 61 25 62 26 63 27 64 28 65
REMARK SMILES IDX 51 66 52 67 60 68 53 69 59 70 54 71 55 72 56 73 57 74 58 75
REMARK SMILES IDX 37 76 38 77 46 78 39 79 45 80 40 81 41 82 42 83 43 84 44 85
REMARK H PARENT 65 41 35 52
REMARK Flexibility Score: inf
ROOT
ATOM      1  C   UNL A   1      32.322  29.556  27.042  1.00  0.00     0.275 C 
ENDROOT
BRANCH   1   2
ATOM      2  C   UNL A   1      31.785  29.784  25.626  1.00  0.00     0.274 C 
BRANCH   2   3
ATOM      3  O   UNL A   1      32.751  29.442  24.621  1.00  0.00    -0.462 OA
BRANCH   3   4
ATOM      4  C   UNL A   1      32.311  28.624  23.616  1.00  0.00     0.313 C 
ATOM      5  O   UNL A   1      32.618  28.787  22.443  1.00  0.00    -0.252 OA
BRANCH   4   6
ATOM      6  C   UNL A   1      31.478  27.450  24.173  1.00  0.00     0.129 C 
BRANCH   6   7
ATOM      7  C   UNL A   1      30.242  27.144  23.256  1.00  0.00     0.017 C 
ATOM      8  C   UNL A   1      29.000  26.611  23.978  1.00  0.00     0.005 C 
ENDBRANCH   6   7
BRANCH   6   9
ATOM      9  C   UNL A   1      32.268  26.199  24.554  1.00  0.00    -0.030 C 
ATOM     10  C   UNL A   1      32.595  25.967  25.855  1.00  0.00    -0.022 C 
ATOM     11  C   UNL A   1      32.319  24.930  23.735  1.00  0.00    -0.015 A 
ATOM     12  C   UNL A   1      31.715  24.929  26.582  1.00  0.00     0.032 C 
ATOM     13  C   UNL A   1      31.856  23.795  24.444  1.00  0.00    -0.037 A 
ATOM     14  C   UNL A   1      33.224  24.714  22.691  1.00  0.00    -0.043 A 
ATOM     15  C   UNL A   1      30.902  24.098  25.578  1.00  0.00     0.040 C 
ATOM     16  C   UNL A   1      32.487  22.552  24.290  1.00  0.00    -0.047 A 
ATOM     17  C   UNL A   1      34.031  23.567  22.736  1.00  0.00     0.004 A 
ATOM     18  C   UNL A   1      32.819  25.129  21.287  1.00  0.00     0.045 C 
ATOM     19  C   UNL A   1      32.009  21.328  25.003  1.00  0.00     0.044 C 
ATOM     20  C   UNL A   1      33.663  22.493  23.537  1.00  0.00     0.004 A 
ENDBRANCH   6   9
ENDBRANCH   4   6
ENDBRANCH   3   4
ENDBRANCH   2   3
ENDBRANCH   1   2
BRANCH   1  21
ATOM     21  O   UNL A   1      33.753  29.437  27.051  1.00  0.00    -0.458 OA
BRANCH  21  22
ATOM     22  C   UNL A   1      34.396  30.528  27.561  1.00  0.00     0.338 C 
ATOM     23  O   UNL A   1      33.927  31.635  27.703  1.00  0.00    -0.246 OA
BRANCH  22  24
ATOM     24  C   UNL A   1      35.722  30.144  28.096  1.00  0.00     0.060 A 
ATOM     25  C   UNL A   1      35.763  29.693  29.422  1.00  0.00     0.016 A 
ATOM     26  C   UNL A   1      36.901  30.236  27.354  1.00  0.00     0.016 A 
ATOM     27  C   UNL A   1      36.972  29.323  30.013  1.00  0.00     0.010 A 
ATOM     28  C   UNL A   1      38.119  29.891  27.954  1.00  0.00     0.010 A 
ATOM     29  C   UNL A   1      38.162  29.444  29.291  1.00  0.00    -0.014 A 
BRANCH  29  30
ATOM     30  C   UNL A   1      39.466  29.249  29.971  1.00  0.00     0.031 A 
ATOM     31  C   UNL A   1      40.304  28.067  29.599  1.00  0.00     0.074 A 
ATOM     32  C   UNL A   1      39.940  30.121  30.879  1.00  0.00     0.049 A 
ATOM     33  N   UNL A   1      41.450  27.690  30.098  1.00  0.00    -0.248 NA
ATOM     34  C   UNL A   1      39.824  27.244  28.477  1.00  0.00     0.031 C 
ATOM     35  C   UNL A   1      39.354  31.415  31.183  1.00  0.00     0.029 A 
ATOM     36  N   UNL A   1      41.001  30.033  31.744  1.00  0.00    -0.354 N 
ATOM     37  C   UNL A   1      41.869  26.635  29.304  1.00  0.00     0.074 A 
ATOM     38  C   UNL A   1      40.816  26.376  28.344  1.00  0.00     0.031 C 
ATOM     39  C   UNL A   1      39.947  31.929  32.272  1.00  0.00     0.029 A 
ATOM     40  C   UNL A   1      40.992  31.015  32.707  1.00  0.00     0.049 A 
ATOM     41  H   UNL A   1      41.698  29.339  31.681  1.00  0.00     0.167 HD
ATOM     42  C   UNL A   1      43.050  25.979  29.345  1.00  0.00     0.031 A 
ATOM     43  C   UNL A   1      41.727  31.159  33.826  1.00  0.00     0.031 A 
ATOM     44  C   UNL A   1      44.070  26.209  30.331  1.00  0.00     0.049 A 
ATOM     45  C   UNL A   1      42.883  30.230  34.039  1.00  0.00     0.074 A 
ATOM     46  C   UNL A   1      45.296  25.584  30.466  1.00  0.00     0.029 A 
ATOM     47  N   UNL A   1      43.971  27.125  31.369  1.00  0.00    -0.354 N 
ATOM     48  N   UNL A   1      43.284  29.244  33.273  1.00  0.00    -0.248 NA
ATOM     49  C   UNL A   1      43.724  30.466  35.218  1.00  0.00     0.031 C 
ATOM     50  C   UNL A   1      45.914  26.081  31.619  1.00  0.00     0.029 A 
ATOM     51  C   UNL A   1      45.095  27.052  32.175  1.00  0.00     0.049 A 
ATOM     52  H   UNL A   1      43.213  27.736  31.512  1.00  0.00     0.167 HD
ATOM     53  C   UNL A   1      44.474  28.798  33.827  1.00  0.00     0.074 A 
ATOM     54  C   UNL A   1      44.704  29.594  35.017  1.00  0.00     0.031 C 
ATOM     55  C   UNL A   1      45.318  27.845  33.359  1.00  0.00     0.031 A 
BRANCH  42  56
ATOM     56  C   UNL A   1      43.271  24.938  28.287  1.00  0.00    -0.014 A 
ATOM     57  C   UNL A   1      42.889  23.601  28.508  1.00  0.00     0.010 A 
ATOM     58  C   UNL A   1      43.885  25.290  27.076  1.00  0.00     0.010 A 
ATOM     59  C   UNL A   1      43.158  22.625  27.546  1.00  0.00     0.020 A 
ATOM     60  C   UNL A   1      44.138  24.320  26.104  1.00  0.00     0.020 A 
ATOM     61  C   UNL A   1      43.789  22.990  26.353  1.00  0.00     0.054 A 
BRANCH  61  62
ATOM     62  S   UNL A   1      44.138  21.704  25.125  1.00  0.00     0.124 S 
ATOM     63  O   UNL A   1      43.086  20.729  25.403  1.00  0.00    -0.237 OA
ATOM     64  O   UNL A   1      44.011  22.423  23.860  1.00  0.00    -0.237 OA
ATOM     65  O   UNL A   1      45.493  21.268  25.456  1.00  0.00    -0.744 OA
ENDBRANCH  61  62
ENDBRANCH  42  56
BRANCH  43  66
ATOM     66  C   UNL A   1      41.383  32.218  34.813  1.00  0.00    -0.014 A 
ATOM     67  C   UNL A   1      40.468  31.983  35.853  1.00  0.00     0.010 A 
ATOM     68  C   UNL A   1      41.992  33.484  34.711  1.00  0.00     0.010 A 
ATOM     69  C   UNL A   1      40.153  33.001  36.760  1.00  0.00     0.020 A 
ATOM     70  C   UNL A   1      41.691  34.498  35.626  1.00  0.00     0.020 A 
ATOM     71  C   UNL A   1      40.765  34.253  36.639  1.00  0.00     0.054 A 
BRANCH  71  72
ATOM     72  S   UNL A   1      40.356  35.546  37.846  1.00  0.00     0.124 S 
ATOM     73  O   UNL A   1      41.634  35.754  38.517  1.00  0.00    -0.237 OA
ATOM     74  O   UNL A   1      39.903  36.639  36.990  1.00  0.00    -0.237 OA
ATOM     75  O   UNL A   1      39.312  34.933  38.665  1.00  0.00    -0.744 OA
ENDBRANCH  71  72
ENDBRANCH  43  66
BRANCH  55  76
ATOM     76  C   UNL A   1      46.610  27.657  34.101  1.00  0.00    -0.014 A 
ATOM     77  C   UNL A   1      47.751  28.416  33.792  1.00  0.00     0.010 A 
ATOM     78  C   UNL A   1      46.667  26.721  35.150  1.00  0.00     0.010 A 
ATOM     79  C   UNL A   1      48.938  28.219  34.501  1.00  0.00     0.020 A 
ATOM     80  C   UNL A   1      47.844  26.540  35.876  1.00  0.00     0.020 A 
ATOM     81  C   UNL A   1      48.978  27.280  35.538  1.00  0.00     0.054 A 
BRANCH  81  82
ATOM     82  S   UNL A   1      50.517  27.071  36.472  1.00  0.00     0.124 S 
ATOM     83  O   UNL A   1      51.426  26.563  35.449  1.00  0.00    -0.237 OA
ATOM     84  O   UNL A   1      50.795  28.427  36.942  1.00  0.00    -0.237 OA
ATOM     85  O   UNL A   1      50.158  26.117  37.519  1.00  0.00    -0.744 OA
ENDBRANCH  81  82
ENDBRANCH  55  76
ENDBRANCH  29  30
ENDBRANCH  22  24
ENDBRANCH  21  22
ENDBRANCH   1  21
TORSDOF 16
ENDMDL
MODEL 2
REMARK VINA RESULT:     -10.2      1.062      8.513
REMARK SMILES CC[C@H](C(=O)OCCOC(=O)c1ccc(-c2c3nc(c(-c4ccc(S(=O)(=O)[O-])cc4)c4ccc([nH]4)c(-c4ccc(S(=O)(=O)[O-])cc4)c4nc(c(-c5ccc(S(=O)(=O)[O-])cc5)c5ccc2[nH]5)C=C4)C=C3)cc1)C1=CCCc2c(C)ccc(C)c21
REMARK SMILES IDX 8 1 7 2 6 3 4 4 5 5 3 6 2 7 1 8 72 9 73 10 83 11 74 12 76 13
REMARK SMILES IDX 81 14 75 15 77 16 80 17 82 18 78 19 79 20 9 21 10 22 11 23
REMARK SMILES IDX 12 24 13 25 71 26 14 27 70 28 15 29 16 30 17 31 64 32 18 33
REMARK SMILES IDX 69 34 63 35 65 36 19 37 68 38 62 39 61 40 20 42 50 43 31 44
REMARK SMILES IDX 49 45 32 46 35 47 48 48 66 49 33 50 34 51 47 53 67 54 36 55
REMARK SMILES IDX 21 56 22 57 30 58 23 59 29 60 24 61 25 62 26 63 27 64 28 65
REMARK SMILES IDX 51 66 52 67 60 68 53 69 59 70 54 71 55 72 56 73 57 74 58 75
REMARK SMILES IDX 37 76 38 77 46 78 39 79 45 80 40 81 41 82 42 83 43 84 44 85
REMARK H PARENT 65 41 35 52
REMARK Flexibility Score: inf
ROOT
ATOM      1  C   UNL A   1      32.943  28.883  25.805  1.00  0.00     0.275 C 
ENDROOT
BRANCH   1   2
ATOM      2  C   UNL A   1      33.007  28.393  24.356  1.00  0.00     0.274 C 
BRANCH   2   3
ATOM      3  O   UNL A   1      34.049  27.426  24.159  1.00  0.00    -0.462 OA
BRANCH   3   4
ATOM      4  C   UNL A   1      33.655  26.199  23.699  1.00  0.00     0.313 C 
ATOM      5  O   UNL A   1      32.931  26.055  22.722  1.00  0.00    -0.252 OA
BRANCH   4   6
ATOM      6  C   UNL A   1      34.310  25.060  24.508  1.00  0.00     0.129 C 
BRANCH   6   7
ATOM      7  C   UNL A   1      33.772  25.025  25.981  1.00  0.00     0.017 C 
ATOM      8  C   UNL A   1      32.270  25.288  26.143  1.00  0.00     0.005 C 
ENDBRANCH   6   7
BRANCH   6   9
ATOM      9  C   UNL A   1      34.314  23.688  23.836  1.00  0.00    -0.030 C 
ATOM     10  C   UNL A   1      35.492  23.092  23.505  1.00  0.00    -0.022 C 
ATOM     11  C   UNL A   1      33.190  22.681  23.927  1.00  0.00    -0.015 A 
ATOM     12  C   UNL A   1      35.962  21.981  24.467  1.00  0.00     0.032 C 
ATOM     13  C   UNL A   1      33.598  21.445  24.483  1.00  0.00    -0.037 A 
ATOM     14  C   UNL A   1      32.085  22.670  23.070  1.00  0.00    -0.043 A 
ATOM     15  C   UNL A   1      34.815  21.520  25.379  1.00  0.00     0.040 C 
ATOM     16  C   UNL A   1      33.096  20.236  23.980  1.00  0.00    -0.047 A 
ATOM     17  C   UNL A   1      31.791  21.485  22.378  1.00  0.00     0.004 A 
ATOM     18  C   UNL A   1      30.859  23.476  23.462  1.00  0.00     0.045 C 
ATOM     19  C   UNL A   1      33.485  18.915  24.561  1.00  0.00     0.044 C 
ATOM     20  C   UNL A   1      32.300  20.275  22.832  1.00  0.00     0.004 A 
ENDBRANCH   6   9
ENDBRANCH   4   6
ENDBRANCH   3   4
ENDBRANCH   2   3
ENDBRANCH   1   2
BRANCH   1  21
ATOM     21  O   UNL A   1      34.247  28.937  26.402  1.00  0.00    -0.458 OA
BRANCH  21  22
ATOM     22  C   UNL A   1      34.464  30.052  27.160  1.00  0.00     0.338 C 
ATOM     23  O   UNL A   1      33.705  30.987  27.292  1.00  0.00    -0.246 OA
BRANCH  22  24
ATOM     24  C   UNL A   1      35.698  29.901  27.962  1.00  0.00     0.060 A 
ATOM     25  C   UNL A   1      36.915  30.076  27.291  1.00  0.00     0.016 A 
ATOM     26  C   UNL A   1      35.691  29.575  29.320  1.00  0.00     0.016 A 
ATOM     27  C   UNL A   1      38.129  29.938  27.966  1.00  0.00     0.010 A 
ATOM     28  C   UNL A   1      36.909  29.410  29.993  1.00  0.00     0.010 A 
ATOM     29  C   UNL A   1      38.134  29.579  29.316  1.00  0.00    -0.014 A 
BRANCH  29  30
ATOM     30  C   UNL A   1      39.411  29.233  29.987  1.00  0.00     0.031 A 
ATOM     31  C   UNL A   1      39.934  30.141  31.055  1.00  0.00     0.074 A 
ATOM     32  C   UNL A   1      40.093  28.110  29.699  1.00  0.00     0.049 A 
ATOM     33  N   UNL A   1      41.046  30.047  31.734  1.00  0.00    -0.248 NA
ATOM     34  C   UNL A   1      39.065  31.259  31.455  1.00  0.00     0.031 C 
ATOM     35  C   UNL A   1      39.610  27.030  28.855  1.00  0.00     0.029 A 
ATOM     36  N   UNL A   1      41.356  27.706  30.052  1.00  0.00    -0.354 N 
ATOM     37  C   UNL A   1      40.977  31.042  32.694  1.00  0.00     0.074 A 
ATOM     38  C   UNL A   1      39.756  31.783  32.457  1.00  0.00     0.031 C 
ATOM     39  C   UNL A   1      40.612  26.171  28.612  1.00  0.00     0.029 A 
ATOM     40  C   UNL A   1      41.794  26.620  29.331  1.00  0.00     0.049 A 
ATOM     41  H   UNL A   1      41.892  28.147  30.751  1.00  0.00     0.167 HD
ATOM     42  C   UNL A   1      41.833  31.278  33.713  1.00  0.00     0.031 A 
ATOM     43  C   UNL A   1      43.014  26.057  29.239  1.00  0.00     0.031 A 
ATOM     44  C   UNL A   1      43.068  30.569  33.913  1.00  0.00     0.049 A 
ATOM     45  C   UNL A   1      44.083  26.525  30.179  1.00  0.00     0.074 A 
ATOM     46  C   UNL A   1      44.013  30.746  34.907  1.00  0.00     0.029 A 
ATOM     47  N   UNL A   1      43.541  29.560  33.086  1.00  0.00    -0.354 N 
ATOM     48  N   UNL A   1      44.004  27.457  31.098  1.00  0.00    -0.248 NA
ATOM     49  C   UNL A   1      45.375  25.833  30.123  1.00  0.00     0.031 C 
ATOM     50  C   UNL A   1      45.084  29.883  34.648  1.00  0.00     0.029 A 
ATOM     51  C   UNL A   1      44.784  29.134  33.521  1.00  0.00     0.049 A 
ATOM     52  H   UNL A   1      43.063  29.201  32.304  1.00  0.00     0.167 HD
ATOM     53  C   UNL A   1      45.204  27.404  31.791  1.00  0.00     0.074 A 
ATOM     54  C   UNL A   1      46.007  26.376  31.156  1.00  0.00     0.031 C 
ATOM     55  C   UNL A   1      45.579  28.113  32.883  1.00  0.00     0.031 A 
BRANCH  42  56
ATOM     56  C   UNL A   1      41.449  32.370  34.668  1.00  0.00    -0.014 A 
ATOM     57  C   UNL A   1      41.887  33.691  34.458  1.00  0.00     0.010 A 
ATOM     58  C   UNL A   1      40.667  32.071  35.793  1.00  0.00     0.010 A 
ATOM     59  C   UNL A   1      41.581  34.689  35.386  1.00  0.00     0.020 A 
ATOM     60  C   UNL A   1      40.343  33.070  36.713  1.00  0.00     0.020 A 
ATOM     61  C   UNL A   1      40.818  34.369  36.513  1.00  0.00     0.054 A 
BRANCH  61  62
ATOM     62  S   UNL A   1      40.443  35.678  37.710  1.00  0.00     0.124 S 
ATOM     63  O   UNL A   1      39.552  34.988  38.640  1.00  0.00    -0.237 OA
ATOM     64  O   UNL A   1      41.761  36.019  38.238  1.00  0.00    -0.237 OA
ATOM     65  O   UNL A   1      39.812  36.716  36.900  1.00  0.00    -0.744 OA
ENDBRANCH  61  62
ENDBRANCH  42  56
BRANCH  43  66
ATOM     66  C   UNL A   1      43.273  25.000  28.225  1.00  0.00    -0.014 A 
ATOM     67  C   UNL A   1      43.117  23.638  28.528  1.00  0.00     0.010 A 
ATOM     68  C   UNL A   1      43.675  25.370  26.926  1.00  0.00     0.010 A 
ATOM     69  C   UNL A   1      43.381  22.663  27.559  1.00  0.00     0.020 A 
ATOM     70  C   UNL A   1      43.923  24.399  25.950  1.00  0.00     0.020 A 
ATOM     71  C   UNL A   1      43.783  23.051  26.276  1.00  0.00     0.054 A 
BRANCH  71  72
ATOM     72  S   UNL A   1      44.092  21.765  25.032  1.00  0.00     0.124 S 
ATOM     73  O   UNL A   1      43.012  20.820  25.294  1.00  0.00    -0.237 OA
ATOM     74  O   UNL A   1      43.993  22.512  23.781  1.00  0.00    -0.237 OA
ATOM     75  O   UNL A   1      45.434  21.286  25.358  1.00  0.00    -0.744 OA
ENDBRANCH  71  72
ENDBRANCH  43  66
BRANCH  55  76
ATOM     76  C   UNL A   1      46.897  27.753  33.508  1.00  0.00    -0.014 A 
ATOM     77  C   UNL A   1      46.998  26.740  34.476  1.00  0.00     0.010 A 
ATOM     78  C   UNL A   1      48.060  28.426  33.089  1.00  0.00     0.010 A 
ATOM     79  C   UNL A   1      48.238  26.427  35.037  1.00  0.00     0.020 A 
ATOM     80  C   UNL A   1      49.303  28.098  33.630  1.00  0.00     0.020 A 
ATOM     81  C   UNL A   1      49.383  27.110  34.612  1.00  0.00     0.054 A 
BRANCH  81  82
ATOM     82  S   UNL A   1      50.988  26.658  35.324  1.00  0.00     0.124 S 
ATOM     83  O   UNL A   1      51.832  26.566  34.137  1.00  0.00    -0.237 OA
ATOM     84  O   UNL A   1      51.274  27.783  36.213  1.00  0.00    -0.237 OA
ATOM     85  O   UNL A   1      50.721  25.391  36.001  1.00  0.00    -0.744 OA
ENDBRANCH  81  82
ENDBRANCH  55  76
ENDBRANCH  29  30
ENDBRANCH  22  24
ENDBRANCH  21  22
ENDBRANCH   1  21
TORSDOF 16
ENDMDL
MODEL 3
REMARK VINA RESULT:     -10.2      2.602      8.646
REMARK SMILES CC[C@H](C(=O)OCCOC(=O)c1ccc(-c2c3nc(c(-c4ccc(S(=O)(=O)[O-])cc4)c4ccc([nH]4)c(-c4ccc(S(=O)(=O)[O-])cc4)c4nc(c(-c5ccc(S(=O)(=O)[O-])cc5)c5ccc2[nH]5)C=C4)C=C3)cc1)C1=CCCc2c(C)ccc(C)c21
REMARK SMILES IDX 8 1 7 2 6 3 4 4 5 5 3 6 2 7 1 8 72 9 73 10 83 11 74 12 76 13
REMARK SMILES IDX 81 14 75 15 77 16 80 17 82 18 78 19 79 20 9 21 10 22 11 23
REMARK SMILES IDX 12 24 13 25 71 26 14 27 70 28 15 29 16 30 17 31 64 32 18 33
REMARK SMILES IDX 69 34 63 35 65 36 19 37 68 38 62 39 61 40 20 42 50 43 31 44
REMARK SMILES IDX 49 45 32 46 35 47 48 48 66 49 33 50 34 51 47 53 67 54 36 55
REMARK SMILES IDX 21 56 22 57 30 58 23 59 29 60 24 61 25 62 26 63 27 64 28 65
REMARK SMILES IDX 51 66 52 67 60 68 53 69 59 70 54 71 55 72 56 73 57 74 58 75
REMARK SMILES IDX 37 76 38 77 46 78 39 79 45 80 40 81 41 82 42 83 43 84 44 85
REMARK H PARENT 65 41 35 52
REMARK Flexibility Score: inf
ROOT
ATOM      1  C   UNL A   1      33.221  28.481  26.116  1.00  0.00     0.275 C 
ENDROOT
BRANCH   1   2
ATOM      2  C   UNL A   1      32.704  27.063  25.858  1.00  0.00     0.274 C 
BRANCH   2   3
ATOM      3  O   UNL A   1      31.800  27.014  24.743  1.00  0.00    -0.462 OA
BRANCH   3   4
ATOM      4  C   UNL A   1      30.822  26.059  24.804  1.00  0.00     0.313 C 
ATOM      5  O   UNL A   1      29.758  26.156  24.205  1.00  0.00    -0.252 OA
BRANCH   4   6
ATOM      6  C   UNL A   1      31.278  24.839  25.632  1.00  0.00     0.129 C 
BRANCH   6   7
ATOM      7  C   UNL A   1      30.080  24.208  26.424  1.00  0.00     0.017 C 
ATOM      8  C   UNL A   1      30.181  22.701  26.684  1.00  0.00     0.005 C 
ENDBRANCH   6   7
BRANCH   6   9
ATOM      9  C   UNL A   1      32.115  23.804  24.881  1.00  0.00    -0.030 C 
ATOM     10  C   UNL A   1      31.914  23.598  23.551  1.00  0.00    -0.022 C 
ATOM     11  C   UNL A   1      33.476  23.316  25.318  1.00  0.00    -0.015 A 
ATOM     12  C   UNL A   1      32.949  24.260  22.617  1.00  0.00     0.032 C 
ATOM     13  C   UNL A   1      34.485  23.551  24.353  1.00  0.00    -0.037 A 
ATOM     14  C   UNL A   1      33.674  22.259  26.214  1.00  0.00    -0.043 A 
ATOM     15  C   UNL A   1      34.200  24.690  23.399  1.00  0.00     0.040 C 
ATOM     16  C   UNL A   1      35.492  22.601  24.127  1.00  0.00    -0.047 A 
ATOM     17  C   UNL A   1      34.492  21.192  25.813  1.00  0.00     0.004 A 
ATOM     18  C   UNL A   1      33.752  22.574  27.697  1.00  0.00     0.045 C 
ATOM     19  C   UNL A   1      36.586  22.828  23.135  1.00  0.00     0.044 C 
ATOM     20  C   UNL A   1      35.393  21.365  24.771  1.00  0.00     0.004 A 
ENDBRANCH   6   9
ENDBRANCH   4   6
ENDBRANCH   3   4
ENDBRANCH   2   3
ENDBRANCH   1   2
BRANCH   1  21
ATOM     21  O   UNL A   1      33.818  28.598  27.415  1.00  0.00    -0.458 OA
BRANCH  21  22
ATOM     22  C   UNL A   1      34.356  29.826  27.670  1.00  0.00     0.338 C 
ATOM     23  O   UNL A   1      33.764  30.883  27.666  1.00  0.00    -0.246 OA
BRANCH  22  24
ATOM     24  C   UNL A   1      35.755  29.693  28.134  1.00  0.00     0.060 A 
ATOM     25  C   UNL A   1      36.754  29.723  27.151  1.00  0.00     0.016 A 
ATOM     26  C   UNL A   1      36.101  29.520  29.475  1.00  0.00     0.016 A 
ATOM     27  C   UNL A   1      38.099  29.590  27.497  1.00  0.00     0.010 A 
ATOM     28  C   UNL A   1      37.450  29.360  29.822  1.00  0.00     0.010 A 
ATOM     29  C   UNL A   1      38.455  29.382  28.832  1.00  0.00    -0.014 A 
BRANCH  29  30
ATOM     30  C   UNL A   1      39.854  29.038  29.183  1.00  0.00     0.031 A 
ATOM     31  C   UNL A   1      40.759  30.120  29.684  1.00  0.00     0.074 A 
ATOM     32  C   UNL A   1      40.326  27.781  29.107  1.00  0.00     0.049 A 
ATOM     33  N   UNL A   1      42.022  30.043  30.004  1.00  0.00    -0.248 NA
ATOM     34  C   UNL A   1      40.147  31.438  29.916  1.00  0.00     0.031 C 
ATOM     35  C   UNL A   1      39.521  26.598  28.853  1.00  0.00     0.029 A 
ATOM     36  N   UNL A   1      41.605  27.291  29.196  1.00  0.00    -0.354 N 
ATOM     37  C   UNL A   1      42.340  31.275  30.550  1.00  0.00     0.074 A 
ATOM     38  C   UNL A   1      41.162  32.110  30.439  1.00  0.00     0.031 C 
ATOM     39  C   UNL A   1      40.327  25.547  28.635  1.00  0.00     0.029 A 
ATOM     40  C   UNL A   1      41.707  25.981  28.788  1.00  0.00     0.049 A 
ATOM     41  H   UNL A   1      42.369  27.821  29.519  1.00  0.00     0.167 HD
ATOM     42  C   UNL A   1      43.497  31.654  31.137  1.00  0.00     0.031 A 
ATOM     43  C   UNL A   1      42.789  25.217  28.544  1.00  0.00     0.031 A 
ATOM     44  C   UNL A   1      44.678  30.836  31.200  1.00  0.00     0.049 A 
ATOM     45  C   UNL A   1      44.136  25.753  28.922  1.00  0.00     0.074 A 
ATOM     46  C   UNL A   1      45.906  31.137  31.760  1.00  0.00     0.029 A 
ATOM     47  N   UNL A   1      44.784  29.562  30.662  1.00  0.00    -0.354 N 
ATOM     48  N   UNL A   1      44.426  26.915  29.455  1.00  0.00    -0.248 NA
ATOM     49  C   UNL A   1      45.288  24.865  28.733  1.00  0.00     0.031 C 
ATOM     50  C   UNL A   1      46.772  30.066  31.510  1.00  0.00     0.029 A 
ATOM     51  C   UNL A   1      46.070  29.078  30.838  1.00  0.00     0.049 A 
ATOM     52  H   UNL A   1      44.053  29.073  30.219  1.00  0.00     0.167 HD
ATOM     53  C   UNL A   1      45.780  26.866  29.748  1.00  0.00     0.074 A 
ATOM     54  C   UNL A   1      46.259  25.575  29.294  1.00  0.00     0.031 C 
ATOM     55  C   UNL A   1      46.541  27.793  30.381  1.00  0.00     0.031 A 
BRANCH  42  56
ATOM     56  C   UNL A   1      43.522  33.029  31.736  1.00  0.00    -0.014 A 
ATOM     57  C   UNL A   1      43.897  34.142  30.960  1.00  0.00     0.010 A 
ATOM     58  C   UNL A   1      43.193  33.209  33.088  1.00  0.00     0.010 A 
ATOM     59  C   UNL A   1      43.982  35.409  31.541  1.00  0.00     0.020 A 
ATOM     60  C   UNL A   1      43.258  34.478  33.668  1.00  0.00     0.020 A 
ATOM     61  C   UNL A   1      43.670  35.567  32.895  1.00  0.00     0.054 A 
BRANCH  61  62
ATOM     62  S   UNL A   1      43.799  37.218  33.630  1.00  0.00     0.124 S 
ATOM     63  O   UNL A   1      43.866  38.070  32.446  1.00  0.00    -0.237 OA
ATOM     64  O   UNL A   1      42.568  37.321  34.410  1.00  0.00    -0.237 OA
ATOM     65  O   UNL A   1      45.027  37.151  34.418  1.00  0.00    -0.744 OA
ENDBRANCH  61  62
ENDBRANCH  42  56
BRANCH  43  66
ATOM     66  C   UNL A   1      42.628  23.877  27.916  1.00  0.00    -0.014 A 
ATOM     67  C   UNL A   1      42.861  23.677  26.546  1.00  0.00     0.010 A 
ATOM     68  C   UNL A   1      42.243  22.781  28.712  1.00  0.00     0.010 A 
ATOM     69  C   UNL A   1      42.690  22.409  25.978  1.00  0.00     0.020 A 
ATOM     70  C   UNL A   1      42.087  21.509  28.151  1.00  0.00     0.020 A 
ATOM     71  C   UNL A   1      42.303  21.334  26.784  1.00  0.00     0.054 A 
BRANCH  71  72
ATOM     72  S   UNL A   1      42.115  19.696  26.025  1.00  0.00     0.124 S 
ATOM     73  O   UNL A   1      42.520  18.807  27.108  1.00  0.00    -0.237 OA
ATOM     74  O   UNL A   1      40.695  19.672  25.682  1.00  0.00    -0.237 OA
ATOM     75  O   UNL A   1      43.023  19.741  24.880  1.00  0.00    -0.744 OA
ENDBRANCH  71  72
ENDBRANCH  43  66
BRANCH  55  76
ATOM     76  C   UNL A   1      47.963  27.415  30.683  1.00  0.00    -0.014 A 
ATOM     77  C   UNL A   1      48.307  26.738  31.865  1.00  0.00     0.010 A 
ATOM     78  C   UNL A   1      48.966  27.720  29.744  1.00  0.00     0.010 A 
ATOM     79  C   UNL A   1      49.639  26.400  32.116  1.00  0.00     0.020 A 
ATOM     80  C   UNL A   1      50.292  27.361  29.981  1.00  0.00     0.020 A 
ATOM     81  C   UNL A   1      50.624  26.715  31.173  1.00  0.00     0.054 A 
BRANCH  81  82
ATOM     82  S   UNL A   1      52.339  26.228  31.502  1.00  0.00     0.124 S 
ATOM     83  O   UNL A   1      52.939  26.317  30.175  1.00  0.00    -0.237 OA
ATOM     84  O   UNL A   1      52.782  27.238  32.462  1.00  0.00    -0.237 OA
ATOM     85  O   UNL A   1      52.216  24.877  32.044  1.00  0.00    -0.744 OA
ENDBRANCH  81  82
ENDBRANCH  55  76
ENDBRANCH  29  30
ENDBRANCH  22  24
ENDBRANCH  21  22
ENDBRANCH   1  21
TORSDOF 16
ENDMDL
