MODEL 1
REMARK VINA RESULT:     -11.4      0.000      0.000
REMARK SMILES CC(C)c1ccc(-c2cnc([C@@H]3[NH2+][C@H](C(=O)OCCOC(=O)c4ccc(-c5c6nc(c(-c7ccc(S(=O)(=O)[O-])cc7)c7ccc([nH]7)c(-c7ccc(S(=O)(=O)[O-])cc7)c7nc(c(-c8ccc(S(=O)(=O)[O-])cc8)c8ccc5[nH]8)C=C7)C=C6)cc4)C(C)(C)S3)s2)cc1
REMARK SMILES IDX 18 1 17 2 15 3 16 4 14 5 12 6 13 7 86 8 83 11 84 12 85 13
REMARK SMILES IDX 11 14 8 15 9 16 87 17 10 18 7 19 4 20 5 21 89 22 6 23 88 24
REMARK SMILES IDX 2 25 1 26 3 27 19 28 20 29 21 30 22 31 23 32 24 33 82 34
REMARK SMILES IDX 25 35 81 36 26 37 27 38 28 39 75 40 29 41 80 42 74 43 76 44
REMARK SMILES IDX 30 45 79 46 73 47 72 48 31 50 61 51 42 52 60 53 43 54 46 55
REMARK SMILES IDX 59 56 77 57 44 58 45 59 58 61 78 62 47 63 32 64 33 65 41 66
REMARK SMILES IDX 34 67 40 68 35 69 36 70 37 71 38 72 39 73 62 74 63 75 71 76
REMARK SMILES IDX 64 77 70 78 65 79 66 80 67 81 68 82 69 83 48 84 49 85 57 86
REMARK SMILES IDX 50 87 56 88 51 89 52 90 53 91 54 92 55 93
REMARK H PARENT 13 9 13 10 76 49 46 60
REMARK Flexibility Score: inf
ROOT
ATOM      1  C   UNL A   1      33.570  27.373  25.821  1.00  0.00     0.274 C 
ENDROOT
BRANCH   1   2
ATOM      2  O   UNL A   1      33.873  26.007  26.169  1.00  0.00    -0.458 OA
BRANCH   2   3
ATOM      3  C   UNL A   1      34.184  25.224  25.103  1.00  0.00     0.366 C 
ATOM      4  O   UNL A   1      34.340  25.670  23.966  1.00  0.00    -0.245 OA
BRANCH   3   5
ATOM      5  C   UNL A   1      34.271  23.706  25.406  1.00  0.00     0.310 C 
ATOM      6  C   UNL A   1      32.027  22.987  25.933  1.00  0.00     0.304 C 
ATOM      7  N   UNL A   1      33.327  23.356  26.527  1.00  0.00    -0.317 N 
ATOM      8  S   UNL A   1      32.460  21.977  24.472  1.00  0.00    -0.079 SA
ATOM      9  H   UNL A   1      33.700  22.569  27.060  1.00  0.00     0.348 HD
ATOM     10  H   UNL A   1      33.216  24.149  27.157  1.00  0.00     0.348 HD
ATOM     11  C   UNL A   1      34.174  22.608  24.316  1.00  0.00     0.079 C 
ATOM     12  C   UNL A   1      35.079  21.401  24.667  1.00  0.00     0.030 C 
ATOM     13  C   UNL A   1      34.539  23.011  22.882  1.00  0.00     0.030 C 
BRANCH   6  14
ATOM     14  C   UNL A   1      31.098  24.161  25.616  1.00  0.00     0.162 A 
ATOM     15  C   UNL A   1      30.026  26.137  24.590  1.00  0.00     0.055 A 
ATOM     16  C   UNL A   1      29.700  25.860  25.902  1.00  0.00     0.132 A 
ATOM     17  S   UNL A   1      30.988  24.821  24.013  1.00  0.00    -0.112 S 
ATOM     18  N   UNL A   1      30.321  24.773  26.485  1.00  0.00    -0.242 NA
BRANCH  15  19
ATOM     19  C   UNL A   1      29.689  27.350  23.811  1.00  0.00    -0.007 A 
ATOM     20  C   UNL A   1      29.161  29.751  22.344  1.00  0.00    -0.045 A 
ATOM     21  C   UNL A   1      28.124  28.891  22.738  1.00  0.00     0.004 A 
ATOM     22  C   UNL A   1      30.471  29.368  22.642  1.00  0.00     0.004 A 
ATOM     23  C   UNL A   1      28.384  27.711  23.465  1.00  0.00     0.010 A 
ATOM     24  C   UNL A   1      30.727  28.192  23.363  1.00  0.00     0.010 A 
BRANCH  20  25
ATOM     25  C   UNL A   1      28.903  31.077  21.643  1.00  0.00     0.013 C 
ATOM     26  C   UNL A   1      27.846  30.970  20.543  1.00  0.00     0.012 C 
ATOM     27  C   UNL A   1      28.533  32.183  22.639  1.00  0.00     0.012 C 
ENDBRANCH  20  25
ENDBRANCH  15  19
ENDBRANCH   6  14
ENDBRANCH   3   5
ENDBRANCH   2   3
ENDBRANCH   1   2
BRANCH   1  28
ATOM     28  C   UNL A   1      33.641  28.279  27.055  1.00  0.00     0.275 C 
BRANCH  28  29
ATOM     29  O   UNL A   1      34.240  29.547  26.716  1.00  0.00    -0.458 OA
BRANCH  29  30
ATOM     30  C   UNL A   1      34.601  30.354  27.742  1.00  0.00     0.338 C 
ATOM     31  O   UNL A   1      33.897  31.158  28.333  1.00  0.00    -0.246 OA
BRANCH  30  32
ATOM     32  C   UNL A   1      35.970  29.994  28.163  1.00  0.00     0.060 A 
ATOM     33  C   UNL A   1      36.963  30.085  27.195  1.00  0.00     0.016 A 
ATOM     34  C   UNL A   1      36.300  29.548  29.439  1.00  0.00     0.016 A 
ATOM     35  C   UNL A   1      38.293  29.787  27.480  1.00  0.00     0.010 A 
ATOM     36  C   UNL A   1      37.643  29.230  29.732  1.00  0.00     0.010 A 
ATOM     37  C   UNL A   1      38.650  29.357  28.756  1.00  0.00    -0.014 A 
BRANCH  37  38
ATOM     38  C   UNL A   1      40.061  28.972  29.026  1.00  0.00     0.031 A 
ATOM     39  C   UNL A   1      40.979  29.953  29.673  1.00  0.00     0.074 A 
ATOM     40  C   UNL A   1      40.511  27.722  28.813  1.00  0.00     0.049 A 
ATOM     41  N   UNL A   1      42.273  29.880  29.833  1.00  0.00    -0.248 NA
ATOM     42  C   UNL A   1      40.355  31.152  30.247  1.00  0.00     0.031 C 
ATOM     43  C   UNL A   1      39.665  26.606  28.438  1.00  0.00     0.029 A 
ATOM     44  N   UNL A   1      41.764  27.166  28.894  1.00  0.00    -0.354 N 
ATOM     45  C   UNL A   1      42.629  31.035  30.508  1.00  0.00     0.074 A 
ATOM     46  C   UNL A   1      41.411  31.787  30.736  1.00  0.00     0.031 C 
ATOM     47  C   UNL A   1      40.405  25.497  28.296  1.00  0.00     0.029 A 
ATOM     48  C   UNL A   1      41.805  25.850  28.486  1.00  0.00     0.049 A 
ATOM     49  H   UNL A   1      42.555  27.659  29.213  1.00  0.00     0.167 HD
ATOM     50  C   UNL A   1      43.866  31.437  30.879  1.00  0.00     0.031 A 
ATOM     51  C   UNL A   1      42.852  25.042  28.225  1.00  0.00     0.031 A 
ATOM     52  C   UNL A   1      45.067  30.693  30.602  1.00  0.00     0.049 A 
ATOM     53  C   UNL A   1      44.235  25.602  28.400  1.00  0.00     0.074 A 
ATOM     54  C   UNL A   1      46.381  31.058  30.835  1.00  0.00     0.029 A 
ATOM     55  N   UNL A   1      45.101  29.432  30.021  1.00  0.00    -0.354 N 
ATOM     56  N   UNL A   1      44.590  26.759  28.907  1.00  0.00    -0.248 NA
ATOM     57  C   UNL A   1      45.359  24.770  27.948  1.00  0.00     0.031 C 
ATOM     58  C   UNL A   1      47.209  30.046  30.335  1.00  0.00     0.029 A 
ATOM     59  C   UNL A   1      46.412  29.020  29.851  1.00  0.00     0.049 A 
ATOM     60  H   UNL A   1      44.307  28.908  29.766  1.00  0.00     0.167 HD
ATOM     61  C   UNL A   1      45.978  26.785  28.859  1.00  0.00     0.074 A 
ATOM     62  C   UNL A   1      46.399  25.524  28.280  1.00  0.00     0.031 C 
ATOM     63  C   UNL A   1      46.821  27.766  29.267  1.00  0.00     0.031 A 
BRANCH  50  64
ATOM     64  C   UNL A   1      43.966  32.799  31.503  1.00  0.00    -0.014 A 
ATOM     65  C   UNL A   1      43.894  32.984  32.895  1.00  0.00     0.010 A 
ATOM     66  C   UNL A   1      44.075  33.922  30.663  1.00  0.00     0.010 A 
ATOM     67  C   UNL A   1      43.866  34.275  33.431  1.00  0.00     0.020 A 
ATOM     68  C   UNL A   1      44.076  35.211  31.197  1.00  0.00     0.020 A 
ATOM     69  C   UNL A   1      43.944  35.380  32.577  1.00  0.00     0.054 A 
BRANCH  69  70
ATOM     70  S   UNL A   1      43.861  37.045  33.290  1.00  0.00     0.124 S 
ATOM     71  O   UNL A   1      42.560  37.023  33.953  1.00  0.00    -0.237 OA
ATOM     72  O   UNL A   1      45.019  37.070  34.180  1.00  0.00    -0.237 OA
ATOM     73  O   UNL A   1      43.953  37.926  32.127  1.00  0.00    -0.744 OA
ENDBRANCH  69  70
ENDBRANCH  50  64
BRANCH  51  74
ATOM     74  C   UNL A   1      42.638  23.669  27.686  1.00  0.00    -0.014 A 
ATOM     75  C   UNL A   1      42.620  23.430  26.301  1.00  0.00     0.010 A 
ATOM     76  C   UNL A   1      42.441  22.584  28.562  1.00  0.00     0.010 A 
ATOM     77  C   UNL A   1      42.411  22.138  25.804  1.00  0.00     0.020 A 
ATOM     78  C   UNL A   1      42.256  21.287  28.072  1.00  0.00     0.020 A 
ATOM     79  C   UNL A   1      42.236  21.073  26.694  1.00  0.00     0.054 A 
BRANCH  79  80
ATOM     80  S   UNL A   1      42.028  19.397  26.029  1.00  0.00     0.124 S 
ATOM     81  O   UNL A   1      42.518  18.569  27.128  1.00  0.00    -0.237 OA
ATOM     82  O   UNL A   1      40.590  19.334  25.781  1.00  0.00    -0.237 OA
ATOM     83  O   UNL A   1      42.860  19.400  24.828  1.00  0.00    -0.744 OA
ENDBRANCH  79  80
ENDBRANCH  51  74
BRANCH  63  84
ATOM     84  C   UNL A   1      48.296  27.505  29.133  1.00  0.00    -0.014 A 
ATOM     85  C   UNL A   1      49.030  28.010  28.045  1.00  0.00     0.010 A 
ATOM     86  C   UNL A   1      48.968  26.803  30.149  1.00  0.00     0.010 A 
ATOM     87  C   UNL A   1      50.410  27.805  27.971  1.00  0.00     0.020 A 
ATOM     88  C   UNL A   1      50.352  26.621  30.092  1.00  0.00     0.020 A 
ATOM     89  C   UNL A   1      51.063  27.118  28.999  1.00  0.00     0.054 A 
BRANCH  89  90
ATOM     90  S   UNL A   1      52.866  26.932  28.915  1.00  0.00     0.124 S 
ATOM     91  O   UNL A   1      53.014  25.808  27.995  1.00  0.00    -0.237 OA
ATOM     92  O   UNL A   1      53.296  28.228  28.398  1.00  0.00    -0.237 OA
ATOM     93  O   UNL A   1      53.251  26.660  30.298  1.00  0.00    -0.744 OA
ENDBRANCH  89  90
ENDBRANCH  63  84
ENDBRANCH  37  38
ENDBRANCH  30  32
ENDBRANCH  29  30
ENDBRANCH  28  29
ENDBRANCH   1  28
TORSDOF 17
ENDMDL
MODEL 2
REMARK VINA RESULT:     -11.4      3.298      9.944
REMARK SMILES CC(C)c1ccc(-c2cnc([C@@H]3[NH2+][C@H](C(=O)OCCOC(=O)c4ccc(-c5c6nc(c(-c7ccc(S(=O)(=O)[O-])cc7)c7ccc([nH]7)c(-c7ccc(S(=O)(=O)[O-])cc7)c7nc(c(-c8ccc(S(=O)(=O)[O-])cc8)c8ccc5[nH]8)C=C7)C=C6)cc4)C(C)(C)S3)s2)cc1
REMARK SMILES IDX 18 1 17 2 15 3 16 4 14 5 12 6 13 7 86 8 83 11 84 12 85 13
REMARK SMILES IDX 11 14 8 15 9 16 87 17 10 18 7 19 4 20 5 21 89 22 6 23 88 24
REMARK SMILES IDX 2 25 1 26 3 27 19 28 20 29 21 30 22 31 23 32 24 33 82 34
REMARK SMILES IDX 25 35 81 36 26 37 27 38 28 39 75 40 29 41 80 42 74 43 76 44
REMARK SMILES IDX 30 45 79 46 73 47 72 48 31 50 61 51 42 52 60 53 43 54 46 55
REMARK SMILES IDX 59 56 77 57 44 58 45 59 58 61 78 62 47 63 32 64 33 65 41 66
REMARK SMILES IDX 34 67 40 68 35 69 36 70 37 71 38 72 39 73 62 74 63 75 71 76
REMARK SMILES IDX 64 77 70 78 65 79 66 80 67 81 68 82 69 83 48 84 49 85 57 86
REMARK SMILES IDX 50 87 56 88 51 89 52 90 53 91 54 92 55 93
REMARK H PARENT 13 9 13 10 76 49 46 60
REMARK Flexibility Score: inf
ROOT
ATOM      1  C   UNL A   1      35.222  24.075  25.117  1.00  0.00     0.274 C 
ENDROOT
BRANCH   1   2
ATOM      2  O   UNL A   1      34.864  25.200  24.290  1.00  0.00    -0.458 OA
BRANCH   2   3
ATOM      3  C   UNL A   1      33.902  25.994  24.828  1.00  0.00     0.366 C 
ATOM      4  O   UNL A   1      33.694  26.068  26.040  1.00  0.00    -0.245 OA
BRANCH   3   5
ATOM      5  C   UNL A   1      33.033  26.765  23.800  1.00  0.00     0.310 C 
ATOM      6  C   UNL A   1      31.588  25.129  22.768  1.00  0.00     0.304 C 
ATOM      7  N   UNL A   1      32.823  25.914  22.574  1.00  0.00    -0.317 N 
ATOM      8  S   UNL A   1      30.415  26.299  23.539  1.00  0.00    -0.079 SA
ATOM      9  H   UNL A   1      32.727  26.512  21.752  1.00  0.00     0.348 HD
ATOM     10  H   UNL A   1      33.619  25.294  22.432  1.00  0.00     0.348 HD
ATOM     11  C   UNL A   1      31.694  27.457  24.159  1.00  0.00     0.079 C 
ATOM     12  C   UNL A   1      31.501  28.749  23.328  1.00  0.00     0.030 C 
ATOM     13  C   UNL A   1      31.483  27.858  25.624  1.00  0.00     0.030 C 
BRANCH   6  14
ATOM     14  C   UNL A   1      31.762  23.825  23.552  1.00  0.00     0.162 A 
ATOM     15  C   UNL A   1      32.225  21.490  24.211  1.00  0.00     0.055 A 
ATOM     16  C   UNL A   1      31.448  22.239  25.071  1.00  0.00     0.132 A 
ATOM     17  S   UNL A   1      32.803  22.558  22.981  1.00  0.00    -0.112 S 
ATOM     18  N   UNL A   1      31.165  23.536  24.690  1.00  0.00    -0.242 NA
BRANCH  15  19
ATOM     19  C   UNL A   1      32.483  20.032  24.264  1.00  0.00    -0.007 A 
ATOM     20  C   UNL A   1      33.042  17.234  24.490  1.00  0.00    -0.045 A 
ATOM     21  C   UNL A   1      32.799  17.833  23.245  1.00  0.00     0.004 A 
ATOM     22  C   UNL A   1      32.947  18.039  25.628  1.00  0.00     0.004 A 
ATOM     23  C   UNL A   1      32.528  19.212  23.132  1.00  0.00     0.010 A 
ATOM     24  C   UNL A   1      32.675  19.411  25.514  1.00  0.00     0.010 A 
BRANCH  20  25
ATOM     25  C   UNL A   1      33.430  15.769  24.632  1.00  0.00     0.013 C 
ATOM     26  C   UNL A   1      34.901  15.580  25.004  1.00  0.00     0.012 C 
ATOM     27  C   UNL A   1      32.525  15.036  25.628  1.00  0.00     0.012 C 
ENDBRANCH  20  25
ENDBRANCH  15  19
ENDBRANCH   6  14
ENDBRANCH   3   5
ENDBRANCH   2   3
ENDBRANCH   1   2
BRANCH   1  28
ATOM     28  C   UNL A   1      36.697  23.703  24.923  1.00  0.00     0.275 C 
BRANCH  28  29
ATOM     29  O   UNL A   1      37.257  23.203  26.155  1.00  0.00    -0.458 OA
BRANCH  29  30
ATOM     30  C   UNL A   1      38.605  23.095  26.222  1.00  0.00     0.338 C 
ATOM     31  O   UNL A   1      39.303  22.225  25.724  1.00  0.00    -0.246 OA
BRANCH  30  32
ATOM     32  C   UNL A   1      39.141  24.310  26.868  1.00  0.00     0.060 A 
ATOM     33  C   UNL A   1      38.735  24.549  28.176  1.00  0.00     0.016 A 
ATOM     34  C   UNL A   1      39.982  25.221  26.238  1.00  0.00     0.016 A 
ATOM     35  C   UNL A   1      39.189  25.655  28.892  1.00  0.00     0.010 A 
ATOM     36  C   UNL A   1      40.434  26.350  26.951  1.00  0.00     0.010 A 
ATOM     37  C   UNL A   1      40.047  26.570  28.287  1.00  0.00    -0.014 A 
BRANCH  37  38
ATOM     38  C   UNL A   1      40.464  27.783  29.039  1.00  0.00     0.031 A 
ATOM     39  C   UNL A   1      41.816  27.830  29.667  1.00  0.00     0.074 A 
ATOM     40  C   UNL A   1      39.706  28.894  29.075  1.00  0.00     0.049 A 
ATOM     41  N   UNL A   1      42.300  28.710  30.502  1.00  0.00    -0.248 NA
ATOM     42  C   UNL A   1      42.755  26.772  29.275  1.00  0.00     0.031 C 
ATOM     43  C   UNL A   1      38.498  29.079  28.295  1.00  0.00     0.029 A 
ATOM     44  N   UNL A   1      39.831  30.075  29.763  1.00  0.00    -0.354 N 
ATOM     45  C   UNL A   1      43.598  28.302  30.758  1.00  0.00     0.074 A 
ATOM     46  C   UNL A   1      43.829  27.101  29.980  1.00  0.00     0.031 C 
ATOM     47  C   UNL A   1      37.967  30.284  28.551  1.00  0.00     0.029 A 
ATOM     48  C   UNL A   1      38.761  30.926  29.590  1.00  0.00     0.049 A 
ATOM     49  H   UNL A   1      40.610  30.294  30.325  1.00  0.00     0.167 HD
ATOM     50  C   UNL A   1      44.503  28.871  31.588  1.00  0.00     0.031 A 
ATOM     51  C   UNL A   1      38.419  32.054  30.242  1.00  0.00     0.031 A 
ATOM     52  C   UNL A   1      44.236  30.040  32.385  1.00  0.00     0.049 A 
ATOM     53  C   UNL A   1      39.318  32.530  31.347  1.00  0.00     0.074 A 
ATOM     54  C   UNL A   1      45.040  30.636  33.339  1.00  0.00     0.029 A 
ATOM     55  N   UNL A   1      43.067  30.787  32.325  1.00  0.00    -0.354 N 
ATOM     56  N   UNL A   1      40.493  32.065  31.702  1.00  0.00    -0.248 NA
ATOM     57  C   UNL A   1      38.845  33.659  32.160  1.00  0.00     0.031 C 
ATOM     58  C   UNL A   1      44.331  31.703  33.902  1.00  0.00     0.029 A 
ATOM     59  C   UNL A   1      43.111  31.816  33.252  1.00  0.00     0.049 A 
ATOM     60  H   UNL A   1      42.316  30.612  31.713  1.00  0.00     0.167 HD
ATOM     61  C   UNL A   1      40.912  32.859  32.761  1.00  0.00     0.074 A 
ATOM     62  C   UNL A   1      39.867  33.839  32.986  1.00  0.00     0.031 C 
ATOM     63  C   UNL A   1      42.063  32.782  33.473  1.00  0.00     0.031 A 
BRANCH  50  64
ATOM     64  C   UNL A   1      45.805  28.143  31.755  1.00  0.00    -0.014 A 
ATOM     65  C   UNL A   1      46.915  28.411  30.934  1.00  0.00     0.010 A 
ATOM     66  C   UNL A   1      45.893  27.125  32.721  1.00  0.00     0.010 A 
ATOM     67  C   UNL A   1      48.069  27.628  31.036  1.00  0.00     0.020 A 
ATOM     68  C   UNL A   1      47.054  26.361  32.845  1.00  0.00     0.020 A 
ATOM     69  C   UNL A   1      48.125  26.599  31.982  1.00  0.00     0.054 A 
BRANCH  69  70
ATOM     70  S   UNL A   1      49.615  25.569  32.068  1.00  0.00     0.124 S 
ATOM     71  O   UNL A   1      49.182  24.489  32.950  1.00  0.00    -0.237 OA
ATOM     72  O   UNL A   1      49.825  25.194  30.672  1.00  0.00    -0.237 OA
ATOM     73  O   UNL A   1      50.624  26.465  32.628  1.00  0.00    -0.744 OA
ENDBRANCH  69  70
ENDBRANCH  50  64
BRANCH  51  74
ATOM     74  C   UNL A   1      37.136  32.750  29.937  1.00  0.00    -0.014 A 
ATOM     75  C   UNL A   1      35.972  32.479  30.678  1.00  0.00     0.010 A 
ATOM     76  C   UNL A   1      37.068  33.691  28.891  1.00  0.00     0.010 A 
ATOM     77  C   UNL A   1      34.770  33.133  30.380  1.00  0.00     0.020 A 
ATOM     78  C   UNL A   1      35.876  34.365  28.605  1.00  0.00     0.020 A 
ATOM     79  C   UNL A   1      34.732  34.076  29.348  1.00  0.00     0.054 A 
BRANCH  79  80
ATOM     80  S   UNL A   1      33.179  34.956  29.019  1.00  0.00     0.124 S 
ATOM     81  O   UNL A   1      32.541  34.953  30.331  1.00  0.00    -0.237 OA
ATOM     82  O   UNL A   1      33.650  36.256  28.547  1.00  0.00    -0.237 OA
ATOM     83  O   UNL A   1      32.528  34.132  28.003  1.00  0.00    -0.744 OA
ENDBRANCH  79  80
ENDBRANCH  51  74
BRANCH  63  84
ATOM     84  C   UNL A   1      42.275  33.810  34.552  1.00  0.00    -0.014 A 
ATOM     85  C   UNL A   1      41.908  33.554  35.884  1.00  0.00     0.010 A 
ATOM     86  C   UNL A   1      42.916  35.020  34.235  1.00  0.00     0.010 A 
ATOM     87  C   UNL A   1      42.168  34.500  36.880  1.00  0.00     0.020 A 
ATOM     88  C   UNL A   1      43.202  35.956  35.232  1.00  0.00     0.020 A 
ATOM     89  C   UNL A   1      42.820  35.691  36.548  1.00  0.00     0.054 A 
BRANCH  89  90
ATOM     90  S   UNL A   1      43.213  36.868  37.871  1.00  0.00     0.124 S 
ATOM     91  O   UNL A   1      43.808  37.976  37.128  1.00  0.00    -0.237 OA
ATOM     92  O   UNL A   1      41.903  37.137  38.457  1.00  0.00    -0.237 OA
ATOM     93  O   UNL A   1      44.134  36.129  38.731  1.00  0.00    -0.744 OA
ENDBRANCH  89  90
ENDBRANCH  63  84
ENDBRANCH  37  38
ENDBRANCH  30  32
ENDBRANCH  29  30
ENDBRANCH  28  29
ENDBRANCH   1  28
TORSDOF 17
ENDMDL
MODEL 3
REMARK VINA RESULT:     -10.8      3.040      8.109
REMARK SMILES CC(C)c1ccc(-c2cnc([C@@H]3[NH2+][C@H](C(=O)OCCOC(=O)c4ccc(-c5c6nc(c(-c7ccc(S(=O)(=O)[O-])cc7)c7ccc([nH]7)c(-c7ccc(S(=O)(=O)[O-])cc7)c7nc(c(-c8ccc(S(=O)(=O)[O-])cc8)c8ccc5[nH]8)C=C7)C=C6)cc4)C(C)(C)S3)s2)cc1
REMARK SMILES IDX 18 1 17 2 15 3 16 4 14 5 12 6 13 7 86 8 83 11 84 12 85 13
REMARK SMILES IDX 11 14 8 15 9 16 87 17 10 18 7 19 4 20 5 21 89 22 6 23 88 24
REMARK SMILES IDX 2 25 1 26 3 27 19 28 20 29 21 30 22 31 23 32 24 33 82 34
REMARK SMILES IDX 25 35 81 36 26 37 27 38 28 39 75 40 29 41 80 42 74 43 76 44
REMARK SMILES IDX 30 45 79 46 73 47 72 48 31 50 61 51 42 52 60 53 43 54 46 55
REMARK SMILES IDX 59 56 77 57 44 58 45 59 58 61 78 62 47 63 32 64 33 65 41 66
REMARK SMILES IDX 34 67 40 68 35 69 36 70 37 71 38 72 39 73 62 74 63 75 71 76
REMARK SMILES IDX 64 77 70 78 65 79 66 80 67 81 68 82 69 83 48 84 49 85 57 86
REMARK SMILES IDX 50 87 56 88 51 89 52 90 53 91 54 92 55 93
REMARK H PARENT 13 9 13 10 76 49 46 60
REMARK Flexibility Score: inf
ROOT
ATOM      1  C   UNL A   1      35.523  24.531  25.721  1.00  0.00     0.274 C 
ENDROOT
BRANCH   1   2
ATOM      2  O   UNL A   1      34.741  25.033  24.619  1.00  0.00    -0.458 OA
BRANCH   2   3
ATOM      3  C   UNL A   1      33.943  26.082  24.944  1.00  0.00     0.366 C 
ATOM      4  O   UNL A   1      33.660  26.374  26.107  1.00  0.00    -0.245 OA
BRANCH   3   5
ATOM      5  C   UNL A   1      33.356  26.861  23.739  1.00  0.00     0.310 C 
ATOM      6  C   UNL A   1      32.127  25.252  22.423  1.00  0.00     0.304 C 
ATOM      7  N   UNL A   1      33.400  25.996  22.505  1.00  0.00    -0.317 N 
ATOM      8  S   UNL A   1      30.850  26.471  22.896  1.00  0.00    -0.079 SA
ATOM      9  H   UNL A   1      33.512  26.582  21.677  1.00  0.00     0.348 HD
ATOM     10  H   UNL A   1      34.186  25.349  22.554  1.00  0.00     0.348 HD
ATOM     11  C   UNL A   1      31.995  27.600  23.777  1.00  0.00     0.079 C 
ATOM     12  C   UNL A   1      32.039  28.883  22.910  1.00  0.00     0.030 C 
ATOM     13  C   UNL A   1      31.471  28.034  25.152  1.00  0.00     0.030 C 
BRANCH   6  14
ATOM     14  C   UNL A   1      32.075  23.958  23.239  1.00  0.00     0.162 A 
ATOM     15  C   UNL A   1      32.307  21.624  24.015  1.00  0.00     0.055 A 
ATOM     16  C   UNL A   1      31.365  22.404  24.655  1.00  0.00     0.132 A 
ATOM     17  S   UNL A   1      33.191  22.659  22.948  1.00  0.00    -0.112 S 
ATOM     18  N   UNL A   1      31.215  23.700  24.203  1.00  0.00    -0.242 NA
BRANCH  15  19
ATOM     19  C   UNL A   1      32.508  20.162  24.143  1.00  0.00    -0.007 A 
ATOM     20  C   UNL A   1      32.966  17.360  24.510  1.00  0.00    -0.045 A 
ATOM     21  C   UNL A   1      32.665  17.893  23.247  1.00  0.00     0.004 A 
ATOM     22  C   UNL A   1      32.980  18.237  25.598  1.00  0.00     0.004 A 
ATOM     23  C   UNL A   1      32.444  19.274  23.065  1.00  0.00     0.010 A 
ATOM     24  C   UNL A   1      32.757  19.610  25.415  1.00  0.00     0.010 A 
BRANCH  20  25
ATOM     25  C   UNL A   1      33.302  15.891  24.719  1.00  0.00     0.013 C 
ATOM     26  C   UNL A   1      34.740  15.674  25.194  1.00  0.00     0.012 C 
ATOM     27  C   UNL A   1      32.313  15.212  25.674  1.00  0.00     0.012 C 
ENDBRANCH  20  25
ENDBRANCH  15  19
ENDBRANCH   6  14
ENDBRANCH   3   5
ENDBRANCH   2   3
ENDBRANCH   1   2
BRANCH   1  28
ATOM     28  C   UNL A   1      36.267  23.250  25.324  1.00  0.00     0.275 C 
BRANCH  28  29
ATOM     29  O   UNL A   1      37.666  23.525  25.109  1.00  0.00    -0.458 OA
BRANCH  29  30
ATOM     30  C   UNL A   1      38.538  23.052  26.030  1.00  0.00     0.338 C 
ATOM     31  O   UNL A   1      38.871  21.890  26.205  1.00  0.00    -0.246 OA
BRANCH  30  32
ATOM     32  C   UNL A   1      39.174  24.200  26.708  1.00  0.00     0.060 A 
ATOM     33  C   UNL A   1      39.914  25.063  25.907  1.00  0.00     0.016 A 
ATOM     34  C   UNL A   1      39.100  24.436  28.076  1.00  0.00     0.016 A 
ATOM     35  C   UNL A   1      40.545  26.188  26.432  1.00  0.00     0.010 A 
ATOM     36  C   UNL A   1      39.748  25.565  28.618  1.00  0.00     0.010 A 
ATOM     37  C   UNL A   1      40.468  26.454  27.797  1.00  0.00    -0.014 A 
BRANCH  37  38
ATOM     38  C   UNL A   1      41.207  27.618  28.354  1.00  0.00     0.031 A 
ATOM     39  C   UNL A   1      40.447  28.766  28.927  1.00  0.00     0.074 A 
ATOM     40  C   UNL A   1      42.548  27.622  28.467  1.00  0.00     0.049 A 
ATOM     41  N   UNL A   1      40.890  29.937  29.298  1.00  0.00    -0.248 NA
ATOM     42  C   UNL A   1      39.011  28.553  29.146  1.00  0.00     0.031 C 
ATOM     43  C   UNL A   1      43.389  26.473  28.195  1.00  0.00     0.029 A 
ATOM     44  N   UNL A   1      43.438  28.593  28.850  1.00  0.00    -0.354 N 
ATOM     45  C   UNL A   1      39.782  30.617  29.776  1.00  0.00     0.074 A 
ATOM     46  C   UNL A   1      38.649  29.722  29.657  1.00  0.00     0.031 C 
ATOM     47  C   UNL A   1      44.677  26.791  28.393  1.00  0.00     0.029 A 
ATOM     48  C   UNL A   1      44.756  28.207  28.725  1.00  0.00     0.049 A 
ATOM     49  H   UNL A   1      43.164  29.478  29.184  1.00  0.00     0.167 HD
ATOM     50  C   UNL A   1      39.721  31.884  30.247  1.00  0.00     0.031 A 
ATOM     51  C   UNL A   1      45.894  28.926  28.796  1.00  0.00     0.031 A 
ATOM     52  C   UNL A   1      40.854  32.770  30.314  1.00  0.00     0.049 A 
ATOM     53  C   UNL A   1      45.782  30.399  29.068  1.00  0.00     0.074 A 
ATOM     54  C   UNL A   1      40.884  34.106  30.671  1.00  0.00     0.029 A 
ATOM     55  N   UNL A   1      42.159  32.409  30.008  1.00  0.00    -0.354 N 
ATOM     56  N   UNL A   1      44.713  31.093  29.383  1.00  0.00    -0.248 NA
ATOM     57  C   UNL A   1      47.013  31.196  28.972  1.00  0.00     0.031 C 
ATOM     58  C   UNL A   1      42.196  34.568  30.517  1.00  0.00     0.029 A 
ATOM     59  C   UNL A   1      42.998  33.505  30.130  1.00  0.00     0.049 A 
ATOM     60  H   UNL A   1      42.447  31.506  29.743  1.00  0.00     0.167 HD
ATOM     61  C   UNL A   1      45.145  32.402  29.548  1.00  0.00     0.074 A 
ATOM     62  C   UNL A   1      46.575  32.403  29.304  1.00  0.00     0.031 C 
ATOM     63  C   UNL A   1      44.419  33.498  29.878  1.00  0.00     0.031 A 
BRANCH  50  64
ATOM     64  C   UNL A   1      38.355  32.401  30.594  1.00  0.00    -0.014 A 
ATOM     65  C   UNL A   1      37.535  33.027  29.639  1.00  0.00     0.010 A 
ATOM     66  C   UNL A   1      37.912  32.307  31.926  1.00  0.00     0.010 A 
ATOM     67  C   UNL A   1      36.322  33.605  30.025  1.00  0.00     0.020 A 
ATOM     68  C   UNL A   1      36.689  32.858  32.309  1.00  0.00     0.020 A 
ATOM     69  C   UNL A   1      35.914  33.529  31.361  1.00  0.00     0.054 A 
BRANCH  69  70
ATOM     70  S   UNL A   1      34.359  34.324  31.849  1.00  0.00     0.124 S 
ATOM     71  O   UNL A   1      34.837  35.543  32.497  1.00  0.00    -0.237 OA
ATOM     72  O   UNL A   1      33.684  34.517  30.569  1.00  0.00    -0.237 OA
ATOM     73  O   UNL A   1      33.735  33.348  32.739  1.00  0.00    -0.744 OA
ENDBRANCH  69  70
ENDBRANCH  50  64
BRANCH  51  74
ATOM     74  C   UNL A   1      47.214  28.291  28.515  1.00  0.00    -0.014 A 
ATOM     75  C   UNL A   1      47.716  28.219  27.204  1.00  0.00     0.010 A 
ATOM     76  C   UNL A   1      47.978  27.745  29.564  1.00  0.00     0.010 A 
ATOM     77  C   UNL A   1      48.954  27.614  26.949  1.00  0.00     0.020 A 
ATOM     78  C   UNL A   1      49.225  27.162  29.318  1.00  0.00     0.020 A 
ATOM     79  C   UNL A   1      49.703  27.095  28.009  1.00  0.00     0.054 A 
BRANCH  79  80
ATOM     80  S   UNL A   1      51.331  26.372  27.664  1.00  0.00     0.124 S 
ATOM     81  O   UNL A   1      51.769  27.142  26.504  1.00  0.00    -0.237 OA
ATOM     82  O   UNL A   1      52.058  26.627  28.905  1.00  0.00    -0.237 OA
ATOM     83  O   UNL A   1      51.032  24.965  27.405  1.00  0.00    -0.744 OA
ENDBRANCH  79  80
ENDBRANCH  51  74
BRANCH  63  84
ATOM     84  C   UNL A   1      45.162  34.797  30.030  1.00  0.00    -0.014 A 
ATOM     85  C   UNL A   1      45.756  35.158  31.252  1.00  0.00     0.010 A 
ATOM     86  C   UNL A   1      45.326  35.633  28.912  1.00  0.00     0.010 A 
ATOM     87  C   UNL A   1      46.491  36.342  31.354  1.00  0.00     0.020 A 
ATOM     88  C   UNL A   1      46.084  36.803  29.003  1.00  0.00     0.020 A 
ATOM     89  C   UNL A   1      46.656  37.153  30.226  1.00  0.00     0.054 A 
BRANCH  89  90
ATOM     90  S   UNL A   1      47.678  38.645  30.368  1.00  0.00     0.124 S 
ATOM     91  O   UNL A   1      46.851  39.645  29.698  1.00  0.00    -0.237 OA
ATOM     92  O   UNL A   1      47.810  38.805  31.814  1.00  0.00    -0.237 OA
ATOM     93  O   UNL A   1      48.911  38.288  29.672  1.00  0.00    -0.744 OA
ENDBRANCH  89  90
ENDBRANCH  63  84
ENDBRANCH  37  38
ENDBRANCH  30  32
ENDBRANCH  29  30
ENDBRANCH  28  29
ENDBRANCH   1  28
TORSDOF 17
ENDMDL
