MODEL 1
REMARK VINA RESULT:     -11.1      0.000      0.000
REMARK SMILES Cc1cc(C(=O)N[C@H]2C=C[C@H](C(=O)OCCOC(=O)c3ccc(-c4c5nc(c(-c6ccc(S(=O)(=O)[O-])cc6)c6ccc([nH]6)c(-c6ccc(S(=O)(=O)[O-])cc6)c6nc(c(-c7ccc(S(=O)(=O)[O-])cc7)c7ccc4[nH]7)C=C6)C=C5)cc3)C2)ccc1F
REMARK SMILES IDX 16 1 15 2 14 3 12 4 13 5 11 6 8 7 9 8 80 9 10 10 7 11 5 12
REMARK SMILES IDX 6 13 4 15 1 16 2 17 3 18 83 19 82 20 84 21 81 22 17 23 18 24
REMARK SMILES IDX 19 25 20 26 21 27 79 28 22 29 78 30 23 31 24 32 25 33 72 34
REMARK SMILES IDX 26 35 77 36 71 37 73 38 27 39 76 40 70 41 69 42 28 44 58 45
REMARK SMILES IDX 39 46 57 47 40 48 43 49 56 50 74 51 41 52 42 53 55 55 75 56
REMARK SMILES IDX 44 57 29 58 30 59 38 60 31 61 37 62 32 63 33 64 34 65 35 66
REMARK SMILES IDX 36 67 59 68 60 69 68 70 61 71 67 72 62 73 63 74 64 75 65 76
REMARK SMILES IDX 66 77 45 78 46 79 54 80 47 81 53 82 48 83 49 84 50 85 51 86
REMARK SMILES IDX 52 87
REMARK H PARENT 7 14 73 43 43 54
REMARK Flexibility Score: inf
ROOT
ATOM      1  C   UNL A   1      32.309  28.924  27.215  1.00  0.00     0.275 C 
ENDROOT
BRANCH   1   2
ATOM      2  C   UNL A   1      31.709  27.519  27.094  1.00  0.00     0.274 C 
BRANCH   2   3
ATOM      3  O   UNL A   1      31.065  27.348  25.817  1.00  0.00    -0.462 OA
BRANCH   3   4
ATOM      4  C   UNL A   1      30.303  26.229  25.697  1.00  0.00     0.312 C 
ATOM      5  O   UNL A   1      30.077  25.446  26.612  1.00  0.00    -0.252 OA
BRANCH   4   6
ATOM      6  C   UNL A   1      29.721  26.089  24.289  1.00  0.00     0.124 C 
ATOM      7  C   UNL A   1      31.678  25.614  22.966  1.00  0.00     0.106 C 
ATOM      8  C   UNL A   1      31.095  26.932  22.566  1.00  0.00    -0.006 C 
ATOM      9  C   UNL A   1      30.446  24.942  23.574  1.00  0.00     0.048 C 
ATOM     10  C   UNL A   1      30.052  27.229  23.361  1.00  0.00    -0.014 C 
BRANCH   7  11
ATOM     11  N   UNL A   1      32.244  24.868  21.885  1.00  0.00    -0.346 N 
ATOM     12  C   UNL A   1      33.168  23.845  21.900  1.00  0.00     0.251 C 
ATOM     13  O   UNL A   1      33.463  23.370  20.800  1.00  0.00    -0.269 OA
ATOM     14  H   UNL A   1      31.924  25.126  20.990  1.00  0.00     0.164 HD
BRANCH  12  15
ATOM     15  C   UNL A   1      33.804  23.261  23.138  1.00  0.00     0.040 A 
ATOM     16  C   UNL A   1      36.510  23.852  25.773  1.00  0.00     0.047 C 
ATOM     17  C   UNL A   1      35.408  23.185  25.004  1.00  0.00    -0.015 A 
ATOM     18  C   UNL A   1      34.914  23.771  23.825  1.00  0.00     0.020 A 
ATOM     19  C   UNL A   1      34.806  22.025  25.472  1.00  0.00     0.126 A 
ATOM     20  C   UNL A   1      33.738  21.457  24.791  1.00  0.00     0.040 A 
ATOM     21  F   UNL A   1      35.244  21.456  26.604  1.00  0.00    -0.207 F 
ATOM     22  C   UNL A   1      33.230  22.081  23.643  1.00  0.00     0.017 A 
ENDBRANCH  12  15
ENDBRANCH   7  11
ENDBRANCH   4   6
ENDBRANCH   3   4
ENDBRANCH   2   3
ENDBRANCH   1   2
BRANCH   1  23
ATOM     23  O   UNL A   1      33.748  28.907  27.314  1.00  0.00    -0.458 OA
BRANCH  23  24
ATOM     24  C   UNL A   1      34.314  30.069  27.720  1.00  0.00     0.338 C 
ATOM     25  O   UNL A   1      33.755  31.154  27.825  1.00  0.00    -0.246 OA
BRANCH  24  26
ATOM     26  C   UNL A   1      35.706  29.853  28.156  1.00  0.00     0.060 A 
ATOM     27  C   UNL A   1      36.715  29.999  27.199  1.00  0.00     0.016 A 
ATOM     28  C   UNL A   1      36.025  29.437  29.452  1.00  0.00     0.016 A 
ATOM     29  C   UNL A   1      38.048  29.769  27.537  1.00  0.00     0.010 A 
ATOM     30  C   UNL A   1      37.361  29.167  29.781  1.00  0.00     0.010 A 
ATOM     31  C   UNL A   1      38.378  29.330  28.825  1.00  0.00    -0.014 A 
BRANCH  31  32
ATOM     32  C   UNL A   1      39.787  28.984  29.129  1.00  0.00     0.031 A 
ATOM     33  C   UNL A   1      40.644  29.947  29.895  1.00  0.00     0.074 A 
ATOM     34  C   UNL A   1      40.283  27.788  28.761  1.00  0.00     0.049 A 
ATOM     35  N   UNL A   1      41.885  29.814  30.285  1.00  0.00    -0.248 NA
ATOM     36  C   UNL A   1      40.026  31.230  30.265  1.00  0.00     0.031 C 
ATOM     37  C   UNL A   1      39.539  26.766  28.032  1.00  0.00     0.029 A 
ATOM     38  N   UNL A   1      41.520  27.229  28.961  1.00  0.00    -0.354 N 
ATOM     39  C   UNL A   1      42.208  31.001  30.928  1.00  0.00     0.074 A 
ATOM     40  C   UNL A   1      41.030  31.843  30.876  1.00  0.00     0.031 C 
ATOM     41  C   UNL A   1      40.327  25.692  27.866  1.00  0.00     0.029 A 
ATOM     42  C   UNL A   1      41.633  25.952  28.462  1.00  0.00     0.049 A 
ATOM     43  H   UNL A   1      42.256  27.696  29.418  1.00  0.00     0.167 HD
ATOM     44  C   UNL A   1      43.384  31.364  31.495  1.00  0.00     0.031 A 
ATOM     45  C   UNL A   1      42.668  25.089  28.482  1.00  0.00     0.031 A 
ATOM     46  C   UNL A   1      44.562  30.536  31.520  1.00  0.00     0.049 A 
ATOM     47  C   UNL A   1      43.967  25.520  29.108  1.00  0.00     0.074 A 
ATOM     48  C   UNL A   1      45.806  30.826  32.056  1.00  0.00     0.029 A 
ATOM     49  N   UNL A   1      44.647  29.260  30.982  1.00  0.00    -0.354 N 
ATOM     50  N   UNL A   1      44.254  26.647  29.715  1.00  0.00    -0.248 NA
ATOM     51  C   UNL A   1      45.086  24.570  29.038  1.00  0.00     0.031 C 
ATOM     52  C   UNL A   1      46.656  29.745  31.800  1.00  0.00     0.029 A 
ATOM     53  C   UNL A   1      45.927  28.759  31.154  1.00  0.00     0.049 A 
ATOM     54  H   UNL A   1      43.907  28.782  30.545  1.00  0.00     0.167 HD
ATOM     55  C   UNL A   1      45.587  26.542  30.098  1.00  0.00     0.074 A 
ATOM     56  C   UNL A   1      46.039  25.229  29.684  1.00  0.00     0.031 C 
ATOM     57  C   UNL A   1      46.368  27.455  30.724  1.00  0.00     0.031 A 
BRANCH  44  58
ATOM     58  C   UNL A   1      43.468  32.748  32.077  1.00  0.00    -0.014 A 
ATOM     59  C   UNL A   1      43.257  32.979  33.448  1.00  0.00     0.010 A 
ATOM     60  C   UNL A   1      43.781  33.832  31.238  1.00  0.00     0.010 A 
ATOM     61  C   UNL A   1      43.315  34.277  33.961  1.00  0.00     0.020 A 
ATOM     62  C   UNL A   1      43.863  35.128  31.752  1.00  0.00     0.020 A 
ATOM     63  C   UNL A   1      43.610  35.345  33.108  1.00  0.00     0.054 A 
BRANCH  63  64
ATOM     64  S   UNL A   1      43.682  37.021  33.797  1.00  0.00     0.124 S 
ATOM     65  O   UNL A   1      43.829  37.835  32.593  1.00  0.00    -0.237 OA
ATOM     66  O   UNL A   1      42.399  37.142  34.484  1.00  0.00    -0.237 OA
ATOM     67  O   UNL A   1      44.852  36.987  34.672  1.00  0.00    -0.744 OA
ENDBRANCH  63  64
ENDBRANCH  44  58
BRANCH  45  68
ATOM     68  C   UNL A   1      42.522  23.730  27.891  1.00  0.00    -0.014 A 
ATOM     69  C   UNL A   1      42.707  23.528  26.511  1.00  0.00     0.010 A 
ATOM     70  C   UNL A   1      42.202  22.627  28.703  1.00  0.00     0.010 A 
ATOM     71  C   UNL A   1      42.564  22.253  25.954  1.00  0.00     0.020 A 
ATOM     72  C   UNL A   1      42.087  21.346  28.154  1.00  0.00     0.020 A 
ATOM     73  C   UNL A   1      42.256  21.169  26.780  1.00  0.00     0.054 A 
BRANCH  73  74
ATOM     74  S   UNL A   1      42.127  19.513  26.049  1.00  0.00     0.124 S 
ATOM     75  O   UNL A   1      42.584  18.663  27.143  1.00  0.00    -0.237 OA
ATOM     76  O   UNL A   1      40.706  19.418  25.725  1.00  0.00    -0.237 OA
ATOM     77  O   UNL A   1      43.017  19.580  24.893  1.00  0.00    -0.744 OA
ENDBRANCH  73  74
ENDBRANCH  45  68
BRANCH  57  78
ATOM     78  C   UNL A   1      47.795  27.068  31.004  1.00  0.00    -0.014 A 
ATOM     79  C   UNL A   1      48.157  26.469  32.225  1.00  0.00     0.010 A 
ATOM     80  C   UNL A   1      48.777  27.254  30.015  1.00  0.00     0.010 A 
ATOM     81  C   UNL A   1      49.480  26.090  32.462  1.00  0.00     0.020 A 
ATOM     82  C   UNL A   1      50.099  26.855  30.239  1.00  0.00     0.020 A 
ATOM     83  C   UNL A   1      50.444  26.287  31.467  1.00  0.00     0.054 A 
BRANCH  83  84
ATOM     84  S   UNL A   1      52.147  25.746  31.780  1.00  0.00     0.124 S 
ATOM     85  O   UNL A   1      52.513  26.549  32.943  1.00  0.00    -0.237 OA
ATOM     86  O   UNL A   1      51.990  24.314  32.028  1.00  0.00    -0.237 OA
ATOM     87  O   UNL A   1      52.849  26.082  30.543  1.00  0.00    -0.744 OA
ENDBRANCH  83  84
ENDBRANCH  57  78
ENDBRANCH  31  32
ENDBRANCH  24  26
ENDBRANCH  23  24
ENDBRANCH   1  23
TORSDOF 16
ENDMDL
MODEL 2
REMARK VINA RESULT:     -10.8      3.487      4.785
REMARK SMILES Cc1cc(C(=O)N[C@H]2C=C[C@H](C(=O)OCCOC(=O)c3ccc(-c4c5nc(c(-c6ccc(S(=O)(=O)[O-])cc6)c6ccc([nH]6)c(-c6ccc(S(=O)(=O)[O-])cc6)c6nc(c(-c7ccc(S(=O)(=O)[O-])cc7)c7ccc4[nH]7)C=C6)C=C5)cc3)C2)ccc1F
REMARK SMILES IDX 16 1 15 2 14 3 12 4 13 5 11 6 8 7 9 8 80 9 10 10 7 11 5 12
REMARK SMILES IDX 6 13 4 15 1 16 2 17 3 18 83 19 82 20 84 21 81 22 17 23 18 24
REMARK SMILES IDX 19 25 20 26 21 27 79 28 22 29 78 30 23 31 24 32 25 33 72 34
REMARK SMILES IDX 26 35 77 36 71 37 73 38 27 39 76 40 70 41 69 42 28 44 58 45
REMARK SMILES IDX 39 46 57 47 40 48 43 49 56 50 74 51 41 52 42 53 55 55 75 56
REMARK SMILES IDX 44 57 29 58 30 59 38 60 31 61 37 62 32 63 33 64 34 65 35 66
REMARK SMILES IDX 36 67 59 68 60 69 68 70 61 71 67 72 62 73 63 74 64 75 65 76
REMARK SMILES IDX 66 77 45 78 46 79 54 80 47 81 53 82 48 83 49 84 50 85 51 86
REMARK SMILES IDX 52 87
REMARK H PARENT 7 14 73 43 43 54
REMARK Flexibility Score: inf
ROOT
ATOM      1  C   UNL A   1      35.063  31.949  28.154  1.00  0.00     0.275 C 
ENDROOT
BRANCH   1   2
ATOM      2  C   UNL A   1      33.604  31.972  27.685  1.00  0.00     0.274 C 
BRANCH   2   3
ATOM      3  O   UNL A   1      33.068  30.636  27.620  1.00  0.00    -0.462 OA
BRANCH   3   4
ATOM      4  C   UNL A   1      32.685  30.224  26.384  1.00  0.00     0.312 C 
ATOM      5  O   UNL A   1      31.613  30.510  25.863  1.00  0.00    -0.252 OA
BRANCH   4   6
ATOM      6  C   UNL A   1      33.775  29.398  25.699  1.00  0.00     0.124 C 
ATOM      7  C   UNL A   1      32.603  27.372  25.126  1.00  0.00     0.106 C 
ATOM      8  C   UNL A   1      33.673  27.081  26.131  1.00  0.00    -0.006 C 
ATOM      9  C   UNL A   1      33.150  28.659  24.508  1.00  0.00     0.048 C 
ATOM     10  C   UNL A   1      34.268  28.226  26.506  1.00  0.00    -0.014 C 
BRANCH   7  11
ATOM     11  N   UNL A   1      32.401  26.334  24.164  1.00  0.00    -0.346 N 
ATOM     12  C   UNL A   1      31.320  26.079  23.346  1.00  0.00     0.251 C 
ATOM     13  O   UNL A   1      31.432  25.110  22.591  1.00  0.00    -0.269 OA
ATOM     14  H   UNL A   1      33.150  25.702  24.071  1.00  0.00     0.164 HD
BRANCH  12  15
ATOM     15  C   UNL A   1      30.055  26.901  23.289  1.00  0.00     0.040 A 
ATOM     16  C   UNL A   1      28.559  30.145  21.926  1.00  0.00     0.047 C 
ATOM     17  C   UNL A   1      28.679  28.847  22.669  1.00  0.00    -0.015 A 
ATOM     18  C   UNL A   1      29.915  28.175  22.720  1.00  0.00     0.020 A 
ATOM     19  C   UNL A   1      27.572  28.248  23.253  1.00  0.00     0.126 A 
ATOM     20  C   UNL A   1      27.682  27.010  23.874  1.00  0.00     0.040 A 
ATOM     21  F   UNL A   1      26.379  28.856  23.201  1.00  0.00    -0.207 F 
ATOM     22  C   UNL A   1      28.910  26.336  23.875  1.00  0.00     0.017 A 
ENDBRANCH  12  15
ENDBRANCH   7  11
ENDBRANCH   4   6
ENDBRANCH   3   4
ENDBRANCH   2   3
ENDBRANCH   1   2
BRANCH   1  23
ATOM     23  O   UNL A   1      35.521  30.619  28.477  1.00  0.00    -0.458 OA
BRANCH  23  24
ATOM     24  C   UNL A   1      36.351  30.538  29.545  1.00  0.00     0.338 C 
ATOM     25  O   UNL A   1      36.063  30.773  30.711  1.00  0.00    -0.246 OA
BRANCH  24  26
ATOM     26  C   UNL A   1      37.664  29.994  29.150  1.00  0.00     0.060 A 
ATOM     27  C   UNL A   1      38.606  29.777  30.160  1.00  0.00     0.016 A 
ATOM     28  C   UNL A   1      38.007  29.770  27.813  1.00  0.00     0.016 A 
ATOM     29  C   UNL A   1      39.879  29.302  29.848  1.00  0.00     0.010 A 
ATOM     30  C   UNL A   1      39.299  29.331  27.496  1.00  0.00     0.010 A 
ATOM     31  C   UNL A   1      40.242  29.097  28.511  1.00  0.00    -0.014 A 
BRANCH  31  32
ATOM     32  C   UNL A   1      41.635  28.700  28.196  1.00  0.00     0.031 A 
ATOM     33  C   UNL A   1      42.742  29.706  28.311  1.00  0.00     0.074 A 
ATOM     34  C   UNL A   1      41.915  27.429  27.856  1.00  0.00     0.049 A 
ATOM     35  N   UNL A   1      44.025  29.545  28.112  1.00  0.00    -0.248 NA
ATOM     36  C   UNL A   1      42.354  31.072  28.695  1.00  0.00     0.031 C 
ATOM     37  C   UNL A   1      40.926  26.362  27.732  1.00  0.00     0.029 A 
ATOM     38  N   UNL A   1      43.109  26.818  27.565  1.00  0.00    -0.354 N 
ATOM     39  C   UNL A   1      44.599  30.791  28.324  1.00  0.00     0.074 A 
ATOM     40  C   UNL A   1      43.522  31.698  28.668  1.00  0.00     0.031 C 
ATOM     41  C   UNL A   1      41.558  25.221  27.414  1.00  0.00     0.029 A 
ATOM     42  C   UNL A   1      42.989  25.475  27.298  1.00  0.00     0.049 A 
ATOM     43  H   UNL A   1      43.970  27.297  27.550  1.00  0.00     0.167 HD
ATOM     44  C   UNL A   1      45.901  31.151  28.223  1.00  0.00     0.031 A 
ATOM     45  C   UNL A   1      43.924  24.552  26.994  1.00  0.00     0.031 A 
ATOM     46  C   UNL A   1      46.964  30.254  27.853  1.00  0.00     0.049 A 
ATOM     47  C   UNL A   1      45.362  24.979  26.877  1.00  0.00     0.074 A 
ATOM     48  C   UNL A   1      48.313  30.532  27.707  1.00  0.00     0.029 A 
ATOM     49  N   UNL A   1      46.802  28.906  27.564  1.00  0.00    -0.354 N 
ATOM     50  N   UNL A   1      45.888  26.163  27.083  1.00  0.00    -0.248 NA
ATOM     51  C   UNL A   1      46.330  23.951  26.471  1.00  0.00     0.031 C 
ATOM     52  C   UNL A   1      48.958  29.365  27.283  1.00  0.00     0.029 A 
ATOM     53  C   UNL A   1      48.021  28.346  27.219  1.00  0.00     0.049 A 
ATOM     54  H   UNL A   1      45.947  28.421  27.599  1.00  0.00     0.167 HD
ATOM     55  C   UNL A   1      47.249  26.022  26.831  1.00  0.00     0.074 A 
ATOM     56  C   UNL A   1      47.468  24.631  26.490  1.00  0.00     0.031 C 
ATOM     57  C   UNL A   1      48.224  26.962  26.867  1.00  0.00     0.031 A 
BRANCH  44  58
ATOM     58  C   UNL A   1      46.234  32.599  28.456  1.00  0.00    -0.014 A 
ATOM     59  C   UNL A   1      46.581  33.073  29.733  1.00  0.00     0.010 A 
ATOM     60  C   UNL A   1      46.213  33.494  27.372  1.00  0.00     0.010 A 
ATOM     61  C   UNL A   1      46.861  34.428  29.929  1.00  0.00     0.020 A 
ATOM     62  C   UNL A   1      46.516  34.845  27.560  1.00  0.00     0.020 A 
ATOM     63  C   UNL A   1      46.819  35.307  28.842  1.00  0.00     0.054 A 
BRANCH  63  64
ATOM     64  S   UNL A   1      47.189  37.061  29.121  1.00  0.00     0.124 S 
ATOM     65  O   UNL A   1      48.293  36.987  30.075  1.00  0.00    -0.237 OA
ATOM     66  O   UNL A   1      47.544  37.532  27.785  1.00  0.00    -0.237 OA
ATOM     67  O   UNL A   1      45.940  37.598  29.655  1.00  0.00    -0.744 OA
ENDBRANCH  63  64
ENDBRANCH  44  58
BRANCH  45  68
ATOM     68  C   UNL A   1      43.531  23.132  26.777  1.00  0.00    -0.014 A 
ATOM     69  C   UNL A   1      43.892  22.464  25.592  1.00  0.00     0.010 A 
ATOM     70  C   UNL A   1      42.800  22.434  27.756  1.00  0.00     0.010 A 
ATOM     71  C   UNL A   1      43.519  21.132  25.385  1.00  0.00     0.020 A 
ATOM     72  C   UNL A   1      42.450  21.094  27.565  1.00  0.00     0.020 A 
ATOM     73  C   UNL A   1      42.801  20.455  26.374  1.00  0.00     0.054 A 
BRANCH  73  74
ATOM     74  S   UNL A   1      42.371  18.711  26.113  1.00  0.00     0.124 S 
ATOM     75  O   UNL A   1      40.960  18.797  25.754  1.00  0.00    -0.237 OA
ATOM     76  O   UNL A   1      43.276  18.319  25.034  1.00  0.00    -0.237 OA
ATOM     77  O   UNL A   1      42.654  18.093  27.406  1.00  0.00    -0.744 OA
ENDBRANCH  73  74
ENDBRANCH  45  68
BRANCH  57  78
ATOM     78  C   UNL A   1      49.623  26.520  26.531  1.00  0.00    -0.014 A 
ATOM     79  C   UNL A   1      50.481  26.014  27.524  1.00  0.00     0.010 A 
ATOM     80  C   UNL A   1      50.067  26.559  25.198  1.00  0.00     0.010 A 
ATOM     81  C   UNL A   1      51.767  25.583  27.195  1.00  0.00     0.020 A 
ATOM     82  C   UNL A   1      51.346  26.107  24.859  1.00  0.00     0.020 A 
ATOM     83  C   UNL A   1      52.193  25.633  25.863  1.00  0.00     0.054 A 
BRANCH  83  84
ATOM     84  S   UNL A   1      53.852  25.025  25.451  1.00  0.00     0.124 S 
ATOM     85  O   UNL A   1      53.620  23.593  25.289  1.00  0.00    -0.237 OA
ATOM     86  O   UNL A   1      54.167  25.753  24.224  1.00  0.00    -0.237 OA
ATOM     87  O   UNL A   1      54.655  25.400  26.612  1.00  0.00    -0.744 OA
ENDBRANCH  83  84
ENDBRANCH  57  78
ENDBRANCH  31  32
ENDBRANCH  24  26
ENDBRANCH  23  24
ENDBRANCH   1  23
TORSDOF 16
ENDMDL
MODEL 3
REMARK VINA RESULT:     -10.7      3.156      4.018
REMARK SMILES Cc1cc(C(=O)N[C@H]2C=C[C@H](C(=O)OCCOC(=O)c3ccc(-c4c5nc(c(-c6ccc(S(=O)(=O)[O-])cc6)c6ccc([nH]6)c(-c6ccc(S(=O)(=O)[O-])cc6)c6nc(c(-c7ccc(S(=O)(=O)[O-])cc7)c7ccc4[nH]7)C=C6)C=C5)cc3)C2)ccc1F
REMARK SMILES IDX 16 1 15 2 14 3 12 4 13 5 11 6 8 7 9 8 80 9 10 10 7 11 5 12
REMARK SMILES IDX 6 13 4 15 1 16 2 17 3 18 83 19 82 20 84 21 81 22 17 23 18 24
REMARK SMILES IDX 19 25 20 26 21 27 79 28 22 29 78 30 23 31 24 32 25 33 72 34
REMARK SMILES IDX 26 35 77 36 71 37 73 38 27 39 76 40 70 41 69 42 28 44 58 45
REMARK SMILES IDX 39 46 57 47 40 48 43 49 56 50 74 51 41 52 42 53 55 55 75 56
REMARK SMILES IDX 44 57 29 58 30 59 38 60 31 61 37 62 32 63 33 64 34 65 35 66
REMARK SMILES IDX 36 67 59 68 60 69 68 70 61 71 67 72 62 73 63 74 64 75 65 76
REMARK SMILES IDX 66 77 45 78 46 79 54 80 47 81 53 82 48 83 49 84 50 85 51 86
REMARK SMILES IDX 52 87
REMARK H PARENT 7 14 73 43 43 54
REMARK Flexibility Score: inf
ROOT
ATOM      1  C   UNL A   1      34.663  30.821  27.770  1.00  0.00     0.275 C 
ENDROOT
BRANCH   1   2
ATOM      2  C   UNL A   1      33.321  30.324  27.221  1.00  0.00     0.274 C 
BRANCH   2   3
ATOM      3  O   UNL A   1      33.436  29.984  25.826  1.00  0.00    -0.462 OA
BRANCH   3   4
ATOM      4  C   UNL A   1      32.294  29.537  25.243  1.00  0.00     0.312 C 
ATOM      5  O   UNL A   1      31.260  30.191  25.157  1.00  0.00    -0.252 OA
BRANCH   4   6
ATOM      6  C   UNL A   1      32.467  28.133  24.660  1.00  0.00     0.124 C 
ATOM      7  C   UNL A   1      31.835  26.725  26.511  1.00  0.00     0.106 C 
ATOM      8  C   UNL A   1      33.282  26.528  26.185  1.00  0.00    -0.006 C 
ATOM      9  C   UNL A   1      31.321  27.249  25.170  1.00  0.00     0.048 C 
ATOM     10  C   UNL A   1      33.647  27.373  25.206  1.00  0.00    -0.014 C 
BRANCH   7  11
ATOM     11  N   UNL A   1      31.162  25.540  26.943  1.00  0.00    -0.346 N 
ATOM     12  C   UNL A   1      31.379  24.221  26.603  1.00  0.00     0.251 C 
ATOM     13  O   UNL A   1      30.646  23.395  27.153  1.00  0.00    -0.269 OA
ATOM     14  H   UNL A   1      30.429  25.688  27.583  1.00  0.00     0.164 HD
BRANCH  12  15
ATOM     15  C   UNL A   1      32.444  23.728  25.653  1.00  0.00     0.040 A 
ATOM     16  C   UNL A   1      33.339  23.385  21.952  1.00  0.00     0.047 C 
ATOM     17  C   UNL A   1      33.430  23.266  23.445  1.00  0.00    -0.015 A 
ATOM     18  C   UNL A   1      32.363  23.697  24.254  1.00  0.00     0.020 A 
ATOM     19  C   UNL A   1      34.585  22.802  24.059  1.00  0.00     0.126 A 
ATOM     20  C   UNL A   1      34.685  22.766  25.444  1.00  0.00     0.040 A 
ATOM     21  F   UNL A   1      35.624  22.404  23.313  1.00  0.00    -0.207 F 
ATOM     22  C   UNL A   1      33.629  23.243  26.233  1.00  0.00     0.017 A 
ENDBRANCH  12  15
ENDBRANCH   7  11
ENDBRANCH   4   6
ENDBRANCH   3   4
ENDBRANCH   2   3
ENDBRANCH   1   2
BRANCH   1  23
ATOM     23  O   UNL A   1      35.494  29.748  28.261  1.00  0.00    -0.458 OA
BRANCH  23  24
ATOM     24  C   UNL A   1      36.226  30.042  29.362  1.00  0.00     0.338 C 
ATOM     25  O   UNL A   1      35.793  30.373  30.459  1.00  0.00    -0.246 OA
BRANCH  24  26
ATOM     26  C   UNL A   1      37.660  29.792  29.122  1.00  0.00     0.060 A 
ATOM     27  C   UNL A   1      38.078  29.635  27.798  1.00  0.00     0.016 A 
ATOM     28  C   UNL A   1      38.574  29.632  30.169  1.00  0.00     0.016 A 
ATOM     29  C   UNL A   1      39.412  29.357  27.506  1.00  0.00     0.010 A 
ATOM     30  C   UNL A   1      39.908  29.313  29.877  1.00  0.00     0.010 A 
ATOM     31  C   UNL A   1      40.333  29.172  28.545  1.00  0.00    -0.014 A 
BRANCH  31  32
ATOM     32  C   UNL A   1      41.720  28.766  28.215  1.00  0.00     0.031 A 
ATOM     33  C   UNL A   1      42.834  29.765  28.316  1.00  0.00     0.074 A 
ATOM     34  C   UNL A   1      41.987  27.493  27.873  1.00  0.00     0.049 A 
ATOM     35  N   UNL A   1      44.113  29.595  28.102  1.00  0.00    -0.248 NA
ATOM     36  C   UNL A   1      42.459  31.134  28.702  1.00  0.00     0.031 C 
ATOM     37  C   UNL A   1      40.990  26.432  27.761  1.00  0.00     0.029 A 
ATOM     38  N   UNL A   1      43.174  26.874  27.569  1.00  0.00    -0.354 N 
ATOM     39  C   UNL A   1      44.698  30.838  28.305  1.00  0.00     0.074 A 
ATOM     40  C   UNL A   1      43.631  31.752  28.660  1.00  0.00     0.031 C 
ATOM     41  C   UNL A   1      41.610  25.287  27.438  1.00  0.00     0.029 A 
ATOM     42  C   UNL A   1      43.042  25.531  27.305  1.00  0.00     0.049 A 
ATOM     43  H   UNL A   1      44.038  27.347  27.544  1.00  0.00     0.167 HD
ATOM     44  C   UNL A   1      46.001  31.189  28.188  1.00  0.00     0.031 A 
ATOM     45  C   UNL A   1      43.967  24.602  26.991  1.00  0.00     0.031 A 
ATOM     46  C   UNL A   1      47.054  30.285  27.807  1.00  0.00     0.049 A 
ATOM     47  C   UNL A   1      45.407  25.020  26.858  1.00  0.00     0.074 A 
ATOM     48  C   UNL A   1      48.403  30.554  27.645  1.00  0.00     0.029 A 
ATOM     49  N   UNL A   1      46.880  28.938  27.522  1.00  0.00    -0.354 N 
ATOM     50  N   UNL A   1      45.943  26.200  27.056  1.00  0.00    -0.248 NA
ATOM     51  C   UNL A   1      46.363  23.985  26.442  1.00  0.00     0.031 C 
ATOM     52  C   UNL A   1      49.035  29.383  27.216  1.00  0.00     0.029 A 
ATOM     53  C   UNL A   1      48.091  28.370  27.163  1.00  0.00     0.049 A 
ATOM     54  H   UNL A   1      46.022  28.459  27.568  1.00  0.00     0.167 HD
ATOM     55  C   UNL A   1      47.299  26.050  26.788  1.00  0.00     0.074 A 
ATOM     56  C   UNL A   1      47.506  24.658  26.446  1.00  0.00     0.031 C 
ATOM     57  C   UNL A   1      48.281  26.984  26.811  1.00  0.00     0.031 A 
BRANCH  44  58
ATOM     58  C   UNL A   1      46.346  32.635  28.416  1.00  0.00    -0.014 A 
ATOM     59  C   UNL A   1      46.684  33.115  29.693  1.00  0.00     0.010 A 
ATOM     60  C   UNL A   1      46.346  33.524  27.326  1.00  0.00     0.010 A 
ATOM     61  C   UNL A   1      46.976  34.468  29.884  1.00  0.00     0.020 A 
ATOM     62  C   UNL A   1      46.659  34.873  27.508  1.00  0.00     0.020 A 
ATOM     63  C   UNL A   1      46.954  35.341  28.791  1.00  0.00     0.054 A 
BRANCH  63  64
ATOM     64  S   UNL A   1      47.338  37.092  29.062  1.00  0.00     0.124 S 
ATOM     65  O   UNL A   1      46.015  37.705  28.982  1.00  0.00    -0.237 OA
ATOM     66  O   UNL A   1      47.948  37.086  30.390  1.00  0.00    -0.237 OA
ATOM     67  O   UNL A   1      48.245  37.423  27.966  1.00  0.00    -0.744 OA
ENDBRANCH  63  64
ENDBRANCH  44  58
BRANCH  45  68
ATOM     68  C   UNL A   1      43.563  23.184  26.781  1.00  0.00    -0.014 A 
ATOM     69  C   UNL A   1      43.792  22.552  25.545  1.00  0.00     0.010 A 
ATOM     70  C   UNL A   1      42.953  22.453  27.816  1.00  0.00     0.010 A 
ATOM     71  C   UNL A   1      43.407  21.223  25.344  1.00  0.00     0.020 A 
ATOM     72  C   UNL A   1      42.593  21.114  27.629  1.00  0.00     0.020 A 
ATOM     73  C   UNL A   1      42.811  20.511  26.389  1.00  0.00     0.054 A 
BRANCH  73  74
ATOM     74  S   UNL A   1      42.368  18.771  26.130  1.00  0.00     0.124 S 
ATOM     75  O   UNL A   1      42.630  18.193  27.443  1.00  0.00    -0.237 OA
ATOM     76  O   UNL A   1      40.961  18.855  25.745  1.00  0.00    -0.237 OA
ATOM     77  O   UNL A   1      43.271  18.344  25.064  1.00  0.00    -0.744 OA
ENDBRANCH  73  74
ENDBRANCH  45  68
BRANCH  57  78
ATOM     78  C   UNL A   1      49.673  26.533  26.460  1.00  0.00    -0.014 A 
ATOM     79  C   UNL A   1      50.496  25.912  27.416  1.00  0.00     0.010 A 
ATOM     80  C   UNL A   1      50.144  26.680  25.143  1.00  0.00     0.010 A 
ATOM     81  C   UNL A   1      51.776  25.474  27.070  1.00  0.00     0.020 A 
ATOM     82  C   UNL A   1      51.416  26.222  24.786  1.00  0.00     0.020 A 
ATOM     83  C   UNL A   1      52.229  25.633  25.756  1.00  0.00     0.054 A 
BRANCH  83  84
ATOM     84  S   UNL A   1      53.878  25.016  25.318  1.00  0.00     0.124 S 
ATOM     85  O   UNL A   1      53.653  23.575  25.239  1.00  0.00    -0.237 OA
ATOM     86  O   UNL A   1      54.143  25.681  24.044  1.00  0.00    -0.237 OA
ATOM     87  O   UNL A   1      54.718  25.456  26.429  1.00  0.00    -0.744 OA
ENDBRANCH  83  84
ENDBRANCH  57  78
ENDBRANCH  31  32
ENDBRANCH  24  26
ENDBRANCH  23  24
ENDBRANCH   1  23
TORSDOF 16
ENDMDL
