MODEL 1
REMARK VINA RESULT:     -12.0      0.000      0.000
REMARK SMILES Cc1nn(C(C)C)cc1-c1cnccc1C(=O)OCCOC(=O)c1ccc(-c2c3nc(c(-c4ccc(S(=O)(=O)[O-])cc4)c4ccc([nH]4)c(-c4ccc(S(=O)(=O)[O-])cc4)c4nc(c(-c5ccc(S(=O)(=O)[O-])cc5)c5ccc2[nH]5)C=C4)C=C3)cc1
REMARK SMILES IDX 20 1 19 2 18 3 16 4 17 5 15 6 10 7 11 8 12 9 14 10 13 11
REMARK SMILES IDX 9 12 1 13 2 14 3 15 4 16 8 17 5 18 6 19 7 20 21 21 22 22
REMARK SMILES IDX 23 23 24 24 25 25 83 26 26 27 82 28 27 29 28 30 29 31 76 32
REMARK SMILES IDX 30 33 81 34 75 35 77 36 31 37 80 38 74 39 73 40 32 42 62 43
REMARK SMILES IDX 43 44 61 45 44 46 47 47 60 48 78 49 45 50 46 51 59 53 79 54
REMARK SMILES IDX 48 55 33 56 34 57 42 58 35 59 41 60 36 61 37 62 38 63 39 64
REMARK SMILES IDX 40 65 63 66 64 67 72 68 65 69 71 70 66 71 67 72 68 73 69 74
REMARK SMILES IDX 70 75 49 76 50 77 58 78 51 79 57 80 52 81 53 82 54 83 55 84
REMARK SMILES IDX 56 85
REMARK H PARENT 77 41 47 52
REMARK Flexibility Score: inf
ROOT
ATOM      1  C   UNL A   1      37.687  21.736  24.939  1.00  0.00     0.275 C 
ENDROOT
BRANCH   1   2
ATOM      2  C   UNL A   1      36.757  22.757  24.315  1.00  0.00     0.275 C 
BRANCH   2   3
ATOM      3  O   UNL A   1      35.487  22.140  24.067  1.00  0.00    -0.458 OA
BRANCH   3   4
ATOM      4  C   UNL A   1      34.485  22.894  23.574  1.00  0.00     0.338 C 
ATOM      5  O   UNL A   1      34.436  23.349  22.436  1.00  0.00    -0.246 OA
BRANCH   4   6
ATOM      6  C   UNL A   1      33.368  23.055  24.552  1.00  0.00     0.071 A 
ATOM      7  C   UNL A   1      32.464  22.054  24.948  1.00  0.00     0.018 A 
ATOM      8  C   UNL A   1      31.497  22.416  25.887  1.00  0.00     0.120 A 
ATOM      9  N   UNL A   1      31.353  23.655  26.418  1.00  0.00    -0.264 NA
ATOM     10  C   UNL A   1      33.212  24.354  25.067  1.00  0.00     0.036 A 
ATOM     11  C   UNL A   1      32.198  24.603  25.974  1.00  0.00     0.112 A 
BRANCH   7  12
ATOM     12  C   UNL A   1      32.415  20.710  24.403  1.00  0.00     0.025 A 
ATOM     13  C   UNL A   1      31.807  21.074  21.881  1.00  0.00     0.069 C 
ATOM     14  C   UNL A   1      32.171  20.266  23.073  1.00  0.00     0.067 A 
ATOM     15  N   UNL A   1      32.338  18.941  22.960  1.00  0.00    -0.177 NA
ATOM     16  N   UNL A   1      32.776  18.566  24.175  1.00  0.00    -0.269 N 
ATOM     17  C   UNL A   1      32.696  19.560  25.109  1.00  0.00     0.118 A 
BRANCH  16  18
ATOM     18  C   UNL A   1      33.317  17.228  24.385  1.00  0.00     0.101 C 
ATOM     19  C   UNL A   1      34.840  17.257  24.395  1.00  0.00     0.033 C 
ATOM     20  C   UNL A   1      32.758  16.567  25.649  1.00  0.00     0.033 C 
ENDBRANCH  16  18
ENDBRANCH   7  12
ENDBRANCH   4   6
ENDBRANCH   3   4
ENDBRANCH   2   3
ENDBRANCH   1   2
BRANCH   1  21
ATOM     21  O   UNL A   1      38.125  22.194  26.215  1.00  0.00    -0.458 OA
BRANCH  21  22
ATOM     22  C   UNL A   1      39.441  22.025  26.475  1.00  0.00     0.338 C 
ATOM     23  O   UNL A   1      40.041  20.982  26.660  1.00  0.00    -0.246 OA
BRANCH  22  24
ATOM     24  C   UNL A   1      40.031  23.342  26.720  1.00  0.00     0.060 A 
ATOM     25  C   UNL A   1      41.259  23.388  27.386  1.00  0.00     0.016 A 
ATOM     26  C   UNL A   1      39.243  24.487  26.529  1.00  0.00     0.016 A 
ATOM     27  C   UNL A   1      41.632  24.568  27.993  1.00  0.00     0.010 A 
ATOM     28  C   UNL A   1      39.607  25.655  27.150  1.00  0.00     0.010 A 
ATOM     29  C   UNL A   1      40.765  25.661  27.926  1.00  0.00    -0.014 A 
BRANCH  29  30
ATOM     30  C   UNL A   1      41.123  26.870  28.633  1.00  0.00     0.031 A 
ATOM     31  C   UNL A   1      42.321  27.549  28.092  1.00  0.00     0.074 A 
ATOM     32  C   UNL A   1      40.316  27.407  29.566  1.00  0.00     0.049 A 
ATOM     33  N   UNL A   1      43.444  27.780  28.685  1.00  0.00    -0.248 NA
ATOM     34  C   UNL A   1      42.310  27.886  26.659  1.00  0.00     0.031 C 
ATOM     35  C   UNL A   1      38.952  26.997  29.914  1.00  0.00     0.029 A 
ATOM     36  N   UNL A   1      40.497  28.539  30.294  1.00  0.00    -0.354 N 
ATOM     37  C   UNL A   1      44.215  28.474  27.758  1.00  0.00     0.074 A 
ATOM     38  C   UNL A   1      43.547  28.345  26.489  1.00  0.00     0.031 C 
ATOM     39  C   UNL A   1      38.351  28.001  30.591  1.00  0.00     0.029 A 
ATOM     40  C   UNL A   1      39.325  29.055  30.827  1.00  0.00     0.049 A 
ATOM     41  H   UNL A   1      41.378  28.956  30.431  1.00  0.00     0.167 HD
ATOM     42  C   UNL A   1      45.209  29.320  28.139  1.00  0.00     0.031 A 
ATOM     43  C   UNL A   1      39.151  30.300  31.334  1.00  0.00     0.031 A 
ATOM     44  C   UNL A   1      45.598  29.114  29.507  1.00  0.00     0.049 A 
ATOM     45  C   UNL A   1      40.497  30.859  31.619  1.00  0.00     0.074 A 
ATOM     46  C   UNL A   1      46.108  28.045  30.217  1.00  0.00     0.029 A 
ATOM     47  N   UNL A   1      45.112  30.000  30.441  1.00  0.00    -0.354 N 
ATOM     48  N   UNL A   1      41.296  30.394  32.541  1.00  0.00    -0.248 NA
ATOM     49  C   UNL A   1      41.144  31.662  30.591  1.00  0.00     0.031 C 
ATOM     50  C   UNL A   1      45.501  28.131  31.503  1.00  0.00     0.029 A 
ATOM     51  C   UNL A   1      44.694  29.272  31.524  1.00  0.00     0.049 A 
ATOM     52  H   UNL A   1      45.070  30.980  30.346  1.00  0.00     0.167 HD
ATOM     53  C   UNL A   1      42.570  30.486  31.995  1.00  0.00     0.074 A 
ATOM     54  C   UNL A   1      42.423  31.371  30.842  1.00  0.00     0.031 C 
ATOM     55  C   UNL A   1      43.563  29.623  32.361  1.00  0.00     0.031 A 
BRANCH  42  56
ATOM     56  C   UNL A   1      45.529  30.591  27.393  1.00  0.00    -0.014 A 
ATOM     57  C   UNL A   1      46.876  30.909  27.135  1.00  0.00     0.010 A 
ATOM     58  C   UNL A   1      44.579  31.614  27.188  1.00  0.00     0.010 A 
ATOM     59  C   UNL A   1      47.255  32.207  26.766  1.00  0.00     0.020 A 
ATOM     60  C   UNL A   1      44.938  32.895  26.773  1.00  0.00     0.020 A 
ATOM     61  C   UNL A   1      46.282  33.194  26.606  1.00  0.00     0.054 A 
BRANCH  61  62
ATOM     62  S   UNL A   1      46.786  34.896  26.263  1.00  0.00     0.124 S 
ATOM     63  O   UNL A   1      45.498  35.552  26.058  1.00  0.00    -0.237 OA
ATOM     64  O   UNL A   1      47.498  35.261  27.483  1.00  0.00    -0.237 OA
ATOM     65  O   UNL A   1      47.623  34.770  25.072  1.00  0.00    -0.744 OA
ENDBRANCH  61  62
ENDBRANCH  42  56
BRANCH  43  66
ATOM     66  C   UNL A   1      37.922  31.128  31.273  1.00  0.00    -0.014 A 
ATOM     67  C   UNL A   1      36.730  30.712  31.890  1.00  0.00     0.010 A 
ATOM     68  C   UNL A   1      37.987  32.457  30.803  1.00  0.00     0.010 A 
ATOM     69  C   UNL A   1      35.658  31.604  32.065  1.00  0.00     0.020 A 
ATOM     70  C   UNL A   1      36.921  33.348  30.964  1.00  0.00     0.020 A 
ATOM     71  C   UNL A   1      35.767  32.923  31.613  1.00  0.00     0.054 A 
BRANCH  71  72
ATOM     72  S   UNL A   1      34.438  34.108  31.972  1.00  0.00     0.124 S 
ATOM     73  O   UNL A   1      33.626  33.380  32.942  1.00  0.00    -0.237 OA
ATOM     74  O   UNL A   1      35.172  35.257  32.497  1.00  0.00    -0.237 OA
ATOM     75  O   UNL A   1      33.806  34.324  30.672  1.00  0.00    -0.744 OA
ENDBRANCH  71  72
ENDBRANCH  43  66
BRANCH  55  76
ATOM     76  C   UNL A   1      43.365  28.771  33.593  1.00  0.00    -0.014 A 
ATOM     77  C   UNL A   1      43.554  29.244  34.906  1.00  0.00     0.010 A 
ATOM     78  C   UNL A   1      42.792  27.499  33.414  1.00  0.00     0.010 A 
ATOM     79  C   UNL A   1      43.192  28.456  36.009  1.00  0.00     0.020 A 
ATOM     80  C   UNL A   1      42.411  26.718  34.507  1.00  0.00     0.020 A 
ATOM     81  C   UNL A   1      42.618  27.197  35.801  1.00  0.00     0.054 A 
BRANCH  81  82
ATOM     82  S   UNL A   1      42.080  26.214  37.228  1.00  0.00     0.124 S 
ATOM     83  O   UNL A   1      40.764  26.774  37.521  1.00  0.00    -0.237 OA
ATOM     84  O   UNL A   1      42.082  24.849  36.703  1.00  0.00    -0.237 OA
ATOM     85  O   UNL A   1      43.105  26.478  38.239  1.00  0.00    -0.744 OA
ENDBRANCH  81  82
ENDBRANCH  55  76
ENDBRANCH  29  30
ENDBRANCH  22  24
ENDBRANCH  21  22
ENDBRANCH   1  21
TORSDOF 16
ENDMDL
MODEL 2
REMARK VINA RESULT:     -11.9      3.783      9.756
REMARK SMILES Cc1nn(C(C)C)cc1-c1cnccc1C(=O)OCCOC(=O)c1ccc(-c2c3nc(c(-c4ccc(S(=O)(=O)[O-])cc4)c4ccc([nH]4)c(-c4ccc(S(=O)(=O)[O-])cc4)c4nc(c(-c5ccc(S(=O)(=O)[O-])cc5)c5ccc2[nH]5)C=C4)C=C3)cc1
REMARK SMILES IDX 20 1 19 2 18 3 16 4 17 5 15 6 10 7 11 8 12 9 14 10 13 11
REMARK SMILES IDX 9 12 1 13 2 14 3 15 4 16 8 17 5 18 6 19 7 20 21 21 22 22
REMARK SMILES IDX 23 23 24 24 25 25 83 26 26 27 82 28 27 29 28 30 29 31 76 32
REMARK SMILES IDX 30 33 81 34 75 35 77 36 31 37 80 38 74 39 73 40 32 42 62 43
REMARK SMILES IDX 43 44 61 45 44 46 47 47 60 48 78 49 45 50 46 51 59 53 79 54
REMARK SMILES IDX 48 55 33 56 34 57 42 58 35 59 41 60 36 61 37 62 38 63 39 64
REMARK SMILES IDX 40 65 63 66 64 67 72 68 65 69 71 70 66 71 67 72 68 73 69 74
REMARK SMILES IDX 70 75 49 76 50 77 58 78 51 79 57 80 52 81 53 82 54 83 55 84
REMARK SMILES IDX 56 85
REMARK H PARENT 77 41 47 52
REMARK Flexibility Score: inf
ROOT
ATOM      1  C   UNL A   1      32.499  30.623  26.724  1.00  0.00     0.275 C 
ENDROOT
BRANCH   1   2
ATOM      2  C   UNL A   1      31.732  29.346  26.442  1.00  0.00     0.275 C 
BRANCH   2   3
ATOM      3  O   UNL A   1      32.631  28.372  25.898  1.00  0.00    -0.458 OA
BRANCH   3   4
ATOM      4  C   UNL A   1      32.150  27.158  25.567  1.00  0.00     0.338 C 
ATOM      5  O   UNL A   1      31.407  26.478  26.266  1.00  0.00    -0.246 OA
BRANCH   4   6
ATOM      6  C   UNL A   1      32.554  26.749  24.188  1.00  0.00     0.071 A 
ATOM      7  C   UNL A   1      31.918  27.127  22.993  1.00  0.00     0.018 A 
ATOM      8  C   UNL A   1      32.468  26.638  21.808  1.00  0.00     0.120 A 
ATOM      9  N   UNL A   1      33.543  25.816  21.729  1.00  0.00    -0.264 NA
ATOM     10  C   UNL A   1      33.649  25.869  24.128  1.00  0.00     0.036 A 
ATOM     11  C   UNL A   1      34.091  25.428  22.894  1.00  0.00     0.112 A 
BRANCH   7  12
ATOM     12  C   UNL A   1      30.703  27.915  22.906  1.00  0.00     0.025 A 
ATOM     13  C   UNL A   1      28.858  26.338  23.894  1.00  0.00     0.069 C 
ATOM     14  C   UNL A   1      29.377  27.608  23.325  1.00  0.00     0.067 A 
ATOM     15  N   UNL A   1      28.561  28.662  23.179  1.00  0.00    -0.177 NA
ATOM     16  N   UNL A   1      29.378  29.648  22.768  1.00  0.00    -0.269 N 
ATOM     17  C   UNL A   1      30.633  29.213  22.449  1.00  0.00     0.118 A 
BRANCH  16  18
ATOM     18  C   UNL A   1      28.911  31.030  22.740  1.00  0.00     0.101 C 
ATOM     19  C   UNL A   1      28.670  31.489  21.308  1.00  0.00     0.033 C 
ATOM     20  C   UNL A   1      27.672  31.241  23.615  1.00  0.00     0.033 C 
ENDBRANCH  16  18
ENDBRANCH   7  12
ENDBRANCH   4   6
ENDBRANCH   3   4
ENDBRANCH   2   3
ENDBRANCH   1   2
BRANCH   1  21
ATOM     21  O   UNL A   1      33.780  30.311  27.263  1.00  0.00    -0.458 OA
BRANCH  21  22
ATOM     22  C   UNL A   1      34.494  31.365  27.719  1.00  0.00     0.338 C 
ATOM     23  O   UNL A   1      34.340  32.544  27.455  1.00  0.00    -0.246 OA
BRANCH  22  24
ATOM     24  C   UNL A   1      35.658  30.851  28.441  1.00  0.00     0.060 A 
ATOM     25  C   UNL A   1      36.506  31.782  29.048  1.00  0.00     0.016 A 
ATOM     26  C   UNL A   1      36.023  29.506  28.276  1.00  0.00     0.016 A 
ATOM     27  C   UNL A   1      37.791  31.392  29.362  1.00  0.00     0.010 A 
ATOM     28  C   UNL A   1      37.307  29.125  28.571  1.00  0.00     0.010 A 
ATOM     29  C   UNL A   1      38.192  30.089  29.051  1.00  0.00    -0.014 A 
BRANCH  29  30
ATOM     30  C   UNL A   1      39.563  29.711  29.307  1.00  0.00     0.031 A 
ATOM     31  C   UNL A   1      39.888  29.568  30.743  1.00  0.00     0.074 A 
ATOM     32  C   UNL A   1      40.390  29.341  28.313  1.00  0.00     0.049 A 
ATOM     33  N   UNL A   1      40.746  30.236  31.438  1.00  0.00    -0.248 NA
ATOM     34  C   UNL A   1      39.044  28.657  31.534  1.00  0.00     0.031 C 
ATOM     35  C   UNL A   1      40.052  29.115  26.904  1.00  0.00     0.029 A 
ATOM     36  N   UNL A   1      41.684  28.939  28.391  1.00  0.00    -0.354 N 
ATOM     37  C   UNL A   1      40.692  29.690  32.716  1.00  0.00     0.074 A 
ATOM     38  C   UNL A   1      39.512  28.865  32.762  1.00  0.00     0.031 C 
ATOM     39  C   UNL A   1      41.036  28.389  26.327  1.00  0.00     0.029 A 
ATOM     40  C   UNL A   1      42.115  28.217  27.288  1.00  0.00     0.049 A 
ATOM     41  H   UNL A   1      42.265  29.141  29.161  1.00  0.00     0.167 HD
ATOM     42  C   UNL A   1      41.751  29.747  33.568  1.00  0.00     0.031 A 
ATOM     43  C   UNL A   1      43.231  27.451  27.212  1.00  0.00     0.031 A 
ATOM     44  C   UNL A   1      42.722  30.723  33.157  1.00  0.00     0.049 A 
ATOM     45  C   UNL A   1      44.125  27.852  28.329  1.00  0.00     0.074 A 
ATOM     46  C   UNL A   1      42.694  32.088  32.951  1.00  0.00     0.029 A 
ATOM     47  N   UNL A   1      43.849  30.260  32.517  1.00  0.00    -0.354 N 
ATOM     48  N   UNL A   1      44.705  29.017  28.412  1.00  0.00    -0.248 NA
ATOM     49  C   UNL A   1      44.034  27.117  29.582  1.00  0.00     0.031 C 
ATOM     50  C   UNL A   1      43.545  32.311  31.831  1.00  0.00     0.029 A 
ATOM     51  C   UNL A   1      44.083  31.081  31.445  1.00  0.00     0.049 A 
ATOM     52  H   UNL A   1      44.387  29.479  32.782  1.00  0.00     0.167 HD
ATOM     53  C   UNL A   1      44.674  29.340  29.763  1.00  0.00     0.074 A 
ATOM     54  C   UNL A   1      44.349  28.089  30.442  1.00  0.00     0.031 C 
ATOM     55  C   UNL A   1      44.642  30.640  30.182  1.00  0.00     0.031 A 
BRANCH  42  56
ATOM     56  C   UNL A   1      42.083  28.636  34.531  1.00  0.00    -0.014 A 
ATOM     57  C   UNL A   1      42.512  28.966  35.831  1.00  0.00     0.010 A 
ATOM     58  C   UNL A   1      42.259  27.298  34.118  1.00  0.00     0.010 A 
ATOM     59  C   UNL A   1      43.153  28.020  36.643  1.00  0.00     0.020 A 
ATOM     60  C   UNL A   1      42.851  26.336  34.936  1.00  0.00     0.020 A 
ATOM     61  C   UNL A   1      43.333  26.716  36.179  1.00  0.00     0.054 A 
BRANCH  61  62
ATOM     62  S   UNL A   1      44.280  25.539  37.172  1.00  0.00     0.124 S 
ATOM     63  O   UNL A   1      45.652  25.956  36.899  1.00  0.00    -0.237 OA
ATOM     64  O   UNL A   1      43.790  25.806  38.521  1.00  0.00    -0.237 OA
ATOM     65  O   UNL A   1      43.896  24.241  36.620  1.00  0.00    -0.744 OA
ENDBRANCH  61  62
ENDBRANCH  42  56
BRANCH  43  66
ATOM     66  C   UNL A   1      43.407  26.199  26.437  1.00  0.00    -0.014 A 
ATOM     67  C   UNL A   1      44.437  26.065  25.491  1.00  0.00     0.010 A 
ATOM     68  C   UNL A   1      42.697  25.036  26.802  1.00  0.00     0.010 A 
ATOM     69  C   UNL A   1      44.770  24.806  24.960  1.00  0.00     0.020 A 
ATOM     70  C   UNL A   1      43.015  23.782  26.271  1.00  0.00     0.020 A 
ATOM     71  C   UNL A   1      44.064  23.669  25.365  1.00  0.00     0.054 A 
BRANCH  71  72
ATOM     72  S   UNL A   1      44.594  22.030  24.788  1.00  0.00     0.124 S 
ATOM     73  O   UNL A   1      44.696  22.226  23.345  1.00  0.00    -0.237 OA
ATOM     74  O   UNL A   1      45.859  21.840  25.492  1.00  0.00    -0.237 OA
ATOM     75  O   UNL A   1      43.512  21.147  25.218  1.00  0.00    -0.744 OA
ENDBRANCH  71  72
ENDBRANCH  43  66
BRANCH  55  76
ATOM     76  C   UNL A   1      44.962  31.730  29.186  1.00  0.00    -0.014 A 
ATOM     77  C   UNL A   1      46.231  32.328  29.066  1.00  0.00     0.010 A 
ATOM     78  C   UNL A   1      43.986  32.027  28.218  1.00  0.00     0.010 A 
ATOM     79  C   UNL A   1      46.508  33.212  28.012  1.00  0.00     0.020 A 
ATOM     80  C   UNL A   1      44.261  32.891  27.155  1.00  0.00     0.020 A 
ATOM     81  C   UNL A   1      45.520  33.485  27.060  1.00  0.00     0.054 A 
BRANCH  81  82
ATOM     82  S   UNL A   1      45.907  34.568  25.656  1.00  0.00     0.124 S 
ATOM     83  O   UNL A   1      45.618  35.895  26.191  1.00  0.00    -0.237 OA
ATOM     84  O   UNL A   1      47.320  34.284  25.406  1.00  0.00    -0.237 OA
ATOM     85  O   UNL A   1      44.999  34.111  24.604  1.00  0.00    -0.744 OA
ENDBRANCH  81  82
ENDBRANCH  55  76
ENDBRANCH  29  30
ENDBRANCH  22  24
ENDBRANCH  21  22
ENDBRANCH   1  21
TORSDOF 16
ENDMDL
MODEL 3
REMARK VINA RESULT:     -11.7      3.148      9.166
REMARK SMILES Cc1nn(C(C)C)cc1-c1cnccc1C(=O)OCCOC(=O)c1ccc(-c2c3nc(c(-c4ccc(S(=O)(=O)[O-])cc4)c4ccc([nH]4)c(-c4ccc(S(=O)(=O)[O-])cc4)c4nc(c(-c5ccc(S(=O)(=O)[O-])cc5)c5ccc2[nH]5)C=C4)C=C3)cc1
REMARK SMILES IDX 20 1 19 2 18 3 16 4 17 5 15 6 10 7 11 8 12 9 14 10 13 11
REMARK SMILES IDX 9 12 1 13 2 14 3 15 4 16 8 17 5 18 6 19 7 20 21 21 22 22
REMARK SMILES IDX 23 23 24 24 25 25 83 26 26 27 82 28 27 29 28 30 29 31 76 32
REMARK SMILES IDX 30 33 81 34 75 35 77 36 31 37 80 38 74 39 73 40 32 42 62 43
REMARK SMILES IDX 43 44 61 45 44 46 47 47 60 48 78 49 45 50 46 51 59 53 79 54
REMARK SMILES IDX 48 55 33 56 34 57 42 58 35 59 41 60 36 61 37 62 38 63 39 64
REMARK SMILES IDX 40 65 63 66 64 67 72 68 65 69 71 70 66 71 67 72 68 73 69 74
REMARK SMILES IDX 70 75 49 76 50 77 58 78 51 79 57 80 52 81 53 82 54 83 55 84
REMARK SMILES IDX 56 85
REMARK H PARENT 77 41 47 52
REMARK Flexibility Score: inf
ROOT
ATOM      1  C   UNL A   1      32.621  30.191  27.111  1.00  0.00     0.275 C 
ENDROOT
BRANCH   1   2
ATOM      2  C   UNL A   1      32.377  28.756  27.534  1.00  0.00     0.275 C 
BRANCH   2   3
ATOM      3  O   UNL A   1      32.555  27.899  26.399  1.00  0.00    -0.458 OA
BRANCH   3   4
ATOM      4  C   UNL A   1      31.535  27.106  26.019  1.00  0.00     0.338 C 
ATOM      5  O   UNL A   1      30.694  26.627  26.771  1.00  0.00    -0.246 OA
BRANCH   4   6
ATOM      6  C   UNL A   1      31.479  26.932  24.536  1.00  0.00     0.071 A 
ATOM      7  C   UNL A   1      32.071  25.890  23.802  1.00  0.00     0.018 A 
ATOM      8  C   UNL A   1      31.887  25.913  22.419  1.00  0.00     0.120 A 
ATOM      9  N   UNL A   1      31.209  26.869  21.740  1.00  0.00    -0.264 NA
ATOM     10  C   UNL A   1      30.802  27.952  23.845  1.00  0.00     0.036 A 
ATOM     11  C   UNL A   1      30.706  27.883  22.467  1.00  0.00     0.112 A 
BRANCH   7  12
ATOM     12  C   UNL A   1      32.911  24.847  24.361  1.00  0.00     0.025 A 
ATOM     13  C   UNL A   1      31.203  23.084  25.277  1.00  0.00     0.069 C 
ATOM     14  C   UNL A   1      32.558  23.609  24.968  1.00  0.00     0.067 A 
ATOM     15  N   UNL A   1      33.643  22.870  25.241  1.00  0.00    -0.177 NA
ATOM     16  N   UNL A   1      34.659  23.585  24.725  1.00  0.00    -0.269 N 
ATOM     17  C   UNL A   1      34.289  24.837  24.323  1.00  0.00     0.118 A 
BRANCH  16  18
ATOM     18  C   UNL A   1      35.986  22.994  24.594  1.00  0.00     0.101 C 
ATOM     19  C   UNL A   1      36.430  22.984  23.137  1.00  0.00     0.033 C 
ATOM     20  C   UNL A   1      37.018  23.681  25.492  1.00  0.00     0.033 C 
ENDBRANCH  16  18
ENDBRANCH   7  12
ENDBRANCH   4   6
ENDBRANCH   3   4
ENDBRANCH   2   3
ENDBRANCH   1   2
BRANCH   1  21
ATOM     21  O   UNL A   1      34.011  30.399  26.877  1.00  0.00    -0.458 OA
BRANCH  21  22
ATOM     22  C   UNL A   1      34.584  31.385  27.603  1.00  0.00     0.338 C 
ATOM     23  O   UNL A   1      34.335  32.577  27.577  1.00  0.00    -0.246 OA
BRANCH  22  24
ATOM     24  C   UNL A   1      35.740  30.824  28.304  1.00  0.00     0.060 A 
ATOM     25  C   UNL A   1      36.557  31.707  29.015  1.00  0.00     0.016 A 
ATOM     26  C   UNL A   1      36.131  29.506  28.026  1.00  0.00     0.016 A 
ATOM     27  C   UNL A   1      37.840  31.309  29.324  1.00  0.00     0.010 A 
ATOM     28  C   UNL A   1      37.414  29.118  28.317  1.00  0.00     0.010 A 
ATOM     29  C   UNL A   1      38.271  30.047  28.906  1.00  0.00    -0.014 A 
BRANCH  29  30
ATOM     30  C   UNL A   1      39.642  29.667  29.160  1.00  0.00     0.031 A 
ATOM     31  C   UNL A   1      39.962  29.503  30.596  1.00  0.00     0.074 A 
ATOM     32  C   UNL A   1      40.473  29.314  28.163  1.00  0.00     0.049 A 
ATOM     33  N   UNL A   1      40.816  30.161  31.304  1.00  0.00    -0.248 NA
ATOM     34  C   UNL A   1      39.117  28.577  31.369  1.00  0.00     0.031 C 
ATOM     35  C   UNL A   1      40.140  29.110  26.750  1.00  0.00     0.029 A 
ATOM     36  N   UNL A   1      41.768  28.913  28.240  1.00  0.00    -0.354 N 
ATOM     37  C   UNL A   1      40.759  29.595  32.573  1.00  0.00     0.074 A 
ATOM     38  C   UNL A   1      39.581  28.768  32.601  1.00  0.00     0.031 C 
ATOM     39  C   UNL A   1      41.128  28.395  26.166  1.00  0.00     0.029 A 
ATOM     40  C   UNL A   1      42.204  28.210  27.127  1.00  0.00     0.049 A 
ATOM     41  H   UNL A   1      42.346  29.104  29.015  1.00  0.00     0.167 HD
ATOM     42  C   UNL A   1      41.815  29.641  33.429  1.00  0.00     0.031 A 
ATOM     43  C   UNL A   1      43.321  27.447  27.044  1.00  0.00     0.031 A 
ATOM     44  C   UNL A   1      42.786  30.625  33.037  1.00  0.00     0.049 A 
ATOM     45  C   UNL A   1      44.210  27.832  28.169  1.00  0.00     0.074 A 
ATOM     46  C   UNL A   1      42.756  31.993  32.853  1.00  0.00     0.029 A 
ATOM     47  N   UNL A   1      43.915  30.173  32.394  1.00  0.00    -0.354 N 
ATOM     48  N   UNL A   1      44.788  28.997  28.273  1.00  0.00    -0.248 NA
ATOM     49  C   UNL A   1      44.117  27.077  29.411  1.00  0.00     0.031 C 
ATOM     50  C   UNL A   1      43.610  32.235  31.739  1.00  0.00     0.029 A 
ATOM     51  C   UNL A   1      44.152  31.011  31.336  1.00  0.00     0.049 A 
ATOM     52  H   UNL A   1      44.455  29.389  32.648  1.00  0.00     0.167 HD
ATOM     53  C   UNL A   1      44.752  29.298  29.629  1.00  0.00     0.074 A 
ATOM     54  C   UNL A   1      44.427  28.036  30.287  1.00  0.00     0.031 C 
ATOM     55  C   UNL A   1      44.716  30.591  30.068  1.00  0.00     0.031 A 
BRANCH  42  56
ATOM     56  C   UNL A   1      42.146  28.515  34.376  1.00  0.00    -0.014 A 
ATOM     57  C   UNL A   1      42.546  28.825  35.690  1.00  0.00     0.010 A 
ATOM     58  C   UNL A   1      42.349  27.188  33.940  1.00  0.00     0.010 A 
ATOM     59  C   UNL A   1      43.186  27.872  36.494  1.00  0.00     0.020 A 
ATOM     60  C   UNL A   1      42.940  26.219  34.749  1.00  0.00     0.020 A 
ATOM     61  C   UNL A   1      43.394  26.580  36.008  1.00  0.00     0.054 A 
BRANCH  61  62
ATOM     62  S   UNL A   1      44.339  25.397  36.995  1.00  0.00     0.124 S 
ATOM     63  O   UNL A   1      43.772  25.599  38.324  1.00  0.00    -0.237 OA
ATOM     64  O   UNL A   1      44.016  24.128  36.351  1.00  0.00    -0.237 OA
ATOM     65  O   UNL A   1      45.722  25.841  36.828  1.00  0.00    -0.744 OA
ENDBRANCH  61  62
ENDBRANCH  42  56
BRANCH  43  66
ATOM     66  C   UNL A   1      43.502  26.208  26.249  1.00  0.00    -0.014 A 
ATOM     67  C   UNL A   1      44.670  25.984  25.500  1.00  0.00     0.010 A 
ATOM     68  C   UNL A   1      42.615  25.124  26.418  1.00  0.00     0.010 A 
ATOM     69  C   UNL A   1      44.957  24.713  24.974  1.00  0.00     0.020 A 
ATOM     70  C   UNL A   1      42.888  23.859  25.890  1.00  0.00     0.020 A 
ATOM     71  C   UNL A   1      44.070  23.653  25.185  1.00  0.00     0.054 A 
BRANCH  71  72
ATOM     72  S   UNL A   1      44.517  21.983  24.629  1.00  0.00     0.124 S 
ATOM     73  O   UNL A   1      45.819  21.784  25.259  1.00  0.00    -0.237 OA
ATOM     74  O   UNL A   1      43.427  21.169  25.161  1.00  0.00    -0.237 OA
ATOM     75  O   UNL A   1      44.544  22.098  23.173  1.00  0.00    -0.744 OA
ENDBRANCH  71  72
ENDBRANCH  43  66
BRANCH  55  76
ATOM     76  C   UNL A   1      45.037  31.698  29.090  1.00  0.00    -0.014 A 
ATOM     77  C   UNL A   1      46.329  32.230  28.913  1.00  0.00     0.010 A 
ATOM     78  C   UNL A   1      44.024  32.082  28.194  1.00  0.00     0.010 A 
ATOM     79  C   UNL A   1      46.592  33.135  27.873  1.00  0.00     0.020 A 
ATOM     80  C   UNL A   1      44.284  32.967  27.145  1.00  0.00     0.020 A 
ATOM     81  C   UNL A   1      45.567  33.494  26.992  1.00  0.00     0.054 A 
BRANCH  81  82
ATOM     82  S   UNL A   1      45.930  34.605  25.603  1.00  0.00     0.124 S 
ATOM     83  O   UNL A   1      47.344  34.344  25.351  1.00  0.00    -0.237 OA
ATOM     84  O   UNL A   1      45.009  34.141  24.567  1.00  0.00    -0.237 OA
ATOM     85  O   UNL A   1      45.631  35.935  26.133  1.00  0.00    -0.744 OA
ENDBRANCH  81  82
ENDBRANCH  55  76
ENDBRANCH  29  30
ENDBRANCH  22  24
ENDBRANCH  21  22
ENDBRANCH   1  21
TORSDOF 16
ENDMDL
