MODEL 1
REMARK VINA RESULT:     -11.6      0.000      0.000
REMARK SMILES O=C(Cc1cccn1-c1ccc2c(c1)OCCO2)OCCOC(=O)c1ccc(-c2c3nc(c(-c4ccc(S(=O)(=O)[O-])cc4)c4ccc([nH]4)c(-c4ccc(S(=O)(=O)[O-])cc4)c4nc(c(-c5ccc(S(=O)(=O)[O-])cc5)c5ccc2[nH]5)C=C4)C=C3)cc1
REMARK SMILES IDX 21 1 20 2 19 3 2 4 1 5 3 6 4 7 5 8 8 9 6 10 7 11 9 12 10 13
REMARK SMILES IDX 14 14 11 15 13 16 12 17 15 18 18 19 16 20 17 21 22 22 23 23
REMARK SMILES IDX 24 24 25 25 26 26 84 27 27 28 83 29 28 30 29 31 30 32 77 33
REMARK SMILES IDX 31 34 82 35 76 36 78 37 32 38 81 39 75 40 74 41 33 43 63 44
REMARK SMILES IDX 44 45 62 46 45 47 48 48 61 49 79 50 46 51 47 52 60 54 80 55
REMARK SMILES IDX 49 56 34 57 35 58 43 59 36 60 42 61 37 62 38 63 39 64 40 65
REMARK SMILES IDX 41 66 64 67 65 68 73 69 66 70 72 71 67 72 68 73 69 74 70 75
REMARK SMILES IDX 71 76 50 77 51 78 59 79 52 80 58 81 53 82 54 83 55 84 56 85
REMARK SMILES IDX 57 86
REMARK H PARENT 78 42 48 53
REMARK Flexibility Score: inf
ROOT
ATOM      1  C   UNL A   1      31.832  32.918  27.325  1.00  0.00     0.275 C 
ENDROOT
BRANCH   1   2
ATOM      2  C   UNL A   1      31.957  31.616  26.551  1.00  0.00     0.274 C 
BRANCH   2   3
ATOM      3  O   UNL A   1      33.050  30.775  26.960  1.00  0.00    -0.462 OA
BRANCH   3   4
ATOM      4  C   UNL A   1      33.102  29.422  26.883  1.00  0.00     0.311 C 
ATOM      5  O   UNL A   1      34.202  28.869  26.890  1.00  0.00    -0.252 OA
BRANCH   4   6
ATOM      6  C   UNL A   1      31.824  28.613  26.742  1.00  0.00     0.177 C 
BRANCH   6   7
ATOM      7  C   UNL A   1      31.455  28.288  25.327  1.00  0.00     0.034 A 
ATOM      8  C   UNL A   1      30.972  29.166  24.366  1.00  0.00     0.024 A 
ATOM      9  N   UNL A   1      31.802  27.112  24.671  1.00  0.00    -0.320 N 
ATOM     10  C   UNL A   1      30.934  28.502  23.130  1.00  0.00     0.020 A 
ATOM     11  C   UNL A   1      31.458  27.251  23.339  1.00  0.00     0.091 A 
BRANCH   9  12
ATOM     12  C   UNL A   1      32.540  26.018  25.185  1.00  0.00     0.049 A 
ATOM     13  C   UNL A   1      33.907  25.931  24.885  1.00  0.00     0.031 A 
ATOM     14  C   UNL A   1      31.937  25.065  26.009  1.00  0.00     0.077 A 
ATOM     15  C   UNL A   1      34.675  24.904  25.438  1.00  0.00     0.052 A 
ATOM     16  C   UNL A   1      32.707  24.037  26.549  1.00  0.00     0.163 A 
ATOM     17  C   UNL A   1      34.072  23.949  26.252  1.00  0.00     0.161 A 
ATOM     18  O   UNL A   1      32.055  23.138  27.354  1.00  0.00    -0.486 OA
ATOM     19  O   UNL A   1      34.879  22.948  26.728  1.00  0.00    -0.486 OA
ATOM     20  C   UNL A   1      32.976  22.343  28.107  1.00  0.00     0.271 C 
ATOM     21  C   UNL A   1      34.102  21.849  27.213  1.00  0.00     0.271 C 
ENDBRANCH   9  12
ENDBRANCH   6   7
ENDBRANCH   4   6
ENDBRANCH   3   4
ENDBRANCH   2   3
ENDBRANCH   1   2
BRANCH   1  22
ATOM     22  O   UNL A   1      33.104  33.410  27.712  1.00  0.00    -0.458 OA
BRANCH  22  23
ATOM     23  C   UNL A   1      33.071  34.531  28.472  1.00  0.00     0.338 C 
ATOM     24  O   UNL A   1      32.312  35.466  28.374  1.00  0.00    -0.246 OA
BRANCH  23  25
ATOM     25  C   UNL A   1      34.217  34.497  29.383  1.00  0.00     0.060 A 
ATOM     26  C   UNL A   1      35.474  34.570  28.779  1.00  0.00     0.016 A 
ATOM     27  C   UNL A   1      34.021  34.002  30.679  1.00  0.00     0.016 A 
ATOM     28  C   UNL A   1      36.506  33.892  29.377  1.00  0.00     0.010 A 
ATOM     29  C   UNL A   1      35.024  33.255  31.234  1.00  0.00     0.010 A 
ATOM     30  C   UNL A   1      36.235  33.168  30.546  1.00  0.00    -0.014 A 
BRANCH  30  31
ATOM     31  C   UNL A   1      37.326  32.419  31.150  1.00  0.00     0.031 A 
ATOM     32  C   UNL A   1      37.552  31.146  30.302  1.00  0.00     0.074 A 
ATOM     33  C   UNL A   1      37.811  32.963  32.317  1.00  0.00     0.049 A 
ATOM     34  N   UNL A   1      37.966  29.984  30.674  1.00  0.00    -0.248 NA
ATOM     35  C   UNL A   1      37.165  31.110  28.852  1.00  0.00     0.031 C 
ATOM     36  C   UNL A   1      37.403  34.274  32.905  1.00  0.00     0.029 A 
ATOM     37  N   UNL A   1      38.730  32.558  33.257  1.00  0.00    -0.354 N 
ATOM     38  C   UNL A   1      38.117  29.181  29.522  1.00  0.00     0.074 A 
ATOM     39  C   UNL A   1      37.491  29.880  28.449  1.00  0.00     0.031 C 
ATOM     40  C   UNL A   1      37.973  34.476  34.119  1.00  0.00     0.029 A 
ATOM     41  C   UNL A   1      38.828  33.351  34.441  1.00  0.00     0.049 A 
ATOM     42  H   UNL A   1      39.293  31.761  33.119  1.00  0.00     0.167 HD
ATOM     43  C   UNL A   1      38.896  28.063  29.516  1.00  0.00     0.031 A 
ATOM     44  C   UNL A   1      39.512  33.064  35.599  1.00  0.00     0.031 A 
ATOM     45  C   UNL A   1      39.404  27.840  30.828  1.00  0.00     0.049 A 
ATOM     46  C   UNL A   1      40.253  31.837  35.272  1.00  0.00     0.074 A 
ATOM     47  C   UNL A   1      38.776  27.468  31.990  1.00  0.00     0.029 A 
ATOM     48  N   UNL A   1      40.585  28.484  31.124  1.00  0.00    -0.354 N 
ATOM     49  N   UNL A   1      41.267  31.770  34.464  1.00  0.00    -0.248 NA
ATOM     50  C   UNL A   1      39.748  30.558  35.788  1.00  0.00     0.031 C 
ATOM     51  C   UNL A   1      39.305  28.387  32.919  1.00  0.00     0.029 A 
ATOM     52  C   UNL A   1      40.430  29.021  32.376  1.00  0.00     0.049 A 
ATOM     53  H   UNL A   1      41.382  28.545  30.550  1.00  0.00     0.167 HD
ATOM     54  C   UNL A   1      41.241  30.456  34.076  1.00  0.00     0.074 A 
ATOM     55  C   UNL A   1      40.552  29.730  35.128  1.00  0.00     0.031 C 
ATOM     56  C   UNL A   1      41.259  30.138  32.755  1.00  0.00     0.031 A 
BRANCH  43  57
ATOM     57  C   UNL A   1      39.512  27.266  28.405  1.00  0.00    -0.014 A 
ATOM     58  C   UNL A   1      39.612  25.869  28.627  1.00  0.00     0.010 A 
ATOM     59  C   UNL A   1      40.301  27.824  27.389  1.00  0.00     0.010 A 
ATOM     60  C   UNL A   1      40.575  25.092  27.991  1.00  0.00     0.020 A 
ATOM     61  C   UNL A   1      41.245  27.034  26.708  1.00  0.00     0.020 A 
ATOM     62  C   UNL A   1      41.411  25.690  27.055  1.00  0.00     0.054 A 
BRANCH  62  63
ATOM     63  S   UNL A   1      42.757  24.687  26.368  1.00  0.00     0.124 S 
ATOM     64  O   UNL A   1      42.113  23.389  26.191  1.00  0.00    -0.237 OA
ATOM     65  O   UNL A   1      43.077  25.400  25.133  1.00  0.00    -0.237 OA
ATOM     66  O   UNL A   1      43.790  24.747  27.398  1.00  0.00    -0.744 OA
ENDBRANCH  62  63
ENDBRANCH  43  57
BRANCH  44  67
ATOM     67  C   UNL A   1      39.621  33.503  37.054  1.00  0.00    -0.014 A 
ATOM     68  C   UNL A   1      40.480  34.468  37.593  1.00  0.00     0.010 A 
ATOM     69  C   UNL A   1      38.645  32.991  37.966  1.00  0.00     0.010 A 
ATOM     70  C   UNL A   1      40.252  35.005  38.895  1.00  0.00     0.020 A 
ATOM     71  C   UNL A   1      38.369  33.551  39.216  1.00  0.00     0.020 A 
ATOM     72  C   UNL A   1      39.157  34.590  39.666  1.00  0.00     0.054 A 
BRANCH  72  73
ATOM     73  S   UNL A   1      38.655  35.492  41.167  1.00  0.00     0.124 S 
ATOM     74  O   UNL A   1      38.600  36.875  40.704  1.00  0.00    -0.237 OA
ATOM     75  O   UNL A   1      37.369  34.882  41.493  1.00  0.00    -0.237 OA
ATOM     76  O   UNL A   1      39.726  35.196  42.120  1.00  0.00    -0.744 OA
ENDBRANCH  72  73
ENDBRANCH  44  67
BRANCH  56  77
ATOM     77  C   UNL A   1      41.840  31.189  31.806  1.00  0.00    -0.014 A 
ATOM     78  C   UNL A   1      40.970  31.941  30.995  1.00  0.00     0.010 A 
ATOM     79  C   UNL A   1      43.222  31.421  31.633  1.00  0.00     0.010 A 
ATOM     80  C   UNL A   1      41.445  32.879  30.064  1.00  0.00     0.020 A 
ATOM     81  C   UNL A   1      43.714  32.354  30.694  1.00  0.00     0.020 A 
ATOM     82  C   UNL A   1      42.816  33.087  29.919  1.00  0.00     0.054 A 
BRANCH  82  83
ATOM     83  S   UNL A   1      43.388  34.333  28.722  1.00  0.00     0.124 S 
ATOM     84  O   UNL A   1      43.809  33.522  27.583  1.00  0.00    -0.237 OA
ATOM     85  O   UNL A   1      42.187  35.136  28.504  1.00  0.00    -0.237 OA
ATOM     86  O   UNL A   1      44.475  35.020  29.420  1.00  0.00    -0.744 OA
ENDBRANCH  82  83
ENDBRANCH  56  77
ENDBRANCH  30  31
ENDBRANCH  23  25
ENDBRANCH  22  23
ENDBRANCH   1  22
TORSDOF 16
ENDMDL
MODEL 2
REMARK VINA RESULT:     -11.6      5.183     11.414
REMARK SMILES O=C(Cc1cccn1-c1ccc2c(c1)OCCO2)OCCOC(=O)c1ccc(-c2c3nc(c(-c4ccc(S(=O)(=O)[O-])cc4)c4ccc([nH]4)c(-c4ccc(S(=O)(=O)[O-])cc4)c4nc(c(-c5ccc(S(=O)(=O)[O-])cc5)c5ccc2[nH]5)C=C4)C=C3)cc1
REMARK SMILES IDX 21 1 20 2 19 3 2 4 1 5 3 6 4 7 5 8 8 9 6 10 7 11 9 12 10 13
REMARK SMILES IDX 14 14 11 15 13 16 12 17 15 18 18 19 16 20 17 21 22 22 23 23
REMARK SMILES IDX 24 24 25 25 26 26 84 27 27 28 83 29 28 30 29 31 30 32 77 33
REMARK SMILES IDX 31 34 82 35 76 36 78 37 32 38 81 39 75 40 74 41 33 43 63 44
REMARK SMILES IDX 44 45 62 46 45 47 48 48 61 49 79 50 46 51 47 52 60 54 80 55
REMARK SMILES IDX 49 56 34 57 35 58 43 59 36 60 42 61 37 62 38 63 39 64 40 65
REMARK SMILES IDX 41 66 64 67 65 68 73 69 66 70 72 71 67 72 68 73 69 74 70 75
REMARK SMILES IDX 71 76 50 77 51 78 59 79 52 80 58 81 53 82 54 83 55 84 56 85
REMARK SMILES IDX 57 86
REMARK H PARENT 78 42 48 53
REMARK Flexibility Score: inf
ROOT
ATOM      1  C   UNL A   1      39.121  19.149  25.712  1.00  0.00     0.275 C 
ENDROOT
BRANCH   1   2
ATOM      2  C   UNL A   1      37.991  19.883  25.008  1.00  0.00     0.274 C 
BRANCH   2   3
ATOM      3  O   UNL A   1      38.186  21.302  24.874  1.00  0.00    -0.462 OA
BRANCH   3   4
ATOM      4  C   UNL A   1      37.247  22.266  25.042  1.00  0.00     0.311 C 
ATOM      5  O   UNL A   1      37.238  22.910  26.091  1.00  0.00    -0.252 OA
BRANCH   4   6
ATOM      6  C   UNL A   1      36.198  22.509  23.970  1.00  0.00     0.177 C 
BRANCH   6   7
ATOM      7  C   UNL A   1      34.825  22.037  24.336  1.00  0.00     0.034 A 
ATOM      8  C   UNL A   1      34.463  20.769  24.768  1.00  0.00     0.024 A 
ATOM      9  N   UNL A   1      33.739  22.875  24.568  1.00  0.00    -0.320 N 
ATOM     10  C   UNL A   1      33.122  20.801  25.183  1.00  0.00     0.020 A 
ATOM     11  C   UNL A   1      32.704  22.102  25.062  1.00  0.00     0.091 A 
BRANCH   9  12
ATOM     12  C   UNL A   1      33.706  24.289  24.501  1.00  0.00     0.049 A 
ATOM     13  C   UNL A   1      33.783  25.019  25.696  1.00  0.00     0.031 A 
ATOM     14  C   UNL A   1      33.640  24.952  23.274  1.00  0.00     0.077 A 
ATOM     15  C   UNL A   1      33.826  26.414  25.657  1.00  0.00     0.052 A 
ATOM     16  C   UNL A   1      33.673  26.344  23.241  1.00  0.00     0.163 A 
ATOM     17  C   UNL A   1      33.752  27.075  24.433  1.00  0.00     0.161 A 
ATOM     18  O   UNL A   1      33.611  26.933  22.004  1.00  0.00    -0.486 OA
ATOM     19  O   UNL A   1      33.759  28.445  24.473  1.00  0.00    -0.486 OA
ATOM     20  C   UNL A   1      33.983  28.313  22.060  1.00  0.00     0.271 C 
ATOM     21  C   UNL A   1      33.302  28.997  23.235  1.00  0.00     0.271 C 
ENDBRANCH   9  12
ENDBRANCH   6   7
ENDBRANCH   4   6
ENDBRANCH   3   4
ENDBRANCH   2   3
ENDBRANCH   1   2
BRANCH   1  22
ATOM     22  O   UNL A   1      40.170  20.036  26.063  1.00  0.00    -0.458 OA
BRANCH  22  23
ATOM     23  C   UNL A   1      41.405  19.481  26.065  1.00  0.00     0.338 C 
ATOM     24  O   UNL A   1      41.693  18.323  25.873  1.00  0.00    -0.246 OA
BRANCH  23  25
ATOM     25  C   UNL A   1      42.366  20.508  26.475  1.00  0.00     0.060 A 
ATOM     26  C   UNL A   1      42.234  20.972  27.785  1.00  0.00     0.016 A 
ATOM     27  C   UNL A   1      43.041  21.222  25.477  1.00  0.00     0.016 A 
ATOM     28  C   UNL A   1      42.549  22.284  28.028  1.00  0.00     0.010 A 
ATOM     29  C   UNL A   1      43.275  22.552  25.694  1.00  0.00     0.010 A 
ATOM     30  C   UNL A   1      42.974  23.075  26.952  1.00  0.00    -0.014 A 
BRANCH  30  31
ATOM     31  C   UNL A   1      43.267  24.477  27.211  1.00  0.00     0.031 A 
ATOM     32  C   UNL A   1      41.921  25.212  27.404  1.00  0.00     0.074 A 
ATOM     33  C   UNL A   1      44.602  24.800  27.145  1.00  0.00     0.049 A 
ATOM     34  N   UNL A   1      41.613  26.433  27.125  1.00  0.00    -0.248 NA
ATOM     35  C   UNL A   1      40.701  24.473  27.873  1.00  0.00     0.031 C 
ATOM     36  C   UNL A   1      45.727  23.834  26.965  1.00  0.00     0.029 A 
ATOM     37  N   UNL A   1      45.310  25.978  27.210  1.00  0.00    -0.354 N 
ATOM     38  C   UNL A   1      40.299  26.671  27.584  1.00  0.00     0.074 A 
ATOM     39  C   UNL A   1      39.743  25.402  27.918  1.00  0.00     0.031 C 
ATOM     40  C   UNL A   1      46.916  24.472  26.821  1.00  0.00     0.029 A 
ATOM     41  C   UNL A   1      46.707  25.902  26.921  1.00  0.00     0.049 A 
ATOM     42  H   UNL A   1      44.875  26.830  27.444  1.00  0.00     0.167 HD
ATOM     43  C   UNL A   1      39.827  27.930  27.805  1.00  0.00     0.031 A 
ATOM     44  C   UNL A   1      47.590  26.939  26.728  1.00  0.00     0.031 A 
ATOM     45  C   UNL A   1      40.819  28.876  27.415  1.00  0.00     0.049 A 
ATOM     46  C   UNL A   1      46.799  28.136  27.054  1.00  0.00     0.074 A 
ATOM     47  C   UNL A   1      41.311  29.213  26.180  1.00  0.00     0.029 A 
ATOM     48  N   UNL A   1      41.737  29.207  28.387  1.00  0.00    -0.354 N 
ATOM     49  N   UNL A   1      46.412  28.472  28.247  1.00  0.00    -0.248 NA
ATOM     50  C   UNL A   1      46.292  28.959  25.949  1.00  0.00     0.031 C 
ATOM     51  C   UNL A   1      42.703  29.203  26.403  1.00  0.00     0.029 A 
ATOM     52  C   UNL A   1      42.965  29.196  27.780  1.00  0.00     0.049 A 
ATOM     53  H   UNL A   1      41.547  29.413  29.331  1.00  0.00     0.167 HD
ATOM     54  C   UNL A   1      45.324  29.263  27.984  1.00  0.00     0.074 A 
ATOM     55  C   UNL A   1      45.505  29.780  26.639  1.00  0.00     0.031 C 
ATOM     56  C   UNL A   1      44.138  29.011  28.598  1.00  0.00     0.031 A 
BRANCH  43  57
ATOM     57  C   UNL A   1      38.669  28.451  28.603  1.00  0.00    -0.014 A 
ATOM     58  C   UNL A   1      37.838  29.392  27.945  1.00  0.00     0.010 A 
ATOM     59  C   UNL A   1      38.585  28.369  30.000  1.00  0.00     0.010 A 
ATOM     60  C   UNL A   1      37.086  30.327  28.651  1.00  0.00     0.020 A 
ATOM     61  C   UNL A   1      37.791  29.281  30.718  1.00  0.00     0.020 A 
ATOM     62  C   UNL A   1      37.094  30.286  30.040  1.00  0.00     0.054 A 
BRANCH  62  63
ATOM     63  S   UNL A   1      36.238  31.616  30.926  1.00  0.00     0.124 S 
ATOM     64  O   UNL A   1      35.243  32.047  29.947  1.00  0.00    -0.237 OA
ATOM     65  O   UNL A   1      35.704  30.919  32.094  1.00  0.00    -0.237 OA
ATOM     66  O   UNL A   1      37.300  32.576  31.215  1.00  0.00    -0.744 OA
ENDBRANCH  62  63
ENDBRANCH  43  57
BRANCH  44  67
ATOM     67  C   UNL A   1      48.982  27.228  26.181  1.00  0.00    -0.014 A 
ATOM     68  C   UNL A   1      49.591  26.663  25.054  1.00  0.00     0.010 A 
ATOM     69  C   UNL A   1      49.712  28.301  26.784  1.00  0.00     0.010 A 
ATOM     70  C   UNL A   1      50.752  27.255  24.476  1.00  0.00     0.020 A 
ATOM     71  C   UNL A   1      50.811  28.931  26.193  1.00  0.00     0.020 A 
ATOM     72  C   UNL A   1      51.311  28.425  25.011  1.00  0.00     0.054 A 
BRANCH  72  73
ATOM     73  S   UNL A   1      52.570  29.379  24.105  1.00  0.00     0.124 S 
ATOM     74  O   UNL A   1      51.853  30.602  23.756  1.00  0.00    -0.237 OA
ATOM     75  O   UNL A   1      53.633  29.529  25.096  1.00  0.00    -0.237 OA
ATOM     76  O   UNL A   1      52.911  28.513  22.976  1.00  0.00    -0.744 OA
ENDBRANCH  72  73
ENDBRANCH  44  67
BRANCH  56  77
ATOM     77  C   UNL A   1      44.202  28.236  29.916  1.00  0.00    -0.014 A 
ATOM     78  C   UNL A   1      43.776  26.895  29.947  1.00  0.00     0.010 A 
ATOM     79  C   UNL A   1      44.605  28.798  31.147  1.00  0.00     0.010 A 
ATOM     80  C   UNL A   1      43.756  26.148  31.137  1.00  0.00     0.020 A 
ATOM     81  C   UNL A   1      44.581  28.061  32.351  1.00  0.00     0.020 A 
ATOM     82  C   UNL A   1      44.164  26.732  32.335  1.00  0.00     0.054 A 
BRANCH  82  83
ATOM     83  S   UNL A   1      44.150  25.719  33.848  1.00  0.00     0.124 S 
ATOM     84  O   UNL A   1      42.846  26.022  34.431  1.00  0.00    -0.237 OA
ATOM     85  O   UNL A   1      44.297  24.364  33.322  1.00  0.00    -0.237 OA
ATOM     86  O   UNL A   1      45.294  26.214  34.614  1.00  0.00    -0.744 OA
ENDBRANCH  82  83
ENDBRANCH  56  77
ENDBRANCH  30  31
ENDBRANCH  23  25
ENDBRANCH  22  23
ENDBRANCH   1  22
TORSDOF 16
ENDMDL
MODEL 3
REMARK VINA RESULT:     -11.5      5.089     11.369
REMARK SMILES O=C(Cc1cccn1-c1ccc2c(c1)OCCO2)OCCOC(=O)c1ccc(-c2c3nc(c(-c4ccc(S(=O)(=O)[O-])cc4)c4ccc([nH]4)c(-c4ccc(S(=O)(=O)[O-])cc4)c4nc(c(-c5ccc(S(=O)(=O)[O-])cc5)c5ccc2[nH]5)C=C4)C=C3)cc1
REMARK SMILES IDX 21 1 20 2 19 3 2 4 1 5 3 6 4 7 5 8 8 9 6 10 7 11 9 12 10 13
REMARK SMILES IDX 14 14 11 15 13 16 12 17 15 18 18 19 16 20 17 21 22 22 23 23
REMARK SMILES IDX 24 24 25 25 26 26 84 27 27 28 83 29 28 30 29 31 30 32 77 33
REMARK SMILES IDX 31 34 82 35 76 36 78 37 32 38 81 39 75 40 74 41 33 43 63 44
REMARK SMILES IDX 44 45 62 46 45 47 48 48 61 49 79 50 46 51 47 52 60 54 80 55
REMARK SMILES IDX 49 56 34 57 35 58 43 59 36 60 42 61 37 62 38 63 39 64 40 65
REMARK SMILES IDX 41 66 64 67 65 68 73 69 66 70 72 71 67 72 68 73 69 74 70 75
REMARK SMILES IDX 71 76 50 77 51 78 59 79 52 80 58 81 53 82 54 83 55 84 56 85
REMARK SMILES IDX 57 86
REMARK H PARENT 78 42 48 53
REMARK Flexibility Score: inf
ROOT
ATOM      1  C   UNL A   1      39.049  20.048  25.393  1.00  0.00     0.275 C 
ENDROOT
BRANCH   1   2
ATOM      2  C   UNL A   1      38.219  21.321  25.366  1.00  0.00     0.274 C 
BRANCH   2   3
ATOM      3  O   UNL A   1      37.348  21.448  24.228  1.00  0.00    -0.462 OA
BRANCH   3   4
ATOM      4  C   UNL A   1      36.598  22.530  23.900  1.00  0.00     0.311 C 
ATOM      5  O   UNL A   1      36.724  23.021  22.778  1.00  0.00    -0.252 OA
BRANCH   4   6
ATOM      6  C   UNL A   1      35.658  23.147  24.921  1.00  0.00     0.177 C 
BRANCH   6   7
ATOM      7  C   UNL A   1      34.220  22.769  24.740  1.00  0.00     0.034 A 
ATOM      8  C   UNL A   1      33.669  21.500  24.851  1.00  0.00     0.024 A 
ATOM      9  N   UNL A   1      33.165  23.673  24.707  1.00  0.00    -0.320 N 
ATOM     10  C   UNL A   1      32.271  21.612  24.795  1.00  0.00     0.020 A 
ATOM     11  C   UNL A   1      31.986  22.951  24.719  1.00  0.00     0.091 A 
BRANCH   9  12
ATOM     12  C   UNL A   1      33.227  25.083  24.825  1.00  0.00     0.049 A 
ATOM     13  C   UNL A   1      33.660  25.830  23.719  1.00  0.00     0.031 A 
ATOM     14  C   UNL A   1      32.828  25.728  25.998  1.00  0.00     0.077 A 
ATOM     15  C   UNL A   1      33.663  27.225  23.782  1.00  0.00     0.052 A 
ATOM     16  C   UNL A   1      32.842  27.120  26.057  1.00  0.00     0.163 A 
ATOM     17  C   UNL A   1      33.273  27.867  24.954  1.00  0.00     0.161 A 
ATOM     18  O   UNL A   1      32.434  27.689  27.235  1.00  0.00    -0.486 OA
ATOM     19  O   UNL A   1      33.338  29.237  24.957  1.00  0.00    -0.486 OA
ATOM     20  C   UNL A   1      32.172  29.088  27.080  1.00  0.00     0.271 C 
ATOM     21  C   UNL A   1      33.290  29.750  26.291  1.00  0.00     0.271 C 
ENDBRANCH   9  12
ENDBRANCH   6   7
ENDBRANCH   4   6
ENDBRANCH   3   4
ENDBRANCH   2   3
ENDBRANCH   1   2
BRANCH   1  22
ATOM     22  O   UNL A   1      39.980  20.064  26.461  1.00  0.00    -0.458 OA
BRANCH  22  23
ATOM     23  C   UNL A   1      41.195  19.545  26.162  1.00  0.00     0.338 C 
ATOM     24  O   UNL A   1      41.446  18.425  25.783  1.00  0.00    -0.246 OA
BRANCH  23  25
ATOM     25  C   UNL A   1      42.213  20.542  26.501  1.00  0.00     0.060 A 
ATOM     26  C   UNL A   1      42.258  20.930  27.842  1.00  0.00     0.016 A 
ATOM     27  C   UNL A   1      42.761  21.311  25.466  1.00  0.00     0.016 A 
ATOM     28  C   UNL A   1      42.617  22.225  28.116  1.00  0.00     0.010 A 
ATOM     29  C   UNL A   1      43.036  22.625  25.727  1.00  0.00     0.010 A 
ATOM     30  C   UNL A   1      42.908  23.075  27.041  1.00  0.00    -0.014 A 
BRANCH  30  31
ATOM     31  C   UNL A   1      43.248  24.458  27.339  1.00  0.00     0.031 A 
ATOM     32  C   UNL A   1      41.928  25.254  27.458  1.00  0.00     0.074 A 
ATOM     33  C   UNL A   1      44.598  24.719  27.363  1.00  0.00     0.049 A 
ATOM     34  N   UNL A   1      41.696  26.491  27.178  1.00  0.00    -0.248 NA
ATOM     35  C   UNL A   1      40.648  24.567  27.837  1.00  0.00     0.031 C 
ATOM     36  C   UNL A   1      45.686  23.703  27.239  1.00  0.00     0.029 A 
ATOM     37  N   UNL A   1      45.354  25.861  27.490  1.00  0.00    -0.354 N 
ATOM     38  C   UNL A   1      40.368  26.785  27.557  1.00  0.00     0.074 A 
ATOM     39  C   UNL A   1      39.733  25.540  27.835  1.00  0.00     0.031 C 
ATOM     40  C   UNL A   1      46.910  24.286  27.181  1.00  0.00     0.029 A 
ATOM     41  C   UNL A   1      46.762  25.724  27.289  1.00  0.00     0.049 A 
ATOM     42  H   UNL A   1      44.945  26.730  27.709  1.00  0.00     0.167 HD
ATOM     43  C   UNL A   1      39.941  28.063  27.766  1.00  0.00     0.031 A 
ATOM     44  C   UNL A   1      47.702  26.720  27.168  1.00  0.00     0.031 A 
ATOM     45  C   UNL A   1      40.999  28.965  27.454  1.00  0.00     0.049 A 
ATOM     46  C   UNL A   1      46.949  27.949  27.462  1.00  0.00     0.074 A 
ATOM     47  C   UNL A   1      41.584  29.294  26.258  1.00  0.00     0.029 A 
ATOM     48  N   UNL A   1      41.866  29.241  28.487  1.00  0.00    -0.354 N 
ATOM     49  N   UNL A   1      46.502  28.288  28.632  1.00  0.00    -0.248 NA
ATOM     50  C   UNL A   1      46.552  28.808  26.339  1.00  0.00     0.031 C 
ATOM     51  C   UNL A   1      42.957  29.215  26.569  1.00  0.00     0.029 A 
ATOM     52  C   UNL A   1      43.130  29.179  27.959  1.00  0.00     0.049 A 
ATOM     53  H   UNL A   1      41.626  29.444  29.420  1.00  0.00     0.167 HD
ATOM     54  C   UNL A   1      45.471  29.133  28.313  1.00  0.00     0.074 A 
ATOM     55  C   UNL A   1      45.762  29.656  26.990  1.00  0.00     0.031 C 
ATOM     56  C   UNL A   1      44.238  28.929  28.847  1.00  0.00     0.031 A 
BRANCH  43  57
ATOM     57  C   UNL A   1      38.760  28.628  28.497  1.00  0.00    -0.014 A 
ATOM     58  C   UNL A   1      38.163  29.774  27.915  1.00  0.00     0.010 A 
ATOM     59  C   UNL A   1      38.467  28.348  29.839  1.00  0.00     0.010 A 
ATOM     60  C   UNL A   1      37.449  30.696  28.675  1.00  0.00     0.020 A 
ATOM     61  C   UNL A   1      37.705  29.252  30.603  1.00  0.00     0.020 A 
ATOM     62  C   UNL A   1      37.252  30.443  30.028  1.00  0.00     0.054 A 
BRANCH  62  63
ATOM     63  S   UNL A   1      36.461  31.739  31.019  1.00  0.00     0.124 S 
ATOM     64  O   UNL A   1      37.454  32.808  30.978  1.00  0.00    -0.237 OA
ATOM     65  O   UNL A   1      35.232  31.997  30.270  1.00  0.00    -0.237 OA
ATOM     66  O   UNL A   1      36.266  31.105  32.320  1.00  0.00    -0.744 OA
ENDBRANCH  62  63
ENDBRANCH  43  57
BRANCH  44  67
ATOM     67  C   UNL A   1      49.139  26.949  26.715  1.00  0.00    -0.014 A 
ATOM     68  C   UNL A   1      50.174  27.558  27.434  1.00  0.00     0.010 A 
ATOM     69  C   UNL A   1      49.537  26.352  25.477  1.00  0.00     0.010 A 
ATOM     70  C   UNL A   1      51.532  27.415  27.023  1.00  0.00     0.020 A 
ATOM     71  C   UNL A   1      50.866  26.147  25.097  1.00  0.00     0.020 A 
ATOM     72  C   UNL A   1      51.871  26.652  25.896  1.00  0.00     0.054 A 
BRANCH  72  73
ATOM     73  S   UNL A   1      53.595  26.178  25.551  1.00  0.00     0.124 S 
ATOM     74  O   UNL A   1      54.300  27.452  25.639  1.00  0.00    -0.237 OA
ATOM     75  O   UNL A   1      53.883  25.219  26.616  1.00  0.00    -0.237 OA
ATOM     76  O   UNL A   1      53.530  25.594  24.210  1.00  0.00    -0.744 OA
ENDBRANCH  72  73
ENDBRANCH  44  67
BRANCH  56  77
ATOM     77  C   UNL A   1      44.181  28.136  30.155  1.00  0.00    -0.014 A 
ATOM     78  C   UNL A   1      44.363  28.810  31.377  1.00  0.00     0.010 A 
ATOM     79  C   UNL A   1      44.019  26.735  30.225  1.00  0.00     0.010 A 
ATOM     80  C   UNL A   1      44.379  28.130  32.606  1.00  0.00     0.020 A 
ATOM     81  C   UNL A   1      44.042  26.038  31.453  1.00  0.00     0.020 A 
ATOM     82  C   UNL A   1      44.213  26.746  32.641  1.00  0.00     0.054 A 
BRANCH  82  83
ATOM     83  S   UNL A   1      44.210  25.909  34.258  1.00  0.00     0.124 S 
ATOM     84  O   UNL A   1      43.699  24.579  33.935  1.00  0.00    -0.237 OA
ATOM     85  O   UNL A   1      45.619  25.958  34.641  1.00  0.00    -0.237 OA
ATOM     86  O   UNL A   1      43.315  26.727  35.077  1.00  0.00    -0.744 OA
ENDBRANCH  82  83
ENDBRANCH  56  77
ENDBRANCH  30  31
ENDBRANCH  23  25
ENDBRANCH  22  23
ENDBRANCH   1  22
TORSDOF 16
ENDMDL
