MODEL 1
REMARK VINA RESULT:     -11.8      0.000      0.000
REMARK SMILES O=C(C[C@]1(C(=O)NC2CCCCC2)CC(c2ccc([N+](=O)[O-])cc2)=NO1)OCCOC(=O)c1ccc(-c2c3nc(c(-c4ccc(S(=O)(=O)[O-])cc4)c4ccc([nH]4)c(-c4ccc(S(=O)(=O)[O-])cc4)c4nc(c(-c5ccc(S(=O)(=O)[O-])cc5)c5ccc2[nH]5)C=C4)C=C3)cc1
REMARK SMILES IDX 28 1 27 2 2 3 1 4 3 5 4 6 14 7 26 8 15 9 25 10 5 11 6 12
REMARK SMILES IDX 7 13 8 15 9 16 13 17 10 18 12 19 11 20 16 21 17 22 24 23
REMARK SMILES IDX 18 24 23 25 19 26 20 27 21 28 22 29 29 30 30 31 31 32 32 33
REMARK SMILES IDX 33 34 34 35 92 36 35 37 91 38 36 39 37 40 38 41 85 42 39 43
REMARK SMILES IDX 90 44 84 45 86 46 40 47 89 48 83 49 82 50 41 52 71 53 52 54
REMARK SMILES IDX 70 55 53 56 56 57 69 58 87 59 54 60 55 61 68 63 88 64 57 65
REMARK SMILES IDX 42 66 43 67 51 68 44 69 50 70 45 71 46 72 47 73 48 74 49 75
REMARK SMILES IDX 72 76 73 77 81 78 74 79 80 80 75 81 76 82 77 83 78 84 79 85
REMARK SMILES IDX 58 86 59 87 67 88 60 89 66 90 61 91 62 92 63 93 64 94 65 95
REMARK H PARENT 7 14 86 51 56 62
REMARK Flexibility Score: inf
ROOT
ATOM      1  C   UNL A   1      32.567  28.147  26.236  1.00  0.00     0.274 C 
ENDROOT
BRANCH   1   2
ATOM      2  O   UNL A   1      33.525  27.066  26.396  1.00  0.00    -0.462 OA
BRANCH   2   3
ATOM      3  C   UNL A   1      33.629  26.010  25.530  1.00  0.00     0.310 C 
ATOM      4  O   UNL A   1      34.242  24.995  25.833  1.00  0.00    -0.252 OA
BRANCH   3   5
ATOM      5  C   UNL A   1      33.156  26.331  24.154  1.00  0.00     0.185 C 
BRANCH   5   6
ATOM      6  C   UNL A   1      32.406  25.289  23.368  1.00  0.00     0.231 C 
ATOM      7  C   UNL A   1      31.514  26.052  22.342  1.00  0.00     0.123 C 
ATOM      8  O   UNL A   1      31.386  24.681  24.176  1.00  0.00    -0.378 OA
ATOM      9  C   UNL A   1      30.428  26.429  23.302  1.00  0.00     0.092 C 
ATOM     10  N   UNL A   1      30.337  25.640  24.326  1.00  0.00    -0.089 NA
BRANCH   6  11
ATOM     11  C   UNL A   1      33.286  24.274  22.591  1.00  0.00     0.268 C 
ATOM     12  O   UNL A   1      33.276  24.339  21.348  1.00  0.00    -0.270 OA
ATOM     13  N   UNL A   1      34.185  23.359  23.035  1.00  0.00    -0.350 N 
ATOM     14  H   UNL A   1      34.835  23.243  22.305  1.00  0.00     0.163 HD
BRANCH  13  15
ATOM     15  C   UNL A   1      34.637  22.439  24.147  1.00  0.00     0.082 C 
ATOM     16  C   UNL A   1      33.658  21.232  24.110  1.00  0.00     0.025 C 
ATOM     17  C   UNL A   1      36.086  21.935  24.206  1.00  0.00     0.025 C 
ATOM     18  C   UNL A   1      33.991  20.076  25.049  1.00  0.00     0.002 C 
ATOM     19  C   UNL A   1      36.362  20.760  25.141  1.00  0.00     0.002 C 
ATOM     20  C   UNL A   1      35.421  19.605  24.860  1.00  0.00     0.000 C 
ENDBRANCH  13  15
ENDBRANCH   6  11
BRANCH   9  21
ATOM     21  C   UNL A   1      29.711  27.718  23.234  1.00  0.00    -0.000 A 
ATOM     22  C   UNL A   1      30.499  28.880  23.261  1.00  0.00     0.017 A 
ATOM     23  C   UNL A   1      28.322  27.816  23.167  1.00  0.00     0.017 A 
ATOM     24  C   UNL A   1      29.912  30.145  23.216  1.00  0.00     0.086 A 
ATOM     25  C   UNL A   1      27.721  29.088  23.161  1.00  0.00     0.086 A 
ATOM     26  C   UNL A   1      28.518  30.246  23.187  1.00  0.00     0.269 A 
BRANCH  26  27
ATOM     27  N   UNL A   1      27.898  31.578  23.219  1.00  0.00     0.062 N 
ATOM     28  O   UNL A   1      28.498  32.506  22.653  1.00  0.00    -0.258 OA
ATOM     29  O   UNL A   1      26.822  31.702  23.820  1.00  0.00    -0.258 OA
ENDBRANCH  26  27
ENDBRANCH   9  21
ENDBRANCH   5   6
ENDBRANCH   3   5
ENDBRANCH   2   3
ENDBRANCH   1   2
BRANCH   1  30
ATOM     30  C   UNL A   1      33.100  29.574  26.507  1.00  0.00     0.275 C 
BRANCH  30  31
ATOM     31  O   UNL A   1      33.319  29.875  27.910  1.00  0.00    -0.458 OA
BRANCH  31  32
ATOM     32  C   UNL A   1      34.284  30.805  28.168  1.00  0.00     0.338 C 
ATOM     33  O   UNL A   1      34.078  32.004  28.252  1.00  0.00    -0.246 OA
BRANCH  32  34
ATOM     34  C   UNL A   1      35.645  30.208  28.384  1.00  0.00     0.060 A 
ATOM     35  C   UNL A   1      36.112  29.826  29.642  1.00  0.00     0.016 A 
ATOM     36  C   UNL A   1      36.546  30.146  27.319  1.00  0.00     0.016 A 
ATOM     37  C   UNL A   1      37.450  29.477  29.867  1.00  0.00     0.010 A 
ATOM     38  C   UNL A   1      37.872  29.717  27.524  1.00  0.00     0.010 A 
ATOM     39  C   UNL A   1      38.355  29.403  28.808  1.00  0.00    -0.014 A 
BRANCH  39  40
ATOM     40  C   UNL A   1      39.792  29.052  29.032  1.00  0.00     0.031 A 
ATOM     41  C   UNL A   1      40.760  30.114  29.495  1.00  0.00     0.074 A 
ATOM     42  C   UNL A   1      40.262  27.801  28.832  1.00  0.00     0.049 A 
ATOM     43  N   UNL A   1      42.067  30.118  29.459  1.00  0.00    -0.248 NA
ATOM     44  C   UNL A   1      40.173  31.332  30.077  1.00  0.00     0.031 C 
ATOM     45  C   UNL A   1      39.457  26.620  28.507  1.00  0.00     0.029 A 
ATOM     46  N   UNL A   1      41.553  27.317  28.859  1.00  0.00    -0.354 N 
ATOM     47  C   UNL A   1      42.459  31.363  29.939  1.00  0.00     0.074 A 
ATOM     48  C   UNL A   1      41.249  32.078  30.289  1.00  0.00     0.031 C 
ATOM     49  C   UNL A   1      40.267  25.558  28.366  1.00  0.00     0.029 A 
ATOM     50  C   UNL A   1      41.653  25.996  28.480  1.00  0.00     0.049 A 
ATOM     51  H   UNL A   1      42.328  27.863  29.123  1.00  0.00     0.167 HD
ATOM     52  C   UNL A   1      43.710  31.871  30.057  1.00  0.00     0.031 A 
ATOM     53  C   UNL A   1      42.726  25.238  28.175  1.00  0.00     0.031 A 
ATOM     54  C   UNL A   1      44.913  31.145  29.752  1.00  0.00     0.049 A 
ATOM     55  C   UNL A   1      44.102  25.848  28.209  1.00  0.00     0.074 A 
ATOM     56  C   UNL A   1      46.225  31.581  29.835  1.00  0.00     0.029 A 
ATOM     57  N   UNL A   1      44.955  29.832  29.314  1.00  0.00    -0.354 N 
ATOM     58  N   UNL A   1      44.456  27.056  28.576  1.00  0.00    -0.248 NA
ATOM     59  C   UNL A   1      45.217  25.005  27.754  1.00  0.00     0.031 C 
ATOM     60  C   UNL A   1      47.059  30.545  29.397  1.00  0.00     0.029 A 
ATOM     61  C   UNL A   1      46.268  29.451  29.091  1.00  0.00     0.049 A 
ATOM     62  H   UNL A   1      44.170  29.254  29.181  1.00  0.00     0.167 HD
ATOM     63  C   UNL A   1      45.834  27.114  28.400  1.00  0.00     0.074 A 
ATOM     64  C   UNL A   1      46.254  25.817  27.915  1.00  0.00     0.031 C 
ATOM     65  C   UNL A   1      46.676  28.156  28.611  1.00  0.00     0.031 A 
BRANCH  52  66
ATOM     66  C   UNL A   1      43.845  33.315  30.460  1.00  0.00    -0.014 A 
ATOM     67  C   UNL A   1      43.993  33.703  31.801  1.00  0.00     0.010 A 
ATOM     68  C   UNL A   1      43.882  34.299  29.452  1.00  0.00     0.010 A 
ATOM     69  C   UNL A   1      44.145  35.054  32.130  1.00  0.00     0.020 A 
ATOM     70  C   UNL A   1      44.055  35.646  29.775  1.00  0.00     0.020 A 
ATOM     71  C   UNL A   1      44.169  36.017  31.115  1.00  0.00     0.054 A 
BRANCH  71  72
ATOM     72  S   UNL A   1      44.385  37.761  31.567  1.00  0.00     0.124 S 
ATOM     73  O   UNL A   1      43.749  37.812  32.880  1.00  0.00    -0.237 OA
ATOM     74  O   UNL A   1      45.837  37.917  31.565  1.00  0.00    -0.237 OA
ATOM     75  O   UNL A   1      43.684  38.483  30.508  1.00  0.00    -0.744 OA
ENDBRANCH  71  72
ENDBRANCH  52  66
BRANCH  53  76
ATOM     76  C   UNL A   1      42.535  23.844  27.680  1.00  0.00    -0.014 A 
ATOM     77  C   UNL A   1      42.453  22.760  28.573  1.00  0.00     0.010 A 
ATOM     78  C   UNL A   1      42.453  23.594  26.296  1.00  0.00     0.010 A 
ATOM     79  C   UNL A   1      42.304  21.456  28.090  1.00  0.00     0.020 A 
ATOM     80  C   UNL A   1      42.271  22.298  25.813  1.00  0.00     0.020 A 
ATOM     81  C   UNL A   1      42.212  21.233  26.712  1.00  0.00     0.054 A 
BRANCH  81  82
ATOM     82  S   UNL A   1      41.973  19.541  26.101  1.00  0.00     0.124 S 
ATOM     83  O   UNL A   1      42.863  19.510  24.945  1.00  0.00    -0.237 OA
ATOM     84  O   UNL A   1      42.387  18.728  27.242  1.00  0.00    -0.237 OA
ATOM     85  O   UNL A   1      40.545  19.491  25.797  1.00  0.00    -0.744 OA
ENDBRANCH  81  82
ENDBRANCH  53  76
BRANCH  65  86
ATOM     86  C   UNL A   1      48.139  27.939  28.339  1.00  0.00    -0.014 A 
ATOM     87  C   UNL A   1      48.993  27.445  29.341  1.00  0.00     0.010 A 
ATOM     88  C   UNL A   1      48.648  28.156  27.046  1.00  0.00     0.010 A 
ATOM     89  C   UNL A   1      50.336  27.183  29.056  1.00  0.00     0.020 A 
ATOM     90  C   UNL A   1      49.985  27.876  26.753  1.00  0.00     0.020 A 
ATOM     91  C   UNL A   1      50.824  27.398  27.763  1.00  0.00     0.054 A 
BRANCH  91  92
ATOM     92  S   UNL A   1      52.552  26.983  27.400  1.00  0.00     0.124 S 
ATOM     93  O   UNL A   1      52.450  26.391  26.069  1.00  0.00    -0.237 OA
ATOM     94  O   UNL A   1      53.215  28.283  27.460  1.00  0.00    -0.237 OA
ATOM     95  O   UNL A   1      52.916  26.054  28.469  1.00  0.00    -0.744 OA
ENDBRANCH  91  92
ENDBRANCH  65  86
ENDBRANCH  39  40
ENDBRANCH  32  34
ENDBRANCH  31  32
ENDBRANCH  30  31
ENDBRANCH   1  30
TORSDOF 19
ENDMDL
MODEL 2
REMARK VINA RESULT:     -11.4      4.279     10.707
REMARK SMILES O=C(C[C@]1(C(=O)NC2CCCCC2)CC(c2ccc([N+](=O)[O-])cc2)=NO1)OCCOC(=O)c1ccc(-c2c3nc(c(-c4ccc(S(=O)(=O)[O-])cc4)c4ccc([nH]4)c(-c4ccc(S(=O)(=O)[O-])cc4)c4nc(c(-c5ccc(S(=O)(=O)[O-])cc5)c5ccc2[nH]5)C=C4)C=C3)cc1
REMARK SMILES IDX 28 1 27 2 2 3 1 4 3 5 4 6 14 7 26 8 15 9 25 10 5 11 6 12
REMARK SMILES IDX 7 13 8 15 9 16 13 17 10 18 12 19 11 20 16 21 17 22 24 23
REMARK SMILES IDX 18 24 23 25 19 26 20 27 21 28 22 29 29 30 30 31 31 32 32 33
REMARK SMILES IDX 33 34 34 35 92 36 35 37 91 38 36 39 37 40 38 41 85 42 39 43
REMARK SMILES IDX 90 44 84 45 86 46 40 47 89 48 83 49 82 50 41 52 71 53 52 54
REMARK SMILES IDX 70 55 53 56 56 57 69 58 87 59 54 60 55 61 68 63 88 64 57 65
REMARK SMILES IDX 42 66 43 67 51 68 44 69 50 70 45 71 46 72 47 73 48 74 49 75
REMARK SMILES IDX 72 76 73 77 81 78 74 79 80 80 75 81 76 82 77 83 78 84 79 85
REMARK SMILES IDX 58 86 59 87 67 88 60 89 66 90 61 91 62 92 63 93 64 94 65 95
REMARK H PARENT 7 14 86 51 56 62
REMARK Flexibility Score: inf
ROOT
ATOM      1  C   UNL A   1      36.770  22.655  24.235  1.00  0.00     0.274 C 
ENDROOT
BRANCH   1   2
ATOM      2  O   UNL A   1      36.130  23.784  24.892  1.00  0.00    -0.462 OA
BRANCH   2   3
ATOM      3  C   UNL A   1      34.786  24.040  24.821  1.00  0.00     0.310 C 
ATOM      4  O   UNL A   1      34.362  25.108  24.403  1.00  0.00    -0.252 OA
BRANCH   3   5
ATOM      5  C   UNL A   1      33.957  23.018  25.521  1.00  0.00     0.185 C 
BRANCH   5   6
ATOM      6  C   UNL A   1      32.481  22.939  25.231  1.00  0.00     0.231 C 
ATOM      7  C   UNL A   1      31.998  21.541  25.725  1.00  0.00     0.123 C 
ATOM      8  O   UNL A   1      32.248  22.796  23.821  1.00  0.00    -0.378 OA
ATOM      9  C   UNL A   1      32.497  20.760  24.548  1.00  0.00     0.092 C 
ATOM     10  N   UNL A   1      32.613  21.462  23.465  1.00  0.00    -0.089 NA
BRANCH   6  11
ATOM     11  C   UNL A   1      31.606  24.026  25.910  1.00  0.00     0.268 C 
ATOM     12  O   UNL A   1      31.114  23.756  27.021  1.00  0.00    -0.270 OA
ATOM     13  N   UNL A   1      31.355  25.311  25.552  1.00  0.00    -0.350 N 
ATOM     14  H   UNL A   1      31.166  25.792  26.390  1.00  0.00     0.163 HD
BRANCH  13  15
ATOM     15  C   UNL A   1      31.234  26.335  24.446  1.00  0.00     0.082 C 
ATOM     16  C   UNL A   1      29.711  26.605  24.294  1.00  0.00     0.025 C 
ATOM     17  C   UNL A   1      31.995  27.667  24.526  1.00  0.00     0.025 C 
ATOM     18  C   UNL A   1      29.326  27.723  23.331  1.00  0.00     0.002 C 
ATOM     19  C   UNL A   1      31.554  28.762  23.558  1.00  0.00     0.002 C 
ATOM     20  C   UNL A   1      30.062  29.010  23.655  1.00  0.00     0.000 C 
ENDBRANCH  13  15
ENDBRANCH   6  11
BRANCH   9  21
ATOM     21  C   UNL A   1      33.055  19.398  24.670  1.00  0.00    -0.000 A 
ATOM     22  C   UNL A   1      32.168  18.387  25.073  1.00  0.00     0.017 A 
ATOM     23  C   UNL A   1      34.394  19.097  24.427  1.00  0.00     0.017 A 
ATOM     24  C   UNL A   1      32.605  17.071  25.230  1.00  0.00     0.086 A 
ATOM     25  C   UNL A   1      34.851  17.781  24.622  1.00  0.00     0.086 A 
ATOM     26  C   UNL A   1      33.955  16.775  25.023  1.00  0.00     0.269 A 
BRANCH  26  27
ATOM     27  N   UNL A   1      34.430  15.405  25.265  1.00  0.00     0.062 N 
ATOM     28  O   UNL A   1      33.577  14.512  25.384  1.00  0.00    -0.258 OA
ATOM     29  O   UNL A   1      35.652  15.222  25.351  1.00  0.00    -0.258 OA
ENDBRANCH  26  27
ENDBRANCH   9  21
ENDBRANCH   5   6
ENDBRANCH   3   5
ENDBRANCH   2   3
ENDBRANCH   1   2
BRANCH   1  30
ATOM     30  C   UNL A   1      37.796  21.867  25.083  1.00  0.00     0.275 C 
BRANCH  30  31
ATOM     31  O   UNL A   1      38.220  22.547  26.293  1.00  0.00    -0.458 OA
BRANCH  31  32
ATOM     32  C   UNL A   1      39.505  23.005  26.291  1.00  0.00     0.338 C 
ATOM     33  O   UNL A   1      40.438  22.435  25.749  1.00  0.00    -0.246 OA
BRANCH  32  34
ATOM     34  C   UNL A   1      39.670  24.321  26.995  1.00  0.00     0.060 A 
ATOM     35  C   UNL A   1      40.586  25.290  26.584  1.00  0.00     0.016 A 
ATOM     36  C   UNL A   1      38.983  24.554  28.189  1.00  0.00     0.016 A 
ATOM     37  C   UNL A   1      40.887  26.412  27.367  1.00  0.00     0.010 A 
ATOM     38  C   UNL A   1      39.221  25.722  28.940  1.00  0.00     0.010 A 
ATOM     39  C   UNL A   1      40.200  26.657  28.555  1.00  0.00    -0.014 A 
BRANCH  39  40
ATOM     40  C   UNL A   1      40.522  27.841  29.413  1.00  0.00     0.031 A 
ATOM     41  C   UNL A   1      41.737  27.809  30.308  1.00  0.00     0.074 A 
ATOM     42  C   UNL A   1      39.752  28.951  29.418  1.00  0.00     0.049 A 
ATOM     43  N   UNL A   1      42.033  28.565  31.333  1.00  0.00    -0.248 NA
ATOM     44  C   UNL A   1      42.755  26.790  30.001  1.00  0.00     0.031 C 
ATOM     45  C   UNL A   1      38.614  29.213  28.534  1.00  0.00     0.029 A 
ATOM     46  N   UNL A   1      39.807  30.073  30.218  1.00  0.00    -0.354 N 
ATOM     47  C   UNL A   1      43.228  28.068  31.843  1.00  0.00     0.074 A 
ATOM     48  C   UNL A   1      43.619  26.962  30.993  1.00  0.00     0.031 C 
ATOM     49  C   UNL A   1      38.083  30.408  28.838  1.00  0.00     0.029 A 
ATOM     50  C   UNL A   1      38.767  30.951  30.006  1.00  0.00     0.049 A 
ATOM     51  H   UNL A   1      40.521  30.230  30.877  1.00  0.00     0.167 HD
ATOM     52  C   UNL A   1      43.924  28.481  32.929  1.00  0.00     0.031 A 
ATOM     53  C   UNL A   1      38.353  32.024  30.710  1.00  0.00     0.031 A 
ATOM     54  C   UNL A   1      43.559  29.608  33.747  1.00  0.00     0.049 A 
ATOM     55  C   UNL A   1      39.073  32.407  31.975  1.00  0.00     0.074 A 
ATOM     56  C   UNL A   1      44.200  30.097  34.873  1.00  0.00     0.029 A 
ATOM     57  N   UNL A   1      42.464  30.425  33.524  1.00  0.00    -0.354 N 
ATOM     58  N   UNL A   1      40.150  31.874  32.501  1.00  0.00    -0.248 NA
ATOM     59  C   UNL A   1      38.503  33.513  32.759  1.00  0.00     0.031 C 
ATOM     60  C   UNL A   1      43.462  31.181  35.361  1.00  0.00     0.029 A 
ATOM     61  C   UNL A   1      42.392  31.396  34.508  1.00  0.00     0.049 A 
ATOM     62  H   UNL A   1      41.831  30.332  32.776  1.00  0.00     0.167 HD
ATOM     63  C   UNL A   1      40.386  32.582  33.674  1.00  0.00     0.074 A 
ATOM     64  C   UNL A   1      39.357  33.595  33.771  1.00  0.00     0.031 C 
ATOM     65  C   UNL A   1      41.364  32.401  34.595  1.00  0.00     0.031 A 
BRANCH  52  66
ATOM     66  C   UNL A   1      45.111  27.661  33.356  1.00  0.00    -0.014 A 
ATOM     67  C   UNL A   1      46.419  27.986  32.964  1.00  0.00     0.010 A 
ATOM     68  C   UNL A   1      44.905  26.569  34.221  1.00  0.00     0.010 A 
ATOM     69  C   UNL A   1      47.499  27.214  33.406  1.00  0.00     0.020 A 
ATOM     70  C   UNL A   1      45.982  25.808  34.682  1.00  0.00     0.020 A 
ATOM     71  C   UNL A   1      47.272  26.126  34.258  1.00  0.00     0.054 A 
BRANCH  71  72
ATOM     72  S   UNL A   1      48.691  25.152  34.832  1.00  0.00     0.124 S 
ATOM     73  O   UNL A   1      49.791  25.759  34.089  1.00  0.00    -0.237 OA
ATOM     74  O   UNL A   1      48.692  25.400  36.271  1.00  0.00    -0.237 OA
ATOM     75  O   UNL A   1      48.354  23.785  34.439  1.00  0.00    -0.744 OA
ENDBRANCH  71  72
ENDBRANCH  52  66
BRANCH  53  76
ATOM     76  C   UNL A   1      37.109  32.743  30.308  1.00  0.00    -0.014 A 
ATOM     77  C   UNL A   1      35.919  32.604  31.044  1.00  0.00     0.010 A 
ATOM     78  C   UNL A   1      37.110  33.563  29.163  1.00  0.00     0.010 A 
ATOM     79  C   UNL A   1      34.754  33.261  30.636  1.00  0.00     0.020 A 
ATOM     80  C   UNL A   1      35.958  34.246  28.771  1.00  0.00     0.020 A 
ATOM     81  C   UNL A   1      34.781  34.080  29.502  1.00  0.00     0.054 A 
BRANCH  81  82
ATOM     82  S   UNL A   1      33.274  34.962  29.010  1.00  0.00     0.124 S 
ATOM     83  O   UNL A   1      32.721  34.070  27.995  1.00  0.00    -0.237 OA
ATOM     84  O   UNL A   1      32.525  35.040  30.261  1.00  0.00    -0.237 OA
ATOM     85  O   UNL A   1      33.778  36.241  28.514  1.00  0.00    -0.744 OA
ENDBRANCH  81  82
ENDBRANCH  53  76
BRANCH  65  86
ATOM     86  C   UNL A   1      41.387  33.325  35.782  1.00  0.00    -0.014 A 
ATOM     87  C   UNL A   1      42.038  34.569  35.715  1.00  0.00     0.010 A 
ATOM     88  C   UNL A   1      40.682  32.978  36.948  1.00  0.00     0.010 A 
ATOM     89  C   UNL A   1      41.995  35.447  36.802  1.00  0.00     0.020 A 
ATOM     90  C   UNL A   1      40.619  33.863  38.029  1.00  0.00     0.020 A 
ATOM     91  C   UNL A   1      41.282  35.090  37.951  1.00  0.00     0.054 A 
BRANCH  91  92
ATOM     92  S   UNL A   1      41.180  36.276  39.320  1.00  0.00     0.124 S 
ATOM     93  O   UNL A   1      39.874  35.965  39.894  1.00  0.00    -0.237 OA
ATOM     94  O   UNL A   1      42.331  35.916  40.145  1.00  0.00    -0.237 OA
ATOM     95  O   UNL A   1      41.276  37.576  38.659  1.00  0.00    -0.744 OA
ENDBRANCH  91  92
ENDBRANCH  65  86
ENDBRANCH  39  40
ENDBRANCH  32  34
ENDBRANCH  31  32
ENDBRANCH  30  31
ENDBRANCH   1  30
TORSDOF 19
ENDMDL
MODEL 3
REMARK VINA RESULT:     -11.2      2.660      7.175
REMARK SMILES O=C(C[C@]1(C(=O)NC2CCCCC2)CC(c2ccc([N+](=O)[O-])cc2)=NO1)OCCOC(=O)c1ccc(-c2c3nc(c(-c4ccc(S(=O)(=O)[O-])cc4)c4ccc([nH]4)c(-c4ccc(S(=O)(=O)[O-])cc4)c4nc(c(-c5ccc(S(=O)(=O)[O-])cc5)c5ccc2[nH]5)C=C4)C=C3)cc1
REMARK SMILES IDX 28 1 27 2 2 3 1 4 3 5 4 6 14 7 26 8 15 9 25 10 5 11 6 12
REMARK SMILES IDX 7 13 8 15 9 16 13 17 10 18 12 19 11 20 16 21 17 22 24 23
REMARK SMILES IDX 18 24 23 25 19 26 20 27 21 28 22 29 29 30 30 31 31 32 32 33
REMARK SMILES IDX 33 34 34 35 92 36 35 37 91 38 36 39 37 40 38 41 85 42 39 43
REMARK SMILES IDX 90 44 84 45 86 46 40 47 89 48 83 49 82 50 41 52 71 53 52 54
REMARK SMILES IDX 70 55 53 56 56 57 69 58 87 59 54 60 55 61 68 63 88 64 57 65
REMARK SMILES IDX 42 66 43 67 51 68 44 69 50 70 45 71 46 72 47 73 48 74 49 75
REMARK SMILES IDX 72 76 73 77 81 78 74 79 80 80 75 81 76 82 77 83 78 84 79 85
REMARK SMILES IDX 58 86 59 87 67 88 60 89 66 90 61 91 62 92 63 93 64 94 65 95
REMARK H PARENT 7 14 86 51 56 62
REMARK Flexibility Score: inf
ROOT
ATOM      1  C   UNL A   1      36.136  21.175  24.686  1.00  0.00     0.274 C 
ENDROOT
BRANCH   1   2
ATOM      2  O   UNL A   1      35.210  20.739  25.719  1.00  0.00    -0.462 OA
BRANCH   2   3
ATOM      3  C   UNL A   1      34.160  21.497  26.165  1.00  0.00     0.310 C 
ATOM      4  O   UNL A   1      33.702  21.353  27.290  1.00  0.00    -0.252 OA
BRANCH   3   5
ATOM      5  C   UNL A   1      33.508  22.290  25.084  1.00  0.00     0.185 C 
BRANCH   5   6
ATOM      6  C   UNL A   1      32.223  21.794  24.475  1.00  0.00     0.231 C 
ATOM      7  C   UNL A   1      31.622  22.980  23.661  1.00  0.00     0.123 C 
ATOM      8  O   UNL A   1      31.209  21.648  25.482  1.00  0.00    -0.378 OA
ATOM      9  C   UNL A   1      31.044  23.718  24.830  1.00  0.00     0.092 C 
ATOM     10  N   UNL A   1      30.786  22.962  25.850  1.00  0.00    -0.089 NA
BRANCH   6  11
ATOM     11  C   UNL A   1      32.357  20.571  23.531  1.00  0.00     0.268 C 
ATOM     12  O   UNL A   1      31.909  20.686  22.375  1.00  0.00    -0.270 OA
ATOM     13  N   UNL A   1      32.994  19.385  23.702  1.00  0.00    -0.350 N 
ATOM     14  H   UNL A   1      33.248  19.081  22.801  1.00  0.00     0.163 HD
BRANCH  13  15
ATOM     15  C   UNL A   1      33.491  18.320  24.655  1.00  0.00     0.082 C 
ATOM     16  C   UNL A   1      32.248  17.448  24.987  1.00  0.00     0.025 C 
ATOM     17  C   UNL A   1      34.675  17.420  24.276  1.00  0.00     0.025 C 
ATOM     18  C   UNL A   1      32.513  16.202  25.825  1.00  0.00     0.002 C 
ATOM     19  C   UNL A   1      34.882  16.171  25.130  1.00  0.00     0.002 C 
ATOM     20  C   UNL A   1      33.612  15.349  25.216  1.00  0.00     0.000 C 
ENDBRANCH  13  15
ENDBRANCH   6  11
BRANCH   9  21
ATOM     21  C   UNL A   1      31.021  25.192  24.914  1.00  0.00    -0.000 A 
ATOM     22  C   UNL A   1      30.542  25.879  23.787  1.00  0.00     0.017 A 
ATOM     23  C   UNL A   1      31.464  25.900  26.029  1.00  0.00     0.017 A 
ATOM     24  C   UNL A   1      30.495  27.274  23.765  1.00  0.00     0.086 A 
ATOM     25  C   UNL A   1      31.457  27.307  26.000  1.00  0.00     0.086 A 
ATOM     26  C   UNL A   1      30.974  27.987  24.868  1.00  0.00     0.269 A 
BRANCH  26  27
ATOM     27  N   UNL A   1      30.997  29.456  24.814  1.00  0.00     0.062 N 
ATOM     28  O   UNL A   1      30.173  30.017  24.075  1.00  0.00    -0.258 OA
ATOM     29  O   UNL A   1      31.845  30.047  25.495  1.00  0.00    -0.258 OA
ENDBRANCH  26  27
ENDBRANCH   9  21
ENDBRANCH   5   6
ENDBRANCH   3   5
ENDBRANCH   2   3
ENDBRANCH   1   2
BRANCH   1  30
ATOM     30  C   UNL A   1      37.640  21.081  25.037  1.00  0.00     0.275 C 
BRANCH  30  31
ATOM     31  O   UNL A   1      38.135  22.178  25.849  1.00  0.00    -0.458 OA
BRANCH  31  32
ATOM     32  C   UNL A   1      39.401  22.024  26.336  1.00  0.00     0.338 C 
ATOM     33  O   UNL A   1      40.038  20.985  26.279  1.00  0.00    -0.246 OA
BRANCH  32  34
ATOM     34  C   UNL A   1      39.968  23.282  26.928  1.00  0.00     0.060 A 
ATOM     35  C   UNL A   1      39.715  24.548  26.398  1.00  0.00     0.016 A 
ATOM     36  C   UNL A   1      40.895  23.196  27.969  1.00  0.00     0.016 A 
ATOM     37  C   UNL A   1      40.416  25.686  26.817  1.00  0.00     0.010 A 
ATOM     38  C   UNL A   1      41.544  24.350  28.451  1.00  0.00     0.010 A 
ATOM     39  C   UNL A   1      41.337  25.611  27.862  1.00  0.00    -0.014 A 
BRANCH  39  40
ATOM     40  C   UNL A   1      42.109  26.813  28.310  1.00  0.00     0.031 A 
ATOM     41  C   UNL A   1      41.399  27.936  29.026  1.00  0.00     0.074 A 
ATOM     42  C   UNL A   1      43.437  26.931  28.091  1.00  0.00     0.049 A 
ATOM     43  N   UNL A   1      41.786  29.169  29.225  1.00  0.00    -0.248 NA
ATOM     44  C   UNL A   1      40.078  27.623  29.595  1.00  0.00     0.031 C 
ATOM     45  C   UNL A   1      44.312  25.900  27.528  1.00  0.00     0.029 A 
ATOM     46  N   UNL A   1      44.286  27.995  28.307  1.00  0.00    -0.354 N 
ATOM     47  C   UNL A   1      40.730  29.802  29.872  1.00  0.00     0.074 A 
ATOM     48  C   UNL A   1      39.695  28.805  30.059  1.00  0.00     0.031 C 
ATOM     49  C   UNL A   1      45.564  26.379  27.444  1.00  0.00     0.029 A 
ATOM     50  C   UNL A   1      45.565  27.782  27.841  1.00  0.00     0.049 A 
ATOM     51  H   UNL A   1      44.005  28.828  28.751  1.00  0.00     0.167 HD
ATOM     52  C   UNL A   1      40.623  31.097  30.255  1.00  0.00     0.031 A 
ATOM     53  C   UNL A   1      46.601  28.629  27.670  1.00  0.00     0.031 A 
ATOM     54  C   UNL A   1      41.668  32.075  30.109  1.00  0.00     0.049 A 
ATOM     55  C   UNL A   1      46.433  30.087  28.001  1.00  0.00     0.074 A 
ATOM     56  C   UNL A   1      41.648  33.414  30.462  1.00  0.00     0.029 A 
ATOM     57  N   UNL A   1      42.921  31.821  29.576  1.00  0.00    -0.354 N 
ATOM     58  N   UNL A   1      45.397  30.696  28.527  1.00  0.00    -0.248 NA
ATOM     59  C   UNL A   1      47.559  30.978  27.683  1.00  0.00     0.031 C 
ATOM     60  C   UNL A   1      42.873  33.982  30.094  1.00  0.00     0.029 A 
ATOM     61  C   UNL A   1      43.672  32.984  29.560  1.00  0.00     0.049 A 
ATOM     62  H   UNL A   1      43.232  30.944  29.256  1.00  0.00     0.167 HD
ATOM     63  C   UNL A   1      45.750  32.039  28.606  1.00  0.00     0.074 A 
ATOM     64  C   UNL A   1      47.099  32.152  28.096  1.00  0.00     0.031 C 
ATOM     65  C   UNL A   1      45.015  33.087  29.052  1.00  0.00     0.031 A 
BRANCH  52  66
ATOM     66  C   UNL A   1      39.299  31.562  30.796  1.00  0.00    -0.014 A 
ATOM     67  C   UNL A   1      39.017  31.566  32.172  1.00  0.00     0.010 A 
ATOM     68  C   UNL A   1      38.336  32.061  29.897  1.00  0.00     0.010 A 
ATOM     69  C   UNL A   1      37.783  32.033  32.636  1.00  0.00     0.020 A 
ATOM     70  C   UNL A   1      37.112  32.549  30.358  1.00  0.00     0.020 A 
ATOM     71  C   UNL A   1      36.836  32.516  31.725  1.00  0.00     0.054 A 
BRANCH  71  72
ATOM     72  S   UNL A   1      35.250  33.134  32.354  1.00  0.00     0.124 S 
ATOM     73  O   UNL A   1      35.326  34.552  32.015  1.00  0.00    -0.237 OA
ATOM     74  O   UNL A   1      34.276  32.356  31.593  1.00  0.00    -0.237 OA
ATOM     75  O   UNL A   1      35.303  32.832  33.783  1.00  0.00    -0.744 OA
ENDBRANCH  71  72
ENDBRANCH  52  66
BRANCH  53  76
ATOM     76  C   UNL A   1      47.860  28.144  27.032  1.00  0.00    -0.014 A 
ATOM     77  C   UNL A   1      48.962  27.744  27.809  1.00  0.00     0.010 A 
ATOM     78  C   UNL A   1      47.964  28.099  25.628  1.00  0.00     0.010 A 
ATOM     79  C   UNL A   1      50.145  27.321  27.194  1.00  0.00     0.020 A 
ATOM     80  C   UNL A   1      49.131  27.646  25.011  1.00  0.00     0.020 A 
ATOM     81  C   UNL A   1      50.221  27.273  25.798  1.00  0.00     0.054 A 
BRANCH  81  82
ATOM     82  S   UNL A   1      51.745  26.679  25.014  1.00  0.00     0.124 S 
ATOM     83  O   UNL A   1      51.856  25.328  25.555  1.00  0.00    -0.237 OA
ATOM     84  O   UNL A   1      51.428  26.767  23.591  1.00  0.00    -0.237 OA
ATOM     85  O   UNL A   1      52.756  27.626  25.478  1.00  0.00    -0.744 OA
ENDBRANCH  81  82
ENDBRANCH  53  76
BRANCH  65  86
ATOM     86  C   UNL A   1      45.653  34.449  29.029  1.00  0.00    -0.014 A 
ATOM     87  C   UNL A   1      45.456  35.320  27.944  1.00  0.00     0.010 A 
ATOM     88  C   UNL A   1      46.392  34.890  30.141  1.00  0.00     0.010 A 
ATOM     89  C   UNL A   1      45.998  36.608  27.966  1.00  0.00     0.020 A 
ATOM     90  C   UNL A   1      46.918  36.185  30.176  1.00  0.00     0.020 A 
ATOM     91  C   UNL A   1      46.723  37.034  29.083  1.00  0.00     0.054 A 
BRANCH  91  92
ATOM     92  S   UNL A   1      47.355  38.734  29.119  1.00  0.00     0.124 S 
ATOM     93  O   UNL A   1      48.796  38.520  29.222  1.00  0.00    -0.237 OA
ATOM     94  O   UNL A   1      46.890  39.278  27.846  1.00  0.00    -0.237 OA
ATOM     95  O   UNL A   1      46.725  39.312  30.305  1.00  0.00    -0.744 OA
ENDBRANCH  91  92
ENDBRANCH  65  86
ENDBRANCH  39  40
ENDBRANCH  32  34
ENDBRANCH  31  32
ENDBRANCH  30  31
ENDBRANCH   1  30
TORSDOF 19
ENDMDL
