MODEL 1
REMARK VINA RESULT:      -9.6      0.000      0.000
REMARK SMILES O=C(/C=C/c1ccc(O)cc1)NC[C@@H]1CC[C@H](C(=O)OCCOC(=O)c2ccc(-c3c4nc(c(-c5ccc(S(=O)(=O)[O-])cc5)c5ccc([nH]5)c(-c5ccc(S(=O)(=O)[O-])cc5)c5nc(c(-c6ccc(S(=O)(=O)[O-])cc6)c6ccc3[nH]6)C=C5)C=C4)cc2)O1
REMARK SMILES IDX 21 1 20 2 18 3 19 4 17 5 14 6 15 7 86 8 16 9 13 10 12 11
REMARK SMILES IDX 1 12 2 13 3 15 4 16 5 17 6 18 11 19 7 20 10 21 8 22 9 23
REMARK SMILES IDX 22 25 23 26 24 27 25 28 26 29 27 30 85 31 28 32 84 33 29 34
REMARK SMILES IDX 30 35 31 36 78 37 32 38 83 39 77 40 79 41 33 42 82 43 76 44
REMARK SMILES IDX 75 45 34 47 64 48 45 49 63 50 46 51 49 52 62 53 80 54 47 55
REMARK SMILES IDX 48 56 61 58 81 59 50 60 35 61 36 62 44 63 37 64 43 65 38 66
REMARK SMILES IDX 39 67 40 68 41 69 42 70 65 71 66 72 74 73 67 74 73 75 68 76
REMARK SMILES IDX 69 77 70 78 71 79 72 80 51 81 52 82 60 83 53 84 59 85 54 86
REMARK SMILES IDX 55 87 56 88 57 89 58 90
REMARK H PARENT 12 14 9 24 79 46 49 57
REMARK Flexibility Score: inf
ROOT
ATOM      1  C   UNL A   1      34.862  32.730  32.690  1.00  0.00     0.274 C 
ENDROOT
BRANCH   1   2
ATOM      2  O   UNL A   1      34.806  33.657  31.591  1.00  0.00    -0.460 OA
BRANCH   2   3
ATOM      3  C   UNL A   1      34.452  34.935  31.893  1.00  0.00     0.335 C 
ATOM      4  O   UNL A   1      35.087  35.668  32.644  1.00  0.00    -0.249 OA
BRANCH   3   5
ATOM      5  C   UNL A   1      33.149  35.373  31.204  1.00  0.00     0.228 C 
ATOM      6  C   UNL A   1      33.280  35.484  28.882  1.00  0.00     0.138 C 
ATOM      7  C   UNL A   1      33.636  36.857  29.437  1.00  0.00     0.037 C 
ATOM      8  O   UNL A   1      32.963  34.631  29.996  1.00  0.00    -0.361 OA
ATOM      9  C   UNL A   1      33.032  36.834  30.820  1.00  0.00     0.047 C 
BRANCH   6  10
ATOM     10  C   UNL A   1      34.403  34.821  28.070  1.00  0.00     0.148 C 
BRANCH  10  11
ATOM     11  N   UNL A   1      35.677  34.914  28.750  1.00  0.00    -0.350 N 
ATOM     12  O   UNL A   1      36.367  32.793  28.215  1.00  0.00    -0.270 OA
ATOM     13  C   UNL A   1      36.531  33.850  28.813  1.00  0.00     0.244 C 
ATOM     14  H   UNL A   1      35.933  35.763  29.177  1.00  0.00     0.163 HD
BRANCH  13  15
ATOM     15  C   UNL A   1      37.737  34.054  29.646  1.00  0.00     0.072 C 
ATOM     16  C   UNL A   1      38.986  33.846  29.201  1.00  0.00     0.014 C 
BRANCH  16  17
ATOM     17  C   UNL A   1      40.181  34.132  30.003  1.00  0.00    -0.025 A 
ATOM     18  C   UNL A   1      40.378  33.574  31.275  1.00  0.00     0.012 A 
ATOM     19  C   UNL A   1      41.176  34.956  29.461  1.00  0.00     0.012 A 
ATOM     20  C   UNL A   1      41.531  33.864  32.007  1.00  0.00     0.047 A 
ATOM     21  C   UNL A   1      42.329  35.247  30.193  1.00  0.00     0.047 A 
ATOM     22  C   UNL A   1      42.495  34.703  31.461  1.00  0.00     0.115 A 
BRANCH  22  23
ATOM     23  O   UNL A   1      43.631  35.019  32.144  1.00  0.00    -0.508 OA
ATOM     24  H   UNL A   1      44.401  34.495  32.040  1.00  0.00     0.293 HD
ENDBRANCH  22  23
ENDBRANCH  16  17
ENDBRANCH  13  15
ENDBRANCH  10  11
ENDBRANCH   6  10
ENDBRANCH   3   5
ENDBRANCH   2   3
ENDBRANCH   1   2
BRANCH   1  25
ATOM     25  C   UNL A   1      36.306  32.303  32.964  1.00  0.00     0.275 C 
BRANCH  25  26
ATOM     26  O   UNL A   1      36.966  31.877  31.758  1.00  0.00    -0.458 OA
BRANCH  26  27
ATOM     27  C   UNL A   1      37.132  30.539  31.632  1.00  0.00     0.338 C 
ATOM     28  O   UNL A   1      36.319  29.664  31.873  1.00  0.00    -0.246 OA
BRANCH  27  29
ATOM     29  C   UNL A   1      38.437  30.269  31.015  1.00  0.00     0.060 A 
ATOM     30  C   UNL A   1      38.528  30.320  29.624  1.00  0.00     0.016 A 
ATOM     31  C   UNL A   1      39.536  29.892  31.785  1.00  0.00     0.016 A 
ATOM     32  C   UNL A   1      39.714  29.980  28.986  1.00  0.00     0.010 A 
ATOM     33  C   UNL A   1      40.740  29.580  31.144  1.00  0.00     0.010 A 
ATOM     34  C   UNL A   1      40.835  29.618  29.741  1.00  0.00    -0.014 A 
BRANCH  34  35
ATOM     35  C   UNL A   1      42.106  29.293  29.052  1.00  0.00     0.031 A 
ATOM     36  C   UNL A   1      42.342  27.911  28.514  1.00  0.00     0.074 A 
ATOM     37  C   UNL A   1      43.035  30.255  28.893  1.00  0.00     0.049 A 
ATOM     38  N   UNL A   1      43.428  27.411  27.984  1.00  0.00    -0.248 NA
ATOM     39  C   UNL A   1      41.213  26.970  28.578  1.00  0.00     0.031 C 
ATOM     40  C   UNL A   1      42.892  31.649  29.320  1.00  0.00     0.029 A 
ATOM     41  N   UNL A   1      44.284  30.207  28.328  1.00  0.00    -0.354 N 
ATOM     42  C   UNL A   1      43.125  26.093  27.671  1.00  0.00     0.074 A 
ATOM     43  C   UNL A   1      41.753  25.866  28.077  1.00  0.00     0.031 C 
ATOM     44  C   UNL A   1      44.006  32.325  28.996  1.00  0.00     0.029 A 
ATOM     45  C   UNL A   1      44.962  31.402  28.395  1.00  0.00     0.049 A 
ATOM     46  H   UNL A   1      44.659  29.396  27.914  1.00  0.00     0.167 HD
ATOM     47  C   UNL A   1      43.920  25.158  27.100  1.00  0.00     0.031 A 
ATOM     48  C   UNL A   1      46.227  31.709  28.050  1.00  0.00     0.031 A 
ATOM     49  C   UNL A   1      45.281  25.392  26.696  1.00  0.00     0.049 A 
ATOM     50  C   UNL A   1      47.112  30.631  27.492  1.00  0.00     0.074 A 
ATOM     51  C   UNL A   1      46.172  24.506  26.115  1.00  0.00     0.029 A 
ATOM     52  N   UNL A   1      45.948  26.600  26.828  1.00  0.00    -0.354 N 
ATOM     53  N   UNL A   1      46.820  29.379  27.234  1.00  0.00    -0.248 NA
ATOM     54  C   UNL A   1      48.502  31.003  27.194  1.00  0.00     0.031 C 
ATOM     55  C   UNL A   1      47.391  25.169  25.932  1.00  0.00     0.029 A 
ATOM     56  C   UNL A   1      47.244  26.478  26.359  1.00  0.00     0.049 A 
ATOM     57  H   UNL A   1      45.556  27.424  27.199  1.00  0.00     0.167 HD
ATOM     58  C   UNL A   1      47.990  28.814  26.739  1.00  0.00     0.074 A 
ATOM     59  C   UNL A   1      48.985  29.866  26.712  1.00  0.00     0.031 C 
ATOM     60  C   UNL A   1      48.221  27.537  26.349  1.00  0.00     0.031 A 
BRANCH  47  61
ATOM     61  C   UNL A   1      43.349  23.780  26.906  1.00  0.00    -0.014 A 
ATOM     62  C   UNL A   1      43.011  23.307  25.627  1.00  0.00     0.010 A 
ATOM     63  C   UNL A   1      43.200  22.927  28.015  1.00  0.00     0.010 A 
ATOM     64  C   UNL A   1      42.512  22.010  25.461  1.00  0.00     0.020 A 
ATOM     65  C   UNL A   1      42.720  21.625  27.852  1.00  0.00     0.020 A 
ATOM     66  C   UNL A   1      42.367  21.178  26.576  1.00  0.00     0.054 A 
BRANCH  66  67
ATOM     67  S   UNL A   1      41.751  19.489  26.332  1.00  0.00     0.124 S 
ATOM     68  O   UNL A   1      42.201  18.827  27.554  1.00  0.00    -0.237 OA
ATOM     69  O   UNL A   1      40.309  19.686  26.220  1.00  0.00    -0.237 OA
ATOM     70  O   UNL A   1      42.415  19.052  25.106  1.00  0.00    -0.744 OA
ENDBRANCH  66  67
ENDBRANCH  47  61
BRANCH  48  71
ATOM     71  C   UNL A   1      46.749  33.081  28.284  1.00  0.00    -0.014 A 
ATOM     72  C   UNL A   1      46.628  34.074  27.298  1.00  0.00     0.010 A 
ATOM     73  C   UNL A   1      47.376  33.399  29.503  1.00  0.00     0.010 A 
ATOM     74  C   UNL A   1      47.141  35.356  27.519  1.00  0.00     0.020 A 
ATOM     75  C   UNL A   1      47.866  34.685  29.739  1.00  0.00     0.020 A 
ATOM     76  C   UNL A   1      47.759  35.653  28.738  1.00  0.00     0.054 A 
BRANCH  76  77
ATOM     77  S   UNL A   1      48.382  37.332  29.028  1.00  0.00     0.124 S 
ATOM     78  O   UNL A   1      47.654  37.721  30.232  1.00  0.00    -0.237 OA
ATOM     79  O   UNL A   1      49.817  37.117  29.197  1.00  0.00    -0.237 OA
ATOM     80  O   UNL A   1      48.007  38.047  27.810  1.00  0.00    -0.744 OA
ENDBRANCH  76  77
ENDBRANCH  48  71
BRANCH  60  81
ATOM     81  C   UNL A   1      49.601  27.214  25.850  1.00  0.00    -0.014 A 
ATOM     82  C   UNL A   1      50.557  26.636  26.702  1.00  0.00     0.010 A 
ATOM     83  C   UNL A   1      49.929  27.453  24.503  1.00  0.00     0.010 A 
ATOM     84  C   UNL A   1      51.831  26.324  26.222  1.00  0.00     0.020 A 
ATOM     85  C   UNL A   1      51.196  27.122  24.015  1.00  0.00     0.020 A 
ATOM     86  C   UNL A   1      52.142  26.571  24.881  1.00  0.00     0.054 A 
BRANCH  86  87
ATOM     87  S   UNL A   1      53.788  26.118  24.267  1.00  0.00     0.124 S 
ATOM     88  O   UNL A   1      53.555  26.006  22.829  1.00  0.00    -0.237 OA
ATOM     89  O   UNL A   1      54.612  27.250  24.683  1.00  0.00    -0.237 OA
ATOM     90  O   UNL A   1      54.078  24.860  24.952  1.00  0.00    -0.744 OA
ENDBRANCH  86  87
ENDBRANCH  60  81
ENDBRANCH  34  35
ENDBRANCH  27  29
ENDBRANCH  26  27
ENDBRANCH  25  26
ENDBRANCH   1  25
TORSDOF 19
ENDMDL
MODEL 2
REMARK VINA RESULT:      -9.3      5.587     11.106
REMARK SMILES O=C(/C=C/c1ccc(O)cc1)NC[C@@H]1CC[C@H](C(=O)OCCOC(=O)c2ccc(-c3c4nc(c(-c5ccc(S(=O)(=O)[O-])cc5)c5ccc([nH]5)c(-c5ccc(S(=O)(=O)[O-])cc5)c5nc(c(-c6ccc(S(=O)(=O)[O-])cc6)c6ccc3[nH]6)C=C5)C=C4)cc2)O1
REMARK SMILES IDX 21 1 20 2 18 3 19 4 17 5 14 6 15 7 86 8 16 9 13 10 12 11
REMARK SMILES IDX 1 12 2 13 3 15 4 16 5 17 6 18 11 19 7 20 10 21 8 22 9 23
REMARK SMILES IDX 22 25 23 26 24 27 25 28 26 29 27 30 85 31 28 32 84 33 29 34
REMARK SMILES IDX 30 35 31 36 78 37 32 38 83 39 77 40 79 41 33 42 82 43 76 44
REMARK SMILES IDX 75 45 34 47 64 48 45 49 63 50 46 51 49 52 62 53 80 54 47 55
REMARK SMILES IDX 48 56 61 58 81 59 50 60 35 61 36 62 44 63 37 64 43 65 38 66
REMARK SMILES IDX 39 67 40 68 41 69 42 70 65 71 66 72 74 73 67 74 73 75 68 76
REMARK SMILES IDX 69 77 70 78 71 79 72 80 51 81 52 82 60 83 53 84 59 85 54 86
REMARK SMILES IDX 55 87 56 88 57 89 58 90
REMARK H PARENT 12 14 9 24 79 46 49 57
REMARK Flexibility Score: inf
ROOT
ATOM      1  C   UNL A   1      32.459  27.482  26.208  1.00  0.00     0.274 C 
ENDROOT
BRANCH   1   2
ATOM      2  O   UNL A   1      31.446  26.618  26.754  1.00  0.00    -0.460 OA
BRANCH   2   3
ATOM      3  C   UNL A   1      31.222  25.451  26.091  1.00  0.00     0.335 C 
ATOM      4  O   UNL A   1      30.285  25.263  25.321  1.00  0.00    -0.249 OA
BRANCH   3   5
ATOM      5  C   UNL A   1      32.265  24.370  26.417  1.00  0.00     0.228 C 
ATOM      6  C   UNL A   1      33.206  23.347  24.549  1.00  0.00     0.138 C 
ATOM      7  C   UNL A   1      31.992  22.529  24.968  1.00  0.00     0.037 C 
ATOM      8  O   UNL A   1      33.344  24.434  25.481  1.00  0.00    -0.361 OA
ATOM      9  C   UNL A   1      31.789  22.931  26.409  1.00  0.00     0.047 C 
BRANCH   6  10
ATOM     10  C   UNL A   1      33.113  23.934  23.133  1.00  0.00     0.148 C 
BRANCH  10  11
ATOM     11  N   UNL A   1      32.285  25.120  23.102  1.00  0.00    -0.350 N 
ATOM     12  O   UNL A   1      33.656  26.309  21.700  1.00  0.00    -0.270 OA
ATOM     13  C   UNL A   1      32.671  26.242  22.425  1.00  0.00     0.244 C 
ATOM     14  H   UNL A   1      31.424  25.118  23.580  1.00  0.00     0.163 HD
BRANCH  13  15
ATOM     15  C   UNL A   1      31.784  27.416  22.585  1.00  0.00     0.072 C 
ATOM     16  C   UNL A   1      30.456  27.321  22.753  1.00  0.00     0.014 C 
BRANCH  16  17
ATOM     17  C   UNL A   1      29.593  28.483  22.996  1.00  0.00    -0.025 A 
ATOM     18  C   UNL A   1      30.115  29.751  23.291  1.00  0.00     0.012 A 
ATOM     19  C   UNL A   1      28.205  28.328  22.889  1.00  0.00     0.012 A 
ATOM     20  C   UNL A   1      29.263  30.836  23.512  1.00  0.00     0.047 A 
ATOM     21  C   UNL A   1      27.353  29.411  23.110  1.00  0.00     0.047 A 
ATOM     22  C   UNL A   1      27.888  30.654  23.424  1.00  0.00     0.115 A 
BRANCH  22  23
ATOM     23  O   UNL A   1      27.021  31.683  23.639  1.00  0.00    -0.508 OA
ATOM     24  H   UNL A   1      26.117  31.591  23.408  1.00  0.00     0.293 HD
ENDBRANCH  22  23
ENDBRANCH  16  17
ENDBRANCH  13  15
ENDBRANCH  10  11
ENDBRANCH   6  10
ENDBRANCH   3   5
ENDBRANCH   2   3
ENDBRANCH   1   2
BRANCH   1  25
ATOM     25  C   UNL A   1      32.898  28.521  27.242  1.00  0.00     0.275 C 
BRANCH  25  26
ATOM     26  O   UNL A   1      34.056  29.251  26.794  1.00  0.00    -0.458 OA
BRANCH  26  27
ATOM     27  C   UNL A   1      34.465  30.245  27.616  1.00  0.00     0.338 C 
ATOM     28  O   UNL A   1      33.811  31.187  28.025  1.00  0.00    -0.246 OA
BRANCH  27  29
ATOM     29  C   UNL A   1      35.829  29.959  28.081  1.00  0.00     0.060 A 
ATOM     30  C   UNL A   1      36.863  30.003  27.146  1.00  0.00     0.016 A 
ATOM     31  C   UNL A   1      36.078  29.575  29.397  1.00  0.00     0.016 A 
ATOM     32  C   UNL A   1      38.155  29.649  27.513  1.00  0.00     0.010 A 
ATOM     33  C   UNL A   1      37.385  29.249  29.775  1.00  0.00     0.010 A 
ATOM     34  C   UNL A   1      38.431  29.280  28.834  1.00  0.00    -0.014 A 
BRANCH  34  35
ATOM     35  C   UNL A   1      39.819  28.940  29.223  1.00  0.00     0.031 A 
ATOM     36  C   UNL A   1      40.663  29.938  29.963  1.00  0.00     0.074 A 
ATOM     37  C   UNL A   1      40.307  27.720  28.928  1.00  0.00     0.049 A 
ATOM     38  N   UNL A   1      41.927  29.863  30.289  1.00  0.00    -0.248 NA
ATOM     39  C   UNL A   1      40.000  31.178  30.395  1.00  0.00     0.031 C 
ATOM     40  C   UNL A   1      39.562  26.646  28.266  1.00  0.00     0.029 A 
ATOM     41  N   UNL A   1      41.547  27.176  29.148  1.00  0.00    -0.354 N 
ATOM     42  C   UNL A   1      42.221  31.052  30.943  1.00  0.00     0.074 A 
ATOM     43  C   UNL A   1      41.003  31.836  30.963  1.00  0.00     0.031 C 
ATOM     44  C   UNL A   1      40.356  25.572  28.139  1.00  0.00     0.029 A 
ATOM     45  C   UNL A   1      41.680  25.899  28.655  1.00  0.00     0.049 A 
ATOM     46  H   UNL A   1      42.272  27.653  29.614  1.00  0.00     0.167 HD
ATOM     47  C   UNL A   1      43.399  31.453  31.475  1.00  0.00     0.031 A 
ATOM     48  C   UNL A   1      42.760  25.096  28.588  1.00  0.00     0.031 A 
ATOM     49  C   UNL A   1      44.604  30.666  31.454  1.00  0.00     0.049 A 
ATOM     50  C   UNL A   1      44.075  25.598  29.115  1.00  0.00     0.074 A 
ATOM     51  C   UNL A   1      45.852  30.988  31.960  1.00  0.00     0.029 A 
ATOM     52  N   UNL A   1      44.712  29.399  30.900  1.00  0.00    -0.354 N 
ATOM     53  N   UNL A   1      44.344  26.741  29.700  1.00  0.00    -0.248 NA
ATOM     54  C   UNL A   1      45.234  24.710  28.957  1.00  0.00     0.031 C 
ATOM     55  C   UNL A   1      46.724  29.930  31.676  1.00  0.00     0.029 A 
ATOM     56  C   UNL A   1      46.008  28.934  31.033  1.00  0.00     0.049 A 
ATOM     57  H   UNL A   1      43.974  28.904  30.476  1.00  0.00     0.167 HD
ATOM     58  C   UNL A   1      45.704  26.707  29.984  1.00  0.00     0.074 A 
ATOM     59  C   UNL A   1      46.196  25.422  29.528  1.00  0.00     0.031 C 
ATOM     60  C   UNL A   1      46.478  27.656  30.564  1.00  0.00     0.031 A 
BRANCH  47  61
ATOM     61  C   UNL A   1      43.455  32.820  32.099  1.00  0.00    -0.014 A 
ATOM     62  C   UNL A   1      43.217  33.003  33.472  1.00  0.00     0.010 A 
ATOM     63  C   UNL A   1      43.806  33.930  31.309  1.00  0.00     0.010 A 
ATOM     64  C   UNL A   1      43.306  34.277  34.041  1.00  0.00     0.020 A 
ATOM     65  C   UNL A   1      43.914  35.202  31.877  1.00  0.00     0.020 A 
ATOM     66  C   UNL A   1      43.651  35.370  33.239  1.00  0.00     0.054 A 
BRANCH  66  67
ATOM     67  S   UNL A   1      43.794  37.008  34.007  1.00  0.00     0.124 S 
ATOM     68  O   UNL A   1      45.188  37.012  34.444  1.00  0.00    -0.237 OA
ATOM     69  O   UNL A   1      43.479  37.910  32.903  1.00  0.00    -0.237 OA
ATOM     70  O   UNL A   1      42.805  36.974  35.081  1.00  0.00    -0.744 OA
ENDBRANCH  66  67
ENDBRANCH  47  61
BRANCH  48  71
ATOM     71  C   UNL A   1      42.656  23.763  27.940  1.00  0.00    -0.014 A 
ATOM     72  C   UNL A   1      42.182  22.650  28.656  1.00  0.00     0.010 A 
ATOM     73  C   UNL A   1      43.038  23.600  26.595  1.00  0.00     0.010 A 
ATOM     74  C   UNL A   1      42.107  21.395  28.045  1.00  0.00     0.020 A 
ATOM     75  C   UNL A   1      42.939  22.354  25.973  1.00  0.00     0.020 A 
ATOM     76  C   UNL A   1      42.488  21.255  26.706  1.00  0.00     0.054 A 
BRANCH  76  77
ATOM     77  S   UNL A   1      42.347  19.629  25.913  1.00  0.00     0.124 S 
ATOM     78  O   UNL A   1      42.661  18.727  27.016  1.00  0.00    -0.237 OA
ATOM     79  O   UNL A   1      40.958  19.613  25.459  1.00  0.00    -0.237 OA
ATOM     80  O   UNL A   1      43.342  19.686  24.845  1.00  0.00    -0.744 OA
ENDBRANCH  76  77
ENDBRANCH  48  71
BRANCH  60  81
ATOM     81  C   UNL A   1      47.934  27.333  30.747  1.00  0.00    -0.014 A 
ATOM     82  C   UNL A   1      48.378  26.628  31.878  1.00  0.00     0.010 A 
ATOM     83  C   UNL A   1      48.860  27.702  29.755  1.00  0.00     0.010 A 
ATOM     84  C   UNL A   1      49.731  26.317  32.028  1.00  0.00     0.020 A 
ATOM     85  C   UNL A   1      50.212  27.374  29.892  1.00  0.00     0.020 A 
ATOM     86  C   UNL A   1      50.640  26.695  31.034  1.00  0.00     0.054 A 
BRANCH  86  87
ATOM     87  S   UNL A   1      52.387  26.244  31.227  1.00  0.00     0.124 S 
ATOM     88  O   UNL A   1      52.850  26.225  29.842  1.00  0.00    -0.237 OA
ATOM     89  O   UNL A   1      52.912  27.330  32.051  1.00  0.00    -0.237 OA
ATOM     90  O   UNL A   1      52.336  24.941  31.886  1.00  0.00    -0.744 OA
ENDBRANCH  86  87
ENDBRANCH  60  81
ENDBRANCH  34  35
ENDBRANCH  27  29
ENDBRANCH  26  27
ENDBRANCH  25  26
ENDBRANCH   1  25
TORSDOF 19
ENDMDL
MODEL 3
REMARK VINA RESULT:      -9.2      6.087     11.968
REMARK SMILES O=C(/C=C/c1ccc(O)cc1)NC[C@@H]1CC[C@H](C(=O)OCCOC(=O)c2ccc(-c3c4nc(c(-c5ccc(S(=O)(=O)[O-])cc5)c5ccc([nH]5)c(-c5ccc(S(=O)(=O)[O-])cc5)c5nc(c(-c6ccc(S(=O)(=O)[O-])cc6)c6ccc3[nH]6)C=C5)C=C4)cc2)O1
REMARK SMILES IDX 21 1 20 2 18 3 19 4 17 5 14 6 15 7 86 8 16 9 13 10 12 11
REMARK SMILES IDX 1 12 2 13 3 15 4 16 5 17 6 18 11 19 7 20 10 21 8 22 9 23
REMARK SMILES IDX 22 25 23 26 24 27 25 28 26 29 27 30 85 31 28 32 84 33 29 34
REMARK SMILES IDX 30 35 31 36 78 37 32 38 83 39 77 40 79 41 33 42 82 43 76 44
REMARK SMILES IDX 75 45 34 47 64 48 45 49 63 50 46 51 49 52 62 53 80 54 47 55
REMARK SMILES IDX 48 56 61 58 81 59 50 60 35 61 36 62 44 63 37 64 43 65 38 66
REMARK SMILES IDX 39 67 40 68 41 69 42 70 65 71 66 72 74 73 67 74 73 75 68 76
REMARK SMILES IDX 69 77 70 78 71 79 72 80 51 81 52 82 60 83 53 84 59 85 54 86
REMARK SMILES IDX 55 87 56 88 57 89 58 90
REMARK H PARENT 12 14 9 24 79 46 49 57
REMARK Flexibility Score: inf
ROOT
ATOM      1  C   UNL A   1      35.186  23.299  25.053  1.00  0.00     0.274 C 
ENDROOT
BRANCH   1   2
ATOM      2  O   UNL A   1      34.978  24.558  24.387  1.00  0.00    -0.460 OA
BRANCH   2   3
ATOM      3  C   UNL A   1      34.055  25.392  24.940  1.00  0.00     0.335 C 
ATOM      4  O   UNL A   1      33.724  25.368  26.121  1.00  0.00    -0.249 OA
BRANCH   3   5
ATOM      5  C   UNL A   1      33.448  26.370  23.921  1.00  0.00     0.228 C 
ATOM      6  C   UNL A   1      31.204  25.980  23.434  1.00  0.00     0.138 C 
ATOM      7  C   UNL A   1      32.044  25.205  22.427  1.00  0.00     0.037 C 
ATOM      8  O   UNL A   1      32.106  26.695  24.297  1.00  0.00    -0.361 OA
ATOM      9  C   UNL A   1      33.378  25.908  22.480  1.00  0.00     0.047 C 
BRANCH   6  10
ATOM     10  C   UNL A   1      30.294  25.102  24.306  1.00  0.00     0.148 C 
BRANCH  10  11
ATOM     11  N   UNL A   1      30.696  23.713  24.264  1.00  0.00    -0.350 N 
ATOM     12  O   UNL A   1      31.104  23.533  26.513  1.00  0.00    -0.270 OA
ATOM     13  C   UNL A   1      31.131  23.062  25.383  1.00  0.00     0.244 C 
ATOM     14  H   UNL A   1      30.655  23.227  23.409  1.00  0.00     0.163 HD
BRANCH  13  15
ATOM     15  C   UNL A   1      31.625  21.684  25.163  1.00  0.00     0.072 C 
ATOM     16  C   UNL A   1      32.182  21.274  24.013  1.00  0.00     0.014 C 
BRANCH  16  17
ATOM     17  C   UNL A   1      32.747  19.931  23.830  1.00  0.00    -0.025 A 
ATOM     18  C   UNL A   1      33.824  19.464  24.597  1.00  0.00     0.012 A 
ATOM     19  C   UNL A   1      32.163  19.076  22.887  1.00  0.00     0.012 A 
ATOM     20  C   UNL A   1      34.332  18.178  24.399  1.00  0.00     0.047 A 
ATOM     21  C   UNL A   1      32.670  17.791  22.688  1.00  0.00     0.047 A 
ATOM     22  C   UNL A   1      33.753  17.354  23.441  1.00  0.00     0.115 A 
BRANCH  22  23
ATOM     23  O   UNL A   1      34.222  16.096  23.210  1.00  0.00    -0.508 OA
ATOM     24  H   UNL A   1      35.092  15.973  22.884  1.00  0.00     0.293 HD
ENDBRANCH  22  23
ENDBRANCH  16  17
ENDBRANCH  13  15
ENDBRANCH  10  11
ENDBRANCH   6  10
ENDBRANCH   3   5
ENDBRANCH   2   3
ENDBRANCH   1   2
BRANCH   1  25
ATOM     25  C   UNL A   1      36.349  23.396  26.042  1.00  0.00     0.275 C 
BRANCH  25  26
ATOM     26  O   UNL A   1      37.619  23.318  25.368  1.00  0.00    -0.458 OA
BRANCH  26  27
ATOM     27  C   UNL A   1      38.678  23.040  26.164  1.00  0.00     0.338 C 
ATOM     28  O   UNL A   1      39.283  21.987  26.254  1.00  0.00    -0.246 OA
BRANCH  27  29
ATOM     29  C   UNL A   1      39.108  24.268  26.845  1.00  0.00     0.060 A 
ATOM     30  C   UNL A   1      39.829  25.208  26.108  1.00  0.00     0.016 A 
ATOM     31  C   UNL A   1      38.878  24.458  28.206  1.00  0.00     0.016 A 
ATOM     32  C   UNL A   1      40.341  26.341  26.728  1.00  0.00     0.010 A 
ATOM     33  C   UNL A   1      39.366  25.615  28.823  1.00  0.00     0.010 A 
ATOM     34  C   UNL A   1      40.104  26.561  28.089  1.00  0.00    -0.014 A 
BRANCH  34  35
ATOM     35  C   UNL A   1      40.623  27.792  28.731  1.00  0.00     0.031 A 
ATOM     36  C   UNL A   1      42.043  27.850  29.217  1.00  0.00     0.074 A 
ATOM     37  C   UNL A   1      39.815  28.863  28.854  1.00  0.00     0.049 A 
ATOM     38  N   UNL A   1      42.639  28.793  29.898  1.00  0.00    -0.248 NA
ATOM     39  C   UNL A   1      42.904  26.703  28.892  1.00  0.00     0.031 C 
ATOM     40  C   UNL A   1      38.436  28.944  28.366  1.00  0.00     0.029 A 
ATOM     41  N   UNL A   1      40.038  30.090  29.426  1.00  0.00    -0.354 N 
ATOM     42  C   UNL A   1      43.937  28.348  30.106  1.00  0.00     0.074 A 
ATOM     43  C   UNL A   1      44.042  27.044  29.483  1.00  0.00     0.031 C 
ATOM     44  C   UNL A   1      37.939  30.157  28.653  1.00  0.00     0.029 A 
ATOM     45  C   UNL A   1      38.939  30.916  29.396  1.00  0.00     0.049 A 
ATOM     46  H   UNL A   1      40.901  30.354  29.819  1.00  0.00     0.167 HD
ATOM     47  C   UNL A   1      44.948  28.969  30.759  1.00  0.00     0.031 A 
ATOM     48  C   UNL A   1      38.745  32.131  29.942  1.00  0.00     0.031 A 
ATOM     49  C   UNL A   1      44.837  30.266  31.372  1.00  0.00     0.049 A 
ATOM     50  C   UNL A   1      39.858  32.763  30.730  1.00  0.00     0.074 A 
ATOM     51  C   UNL A   1      45.802  30.977  32.064  1.00  0.00     0.029 A 
ATOM     52  N   UNL A   1      43.692  31.048  31.364  1.00  0.00    -0.354 N 
ATOM     53  N   UNL A   1      41.070  32.312  30.947  1.00  0.00    -0.248 NA
ATOM     54  C   UNL A   1      39.571  34.058  31.361  1.00  0.00     0.031 C 
ATOM     55  C   UNL A   1      45.228  32.174  32.509  1.00  0.00     0.029 A 
ATOM     56  C   UNL A   1      43.919  32.225  32.057  1.00  0.00     0.049 A 
ATOM     57  H   UNL A   1      42.843  30.803  30.930  1.00  0.00     0.167 HD
ATOM     58  C   UNL A   1      41.693  33.271  31.736  1.00  0.00     0.074 A 
ATOM     59  C   UNL A   1      40.732  34.337  31.938  1.00  0.00     0.031 C 
ATOM     60  C   UNL A   1      42.946  33.268  32.253  1.00  0.00     0.031 A 
BRANCH  47  61
ATOM     61  C   UNL A   1      46.258  28.239  30.874  1.00  0.00    -0.014 A 
ATOM     62  C   UNL A   1      47.316  28.501  29.988  1.00  0.00     0.010 A 
ATOM     63  C   UNL A   1      46.450  27.317  31.919  1.00  0.00     0.010 A 
ATOM     64  C   UNL A   1      48.539  27.837  30.131  1.00  0.00     0.020 A 
ATOM     65  C   UNL A   1      47.675  26.665  32.077  1.00  0.00     0.020 A 
ATOM     66  C   UNL A   1      48.709  26.920  31.173  1.00  0.00     0.054 A 
BRANCH  66  67
ATOM     67  S   UNL A   1      50.316  26.097  31.359  1.00  0.00     0.124 S 
ATOM     68  O   UNL A   1      49.916  24.721  31.640  1.00  0.00    -0.237 OA
ATOM     69  O   UNL A   1      50.942  26.316  30.058  1.00  0.00    -0.237 OA
ATOM     70  O   UNL A   1      50.941  26.805  32.474  1.00  0.00    -0.744 OA
ENDBRANCH  66  67
ENDBRANCH  47  61
BRANCH  48  71
ATOM     71  C   UNL A   1      37.423  32.799  29.819  1.00  0.00    -0.014 A 
ATOM     72  C   UNL A   1      36.463  32.689  30.839  1.00  0.00     0.010 A 
ATOM     73  C   UNL A   1      37.117  33.551  28.669  1.00  0.00     0.010 A 
ATOM     74  C   UNL A   1      35.214  33.304  30.705  1.00  0.00     0.020 A 
ATOM     75  C   UNL A   1      35.881  34.189  28.542  1.00  0.00     0.020 A 
ATOM     76  C   UNL A   1      34.931  34.049  29.555  1.00  0.00     0.054 A 
BRANCH  76  77
ATOM     77  S   UNL A   1      33.322  34.876  29.412  1.00  0.00     0.124 S 
ATOM     78  O   UNL A   1      32.886  34.930  30.804  1.00  0.00    -0.237 OA
ATOM     79  O   UNL A   1      33.673  36.159  28.809  1.00  0.00    -0.237 OA
ATOM     80  O   UNL A   1      32.556  33.979  28.550  1.00  0.00    -0.744 OA
ENDBRANCH  76  77
ENDBRANCH  48  71
BRANCH  60  81
ATOM     81  C   UNL A   1      43.348  34.458  33.076  1.00  0.00    -0.014 A 
ATOM     82  C   UNL A   1      43.996  35.556  32.486  1.00  0.00     0.010 A 
ATOM     83  C   UNL A   1      43.036  34.496  34.447  1.00  0.00     0.010 A 
ATOM     84  C   UNL A   1      44.349  36.665  33.258  1.00  0.00     0.020 A 
ATOM     85  C   UNL A   1      43.369  35.613  35.218  1.00  0.00     0.020 A 
ATOM     86  C   UNL A   1      44.035  36.685  34.620  1.00  0.00     0.054 A 
BRANCH  86  87
ATOM     87  S   UNL A   1      44.463  38.153  35.596  1.00  0.00     0.124 S 
ATOM     88  O   UNL A   1      43.845  39.224  34.820  1.00  0.00    -0.237 OA
ATOM     89  O   UNL A   1      43.842  37.875  36.889  1.00  0.00    -0.237 OA
ATOM     90  O   UNL A   1      45.925  38.150  35.602  1.00  0.00    -0.744 OA
ENDBRANCH  86  87
ENDBRANCH  60  81
ENDBRANCH  34  35
ENDBRANCH  27  29
ENDBRANCH  26  27
ENDBRANCH  25  26
ENDBRANCH   1  25
TORSDOF 19
ENDMDL
