MODEL 1
REMARK VINA RESULT:     -12.3      0.000      0.000
REMARK SMILES CC1=C[C@H](C)[C@H](CN2C[C@]34C=C[C@@H](O3)[C@H](C(=O)OCCOC(=O)c3ccc(-c5c6nc(c(-c7ccc(S(=O)(=O)[O-])cc7)c7ccc([nH]7)c(-c7ccc(S(=O)(=O)[O-])cc7)c7nc(c(-c8ccc(S(=O)(=O)[O-])cc8)c8ccc5[nH]8)C=C7)C=C6)cc3)[C@@H]4C2=O)[C@H](C)C1
REMARK SMILES IDX 20 1 19 2 18 3 16 4 17 5 15 6 8 7 9 8 85 9 10 10 84 11 86 12
REMARK SMILES IDX 11 13 14 14 12 15 13 16 7 17 6 18 1 19 2 20 3 21 89 22 4 23
REMARK SMILES IDX 87 24 5 25 88 26 21 27 22 28 23 29 24 30 25 31 83 32 26 33
REMARK SMILES IDX 82 34 27 35 28 36 29 37 76 38 30 39 81 40 75 41 77 42 31 43
REMARK SMILES IDX 80 44 74 45 73 46 32 48 62 49 43 50 61 51 44 52 47 53 60 54
REMARK SMILES IDX 78 55 45 56 46 57 59 59 79 60 48 61 33 62 34 63 42 64 35 65
REMARK SMILES IDX 41 66 36 67 37 68 38 69 39 70 40 71 63 72 64 73 72 74 65 75
REMARK SMILES IDX 71 76 66 77 67 78 68 79 69 80 70 81 49 82 50 83 58 84 51 85
REMARK SMILES IDX 57 86 52 87 53 88 54 89 55 90 56 91
REMARK H PARENT 77 47 47 58
REMARK Flexibility Score: inf
ROOT
ATOM      1  C   UNL A   1      33.947  30.632  27.638  1.00  0.00     0.275 C 
ENDROOT
BRANCH   1   2
ATOM      2  C   UNL A   1      32.817  29.663  27.298  1.00  0.00     0.274 C 
BRANCH   2   3
ATOM      3  O   UNL A   1      32.802  29.380  25.872  1.00  0.00    -0.462 OA
BRANCH   3   4
ATOM      4  C   UNL A   1      31.665  29.736  25.228  1.00  0.00     0.312 C 
ATOM      5  O   UNL A   1      31.094  30.810  25.400  1.00  0.00    -0.252 OA
BRANCH   4   6
ATOM      6  C   UNL A   1      31.150  28.761  24.205  1.00  0.00     0.148 C 
ATOM      7  N   UNL A   1      32.632  25.940  25.447  1.00  0.00    -0.339 N 
ATOM      8  C   UNL A   1      33.234  26.506  24.294  1.00  0.00     0.160 C 
ATOM      9  C   UNL A   1      31.376  26.466  25.597  1.00  0.00     0.230 C 
ATOM     10  C   UNL A   1      32.111  26.694  23.178  1.00  0.00     0.117 C 
ATOM     11  C   UNL A   1      31.113  27.237  24.333  1.00  0.00     0.133 C 
ATOM     12  O   UNL A   1      30.587  26.261  26.485  1.00  0.00    -0.274 OA
ATOM     13  C   UNL A   1      33.275  27.367  22.419  1.00  0.00     0.009 C 
ATOM     14  O   UNL A   1      31.302  27.599  22.330  1.00  0.00    -0.360 OA
ATOM     15  C   UNL A   1      33.116  28.691  22.421  1.00  0.00     0.004 C 
ATOM     16  C   UNL A   1      31.707  28.923  22.797  1.00  0.00     0.157 C 
BRANCH   7  17
ATOM     17  C   UNL A   1      33.207  24.817  26.160  1.00  0.00     0.124 C 
BRANCH  17  18
ATOM     18  C   UNL A   1      33.425  23.535  25.328  1.00  0.00     0.018 C 
ATOM     19  C   UNL A   1      33.217  19.238  24.218  1.00  0.00     0.039 C 
ATOM     20  C   UNL A   1      33.313  20.676  24.639  1.00  0.00    -0.077 C 
ATOM     21  C   UNL A   1      34.093  21.062  25.660  1.00  0.00    -0.025 C 
ATOM     22  C   UNL A   1      32.501  21.662  23.849  1.00  0.00     0.034 C 
ATOM     23  C   UNL A   1      34.250  22.481  26.138  1.00  0.00     0.014 C 
ATOM     24  C   UNL A   1      32.157  22.948  24.631  1.00  0.00    -0.005 C 
ATOM     25  C   UNL A   1      34.056  22.510  27.661  1.00  0.00     0.012 C 
ATOM     26  C   UNL A   1      30.943  22.677  25.531  1.00  0.00     0.008 C 
ENDBRANCH  17  18
ENDBRANCH   7  17
ENDBRANCH   4   6
ENDBRANCH   3   4
ENDBRANCH   2   3
ENDBRANCH   1   2
BRANCH   1  27
ATOM     27  O   UNL A   1      35.137  29.873  27.910  1.00  0.00    -0.458 OA
BRANCH  27  28
ATOM     28  C   UNL A   1      36.005  30.437  28.783  1.00  0.00     0.338 C 
ATOM     29  O   UNL A   1      35.742  31.286  29.618  1.00  0.00    -0.246 OA
BRANCH  28  30
ATOM     30  C   UNL A   1      37.349  29.819  28.647  1.00  0.00     0.060 A 
ATOM     31  C   UNL A   1      38.107  29.494  29.772  1.00  0.00     0.016 A 
ATOM     32  C   UNL A   1      37.927  29.723  27.378  1.00  0.00     0.016 A 
ATOM     33  C   UNL A   1      39.475  29.243  29.631  1.00  0.00     0.010 A 
ATOM     34  C   UNL A   1      39.263  29.323  27.239  1.00  0.00     0.010 A 
ATOM     35  C   UNL A   1      40.074  29.117  28.365  1.00  0.00    -0.014 A 
BRANCH  35  36
ATOM     36  C   UNL A   1      41.513  28.726  28.228  1.00  0.00     0.031 A 
ATOM     37  C   UNL A   1      42.634  29.742  28.327  1.00  0.00     0.074 A 
ATOM     38  C   UNL A   1      41.826  27.438  27.968  1.00  0.00     0.049 A 
ATOM     39  N   UNL A   1      43.905  29.598  28.035  1.00  0.00    -0.248 NA
ATOM     40  C   UNL A   1      42.284  31.092  28.795  1.00  0.00     0.031 C 
ATOM     41  C   UNL A   1      40.867  26.334  27.854  1.00  0.00     0.029 A 
ATOM     42  N   UNL A   1      43.041  26.833  27.751  1.00  0.00    -0.354 N 
ATOM     43  C   UNL A   1      44.493  30.846  28.226  1.00  0.00     0.074 A 
ATOM     44  C   UNL A   1      43.436  31.738  28.658  1.00  0.00     0.031 C 
ATOM     45  C   UNL A   1      41.527  25.189  27.649  1.00  0.00     0.029 A 
ATOM     46  C   UNL A   1      42.943  25.486  27.492  1.00  0.00     0.049 A 
ATOM     47  H   UNL A   1      43.897  27.318  27.779  1.00  0.00     0.167 HD
ATOM     48  C   UNL A   1      45.788  31.217  28.055  1.00  0.00     0.031 A 
ATOM     49  C   UNL A   1      43.864  24.582  27.110  1.00  0.00     0.031 A 
ATOM     50  C   UNL A   1      46.848  30.321  27.662  1.00  0.00     0.049 A 
ATOM     51  C   UNL A   1      45.278  25.022  26.892  1.00  0.00     0.074 A 
ATOM     52  C   UNL A   1      48.196  30.601  27.497  1.00  0.00     0.029 A 
ATOM     53  N   UNL A   1      46.689  28.971  27.385  1.00  0.00    -0.354 N 
ATOM     54  N   UNL A   1      45.800  26.216  27.042  1.00  0.00    -0.248 NA
ATOM     55  C   UNL A   1      46.224  23.995  26.439  1.00  0.00     0.031 C 
ATOM     56  C   UNL A   1      48.840  29.434  27.071  1.00  0.00     0.029 A 
ATOM     57  C   UNL A   1      47.907  28.413  27.028  1.00  0.00     0.049 A 
ATOM     58  H   UNL A   1      45.836  28.482  27.434  1.00  0.00     0.167 HD
ATOM     59  C   UNL A   1      47.142  26.079  26.712  1.00  0.00     0.074 A 
ATOM     60  C   UNL A   1      47.354  24.686  26.380  1.00  0.00     0.031 C 
ATOM     61  C   UNL A   1      48.109  27.028  26.682  1.00  0.00     0.031 A 
BRANCH  48  62
ATOM     62  C   UNL A   1      46.142  32.672  28.254  1.00  0.00    -0.014 A 
ATOM     63  C   UNL A   1      46.407  33.200  29.530  1.00  0.00     0.010 A 
ATOM     64  C   UNL A   1      46.282  33.510  27.131  1.00  0.00     0.010 A 
ATOM     65  C   UNL A   1      46.765  34.544  29.682  1.00  0.00     0.020 A 
ATOM     66  C   UNL A   1      46.665  34.848  27.275  1.00  0.00     0.020 A 
ATOM     67  C   UNL A   1      46.887  35.362  28.553  1.00  0.00     0.054 A 
BRANCH  67  68
ATOM     68  S   UNL A   1      47.370  37.097  28.777  1.00  0.00     0.124 S 
ATOM     69  O   UNL A   1      47.325  37.236  30.230  1.00  0.00    -0.237 OA
ATOM     70  O   UNL A   1      48.705  37.138  28.185  1.00  0.00    -0.237 OA
ATOM     71  O   UNL A   1      46.346  37.841  28.048  1.00  0.00    -0.744 OA
ENDBRANCH  67  68
ENDBRANCH  48  62
BRANCH  49  72
ATOM     72  C   UNL A   1      43.449  23.176  26.860  1.00  0.00    -0.014 A 
ATOM     73  C   UNL A   1      43.663  22.585  25.604  1.00  0.00     0.010 A 
ATOM     74  C   UNL A   1      42.879  22.409  27.894  1.00  0.00     0.010 A 
ATOM     75  C   UNL A   1      43.306  21.252  25.384  1.00  0.00     0.020 A 
ATOM     76  C   UNL A   1      42.554  21.068  27.688  1.00  0.00     0.020 A 
ATOM     77  C   UNL A   1      42.759  20.500  26.429  1.00  0.00     0.054 A 
BRANCH  77  78
ATOM     78  S   UNL A   1      42.368  18.753  26.142  1.00  0.00     0.124 S 
ATOM     79  O   UNL A   1      40.963  18.819  25.750  1.00  0.00    -0.237 OA
ATOM     80  O   UNL A   1      43.305  18.390  25.081  1.00  0.00    -0.237 OA
ATOM     81  O   UNL A   1      42.631  18.128  27.436  1.00  0.00    -0.744 OA
ENDBRANCH  77  78
ENDBRANCH  49  72
BRANCH  61  82
ATOM     82  C   UNL A   1      49.493  26.576  26.301  1.00  0.00    -0.014 A 
ATOM     83  C   UNL A   1      50.356  25.998  27.248  1.00  0.00     0.010 A 
ATOM     84  C   UNL A   1      49.934  26.731  24.974  1.00  0.00     0.010 A 
ATOM     85  C   UNL A   1      51.653  25.623  26.886  1.00  0.00     0.020 A 
ATOM     86  C   UNL A   1      51.220  26.332  24.602  1.00  0.00     0.020 A 
ATOM     87  C   UNL A   1      52.078  25.798  25.566  1.00  0.00     0.054 A 
BRANCH  87  88
ATOM     88  S   UNL A   1      53.761  25.292  25.115  1.00  0.00     0.124 S 
ATOM     89  O   UNL A   1      54.553  25.878  26.194  1.00  0.00    -0.237 OA
ATOM     90  O   UNL A   1      53.671  23.834  25.122  1.00  0.00    -0.237 OA
ATOM     91  O   UNL A   1      53.962  25.891  23.797  1.00  0.00    -0.744 OA
ENDBRANCH  87  88
ENDBRANCH  61  82
ENDBRANCH  35  36
ENDBRANCH  28  30
ENDBRANCH  27  28
ENDBRANCH   1  27
TORSDOF 16
ENDMDL
MODEL 2
REMARK VINA RESULT:     -12.2      6.528     11.953
REMARK SMILES CC1=C[C@H](C)[C@H](CN2C[C@]34C=C[C@@H](O3)[C@H](C(=O)OCCOC(=O)c3ccc(-c5c6nc(c(-c7ccc(S(=O)(=O)[O-])cc7)c7ccc([nH]7)c(-c7ccc(S(=O)(=O)[O-])cc7)c7nc(c(-c8ccc(S(=O)(=O)[O-])cc8)c8ccc5[nH]8)C=C7)C=C6)cc3)[C@@H]4C2=O)[C@H](C)C1
REMARK SMILES IDX 20 1 19 2 18 3 16 4 17 5 15 6 8 7 9 8 85 9 10 10 84 11 86 12
REMARK SMILES IDX 11 13 14 14 12 15 13 16 7 17 6 18 1 19 2 20 3 21 89 22 4 23
REMARK SMILES IDX 87 24 5 25 88 26 21 27 22 28 23 29 24 30 25 31 83 32 26 33
REMARK SMILES IDX 82 34 27 35 28 36 29 37 76 38 30 39 81 40 75 41 77 42 31 43
REMARK SMILES IDX 80 44 74 45 73 46 32 48 62 49 43 50 61 51 44 52 47 53 60 54
REMARK SMILES IDX 78 55 45 56 46 57 59 59 79 60 48 61 33 62 34 63 42 64 35 65
REMARK SMILES IDX 41 66 36 67 37 68 38 69 39 70 40 71 63 72 64 73 72 74 65 75
REMARK SMILES IDX 71 76 66 77 67 78 68 79 69 80 70 81 49 82 50 83 58 84 51 85
REMARK SMILES IDX 57 86 52 87 53 88 54 89 55 90 56 91
REMARK H PARENT 77 47 47 58
REMARK Flexibility Score: inf
ROOT
ATOM      1  C   UNL A   1      39.142  22.273  26.280  1.00  0.00     0.275 C 
ENDROOT
BRANCH   1   2
ATOM      2  C   UNL A   1      37.931  21.950  25.408  1.00  0.00     0.274 C 
BRANCH   2   3
ATOM      3  O   UNL A   1      37.187  23.160  25.101  1.00  0.00    -0.462 OA
BRANCH   3   4
ATOM      4  C   UNL A   1      35.858  23.097  25.352  1.00  0.00     0.312 C 
ATOM      5  O   UNL A   1      35.306  23.727  26.251  1.00  0.00    -0.252 OA
BRANCH   4   6
ATOM      6  C   UNL A   1      35.045  22.252  24.411  1.00  0.00     0.148 C 
ATOM      7  N   UNL A   1      32.481  24.455  23.889  1.00  0.00    -0.339 N 
ATOM      8  C   UNL A   1      32.205  23.372  24.762  1.00  0.00     0.160 C 
ATOM      9  C   UNL A   1      33.618  24.175  23.177  1.00  0.00     0.230 C 
ATOM     10  C   UNL A   1      32.587  22.014  24.020  1.00  0.00     0.117 C 
ATOM     11  C   UNL A   1      33.932  22.735  23.479  1.00  0.00     0.133 C 
ATOM     12  O   UNL A   1      34.185  24.877  22.377  1.00  0.00    -0.274 OA
ATOM     13  C   UNL A   1      32.221  21.406  25.391  1.00  0.00     0.009 C 
ATOM     14  O   UNL A   1      33.439  20.806  23.939  1.00  0.00    -0.360 OA
ATOM     15  C   UNL A   1      33.328  21.049  26.042  1.00  0.00     0.004 C 
ATOM     16  C   UNL A   1      34.396  21.016  25.023  1.00  0.00     0.157 C 
BRANCH   7  17
ATOM     17  C   UNL A   1      31.542  25.534  23.658  1.00  0.00     0.124 C 
BRANCH  17  18
ATOM     18  C   UNL A   1      31.988  26.928  24.149  1.00  0.00     0.018 C 
ATOM     19  C   UNL A   1      31.794  30.822  26.280  1.00  0.00     0.039 C 
ATOM     20  C   UNL A   1      31.814  29.519  25.534  1.00  0.00    -0.077 C 
ATOM     21  C   UNL A   1      31.027  29.305  24.469  1.00  0.00    -0.025 C 
ATOM     22  C   UNL A   1      32.772  28.475  26.031  1.00  0.00     0.034 C 
ATOM     23  C   UNL A   1      30.994  28.033  23.662  1.00  0.00     0.014 C 
ATOM     24  C   UNL A   1      32.362  27.033  25.662  1.00  0.00    -0.005 C 
ATOM     25  C   UNL A   1      29.531  27.591  23.504  1.00  0.00     0.012 C 
ATOM     26  C   UNL A   1      31.310  26.539  26.664  1.00  0.00     0.008 C 
ENDBRANCH  17  18
ENDBRANCH   7  17
ENDBRANCH   4   6
ENDBRANCH   3   4
ENDBRANCH   2   3
ENDBRANCH   1   2
BRANCH   1  27
ATOM     27  O   UNL A   1      39.184  23.693  26.500  1.00  0.00    -0.458 OA
BRANCH  27  28
ATOM     28  C   UNL A   1      40.416  24.220  26.697  1.00  0.00     0.338 C 
ATOM     29  O   UNL A   1      41.460  23.823  26.206  1.00  0.00    -0.246 OA
BRANCH  28  30
ATOM     30  C   UNL A   1      40.328  25.429  27.554  1.00  0.00     0.060 A 
ATOM     31  C   UNL A   1      41.307  26.422  27.498  1.00  0.00     0.016 A 
ATOM     32  C   UNL A   1      39.348  25.488  28.549  1.00  0.00     0.016 A 
ATOM     33  C   UNL A   1      41.397  27.361  28.529  1.00  0.00     0.010 A 
ATOM     34  C   UNL A   1      39.361  26.524  29.493  1.00  0.00     0.010 A 
ATOM     35  C   UNL A   1      40.410  27.455  29.526  1.00  0.00    -0.014 A 
BRANCH  35  36
ATOM     36  C   UNL A   1      40.453  28.543  30.554  1.00  0.00     0.031 A 
ATOM     37  C   UNL A   1      41.424  28.511  31.717  1.00  0.00     0.074 A 
ATOM     38  C   UNL A   1      39.576  29.567  30.469  1.00  0.00     0.049 A 
ATOM     39  N   UNL A   1      41.451  29.266  32.790  1.00  0.00    -0.248 NA
ATOM     40  C   UNL A   1      42.487  27.494  31.684  1.00  0.00     0.031 C 
ATOM     41  C   UNL A   1      38.584  29.754  29.405  1.00  0.00     0.029 A 
ATOM     42  N   UNL A   1      39.372  30.649  31.292  1.00  0.00    -0.354 N 
ATOM     43  C   UNL A   1      42.489  28.782  33.582  1.00  0.00     0.074 A 
ATOM     44  C   UNL A   1      43.067  27.663  32.866  1.00  0.00     0.031 C 
ATOM     45  C   UNL A   1      37.924  30.900  29.606  1.00  0.00     0.029 A 
ATOM     46  C   UNL A   1      38.353  31.471  30.874  1.00  0.00     0.049 A 
ATOM     47  H   UNL A   1      39.905  30.817  32.103  1.00  0.00     0.167 HD
ATOM     48  C   UNL A   1      42.918  29.223  34.793  1.00  0.00     0.031 A 
ATOM     49  C   UNL A   1      37.770  32.535  31.456  1.00  0.00     0.031 A 
ATOM     50  C   UNL A   1      42.368  30.361  35.489  1.00  0.00     0.049 A 
ATOM     51  C   UNL A   1      38.235  32.980  32.807  1.00  0.00     0.074 A 
ATOM     52  C   UNL A   1      42.762  30.900  36.704  1.00  0.00     0.029 A 
ATOM     53  N   UNL A   1      41.317  31.142  35.033  1.00  0.00    -0.354 N 
ATOM     54  N   UNL A   1      39.193  32.482  33.551  1.00  0.00    -0.248 NA
ATOM     55  C   UNL A   1      37.532  34.123  33.402  1.00  0.00     0.031 C 
ATOM     56  C   UNL A   1      41.917  31.975  37.005  1.00  0.00     0.029 A 
ATOM     57  C   UNL A   1      41.035  32.142  35.951  1.00  0.00     0.049 A 
ATOM     58  H   UNL A   1      40.841  31.006  34.182  1.00  0.00     0.167 HD
ATOM     59  C   UNL A   1      39.213  33.260  34.701  1.00  0.00     0.074 A 
ATOM     60  C   UNL A   1      38.192  34.275  34.541  1.00  0.00     0.031 C 
ATOM     61  C   UNL A   1      40.006  33.139  35.794  1.00  0.00     0.031 A 
BRANCH  48  62
ATOM     62  C   UNL A   1      44.024  28.454  35.478  1.00  0.00    -0.014 A 
ATOM     63  C   UNL A   1      43.750  27.368  36.329  1.00  0.00     0.010 A 
ATOM     64  C   UNL A   1      45.367  28.782  35.207  1.00  0.00     0.010 A 
ATOM     65  C   UNL A   1      44.795  26.653  36.924  1.00  0.00     0.020 A 
ATOM     66  C   UNL A   1      46.414  28.054  35.779  1.00  0.00     0.020 A 
ATOM     67  C   UNL A   1      46.122  27.004  36.650  1.00  0.00     0.054 A 
BRANCH  67  68
ATOM     68  S   UNL A   1      47.457  26.048  37.422  1.00  0.00     0.124 S 
ATOM     69  O   UNL A   1      46.944  25.854  38.776  1.00  0.00    -0.237 OA
ATOM     70  O   UNL A   1      47.512  24.845  36.595  1.00  0.00    -0.237 OA
ATOM     71  O   UNL A   1      48.620  26.926  37.316  1.00  0.00    -0.744 OA
ENDBRANCH  67  68
ENDBRANCH  48  62
BRANCH  49  72
ATOM     72  C   UNL A   1      36.639  33.215  30.770  1.00  0.00    -0.014 A 
ATOM     73  C   UNL A   1      35.339  33.141  31.298  1.00  0.00     0.010 A 
ATOM     74  C   UNL A   1      36.867  33.978  29.609  1.00  0.00     0.010 A 
ATOM     75  C   UNL A   1      34.286  33.812  30.672  1.00  0.00     0.020 A 
ATOM     76  C   UNL A   1      35.824  34.679  29.002  1.00  0.00     0.020 A 
ATOM     77  C   UNL A   1      34.536  34.581  29.531  1.00  0.00     0.054 A 
BRANCH  77  78
ATOM     78  S   UNL A   1      33.168  35.499  28.775  1.00  0.00     0.124 S 
ATOM     79  O   UNL A   1      33.873  36.555  28.056  1.00  0.00    -0.237 OA
ATOM     80  O   UNL A   1      32.527  34.484  27.941  1.00  0.00    -0.237 OA
ATOM     81  O   UNL A   1      32.378  35.940  29.923  1.00  0.00    -0.744 OA
ENDBRANCH  77  78
ENDBRANCH  49  72
BRANCH  61  82
ATOM     82  C   UNL A   1      39.812  34.152  36.890  1.00  0.00    -0.014 A 
ATOM     83  C   UNL A   1      40.389  35.432  36.807  1.00  0.00     0.010 A 
ATOM     84  C   UNL A   1      39.040  33.818  38.017  1.00  0.00     0.010 A 
ATOM     85  C   UNL A   1      40.233  36.345  37.854  1.00  0.00     0.020 A 
ATOM     86  C   UNL A   1      38.859  34.738  39.052  1.00  0.00     0.020 A 
ATOM     87  C   UNL A   1      39.474  35.990  38.973  1.00  0.00     0.054 A 
BRANCH  87  88
ATOM     88  S   UNL A   1      39.275  37.196  40.313  1.00  0.00     0.124 S 
ATOM     89  O   UNL A   1      38.535  38.267  39.649  1.00  0.00    -0.237 OA
ATOM     90  O   UNL A   1      38.527  36.443  41.316  1.00  0.00    -0.237 OA
ATOM     91  O   UNL A   1      40.649  37.527  40.688  1.00  0.00    -0.744 OA
ENDBRANCH  87  88
ENDBRANCH  61  82
ENDBRANCH  35  36
ENDBRANCH  28  30
ENDBRANCH  27  28
ENDBRANCH   1  27
TORSDOF 16
ENDMDL
MODEL 3
REMARK VINA RESULT:     -11.9      5.392      9.425
REMARK SMILES CC1=C[C@H](C)[C@H](CN2C[C@]34C=C[C@@H](O3)[C@H](C(=O)OCCOC(=O)c3ccc(-c5c6nc(c(-c7ccc(S(=O)(=O)[O-])cc7)c7ccc([nH]7)c(-c7ccc(S(=O)(=O)[O-])cc7)c7nc(c(-c8ccc(S(=O)(=O)[O-])cc8)c8ccc5[nH]8)C=C7)C=C6)cc3)[C@@H]4C2=O)[C@H](C)C1
REMARK SMILES IDX 20 1 19 2 18 3 16 4 17 5 15 6 8 7 9 8 85 9 10 10 84 11 86 12
REMARK SMILES IDX 11 13 14 14 12 15 13 16 7 17 6 18 1 19 2 20 3 21 89 22 4 23
REMARK SMILES IDX 87 24 5 25 88 26 21 27 22 28 23 29 24 30 25 31 83 32 26 33
REMARK SMILES IDX 82 34 27 35 28 36 29 37 76 38 30 39 81 40 75 41 77 42 31 43
REMARK SMILES IDX 80 44 74 45 73 46 32 48 62 49 43 50 61 51 44 52 47 53 60 54
REMARK SMILES IDX 78 55 45 56 46 57 59 59 79 60 48 61 33 62 34 63 42 64 35 65
REMARK SMILES IDX 41 66 36 67 37 68 38 69 39 70 40 71 63 72 64 73 72 74 65 75
REMARK SMILES IDX 71 76 66 77 67 78 68 79 69 80 70 81 49 82 50 83 58 84 51 85
REMARK SMILES IDX 57 86 52 87 53 88 54 89 55 90 56 91
REMARK H PARENT 77 47 47 58
REMARK Flexibility Score: inf
ROOT
ATOM      1  C   UNL A   1      32.233  30.429  26.835  1.00  0.00     0.275 C 
ENDROOT
BRANCH   1   2
ATOM      2  C   UNL A   1      31.839  29.094  27.462  1.00  0.00     0.274 C 
BRANCH   2   3
ATOM      3  O   UNL A   1      32.838  28.080  27.168  1.00  0.00    -0.462 OA
BRANCH   3   4
ATOM      4  C   UNL A   1      32.646  27.403  26.011  1.00  0.00     0.312 C 
ATOM      5  O   UNL A   1      33.562  26.999  25.300  1.00  0.00    -0.252 OA
BRANCH   4   6
ATOM      6  C   UNL A   1      31.219  27.092  25.654  1.00  0.00     0.148 C 
ATOM      7  N   UNL A   1      31.618  23.769  24.950  1.00  0.00    -0.339 N 
ATOM      8  C   UNL A   1      31.487  24.631  23.833  1.00  0.00     0.160 C 
ATOM      9  C   UNL A   1      31.205  24.431  26.076  1.00  0.00     0.230 C 
ATOM     10  C   UNL A   1      30.171  25.510  24.024  1.00  0.00     0.117 C 
ATOM     11  C   UNL A   1      30.577  25.705  25.580  1.00  0.00     0.133 C 
ATOM     12  O   UNL A   1      31.217  24.038  27.216  1.00  0.00    -0.274 OA
ATOM     13  C   UNL A   1      30.684  26.182  22.732  1.00  0.00     0.009 C 
ATOM     14  O   UNL A   1      29.548  26.839  24.226  1.00  0.00    -0.360 OA
ATOM     15  C   UNL A   1      31.201  27.378  23.013  1.00  0.00     0.004 C 
ATOM     16  C   UNL A   1      30.707  27.718  24.363  1.00  0.00     0.157 C 
BRANCH   7  17
ATOM     17  C   UNL A   1      31.911  22.355  24.819  1.00  0.00     0.124 C 
BRANCH  17  18
ATOM     18  C   UNL A   1      33.331  21.922  25.241  1.00  0.00     0.018 C 
ATOM     19  C   UNL A   1      37.424  20.233  24.868  1.00  0.00     0.039 C 
ATOM     20  C   UNL A   1      36.021  20.756  24.978  1.00  0.00    -0.077 C 
ATOM     21  C   UNL A   1      34.958  19.938  24.936  1.00  0.00    -0.025 C 
ATOM     22  C   UNL A   1      35.869  22.240  25.152  1.00  0.00     0.034 C 
ATOM     23  C   UNL A   1      33.523  20.382  25.048  1.00  0.00     0.014 C 
ATOM     24  C   UNL A   1      34.505  22.784  24.675  1.00  0.00    -0.005 C 
ATOM     25  C   UNL A   1      32.723  19.750  23.898  1.00  0.00     0.012 C 
ATOM     26  C   UNL A   1      34.546  22.971  23.152  1.00  0.00     0.008 C 
ENDBRANCH  17  18
ENDBRANCH   7  17
ENDBRANCH   4   6
ENDBRANCH   3   4
ENDBRANCH   2   3
ENDBRANCH   1   2
BRANCH   1  27
ATOM     27  O   UNL A   1      33.668  30.521  26.811  1.00  0.00    -0.458 OA
BRANCH  27  28
ATOM     28  C   UNL A   1      34.210  31.446  27.638  1.00  0.00     0.338 C 
ATOM     29  O   UNL A   1      33.677  32.475  28.022  1.00  0.00    -0.246 OA
BRANCH  28  30
ATOM     30  C   UNL A   1      35.550  31.003  28.100  1.00  0.00     0.060 A 
ATOM     31  C   UNL A   1      35.742  29.724  28.623  1.00  0.00     0.016 A 
ATOM     32  C   UNL A   1      36.587  31.937  28.173  1.00  0.00     0.016 A 
ATOM     33  C   UNL A   1      36.899  29.446  29.357  1.00  0.00     0.010 A 
ATOM     34  C   UNL A   1      37.802  31.597  28.782  1.00  0.00     0.010 A 
ATOM     35  C   UNL A   1      37.966  30.360  29.423  1.00  0.00    -0.014 A 
BRANCH  35  36
ATOM     36  C   UNL A   1      39.247  30.001  30.110  1.00  0.00     0.031 A 
ATOM     37  C   UNL A   1      40.158  28.908  29.591  1.00  0.00     0.074 A 
ATOM     38  C   UNL A   1      39.586  30.643  31.250  1.00  0.00     0.049 A 
ATOM     39  N   UNL A   1      41.191  28.348  30.176  1.00  0.00    -0.248 NA
ATOM     40  C   UNL A   1      39.867  28.359  28.258  1.00  0.00     0.031 C 
ATOM     41  C   UNL A   1      38.825  31.729  31.876  1.00  0.00     0.029 A 
ATOM     42  N   UNL A   1      40.661  30.477  32.090  1.00  0.00    -0.354 N 
ATOM     43  C   UNL A   1      41.634  27.348  29.314  1.00  0.00     0.074 A 
ATOM     44  C   UNL A   1      40.754  27.376  28.164  1.00  0.00     0.031 C 
ATOM     45  C   UNL A   1      39.480  32.166  32.958  1.00  0.00     0.029 A 
ATOM     46  C   UNL A   1      40.641  31.319  33.178  1.00  0.00     0.049 A 
ATOM     47  H   UNL A   1      41.376  29.820  31.928  1.00  0.00     0.167 HD
ATOM     48  C   UNL A   1      42.672  26.486  29.466  1.00  0.00     0.031 A 
ATOM     49  C   UNL A   1      41.423  31.380  34.271  1.00  0.00     0.031 A 
ATOM     50  C   UNL A   1      43.572  26.483  30.593  1.00  0.00     0.049 A 
ATOM     51  C   UNL A   1      42.537  30.395  34.434  1.00  0.00     0.074 A 
ATOM     52  C   UNL A   1      44.671  25.667  30.816  1.00  0.00     0.029 A 
ATOM     53  N   UNL A   1      43.490  27.338  31.682  1.00  0.00    -0.354 N 
ATOM     54  N   UNL A   1      42.911  29.435  33.623  1.00  0.00    -0.248 NA
ATOM     55  C   UNL A   1      43.327  30.493  35.668  1.00  0.00     0.031 C 
ATOM     56  C   UNL A   1      45.221  25.997  32.060  1.00  0.00     0.029 A 
ATOM     57  C   UNL A   1      44.501  27.056  32.586  1.00  0.00     0.049 A 
ATOM     58  H   UNL A   1      42.812  28.043  31.794  1.00  0.00     0.167 HD
ATOM     59  C   UNL A   1      43.990  28.821  34.245  1.00  0.00     0.074 A 
ATOM     60  C   UNL A   1      44.223  29.533  35.485  1.00  0.00     0.031 C 
ATOM     61  C   UNL A   1      44.718  27.757  33.826  1.00  0.00     0.031 A 
BRANCH  48  62
ATOM     62  C   UNL A   1      42.882  25.433  28.402  1.00  0.00    -0.014 A 
ATOM     63  C   UNL A   1      43.667  25.682  27.262  1.00  0.00     0.010 A 
ATOM     64  C   UNL A   1      42.339  24.146  28.585  1.00  0.00     0.010 A 
ATOM     65  C   UNL A   1      43.871  24.678  26.309  1.00  0.00     0.020 A 
ATOM     66  C   UNL A   1      42.563  23.132  27.649  1.00  0.00     0.020 A 
ATOM     67  C   UNL A   1      43.314  23.410  26.506  1.00  0.00     0.054 A 
BRANCH  67  68
ATOM     68  S   UNL A   1      43.610  22.121  25.262  1.00  0.00     0.124 S 
ATOM     69  O   UNL A   1      42.495  21.208  25.505  1.00  0.00    -0.237 OA
ATOM     70  O   UNL A   1      43.548  22.865  24.007  1.00  0.00    -0.237 OA
ATOM     71  O   UNL A   1      44.929  21.599  25.610  1.00  0.00    -0.744 OA
ENDBRANCH  67  68
ENDBRANCH  48  62
BRANCH  49  72
ATOM     72  C   UNL A   1      41.129  32.391  35.323  1.00  0.00    -0.014 A 
ATOM     73  C   UNL A   1      41.604  33.706  35.196  1.00  0.00     0.010 A 
ATOM     74  C   UNL A   1      40.333  32.051  36.433  1.00  0.00     0.010 A 
ATOM     75  C   UNL A   1      41.295  34.663  36.166  1.00  0.00     0.020 A 
ATOM     76  C   UNL A   1      39.993  33.012  37.385  1.00  0.00     0.020 A 
ATOM     77  C   UNL A   1      40.487  34.311  37.252  1.00  0.00     0.054 A 
BRANCH  77  78
ATOM     78  S   UNL A   1      40.040  35.585  38.463  1.00  0.00     0.124 S 
ATOM     79  O   UNL A   1      38.815  35.039  39.038  1.00  0.00    -0.237 OA
ATOM     80  O   UNL A   1      41.203  35.602  39.348  1.00  0.00    -0.237 OA
ATOM     81  O   UNL A   1      39.871  36.785  37.647  1.00  0.00    -0.744 OA
ENDBRANCH  77  78
ENDBRANCH  49  72
BRANCH  61  82
ATOM     82  C   UNL A   1      45.854  27.321  34.711  1.00  0.00    -0.014 A 
ATOM     83  C   UNL A   1      45.659  26.373  35.731  1.00  0.00     0.010 A 
ATOM     84  C   UNL A   1      47.137  27.865  34.516  1.00  0.00     0.010 A 
ATOM     85  C   UNL A   1      46.716  26.010  36.570  1.00  0.00     0.020 A 
ATOM     86  C   UNL A   1      48.202  27.485  35.336  1.00  0.00     0.020 A 
ATOM     87  C   UNL A   1      47.980  26.574  36.371  1.00  0.00     0.054 A 
BRANCH  87  88
ATOM     88  S   UNL A   1      49.340  26.078  37.463  1.00  0.00     0.124 S 
ATOM     89  O   UNL A   1      48.974  24.705  37.800  1.00  0.00    -0.237 OA
ATOM     90  O   UNL A   1      50.513  26.224  36.604  1.00  0.00    -0.237 OA
ATOM     91  O   UNL A   1      49.262  27.033  38.568  1.00  0.00    -0.744 OA
ENDBRANCH  87  88
ENDBRANCH  61  82
ENDBRANCH  35  36
ENDBRANCH  28  30
ENDBRANCH  27  28
ENDBRANCH   1  27
TORSDOF 16
ENDMDL
