MODEL 1
REMARK VINA RESULT:     -11.8      0.000      0.000
REMARK SMILES Cn1c(=O)c(=O)n(C)c2cc(S(=O)(=O)N3CCC[C@H]3C(=O)OCCOC(=O)c3ccc(-c4c5nc(c(-c6ccc(S(=O)(=O)[O-])cc6)c6ccc([nH]6)c(-c6ccc(S(=O)(=O)[O-])cc6)c6nc(c(-c7ccc(S(=O)(=O)[O-])cc7)c7ccc4[nH]7)C=C6)C=C5)cc3)ccc21
REMARK SMILES IDX 24 1 23 2 22 3 20 4 21 5 19 6 15 7 16 8 17 9 18 10 12 11
REMARK SMILES IDX 13 12 14 13 11 14 1 15 2 16 3 17 90 18 4 19 5 20 9 21 89 22
REMARK SMILES IDX 6 23 7 24 10 25 88 26 8 27 25 28 26 29 27 30 28 31 29 32
REMARK SMILES IDX 87 33 30 34 86 35 31 36 32 37 33 38 80 39 34 40 85 41 79 42
REMARK SMILES IDX 81 43 35 44 84 45 78 46 77 47 36 49 66 50 47 51 65 52 48 53
REMARK SMILES IDX 51 54 64 55 82 56 49 57 50 58 63 60 83 61 52 62 37 63 38 64
REMARK SMILES IDX 46 65 39 66 45 67 40 68 41 69 42 70 43 71 44 72 67 73 68 74
REMARK SMILES IDX 76 75 69 76 75 77 70 78 71 79 72 80 73 81 74 82 53 83 54 84
REMARK SMILES IDX 62 85 55 86 61 87 56 88 57 89 58 90 59 91 60 92
REMARK H PARENT 81 48 51 59
REMARK Flexibility Score: inf
ROOT
ATOM      1  C   UNL A   1      32.501  30.188  26.545  1.00  0.00     0.275 C 
ENDROOT
BRANCH   1   2
ATOM      2  C   UNL A   1      32.869  29.588  25.185  1.00  0.00     0.274 C 
BRANCH   2   3
ATOM      3  O   UNL A   1      31.710  29.164  24.438  1.00  0.00    -0.461 OA
BRANCH   3   4
ATOM      4  C   UNL A   1      31.989  28.522  23.263  1.00  0.00     0.324 C 
ATOM      5  O   UNL A   1      32.767  28.958  22.427  1.00  0.00    -0.250 OA
BRANCH   4   6
ATOM      6  C   UNL A   1      31.203  27.214  23.149  1.00  0.00     0.183 C 
ATOM      7  N   UNL A   1      31.720  26.059  23.933  1.00  0.00    -0.184 NA
ATOM      8  C   UNL A   1      30.871  25.825  25.106  1.00  0.00     0.103 C 
ATOM      9  C   UNL A   1      29.501  26.148  24.544  1.00  0.00     0.019 C 
ATOM     10  C   UNL A   1      29.766  27.382  23.686  1.00  0.00     0.034 C 
BRANCH   7  11
ATOM     11  S   UNL A   1      33.336  25.637  23.895  1.00  0.00     0.243 S 
ATOM     12  O   UNL A   1      33.995  26.225  25.038  1.00  0.00    -0.207 OA
ATOM     13  O   UNL A   1      33.806  25.781  22.534  1.00  0.00    -0.207 OA
BRANCH  11  14
ATOM     14  C   UNL A   1      33.332  23.871  24.155  1.00  0.00     0.084 A 
ATOM     15  C   UNL A   1      32.460  18.814  24.138  1.00  0.00     0.154 C 
ATOM     16  N   UNL A   1      33.630  19.655  24.343  1.00  0.00    -0.305 N 
ATOM     17  C   UNL A   1      34.833  19.011  24.623  1.00  0.00     0.316 A 
ATOM     18  C   UNL A   1      33.532  21.071  24.313  1.00  0.00     0.068 A 
ATOM     19  O   UNL A   1      34.942  17.789  24.698  1.00  0.00    -0.263 OA
ATOM     20  C   UNL A   1      36.082  19.875  24.836  1.00  0.00     0.316 A 
ATOM     21  C   UNL A   1      34.671  21.867  24.544  1.00  0.00     0.069 A 
ATOM     22  C   UNL A   1      32.307  21.701  24.035  1.00  0.00     0.030 A 
ATOM     23  O   UNL A   1      37.159  19.309  25.002  1.00  0.00    -0.263 OA
ATOM     24  N   UNL A   1      35.927  21.258  24.814  1.00  0.00    -0.305 N 
ATOM     25  C   UNL A   1      34.553  23.265  24.472  1.00  0.00     0.050 A 
ATOM     26  C   UNL A   1      32.211  23.087  23.931  1.00  0.00     0.024 A 
ATOM     27  C   UNL A   1      37.105  22.079  25.061  1.00  0.00     0.154 C 
ENDBRANCH  11  14
ENDBRANCH   7  11
ENDBRANCH   4   6
ENDBRANCH   3   4
ENDBRANCH   2   3
ENDBRANCH   1   2
BRANCH   1  28
ATOM     28  O   UNL A   1      33.435  29.801  27.570  1.00  0.00    -0.458 OA
BRANCH  28  29
ATOM     29  C   UNL A   1      34.303  30.758  27.971  1.00  0.00     0.338 C 
ATOM     30  O   UNL A   1      34.063  31.941  28.153  1.00  0.00    -0.246 OA
BRANCH  29  31
ATOM     31  C   UNL A   1      35.626  30.168  28.230  1.00  0.00     0.060 A 
ATOM     32  C   UNL A   1      36.624  30.201  27.261  1.00  0.00     0.016 A 
ATOM     33  C   UNL A   1      35.919  29.710  29.512  1.00  0.00     0.016 A 
ATOM     34  C   UNL A   1      37.912  29.751  27.586  1.00  0.00     0.010 A 
ATOM     35  C   UNL A   1      37.221  29.360  29.861  1.00  0.00     0.010 A 
ATOM     36  C   UNL A   1      38.233  29.351  28.898  1.00  0.00    -0.014 A 
BRANCH  36  37
ATOM     37  C   UNL A   1      39.611  28.927  29.276  1.00  0.00     0.031 A 
ATOM     38  C   UNL A   1      40.492  29.826  30.112  1.00  0.00     0.074 A 
ATOM     39  C   UNL A   1      40.098  27.751  28.830  1.00  0.00     0.049 A 
ATOM     40  N   UNL A   1      41.706  29.605  30.551  1.00  0.00    -0.248 NA
ATOM     41  C   UNL A   1      39.959  31.150  30.481  1.00  0.00     0.031 C 
ATOM     42  C   UNL A   1      39.387  26.824  27.948  1.00  0.00     0.029 A 
ATOM     43  N   UNL A   1      41.299  27.124  29.065  1.00  0.00    -0.354 N 
ATOM     44  C   UNL A   1      42.080  30.759  31.233  1.00  0.00     0.074 A 
ATOM     45  C   UNL A   1      40.995  31.702  31.095  1.00  0.00     0.031 C 
ATOM     46  C   UNL A   1      40.133  25.722  27.771  1.00  0.00     0.029 A 
ATOM     47  C   UNL A   1      41.393  25.876  28.495  1.00  0.00     0.049 A 
ATOM     48  H   UNL A   1      42.024  27.531  29.593  1.00  0.00     0.167 HD
ATOM     49  C   UNL A   1      43.206  31.001  31.944  1.00  0.00     0.031 A 
ATOM     50  C   UNL A   1      42.367  24.944  28.559  1.00  0.00     0.031 A 
ATOM     51  C   UNL A   1      44.270  30.048  32.115  1.00  0.00     0.049 A 
ATOM     52  C   UNL A   1      43.597  25.215  29.380  1.00  0.00     0.074 A 
ATOM     53  C   UNL A   1      45.416  30.175  32.878  1.00  0.00     0.029 A 
ATOM     54  N   UNL A   1      44.314  28.794  31.527  1.00  0.00    -0.354 N 
ATOM     55  N   UNL A   1      43.891  26.281  30.084  1.00  0.00    -0.248 NA
ATOM     56  C   UNL A   1      44.619  24.159  29.430  1.00  0.00     0.031 C 
ATOM     57  C   UNL A   1      46.178  29.018  32.716  1.00  0.00     0.029 A 
ATOM     58  C   UNL A   1      45.478  28.144  31.898  1.00  0.00     0.049 A 
ATOM     59  H   UNL A   1      43.622  28.421  30.935  1.00  0.00     0.167 HD
ATOM     60  C   UNL A   1      45.122  26.019  30.673  1.00  0.00     0.074 A 
ATOM     61  C   UNL A   1      45.515  24.690  30.255  1.00  0.00     0.031 C 
ATOM     62  C   UNL A   1      45.858  26.815  31.486  1.00  0.00     0.031 A 
BRANCH  49  63
ATOM     63  C   UNL A   1      43.338  32.331  32.641  1.00  0.00    -0.014 A 
ATOM     64  C   UNL A   1      44.023  33.390  32.020  1.00  0.00     0.010 A 
ATOM     65  C   UNL A   1      42.880  32.494  33.962  1.00  0.00     0.010 A 
ATOM     66  C   UNL A   1      44.268  34.581  32.712  1.00  0.00     0.020 A 
ATOM     67  C   UNL A   1      43.095  33.692  34.646  1.00  0.00     0.020 A 
ATOM     68  C   UNL A   1      43.807  34.721  34.025  1.00  0.00     0.054 A 
BRANCH  68  69
ATOM     69  S   UNL A   1      44.141  36.265  34.915  1.00  0.00     0.124 S 
ATOM     70  O   UNL A   1      45.368  35.947  35.637  1.00  0.00    -0.237 OA
ATOM     71  O   UNL A   1      44.276  37.238  33.834  1.00  0.00    -0.237 OA
ATOM     72  O   UNL A   1      42.952  36.440  35.750  1.00  0.00    -0.744 OA
ENDBRANCH  68  69
ENDBRANCH  49  63
BRANCH  50  73
ATOM     73  C   UNL A   1      42.163  23.637  27.875  1.00  0.00    -0.014 A 
ATOM     74  C   UNL A   1      41.372  22.634  28.464  1.00  0.00     0.010 A 
ATOM     75  C   UNL A   1      42.843  23.355  26.677  1.00  0.00     0.010 A 
ATOM     76  C   UNL A   1      41.309  21.356  27.898  1.00  0.00     0.020 A 
ATOM     77  C   UNL A   1      42.762  22.087  26.093  1.00  0.00     0.020 A 
ATOM     78  C   UNL A   1      42.020  21.086  26.726  1.00  0.00     0.054 A 
BRANCH  78  79
ATOM     79  S   UNL A   1      41.981  19.405  26.046  1.00  0.00     0.124 S 
ATOM     80  O   UNL A   1      42.480  18.616  27.170  1.00  0.00    -0.237 OA
ATOM     81  O   UNL A   1      40.568  19.221  25.726  1.00  0.00    -0.237 OA
ATOM     82  O   UNL A   1      42.873  19.482  24.892  1.00  0.00    -0.744 OA
ENDBRANCH  78  79
ENDBRANCH  50  73
BRANCH  62  83
ATOM     83  C   UNL A   1      47.175  26.304  32.001  1.00  0.00    -0.014 A 
ATOM     84  C   UNL A   1      48.321  26.394  31.188  1.00  0.00     0.010 A 
ATOM     85  C   UNL A   1      47.236  25.566  33.196  1.00  0.00     0.010 A 
ATOM     86  C   UNL A   1      49.489  25.709  31.532  1.00  0.00     0.020 A 
ATOM     87  C   UNL A   1      48.411  24.899  33.555  1.00  0.00     0.020 A 
ATOM     88  C   UNL A   1      49.518  24.949  32.704  1.00  0.00     0.054 A 
BRANCH  88  89
ATOM     89  S   UNL A   1      51.013  23.995  33.090  1.00  0.00     0.124 S 
ATOM     90  O   UNL A   1      50.532  22.621  33.001  1.00  0.00    -0.237 OA
ATOM     91  O   UNL A   1      51.938  24.409  32.038  1.00  0.00    -0.237 OA
ATOM     92  O   UNL A   1      51.368  24.447  34.434  1.00  0.00    -0.744 OA
ENDBRANCH  88  89
ENDBRANCH  62  83
ENDBRANCH  36  37
ENDBRANCH  29  31
ENDBRANCH  28  29
ENDBRANCH   1  28
TORSDOF 16
ENDMDL
MODEL 2
REMARK VINA RESULT:     -11.4      2.160      2.784
REMARK SMILES Cn1c(=O)c(=O)n(C)c2cc(S(=O)(=O)N3CCC[C@H]3C(=O)OCCOC(=O)c3ccc(-c4c5nc(c(-c6ccc(S(=O)(=O)[O-])cc6)c6ccc([nH]6)c(-c6ccc(S(=O)(=O)[O-])cc6)c6nc(c(-c7ccc(S(=O)(=O)[O-])cc7)c7ccc4[nH]7)C=C6)C=C5)cc3)ccc21
REMARK SMILES IDX 24 1 23 2 22 3 20 4 21 5 19 6 15 7 16 8 17 9 18 10 12 11
REMARK SMILES IDX 13 12 14 13 11 14 1 15 2 16 3 17 90 18 4 19 5 20 9 21 89 22
REMARK SMILES IDX 6 23 7 24 10 25 88 26 8 27 25 28 26 29 27 30 28 31 29 32
REMARK SMILES IDX 87 33 30 34 86 35 31 36 32 37 33 38 80 39 34 40 85 41 79 42
REMARK SMILES IDX 81 43 35 44 84 45 78 46 77 47 36 49 66 50 47 51 65 52 48 53
REMARK SMILES IDX 51 54 64 55 82 56 49 57 50 58 63 60 83 61 52 62 37 63 38 64
REMARK SMILES IDX 46 65 39 66 45 67 40 68 41 69 42 70 43 71 44 72 67 73 68 74
REMARK SMILES IDX 76 75 69 76 75 77 70 78 71 79 72 80 73 81 74 82 53 83 54 84
REMARK SMILES IDX 62 85 55 86 61 87 56 88 57 89 58 90 59 91 60 92
REMARK H PARENT 81 48 51 59
REMARK Flexibility Score: inf
ROOT
ATOM      1  C   UNL A   1      33.217  30.311  26.036  1.00  0.00     0.275 C 
ENDROOT
BRANCH   1   2
ATOM      2  C   UNL A   1      31.735  30.087  25.725  1.00  0.00     0.274 C 
BRANCH   2   3
ATOM      3  O   UNL A   1      31.378  28.689  25.724  1.00  0.00    -0.461 OA
BRANCH   3   4
ATOM      4  C   UNL A   1      31.257  28.129  24.482  1.00  0.00     0.324 C 
ATOM      5  O   UNL A   1      30.255  28.236  23.791  1.00  0.00    -0.250 OA
BRANCH   4   6
ATOM      6  C   UNL A   1      32.527  27.367  24.096  1.00  0.00     0.183 C 
ATOM      7  N   UNL A   1      32.403  25.888  23.983  1.00  0.00    -0.184 NA
ATOM      8  C   UNL A   1      32.394  25.489  22.571  1.00  0.00     0.103 C 
ATOM      9  C   UNL A   1      33.377  26.481  21.981  1.00  0.00     0.019 C 
ATOM     10  C   UNL A   1      33.017  27.782  22.692  1.00  0.00     0.034 C 
BRANCH   7  11
ATOM     11  S   UNL A   1      31.662  24.984  25.177  1.00  0.00     0.243 S 
ATOM     12  O   UNL A   1      30.321  24.662  24.748  1.00  0.00    -0.207 OA
ATOM     13  O   UNL A   1      31.975  25.586  26.455  1.00  0.00    -0.207 OA
BRANCH  11  14
ATOM     14  C   UNL A   1      32.578  23.452  25.196  1.00  0.00     0.084 A 
ATOM     15  C   UNL A   1      34.405  18.706  24.506  1.00  0.00     0.154 C 
ATOM     16  N   UNL A   1      34.995  20.001  24.811  1.00  0.00    -0.305 N 
ATOM     17  C   UNL A   1      36.376  20.042  24.991  1.00  0.00     0.316 A 
ATOM     18  C   UNL A   1      34.187  21.157  24.974  1.00  0.00     0.068 A 
ATOM     19  O   UNL A   1      37.098  19.051  24.899  1.00  0.00    -0.263 OA
ATOM     20  C   UNL A   1      37.022  21.396  25.306  1.00  0.00     0.316 A 
ATOM     21  C   UNL A   1      34.776  22.395  25.299  1.00  0.00     0.069 A 
ATOM     22  C   UNL A   1      32.795  21.093  24.795  1.00  0.00     0.030 A 
ATOM     23  O   UNL A   1      38.247  21.452  25.384  1.00  0.00    -0.263 OA
ATOM     24  N   UNL A   1      36.184  22.494  25.473  1.00  0.00    -0.305 N 
ATOM     25  C   UNL A   1      33.958  23.530  25.417  1.00  0.00     0.050 A 
ATOM     26  C   UNL A   1      31.999  22.233  24.879  1.00  0.00     0.024 A 
ATOM     27  C   UNL A   1      36.795  23.772  25.817  1.00  0.00     0.154 C 
ENDBRANCH  11  14
ENDBRANCH   7  11
ENDBRANCH   4   6
ENDBRANCH   3   4
ENDBRANCH   2   3
ENDBRANCH   1   2
BRANCH   1  28
ATOM     28  O   UNL A   1      33.455  30.420  27.452  1.00  0.00    -0.458 OA
BRANCH  28  29
ATOM     29  C   UNL A   1      34.207  31.473  27.846  1.00  0.00     0.338 C 
ATOM     30  O   UNL A   1      33.868  32.645  27.888  1.00  0.00    -0.246 OA
BRANCH  29  31
ATOM     31  C   UNL A   1      35.530  31.013  28.297  1.00  0.00     0.060 A 
ATOM     32  C   UNL A   1      36.640  31.849  28.220  1.00  0.00     0.016 A 
ATOM     33  C   UNL A   1      35.631  29.785  28.944  1.00  0.00     0.016 A 
ATOM     34  C   UNL A   1      37.855  31.430  28.781  1.00  0.00     0.010 A 
ATOM     35  C   UNL A   1      36.809  29.415  29.587  1.00  0.00     0.010 A 
ATOM     36  C   UNL A   1      37.947  30.219  29.496  1.00  0.00    -0.014 A 
BRANCH  36  37
ATOM     37  C   UNL A   1      39.215  29.787  30.150  1.00  0.00     0.031 A 
ATOM     38  C   UNL A   1      39.683  30.438  31.430  1.00  0.00     0.074 A 
ATOM     39  C   UNL A   1      39.979  28.837  29.571  1.00  0.00     0.049 A 
ATOM     40  N   UNL A   1      40.747  30.169  32.145  1.00  0.00    -0.248 NA
ATOM     41  C   UNL A   1      38.875  31.548  31.965  1.00  0.00     0.031 C 
ATOM     42  C   UNL A   1      39.688  28.184  28.293  1.00  0.00     0.029 A 
ATOM     43  N   UNL A   1      41.148  28.244  29.984  1.00  0.00    -0.354 N 
ATOM     44  C   UNL A   1      40.738  31.078  33.197  1.00  0.00     0.074 A 
ATOM     45  C   UNL A   1      39.604  31.948  32.995  1.00  0.00     0.031 C 
ATOM     46  C   UNL A   1      40.613  27.238  28.061  1.00  0.00     0.029 A 
ATOM     47  C   UNL A   1      41.585  27.239  29.152  1.00  0.00     0.049 A 
ATOM     48  H   UNL A   1      41.629  28.513  30.801  1.00  0.00     0.167 HD
ATOM     49  C   UNL A   1      41.574  31.159  34.259  1.00  0.00     0.031 A 
ATOM     50  C   UNL A   1      42.633  26.396  29.255  1.00  0.00     0.031 A 
ATOM     51  C   UNL A   1      42.680  30.268  34.483  1.00  0.00     0.049 A 
ATOM     52  C   UNL A   1      43.531  26.477  30.458  1.00  0.00     0.074 A 
ATOM     53  C   UNL A   1      43.538  30.225  35.567  1.00  0.00     0.029 A 
ATOM     54  N   UNL A   1      43.075  29.261  33.616  1.00  0.00    -0.354 N 
ATOM     55  N   UNL A   1      43.454  27.291  31.482  1.00  0.00    -0.248 NA
ATOM     56  C   UNL A   1      44.648  25.523  30.529  1.00  0.00     0.031 C 
ATOM     57  C   UNL A   1      44.481  29.223  35.337  1.00  0.00     0.029 A 
ATOM     58  C   UNL A   1      44.176  28.601  34.136  1.00  0.00     0.049 A 
ATOM     59  H   UNL A   1      42.638  29.046  32.761  1.00  0.00     0.167 HD
ATOM     60  C   UNL A   1      44.499  26.938  32.328  1.00  0.00     0.074 A 
ATOM     61  C   UNL A   1      45.189  25.829  31.703  1.00  0.00     0.031 C 
ATOM     62  C   UNL A   1      44.852  27.490  33.514  1.00  0.00     0.031 A 
BRANCH  49  63
ATOM     63  C   UNL A   1      41.305  32.215  35.301  1.00  0.00    -0.014 A 
ATOM     64  C   UNL A   1      40.407  31.959  36.353  1.00  0.00     0.010 A 
ATOM     65  C   UNL A   1      41.857  33.503  35.172  1.00  0.00     0.010 A 
ATOM     66  C   UNL A   1      40.048  32.975  37.244  1.00  0.00     0.020 A 
ATOM     67  C   UNL A   1      41.525  34.513  36.078  1.00  0.00     0.020 A 
ATOM     68  C   UNL A   1      40.605  34.249  37.095  1.00  0.00     0.054 A 
BRANCH  68  69
ATOM     69  S   UNL A   1      40.122  35.561  38.250  1.00  0.00     0.124 S 
ATOM     70  O   UNL A   1      39.022  34.941  38.981  1.00  0.00    -0.237 OA
ATOM     71  O   UNL A   1      41.346  35.782  39.017  1.00  0.00    -0.237 OA
ATOM     72  O   UNL A   1      39.744  36.667  37.371  1.00  0.00    -0.744 OA
ENDBRANCH  68  69
ENDBRANCH  49  63
BRANCH  50  73
ATOM     73  C   UNL A   1      42.826  25.352  28.211  1.00  0.00    -0.014 A 
ATOM     74  C   UNL A   1      42.258  24.074  28.358  1.00  0.00     0.010 A 
ATOM     75  C   UNL A   1      43.664  25.605  27.111  1.00  0.00     0.010 A 
ATOM     76  C   UNL A   1      42.569  23.051  27.457  1.00  0.00     0.020 A 
ATOM     77  C   UNL A   1      43.958  24.592  26.192  1.00  0.00     0.020 A 
ATOM     78  C   UNL A   1      43.433  23.312  26.390  1.00  0.00     0.054 A 
BRANCH  78  79
ATOM     79  S   UNL A   1      43.878  21.955  25.272  1.00  0.00     0.124 S 
ATOM     80  O   UNL A   1      42.871  20.951  25.605  1.00  0.00    -0.237 OA
ATOM     81  O   UNL A   1      43.744  22.568  23.953  1.00  0.00    -0.237 OA
ATOM     82  O   UNL A   1      45.246  21.623  25.665  1.00  0.00    -0.744 OA
ENDBRANCH  78  79
ENDBRANCH  50  73
BRANCH  62  83
ATOM     83  C   UNL A   1      46.037  26.928  34.250  1.00  0.00    -0.014 A 
ATOM     84  C   UNL A   1      47.324  27.432  33.982  1.00  0.00     0.010 A 
ATOM     85  C   UNL A   1      45.901  25.782  35.052  1.00  0.00     0.010 A 
ATOM     86  C   UNL A   1      48.457  26.768  34.455  1.00  0.00     0.020 A 
ATOM     87  C   UNL A   1      47.032  25.128  35.547  1.00  0.00     0.020 A 
ATOM     88  C   UNL A   1      48.303  25.607  35.219  1.00  0.00     0.054 A 
BRANCH  88  89
ATOM     89  S   UNL A   1      49.787  24.708  35.752  1.00  0.00     0.124 S 
ATOM     90  O   UNL A   1      50.466  25.700  36.579  1.00  0.00    -0.237 OA
ATOM     91  O   UNL A   1      49.229  23.565  36.470  1.00  0.00    -0.237 OA
ATOM     92  O   UNL A   1      50.456  24.379  34.495  1.00  0.00    -0.744 OA
ENDBRANCH  88  89
ENDBRANCH  62  83
ENDBRANCH  36  37
ENDBRANCH  29  31
ENDBRANCH  28  29
ENDBRANCH   1  28
TORSDOF 16
ENDMDL
MODEL 3
REMARK VINA RESULT:     -11.1      4.090      9.329
REMARK SMILES Cn1c(=O)c(=O)n(C)c2cc(S(=O)(=O)N3CCC[C@H]3C(=O)OCCOC(=O)c3ccc(-c4c5nc(c(-c6ccc(S(=O)(=O)[O-])cc6)c6ccc([nH]6)c(-c6ccc(S(=O)(=O)[O-])cc6)c6nc(c(-c7ccc(S(=O)(=O)[O-])cc7)c7ccc4[nH]7)C=C6)C=C5)cc3)ccc21
REMARK SMILES IDX 24 1 23 2 22 3 20 4 21 5 19 6 15 7 16 8 17 9 18 10 12 11
REMARK SMILES IDX 13 12 14 13 11 14 1 15 2 16 3 17 90 18 4 19 5 20 9 21 89 22
REMARK SMILES IDX 6 23 7 24 10 25 88 26 8 27 25 28 26 29 27 30 28 31 29 32
REMARK SMILES IDX 87 33 30 34 86 35 31 36 32 37 33 38 80 39 34 40 85 41 79 42
REMARK SMILES IDX 81 43 35 44 84 45 78 46 77 47 36 49 66 50 47 51 65 52 48 53
REMARK SMILES IDX 51 54 64 55 82 56 49 57 50 58 63 60 83 61 52 62 37 63 38 64
REMARK SMILES IDX 46 65 39 66 45 67 40 68 41 69 42 70 43 71 44 72 67 73 68 74
REMARK SMILES IDX 76 75 69 76 75 77 70 78 71 79 72 80 73 81 74 82 53 83 54 84
REMARK SMILES IDX 62 85 55 86 61 87 56 88 57 89 58 90 59 91 60 92
REMARK H PARENT 81 48 51 59
REMARK Flexibility Score: inf
ROOT
ATOM      1  C   UNL A   1      34.835  29.881  27.676  1.00  0.00     0.275 C 
ENDROOT
BRANCH   1   2
ATOM      2  C   UNL A   1      33.890  28.754  27.251  1.00  0.00     0.274 C 
BRANCH   2   3
ATOM      3  O   UNL A   1      33.681  28.719  25.824  1.00  0.00    -0.461 OA
BRANCH   3   4
ATOM      4  C   UNL A   1      32.370  28.750  25.437  1.00  0.00     0.324 C 
ATOM      5  O   UNL A   1      31.517  29.418  26.002  1.00  0.00    -0.250 OA
BRANCH   4   6
ATOM      6  C   UNL A   1      32.132  27.846  24.225  1.00  0.00     0.183 C 
ATOM      7  N   UNL A   1      31.146  26.744  24.402  1.00  0.00    -0.184 NA
ATOM      8  C   UNL A   1      29.894  27.072  23.713  1.00  0.00     0.103 C 
ATOM      9  C   UNL A   1      30.417  27.788  22.483  1.00  0.00     0.019 C 
ATOM     10  C   UNL A   1      31.546  28.647  23.042  1.00  0.00     0.034 C 
BRANCH   7  11
ATOM     11  S   UNL A   1      31.201  25.735  25.733  1.00  0.00     0.243 S 
ATOM     12  O   UNL A   1      30.094  24.810  25.659  1.00  0.00    -0.207 OA
ATOM     13  O   UNL A   1      31.497  26.543  26.896  1.00  0.00    -0.207 OA
BRANCH  11  14
ATOM     14  C   UNL A   1      32.689  24.779  25.494  1.00  0.00     0.084 A 
ATOM     15  C   UNL A   1      37.403  22.753  25.587  1.00  0.00     0.154 C 
ATOM     16  N   UNL A   1      36.065  22.233  25.350  1.00  0.00    -0.305 N 
ATOM     17  C   UNL A   1      35.956  20.876  25.053  1.00  0.00     0.316 A 
ATOM     18  C   UNL A   1      34.931  23.087  25.364  1.00  0.00     0.068 A 
ATOM     19  O   UNL A   1      36.922  20.119  24.990  1.00  0.00    -0.263 OA
ATOM     20  C   UNL A   1      34.555  20.303  24.805  1.00  0.00     0.316 A 
ATOM     21  C   UNL A   1      33.648  22.568  25.102  1.00  0.00     0.069 A 
ATOM     22  C   UNL A   1      35.065  24.455  25.659  1.00  0.00     0.030 A 
ATOM     23  O   UNL A   1      34.446  19.092  24.625  1.00  0.00    -0.263 OA
ATOM     24  N   UNL A   1      33.480  21.186  24.814  1.00  0.00    -0.305 N 
ATOM     25  C   UNL A   1      32.539  23.428  25.160  1.00  0.00     0.050 A 
ATOM     26  C   UNL A   1      33.953  25.289  25.750  1.00  0.00     0.024 A 
ATOM     27  C   UNL A   1      32.155  20.648  24.534  1.00  0.00     0.154 C 
ENDBRANCH  11  14
ENDBRANCH   7  11
ENDBRANCH   4   6
ENDBRANCH   3   4
ENDBRANCH   2   3
ENDBRANCH   1   2
BRANCH   1  28
ATOM     28  O   UNL A   1      36.217  29.506  27.520  1.00  0.00    -0.458 OA
BRANCH  28  29
ATOM     29  C   UNL A   1      36.915  29.329  28.666  1.00  0.00     0.338 C 
ATOM     30  O   UNL A   1      36.479  29.353  29.805  1.00  0.00    -0.246 OA
BRANCH  29  31
ATOM     31  C   UNL A   1      38.324  29.031  28.360  1.00  0.00     0.060 A 
ATOM     32  C   UNL A   1      38.859  29.325  27.110  1.00  0.00     0.016 A 
ATOM     33  C   UNL A   1      39.157  28.593  29.386  1.00  0.00     0.016 A 
ATOM     34  C   UNL A   1      40.235  29.155  26.895  1.00  0.00     0.010 A 
ATOM     35  C   UNL A   1      40.535  28.522  29.201  1.00  0.00     0.010 A 
ATOM     36  C   UNL A   1      41.094  28.777  27.946  1.00  0.00    -0.014 A 
BRANCH  36  37
ATOM     37  C   UNL A   1      42.566  28.650  27.751  1.00  0.00     0.031 A 
ATOM     38  C   UNL A   1      43.166  27.369  27.221  1.00  0.00     0.074 A 
ATOM     39  C   UNL A   1      43.379  29.670  28.095  1.00  0.00     0.049 A 
ATOM     40  N   UNL A   1      44.421  27.095  26.967  1.00  0.00    -0.248 NA
ATOM     41  C   UNL A   1      42.250  26.242  26.966  1.00  0.00     0.031 C 
ATOM     42  C   UNL A   1      42.942  30.932  28.695  1.00  0.00     0.029 A 
ATOM     43  N   UNL A   1      44.741  29.817  27.978  1.00  0.00    -0.354 N 
ATOM     44  C   UNL A   1      44.443  25.772  26.539  1.00  0.00     0.074 A 
ATOM     45  C   UNL A   1      43.091  25.276  26.627  1.00  0.00     0.031 C 
ATOM     46  C   UNL A   1      44.001  31.746  28.831  1.00  0.00     0.029 A 
ATOM     47  C   UNL A   1      45.200  31.055  28.364  1.00  0.00     0.049 A 
ATOM     48  H   UNL A   1      45.333  29.102  27.648  1.00  0.00     0.167 HD
ATOM     49  C   UNL A   1      45.487  25.045  26.075  1.00  0.00     0.031 A 
ATOM     50  C   UNL A   1      46.438  31.591  28.330  1.00  0.00     0.031 A 
ATOM     51  C   UNL A   1      46.827  25.550  25.948  1.00  0.00     0.049 A 
ATOM     52  C   UNL A   1      47.579  30.782  27.780  1.00  0.00     0.074 A 
ATOM     53  C   UNL A   1      47.934  24.912  25.419  1.00  0.00     0.029 A 
ATOM     54  N   UNL A   1      47.240  26.813  26.343  1.00  0.00    -0.354 N 
ATOM     55  N   UNL A   1      47.560  29.561  27.303  1.00  0.00    -0.248 NA
ATOM     56  C   UNL A   1      48.904  31.419  27.750  1.00  0.00     0.031 C 
ATOM     57  C   UNL A   1      49.028  25.770  25.536  1.00  0.00     0.029 A 
ATOM     58  C   UNL A   1      48.590  26.967  26.084  1.00  0.00     0.049 A 
ATOM     59  H   UNL A   1      46.659  27.498  26.746  1.00  0.00     0.167 HD
ATOM     60  C   UNL A   1      48.863  29.290  26.901  1.00  0.00     0.074 A 
ATOM     61  C   UNL A   1      49.644  30.477  27.178  1.00  0.00     0.031 C 
ATOM     62  C   UNL A   1      49.360  28.155  26.353  1.00  0.00     0.031 A 
BRANCH  49  63
ATOM     63  C   UNL A   1      45.224  23.633  25.615  1.00  0.00    -0.014 A 
ATOM     64  C   UNL A   1      45.273  22.569  26.534  1.00  0.00     0.010 A 
ATOM     65  C   UNL A   1      45.040  23.349  24.249  1.00  0.00     0.010 A 
ATOM     66  C   UNL A   1      45.165  21.246  26.094  1.00  0.00     0.020 A 
ATOM     67  C   UNL A   1      44.901  22.030  23.809  1.00  0.00     0.020 A 
ATOM     68  C   UNL A   1      44.987  20.985  24.733  1.00  0.00     0.054 A 
BRANCH  68  69
ATOM     69  S   UNL A   1      44.860  19.265  24.174  1.00  0.00     0.124 S 
ATOM     70  O   UNL A   1      44.048  18.658  25.224  1.00  0.00    -0.237 OA
ATOM     71  O   UNL A   1      44.214  19.395  22.871  1.00  0.00    -0.237 OA
ATOM     72  O   UNL A   1      46.252  18.819  24.124  1.00  0.00    -0.744 OA
ENDBRANCH  68  69
ENDBRANCH  49  63
BRANCH  50  73
ATOM     73  C   UNL A   1      46.626  33.002  28.767  1.00  0.00    -0.014 A 
ATOM     74  C   UNL A   1      46.511  34.061  27.849  1.00  0.00     0.010 A 
ATOM     75  C   UNL A   1      47.023  33.283  30.087  1.00  0.00     0.010 A 
ATOM     76  C   UNL A   1      46.841  35.366  28.225  1.00  0.00     0.020 A 
ATOM     77  C   UNL A   1      47.330  34.591  30.475  1.00  0.00     0.020 A 
ATOM     78  C   UNL A   1      47.266  35.620  29.532  1.00  0.00     0.054 A 
BRANCH  78  79
ATOM     79  S   UNL A   1      47.756  37.308  29.982  1.00  0.00     0.124 S 
ATOM     80  O   UNL A   1      49.210  37.242  29.850  1.00  0.00    -0.237 OA
ATOM     81  O   UNL A   1      47.070  38.119  28.980  1.00  0.00    -0.237 OA
ATOM     82  O   UNL A   1      47.258  37.456  31.347  1.00  0.00    -0.744 OA
ENDBRANCH  78  79
ENDBRANCH  50  73
BRANCH  62  83
ATOM     83  C   UNL A   1      50.822  28.102  26.001  1.00  0.00    -0.014 A 
ATOM     84  C   UNL A   1      51.231  28.405  24.688  1.00  0.00     0.010 A 
ATOM     85  C   UNL A   1      51.755  27.567  26.906  1.00  0.00     0.010 A 
ATOM     86  C   UNL A   1      52.533  28.123  24.270  1.00  0.00     0.020 A 
ATOM     87  C   UNL A   1      53.066  27.306  26.497  1.00  0.00     0.020 A 
ATOM     88  C   UNL A   1      53.436  27.555  25.173  1.00  0.00     0.054 A 
BRANCH  88  89
ATOM     89  S   UNL A   1      55.097  27.114  24.588  1.00  0.00     0.124 S 
ATOM     90  O   UNL A   1      55.631  26.362  25.719  1.00  0.00    -0.237 OA
ATOM     91  O   UNL A   1      54.817  26.331  23.387  1.00  0.00    -0.237 OA
ATOM     92  O   UNL A   1      55.728  28.409  24.345  1.00  0.00    -0.744 OA
ENDBRANCH  88  89
ENDBRANCH  62  83
ENDBRANCH  36  37
ENDBRANCH  29  31
ENDBRANCH  28  29
ENDBRANCH   1  28
TORSDOF 16
ENDMDL
