MODEL 1
REMARK VINA RESULT:      -9.5      0.000      0.000
REMARK SMILES O=C(Cc1ccc(=O)n(C(F)F)c1)OCCOC(=O)c1ccc(-c2c3nc(c(-c4ccc(S(=O)(=O)[O-])cc4)c4ccc([nH]4)c(-c4ccc(S(=O)(=O)[O-])cc4)c4nc(c(-c5ccc(S(=O)(=O)[O-])cc5)c5ccc2[nH]5)C=C4)C=C3)cc1
REMARK SMILES IDX 16 1 15 2 14 3 2 4 1 5 3 6 4 7 5 8 13 9 6 10 9 11 7 12 8 13
REMARK SMILES IDX 10 14 11 15 12 16 17 17 18 18 19 19 20 20 21 21 79 22 22 23
REMARK SMILES IDX 78 24 23 25 24 26 25 27 72 28 26 29 77 30 71 31 73 32 27 33
REMARK SMILES IDX 76 34 70 35 69 36 28 38 58 39 39 40 57 41 40 42 43 43 56 44
REMARK SMILES IDX 74 45 41 46 42 47 55 49 75 50 44 51 29 52 30 53 38 54 31 55
REMARK SMILES IDX 37 56 32 57 33 58 34 59 35 60 36 61 59 62 60 63 68 64 61 65
REMARK SMILES IDX 67 66 62 67 63 68 64 69 65 70 66 71 45 72 46 73 54 74 47 75
REMARK SMILES IDX 53 76 48 77 49 78 50 79 51 80 52 81
REMARK H PARENT 73 37 43 48
REMARK Flexibility Score: inf
ROOT
ATOM      1  C   UNL A   1      34.790  33.102  28.120  1.00  0.00     0.275 C 
ENDROOT
BRANCH   1   2
ATOM      2  C   UNL A   1      34.675  34.137  29.237  1.00  0.00     0.274 C 
BRANCH   2   3
ATOM      3  O   UNL A   1      33.953  33.615  30.375  1.00  0.00    -0.462 OA
BRANCH   3   4
ATOM      4  C   UNL A   1      34.488  33.262  31.568  1.00  0.00     0.310 C 
ATOM      5  O   UNL A   1      33.798  32.678  32.402  1.00  0.00    -0.252 OA
BRANCH   4   6
ATOM      6  C   UNL A   1      35.941  33.598  31.850  1.00  0.00     0.159 C 
BRANCH   6   7
ATOM      7  C   UNL A   1      36.527  33.070  33.132  1.00  0.00    -0.020 A 
ATOM      8  C   UNL A   1      36.407  33.926  34.298  1.00  0.00     0.011 A 
ATOM      9  C   UNL A   1      37.203  31.916  33.254  1.00  0.00     0.099 A 
ATOM     10  C   UNL A   1      37.012  33.615  35.452  1.00  0.00     0.072 A 
ATOM     11  N   UNL A   1      37.860  31.582  34.424  1.00  0.00    -0.258 N 
ATOM     12  C   UNL A   1      37.838  32.383  35.556  1.00  0.00     0.254 A 
ATOM     13  O   UNL A   1      38.445  32.157  36.596  1.00  0.00    -0.269 OA
BRANCH  11  14
ATOM     14  C   UNL A   1      38.697  30.414  34.477  1.00  0.00     0.451 C 
ATOM     15  F   UNL A   1      38.271  29.471  33.600  1.00  0.00    -0.185 F 
ATOM     16  F   UNL A   1      39.989  30.704  34.193  1.00  0.00    -0.185 F 
ENDBRANCH  11  14
ENDBRANCH   6   7
ENDBRANCH   4   6
ENDBRANCH   3   4
ENDBRANCH   2   3
ENDBRANCH   1   2
BRANCH   1  17
ATOM     17  O   UNL A   1      34.061  31.922  28.492  1.00  0.00    -0.458 OA
BRANCH  17  18
ATOM     18  C   UNL A   1      34.340  30.800  27.781  1.00  0.00     0.338 C 
ATOM     19  O   UNL A   1      33.695  30.352  26.854  1.00  0.00    -0.246 OA
BRANCH  18  20
ATOM     20  C   UNL A   1      35.702  30.341  28.152  1.00  0.00     0.060 A 
ATOM     21  C   UNL A   1      36.741  30.264  27.216  1.00  0.00     0.016 A 
ATOM     22  C   UNL A   1      35.902  29.889  29.463  1.00  0.00     0.016 A 
ATOM     23  C   UNL A   1      37.975  29.733  27.594  1.00  0.00     0.010 A 
ATOM     24  C   UNL A   1      37.137  29.358  29.838  1.00  0.00     0.010 A 
ATOM     25  C   UNL A   1      38.183  29.283  28.908  1.00  0.00    -0.014 A 
BRANCH  25  26
ATOM     26  C   UNL A   1      39.535  28.876  29.348  1.00  0.00     0.031 A 
ATOM     27  C   UNL A   1      40.399  29.768  30.186  1.00  0.00     0.074 A 
ATOM     28  C   UNL A   1      39.990  27.673  28.952  1.00  0.00     0.049 A 
ATOM     29  N   UNL A   1      41.579  29.523  30.689  1.00  0.00    -0.248 NA
ATOM     30  C   UNL A   1      39.873  31.103  30.502  1.00  0.00     0.031 C 
ATOM     31  C   UNL A   1      39.232  26.727  28.133  1.00  0.00     0.029 A 
ATOM     32  N   UNL A   1      41.185  27.043  29.182  1.00  0.00    -0.354 N 
ATOM     33  C   UNL A   1      41.936  30.663  31.398  1.00  0.00     0.074 A 
ATOM     34  C   UNL A   1      40.860  31.617  31.228  1.00  0.00     0.031 C 
ATOM     35  C   UNL A   1      39.975  25.629  27.940  1.00  0.00     0.029 A 
ATOM     36  C   UNL A   1      41.271  25.806  28.593  1.00  0.00     0.049 A 
ATOM     37  H   UNL A   1      41.911  27.439  29.716  1.00  0.00     0.167 HD
ATOM     38  C   UNL A   1      43.054  30.881  32.130  1.00  0.00     0.031 A 
ATOM     39  C   UNL A   1      42.276  24.909  28.573  1.00  0.00     0.031 A 
ATOM     40  C   UNL A   1      44.129  29.929  32.264  1.00  0.00     0.049 A 
ATOM     41  C   UNL A   1      43.537  25.200  29.330  1.00  0.00     0.074 A 
ATOM     42  C   UNL A   1      45.276  30.039  33.033  1.00  0.00     0.029 A 
ATOM     43  N   UNL A   1      44.210  28.713  31.602  1.00  0.00    -0.354 N 
ATOM     44  N   UNL A   1      43.824  26.247  30.066  1.00  0.00    -0.248 NA
ATOM     45  C   UNL A   1      44.605  24.194  29.267  1.00  0.00     0.031 C 
ATOM     46  C   UNL A   1      46.084  28.930  32.773  1.00  0.00     0.029 A 
ATOM     47  C   UNL A   1      45.409  28.087  31.903  1.00  0.00     0.049 A 
ATOM     48  H   UNL A   1      43.517  28.347  31.005  1.00  0.00     0.167 HD
ATOM     49  C   UNL A   1      45.100  26.022  30.566  1.00  0.00     0.074 A 
ATOM     50  C   UNL A   1      45.526  24.733  30.057  1.00  0.00     0.031 C 
ATOM     51  C   UNL A   1      45.843  26.814  31.378  1.00  0.00     0.031 A 
BRANCH  38  52
ATOM     52  C   UNL A   1      43.196  32.195  32.852  1.00  0.00    -0.014 A 
ATOM     53  C   UNL A   1      43.802  33.287  32.204  1.00  0.00     0.010 A 
ATOM     54  C   UNL A   1      42.850  32.314  34.210  1.00  0.00     0.010 A 
ATOM     55  C   UNL A   1      44.084  34.463  32.904  1.00  0.00     0.020 A 
ATOM     56  C   UNL A   1      43.108  33.498  34.908  1.00  0.00     0.020 A 
ATOM     57  C   UNL A   1      43.743  34.557  34.255  1.00  0.00     0.054 A 
BRANCH  57  58
ATOM     58  S   UNL A   1      44.134  36.085  35.153  1.00  0.00     0.124 S 
ATOM     59  O   UNL A   1      45.013  36.777  34.216  1.00  0.00    -0.237 OA
ATOM     60  O   UNL A   1      42.818  36.687  35.347  1.00  0.00    -0.237 OA
ATOM     61  O   UNL A   1      44.776  35.606  36.376  1.00  0.00    -0.744 OA
ENDBRANCH  57  58
ENDBRANCH  38  52
BRANCH  39  62
ATOM     62  C   UNL A   1      42.065  23.635  27.837  1.00  0.00    -0.014 A 
ATOM     63  C   UNL A   1      41.430  22.549  28.469  1.00  0.00     0.010 A 
ATOM     64  C   UNL A   1      42.646  23.451  26.571  1.00  0.00     0.010 A 
ATOM     65  C   UNL A   1      41.451  21.281  27.886  1.00  0.00     0.020 A 
ATOM     66  C   UNL A   1      42.645  22.188  25.972  1.00  0.00     0.020 A 
ATOM     67  C   UNL A   1      42.082  21.104  26.652  1.00  0.00     0.054 A 
BRANCH  67  68
ATOM     68  S   UNL A   1      42.204  19.428  25.969  1.00  0.00     0.124 S 
ATOM     69  O   UNL A   1      42.705  18.676  27.117  1.00  0.00    -0.237 OA
ATOM     70  O   UNL A   1      40.825  19.141  25.581  1.00  0.00    -0.237 OA
ATOM     71  O   UNL A   1      43.143  19.577  24.861  1.00  0.00    -0.744 OA
ENDBRANCH  67  68
ENDBRANCH  39  62
BRANCH  51  72
ATOM     72  C   UNL A   1      47.220  26.345  31.769  1.00  0.00    -0.014 A 
ATOM     73  C   UNL A   1      48.276  26.425  30.842  1.00  0.00     0.010 A 
ATOM     74  C   UNL A   1      47.432  25.684  32.993  1.00  0.00     0.010 A 
ATOM     75  C   UNL A   1      49.502  25.810  31.106  1.00  0.00     0.020 A 
ATOM     76  C   UNL A   1      48.666  25.090  33.273  1.00  0.00     0.020 A 
ATOM     77  C   UNL A   1      49.682  25.131  32.315  1.00  0.00     0.054 A 
BRANCH  77  78
ATOM     78  S   UNL A   1      51.258  24.281  32.613  1.00  0.00     0.124 S 
ATOM     79  O   UNL A   1      51.407  24.405  34.059  1.00  0.00    -0.237 OA
ATOM     80  O   UNL A   1      50.991  22.931  32.121  1.00  0.00    -0.237 OA
ATOM     81  O   UNL A   1      52.215  25.047  31.817  1.00  0.00    -0.744 OA
ENDBRANCH  77  78
ENDBRANCH  51  72
ENDBRANCH  25  26
ENDBRANCH  18  20
ENDBRANCH  17  18
ENDBRANCH   1  17
TORSDOF 16
ENDMDL
MODEL 2
REMARK VINA RESULT:      -9.4      3.423     11.428
REMARK SMILES O=C(Cc1ccc(=O)n(C(F)F)c1)OCCOC(=O)c1ccc(-c2c3nc(c(-c4ccc(S(=O)(=O)[O-])cc4)c4ccc([nH]4)c(-c4ccc(S(=O)(=O)[O-])cc4)c4nc(c(-c5ccc(S(=O)(=O)[O-])cc5)c5ccc2[nH]5)C=C4)C=C3)cc1
REMARK SMILES IDX 16 1 15 2 14 3 2 4 1 5 3 6 4 7 5 8 13 9 6 10 9 11 7 12 8 13
REMARK SMILES IDX 10 14 11 15 12 16 17 17 18 18 19 19 20 20 21 21 79 22 22 23
REMARK SMILES IDX 78 24 23 25 24 26 25 27 72 28 26 29 77 30 71 31 73 32 27 33
REMARK SMILES IDX 76 34 70 35 69 36 28 38 58 39 39 40 57 41 40 42 43 43 56 44
REMARK SMILES IDX 74 45 41 46 42 47 55 49 75 50 44 51 29 52 30 53 38 54 31 55
REMARK SMILES IDX 37 56 32 57 33 58 34 59 35 60 36 61 59 62 60 63 68 64 61 65
REMARK SMILES IDX 67 66 62 67 63 68 64 69 65 70 66 71 45 72 46 73 54 74 47 75
REMARK SMILES IDX 53 76 48 77 49 78 50 79 51 80 52 81
REMARK H PARENT 73 37 43 48
REMARK Flexibility Score: inf
ROOT
ATOM      1  C   UNL A   1      41.014  21.640  26.828  1.00  0.00     0.275 C 
ENDROOT
BRANCH   1   2
ATOM      2  C   UNL A   1      41.416  20.338  26.140  1.00  0.00     0.274 C 
BRANCH   2   3
ATOM      3  O   UNL A   1      42.801  20.008  26.388  1.00  0.00    -0.462 OA
BRANCH   3   4
ATOM      4  C   UNL A   1      43.692  19.556  25.473  1.00  0.00     0.310 C 
ATOM      5  O   UNL A   1      43.720  18.362  25.182  1.00  0.00    -0.252 OA
BRANCH   4   6
ATOM      6  C   UNL A   1      44.643  20.544  24.823  1.00  0.00     0.159 C 
BRANCH   6   7
ATOM      7  C   UNL A   1      44.561  21.974  25.285  1.00  0.00    -0.020 A 
ATOM      8  C   UNL A   1      43.717  22.859  24.502  1.00  0.00     0.011 A 
ATOM      9  C   UNL A   1      45.257  22.495  26.308  1.00  0.00     0.099 A 
ATOM     10  C   UNL A   1      43.683  24.176  24.743  1.00  0.00     0.072 A 
ATOM     11  N   UNL A   1      45.261  23.854  26.564  1.00  0.00    -0.258 N 
ATOM     12  C   UNL A   1      44.526  24.763  25.817  1.00  0.00     0.254 A 
ATOM     13  O   UNL A   1      44.538  25.979  25.971  1.00  0.00    -0.269 OA
BRANCH  11  14
ATOM     14  C   UNL A   1      46.131  24.400  27.571  1.00  0.00     0.451 C 
ATOM     15  F   UNL A   1      45.881  23.842  28.782  1.00  0.00    -0.185 F 
ATOM     16  F   UNL A   1      47.436  24.201  27.273  1.00  0.00    -0.185 F 
ENDBRANCH  11  14
ENDBRANCH   6   7
ENDBRANCH   4   6
ENDBRANCH   3   4
ENDBRANCH   2   3
ENDBRANCH   1   2
BRANCH   1  17
ATOM     17  O   UNL A   1      39.582  21.703  26.920  1.00  0.00    -0.458 OA
BRANCH  17  18
ATOM     18  C   UNL A   1      38.987  22.726  26.255  1.00  0.00     0.338 C 
ATOM     19  O   UNL A   1      38.105  22.632  25.425  1.00  0.00    -0.246 OA
BRANCH  18  20
ATOM     20  C   UNL A   1      39.408  24.000  26.889  1.00  0.00     0.060 A 
ATOM     21  C   UNL A   1      39.044  24.334  28.199  1.00  0.00     0.016 A 
ATOM     22  C   UNL A   1      40.111  24.919  26.098  1.00  0.00     0.016 A 
ATOM     23  C   UNL A   1      39.382  25.586  28.714  1.00  0.00     0.010 A 
ATOM     24  C   UNL A   1      40.447  26.171  26.616  1.00  0.00     0.010 A 
ATOM     25  C   UNL A   1      40.091  26.510  27.928  1.00  0.00    -0.014 A 
BRANCH  25  26
ATOM     26  C   UNL A   1      40.591  27.766  28.528  1.00  0.00     0.031 A 
ATOM     27  C   UNL A   1      42.015  27.925  28.966  1.00  0.00     0.074 A 
ATOM     28  C   UNL A   1      39.715  28.774  28.696  1.00  0.00     0.049 A 
ATOM     29  N   UNL A   1      42.604  28.983  29.457  1.00  0.00    -0.248 NA
ATOM     30  C   UNL A   1      42.889  26.752  28.836  1.00  0.00     0.031 C 
ATOM     31  C   UNL A   1      38.306  28.724  28.307  1.00  0.00     0.029 A 
ATOM     32  N   UNL A   1      39.877  30.026  29.231  1.00  0.00    -0.354 N 
ATOM     33  C   UNL A   1      43.925  28.615  29.680  1.00  0.00     0.074 A 
ATOM     34  C   UNL A   1      44.040  27.221  29.305  1.00  0.00     0.031 C 
ATOM     35  C   UNL A   1      37.733  29.899  28.602  1.00  0.00     0.029 A 
ATOM     36  C   UNL A   1      38.724  30.771  29.230  1.00  0.00     0.049 A 
ATOM     37  H   UNL A   1      40.735  30.358  29.582  1.00  0.00     0.167 HD
ATOM     38  C   UNL A   1      44.942  29.379  30.144  1.00  0.00     0.031 A 
ATOM     39  C   UNL A   1      38.481  32.017  29.683  1.00  0.00     0.031 A 
ATOM     40  C   UNL A   1      44.801  30.758  30.539  1.00  0.00     0.049 A 
ATOM     41  C   UNL A   1      39.606  32.822  30.261  1.00  0.00     0.074 A 
ATOM     42  C   UNL A   1      45.789  31.629  30.966  1.00  0.00     0.029 A 
ATOM     43  N   UNL A   1      43.605  31.460  30.584  1.00  0.00    -0.354 N 
ATOM     44  N   UNL A   1      40.868  32.488  30.386  1.00  0.00    -0.248 NA
ATOM     45  C   UNL A   1      39.285  34.169  30.749  1.00  0.00     0.031 C 
ATOM     46  C   UNL A   1      45.181  32.828  31.345  1.00  0.00     0.029 A 
ATOM     47  C   UNL A   1      43.823  32.735  31.081  1.00  0.00     0.049 A 
ATOM     48  H   UNL A   1      42.731  31.105  30.305  1.00  0.00     0.167 HD
ATOM     49  C   UNL A   1      41.498  33.587  30.955  1.00  0.00     0.074 A 
ATOM     50  C   UNL A   1      40.478  34.602  31.140  1.00  0.00     0.031 C 
ATOM     51  C   UNL A   1      42.803  33.737  31.286  1.00  0.00     0.031 A 
BRANCH  38  52
ATOM     52  C   UNL A   1      46.310  28.759  30.259  1.00  0.00    -0.014 A 
ATOM     53  C   UNL A   1      46.738  28.233  31.492  1.00  0.00     0.010 A 
ATOM     54  C   UNL A   1      47.221  28.815  29.188  1.00  0.00     0.010 A 
ATOM     55  C   UNL A   1      48.055  27.797  31.662  1.00  0.00     0.020 A 
ATOM     56  C   UNL A   1      48.532  28.357  29.346  1.00  0.00     0.020 A 
ATOM     57  C   UNL A   1      48.946  27.871  30.589  1.00  0.00     0.054 A 
BRANCH  57  58
ATOM     58  S   UNL A   1      50.658  27.318  30.834  1.00  0.00     0.124 S 
ATOM     59  O   UNL A   1      50.920  26.574  29.606  1.00  0.00    -0.237 OA
ATOM     60  O   UNL A   1      51.382  28.579  30.975  1.00  0.00    -0.237 OA
ATOM     61  O   UNL A   1      50.584  26.513  32.051  1.00  0.00    -0.744 OA
ENDBRANCH  57  58
ENDBRANCH  38  52
BRANCH  39  62
ATOM     62  C   UNL A   1      37.105  32.561  29.538  1.00  0.00    -0.014 A 
ATOM     63  C   UNL A   1      36.667  33.057  28.296  1.00  0.00     0.010 A 
ATOM     64  C   UNL A   1      36.297  32.737  30.673  1.00  0.00     0.010 A 
ATOM     65  C   UNL A   1      35.485  33.793  28.206  1.00  0.00     0.020 A 
ATOM     66  C   UNL A   1      35.098  33.450  30.581  1.00  0.00     0.020 A 
ATOM     67  C   UNL A   1      34.721  34.006  29.356  1.00  0.00     0.054 A 
BRANCH  67  68
ATOM     68  S   UNL A   1      33.252  35.066  29.241  1.00  0.00     0.124 S 
ATOM     69  O   UNL A   1      32.726  34.990  30.602  1.00  0.00    -0.237 OA
ATOM     70  O   UNL A   1      33.820  36.355  28.856  1.00  0.00    -0.237 OA
ATOM     71  O   UNL A   1      32.439  34.414  28.219  1.00  0.00    -0.744 OA
ENDBRANCH  67  68
ENDBRANCH  39  62
BRANCH  51  72
ATOM     72  C   UNL A   1      43.238  35.037  31.913  1.00  0.00    -0.014 A 
ATOM     73  C   UNL A   1      43.073  35.235  33.297  1.00  0.00     0.010 A 
ATOM     74  C   UNL A   1      43.660  36.113  31.112  1.00  0.00     0.010 A 
ATOM     75  C   UNL A   1      43.272  36.497  33.862  1.00  0.00     0.020 A 
ATOM     76  C   UNL A   1      43.886  37.372  31.678  1.00  0.00     0.020 A 
ATOM     77  C   UNL A   1      43.662  37.562  33.044  1.00  0.00     0.054 A 
BRANCH  77  78
ATOM     78  S   UNL A   1      43.850  39.209  33.784  1.00  0.00     0.124 S 
ATOM     79  O   UNL A   1      43.843  38.907  35.212  1.00  0.00    -0.237 OA
ATOM     80  O   UNL A   1      45.129  39.660  33.241  1.00  0.00    -0.237 OA
ATOM     81  O   UNL A   1      42.682  39.939  33.294  1.00  0.00    -0.744 OA
ENDBRANCH  77  78
ENDBRANCH  51  72
ENDBRANCH  25  26
ENDBRANCH  18  20
ENDBRANCH  17  18
ENDBRANCH   1  17
TORSDOF 16
ENDMDL
MODEL 3
REMARK VINA RESULT:      -9.3      4.429     11.656
REMARK SMILES O=C(Cc1ccc(=O)n(C(F)F)c1)OCCOC(=O)c1ccc(-c2c3nc(c(-c4ccc(S(=O)(=O)[O-])cc4)c4ccc([nH]4)c(-c4ccc(S(=O)(=O)[O-])cc4)c4nc(c(-c5ccc(S(=O)(=O)[O-])cc5)c5ccc2[nH]5)C=C4)C=C3)cc1
REMARK SMILES IDX 16 1 15 2 14 3 2 4 1 5 3 6 4 7 5 8 13 9 6 10 9 11 7 12 8 13
REMARK SMILES IDX 10 14 11 15 12 16 17 17 18 18 19 19 20 20 21 21 79 22 22 23
REMARK SMILES IDX 78 24 23 25 24 26 25 27 72 28 26 29 77 30 71 31 73 32 27 33
REMARK SMILES IDX 76 34 70 35 69 36 28 38 58 39 39 40 57 41 40 42 43 43 56 44
REMARK SMILES IDX 74 45 41 46 42 47 55 49 75 50 44 51 29 52 30 53 38 54 31 55
REMARK SMILES IDX 37 56 32 57 33 58 34 59 35 60 36 61 59 62 60 63 68 64 61 65
REMARK SMILES IDX 67 66 62 67 63 68 64 69 65 70 66 71 45 72 46 73 54 74 47 75
REMARK SMILES IDX 53 76 48 77 49 78 50 79 51 80 52 81
REMARK H PARENT 73 37 43 48
REMARK Flexibility Score: inf
ROOT
ATOM      1  C   UNL A   1      44.604  23.994  25.316  1.00  0.00     0.275 C 
ENDROOT
BRANCH   1   2
ATOM      2  C   UNL A   1      44.193  22.687  25.991  1.00  0.00     0.274 C 
BRANCH   2   3
ATOM      3  O   UNL A   1      42.932  22.197  25.483  1.00  0.00    -0.462 OA
BRANCH   3   4
ATOM      4  C   UNL A   1      42.227  21.148  25.971  1.00  0.00     0.310 C 
ATOM      5  O   UNL A   1      42.471  20.009  25.578  1.00  0.00    -0.252 OA
BRANCH   4   6
ATOM      6  C   UNL A   1      41.143  21.406  27.001  1.00  0.00     0.159 C 
BRANCH   6   7
ATOM      7  C   UNL A   1      39.885  22.074  26.514  1.00  0.00    -0.020 A 
ATOM      8  C   UNL A   1      39.762  23.495  26.784  1.00  0.00     0.011 A 
ATOM      9  C   UNL A   1      38.857  21.445  25.924  1.00  0.00     0.099 A 
ATOM     10  C   UNL A   1      38.627  24.155  26.518  1.00  0.00     0.072 A 
ATOM     11  N   UNL A   1      37.664  22.094  25.663  1.00  0.00    -0.258 N 
ATOM     12  C   UNL A   1      37.457  23.435  25.951  1.00  0.00     0.254 A 
ATOM     13  O   UNL A   1      36.404  24.041  25.786  1.00  0.00    -0.269 OA
BRANCH  11  14
ATOM     14  C   UNL A   1      36.531  21.358  25.167  1.00  0.00     0.451 C 
ATOM     15  F   UNL A   1      36.915  20.161  24.657  1.00  0.00    -0.185 F 
ATOM     16  F   UNL A   1      35.613  21.132  26.136  1.00  0.00    -0.185 F 
ENDBRANCH  11  14
ENDBRANCH   6   7
ENDBRANCH   4   6
ENDBRANCH   3   4
ENDBRANCH   2   3
ENDBRANCH   1   2
BRANCH   1  17
ATOM     17  O   UNL A   1      44.234  25.097  26.159  1.00  0.00    -0.458 OA
BRANCH  17  18
ATOM     18  C   UNL A   1      43.031  25.670  25.897  1.00  0.00     0.338 C 
ATOM     19  O   UNL A   1      42.314  25.439  24.944  1.00  0.00    -0.246 OA
BRANCH  18  20
ATOM     20  C   UNL A   1      42.613  26.441  27.094  1.00  0.00     0.060 A 
ATOM     21  C   UNL A   1      41.737  25.911  28.049  1.00  0.00     0.016 A 
ATOM     22  C   UNL A   1      43.047  27.769  27.197  1.00  0.00     0.016 A 
ATOM     23  C   UNL A   1      41.297  26.712  29.105  1.00  0.00     0.010 A 
ATOM     24  C   UNL A   1      42.605  28.567  28.253  1.00  0.00     0.010 A 
ATOM     25  C   UNL A   1      41.733  28.042  29.217  1.00  0.00    -0.014 A 
BRANCH  25  26
ATOM     26  C   UNL A   1      41.399  28.834  30.421  1.00  0.00     0.031 A 
ATOM     27  C   UNL A   1      42.182  28.715  31.692  1.00  0.00     0.074 A 
ATOM     28  C   UNL A   1      40.341  29.663  30.353  1.00  0.00     0.049 A 
ATOM     29  N   UNL A   1      42.037  29.383  32.805  1.00  0.00    -0.248 NA
ATOM     30  C   UNL A   1      43.265  27.723  31.719  1.00  0.00     0.031 C 
ATOM     31  C   UNL A   1      39.509  29.854  29.165  1.00  0.00     0.029 A 
ATOM     32  N   UNL A   1      39.788  30.494  31.293  1.00  0.00    -0.354 N 
ATOM     33  C   UNL A   1      43.020  28.910  33.665  1.00  0.00     0.074 A 
ATOM     34  C   UNL A   1      43.732  27.868  32.954  1.00  0.00     0.031 C 
ATOM     35  C   UNL A   1      38.558  30.757  29.442  1.00  0.00     0.029 A 
ATOM     36  C   UNL A   1      38.694  31.184  30.833  1.00  0.00     0.049 A 
ATOM     37  H   UNL A   1      40.141  30.586  32.207  1.00  0.00     0.167 HD
ATOM     38  C   UNL A   1      43.303  29.321  34.924  1.00  0.00     0.031 A 
ATOM     39  C   UNL A   1      37.883  32.062  31.455  1.00  0.00     0.031 A 
ATOM     40  C   UNL A   1      42.563  30.340  35.625  1.00  0.00     0.049 A 
ATOM     41  C   UNL A   1      38.169  32.450  32.875  1.00  0.00     0.074 A 
ATOM     42  C   UNL A   1      42.814  30.864  36.883  1.00  0.00     0.029 A 
ATOM     43  N   UNL A   1      41.422  30.972  35.152  1.00  0.00    -0.354 N 
ATOM     44  N   UNL A   1      39.154  32.056  33.646  1.00  0.00    -0.248 NA
ATOM     45  C   UNL A   1      37.248  33.403  33.509  1.00  0.00     0.031 C 
ATOM     46  C   UNL A   1      41.781  31.749  37.201  1.00  0.00     0.029 A 
ATOM     47  C   UNL A   1      40.928  31.840  36.112  1.00  0.00     0.049 A 
ATOM     48  H   UNL A   1      41.022  30.825  34.264  1.00  0.00     0.167 HD
ATOM     49  C   UNL A   1      38.983  32.722  34.853  1.00  0.00     0.074 A 
ATOM     50  C   UNL A   1      37.803  33.553  34.706  1.00  0.00     0.031 C 
ATOM     51  C   UNL A   1      39.740  32.650  35.974  1.00  0.00     0.031 A 
BRANCH  38  52
ATOM     52  C   UNL A   1      44.458  28.678  35.646  1.00  0.00    -0.014 A 
ATOM     53  C   UNL A   1      44.231  27.569  36.481  1.00  0.00     0.010 A 
ATOM     54  C   UNL A   1      45.743  29.249  35.604  1.00  0.00     0.010 A 
ATOM     55  C   UNL A   1      45.257  27.056  37.280  1.00  0.00     0.020 A 
ATOM     56  C   UNL A   1      46.779  28.724  36.383  1.00  0.00     0.020 A 
ATOM     57  C   UNL A   1      46.523  27.644  37.232  1.00  0.00     0.054 A 
BRANCH  57  58
ATOM     58  S   UNL A   1      47.838  26.978  38.291  1.00  0.00     0.124 S 
ATOM     59  O   UNL A   1      48.584  28.180  38.649  1.00  0.00    -0.237 OA
ATOM     60  O   UNL A   1      47.086  26.353  39.376  1.00  0.00    -0.237 OA
ATOM     61  O   UNL A   1      48.540  26.043  37.413  1.00  0.00    -0.744 OA
ENDBRANCH  57  58
ENDBRANCH  38  52
BRANCH  39  62
ATOM     62  C   UNL A   1      36.761  32.653  30.679  1.00  0.00    -0.014 A 
ATOM     63  C   UNL A   1      37.000  33.713  29.785  1.00  0.00     0.010 A 
ATOM     64  C   UNL A   1      35.438  32.272  30.957  1.00  0.00     0.010 A 
ATOM     65  C   UNL A   1      35.936  34.437  29.246  1.00  0.00     0.020 A 
ATOM     66  C   UNL A   1      34.369  32.978  30.397  1.00  0.00     0.020 A 
ATOM     67  C   UNL A   1      34.626  34.079  29.577  1.00  0.00     0.054 A 
BRANCH  67  68
ATOM     68  S   UNL A   1      33.262  35.106  28.964  1.00  0.00     0.124 S 
ATOM     69  O   UNL A   1      33.982  36.228  28.365  1.00  0.00    -0.237 OA
ATOM     70  O   UNL A   1      32.590  34.214  28.022  1.00  0.00    -0.237 OA
ATOM     71  O   UNL A   1      32.502  35.422  30.170  1.00  0.00    -0.744 OA
ENDBRANCH  67  68
ENDBRANCH  39  62
BRANCH  51  72
ATOM     72  C   UNL A   1      39.328  33.469  37.170  1.00  0.00    -0.014 A 
ATOM     73  C   UNL A   1      39.862  34.759  37.350  1.00  0.00     0.010 A 
ATOM     74  C   UNL A   1      38.540  32.906  38.189  1.00  0.00     0.010 A 
ATOM     75  C   UNL A   1      39.660  35.450  38.548  1.00  0.00     0.020 A 
ATOM     76  C   UNL A   1      38.313  33.605  39.378  1.00  0.00     0.020 A 
ATOM     77  C   UNL A   1      38.899  34.860  39.561  1.00  0.00     0.054 A 
BRANCH  77  78
ATOM     78  S   UNL A   1      38.703  35.743  41.134  1.00  0.00     0.124 S 
ATOM     79  O   UNL A   1      37.522  35.102  41.703  1.00  0.00    -0.237 OA
ATOM     80  O   UNL A   1      39.963  35.462  41.818  1.00  0.00    -0.237 OA
ATOM     81  O   UNL A   1      38.523  37.135  40.725  1.00  0.00    -0.744 OA
ENDBRANCH  77  78
ENDBRANCH  51  72
ENDBRANCH  25  26
ENDBRANCH  18  20
ENDBRANCH  17  18
ENDBRANCH   1  17
TORSDOF 16
ENDMDL
