MODEL 1
REMARK VINA RESULT:      -9.5      0.000      0.000
REMARK SMILES COc1ccc([C@H]2CC(c3ccc(S(C)(=O)=O)cc3)=NN2c2ccc(C(=O)OCCOC(=O)c3ccc(-c4c5nc(c(-c6ccc(S(=O)(=O)[O-])cc6)c6ccc([nH]6)c(-c6ccc(S(=O)(=O)[O-])cc6)c6nc(c(-c7ccc(S(=O)(=O)[O-])cc7)c7ccc4[nH]7)C=C6)C=C5)cc3)cc2)cc1
REMARK SMILES IDX 29 1 28 2 26 3 27 4 25 5 22 6 23 7 95 8 24 9 94 10 21 11
REMARK SMILES IDX 7 12 8 13 9 14 20 15 6 16 3 17 4 18 97 19 5 20 96 21 2 22
REMARK SMILES IDX 1 23 10 24 11 25 19 26 12 27 18 28 13 29 14 30 15 31 16 32
REMARK SMILES IDX 17 33 30 34 31 35 32 36 33 37 34 38 35 39 93 40 36 41 92 42
REMARK SMILES IDX 37 43 38 44 39 45 86 46 40 47 91 48 85 49 87 50 41 51 90 52
REMARK SMILES IDX 84 53 83 54 42 56 72 57 53 58 71 59 54 60 57 61 70 62 88 63
REMARK SMILES IDX 55 64 56 65 69 67 89 68 58 69 43 70 44 71 52 72 45 73 51 74
REMARK SMILES IDX 46 75 47 76 48 77 49 78 50 79 73 80 74 81 82 82 75 83 81 84
REMARK SMILES IDX 76 85 77 86 78 87 79 88 80 89 59 90 60 91 68 92 61 93 67 94
REMARK SMILES IDX 62 95 63 96 64 97 65 98 66 99
REMARK H PARENT 87 55 57 66
REMARK Flexibility Score: inf
ROOT
ATOM      1  C   UNL A   1      34.659  33.525  27.864  1.00  0.00     0.275 C 
ENDROOT
BRANCH   1   2
ATOM      2  O   UNL A   1      35.373  34.192  28.926  1.00  0.00    -0.458 OA
BRANCH   2   3
ATOM      3  C   UNL A   1      36.548  33.614  29.277  1.00  0.00     0.338 C 
ATOM      4  O   UNL A   1      37.404  33.193  28.515  1.00  0.00    -0.246 OA
BRANCH   3   5
ATOM      5  C   UNL A   1      36.723  33.595  30.744  1.00  0.00     0.060 A 
ATOM      6  C   UNL A   1      37.304  33.359  33.492  1.00  0.00     0.060 A 
ATOM      7  C   UNL A   1      38.136  34.093  32.645  1.00  0.00     0.029 A 
ATOM      8  C   UNL A   1      36.147  32.781  32.946  1.00  0.00     0.029 A 
ATOM      9  C   UNL A   1      37.872  34.173  31.284  1.00  0.00     0.018 A 
ATOM     10  C   UNL A   1      35.839  32.915  31.582  1.00  0.00     0.018 A 
BRANCH   6  11
ATOM     11  N   UNL A   1      37.663  33.198  34.821  1.00  0.00    -0.257 N 
ATOM     12  C   UNL A   1      37.895  31.907  35.465  1.00  0.00     0.144 C 
ATOM     13  C   UNL A   1      38.493  32.309  36.823  1.00  0.00     0.091 C 
ATOM     14  C   UNL A   1      38.550  33.801  36.660  1.00  0.00     0.071 C 
ATOM     15  N   UNL A   1      38.097  34.268  35.542  1.00  0.00    -0.176 NA
BRANCH  12  16
ATOM     16  C   UNL A   1      38.807  30.980  34.672  1.00  0.00    -0.023 A 
ATOM     17  C   UNL A   1      40.441  29.149  33.266  1.00  0.00     0.118 A 
ATOM     18  C   UNL A   1      39.052  29.097  33.148  1.00  0.00     0.047 A 
ATOM     19  C   UNL A   1      41.019  30.152  34.040  1.00  0.00     0.047 A 
ATOM     20  C   UNL A   1      38.242  29.996  33.846  1.00  0.00     0.010 A 
ATOM     21  C   UNL A   1      40.209  31.066  34.728  1.00  0.00     0.010 A 
BRANCH  17  22
ATOM     22  O   UNL A   1      41.117  28.197  32.553  1.00  0.00    -0.497 OA
ATOM     23  C   UNL A   1      42.463  27.955  32.952  1.00  0.00     0.278 C 
ENDBRANCH  17  22
ENDBRANCH  12  16
BRANCH  14  24
ATOM     24  C   UNL A   1      39.014  34.667  37.752  1.00  0.00    -0.002 A 
ATOM     25  C   UNL A   1      39.653  35.866  37.415  1.00  0.00     0.011 A 
ATOM     26  C   UNL A   1      38.792  34.325  39.088  1.00  0.00     0.011 A 
ATOM     27  C   UNL A   1      40.038  36.753  38.419  1.00  0.00     0.021 A 
ATOM     28  C   UNL A   1      39.201  35.200  40.097  1.00  0.00     0.021 A 
ATOM     29  C   UNL A   1      39.812  36.413  39.757  1.00  0.00     0.067 A 
BRANCH  29  30
ATOM     30  S   UNL A   1      40.247  37.582  41.026  1.00  0.00     0.175 S 
ATOM     31  C   UNL A   1      40.301  36.621  42.515  1.00  0.00     0.163 C 
ATOM     32  O   UNL A   1      41.590  38.039  40.721  1.00  0.00    -0.224 OA
ATOM     33  O   UNL A   1      39.153  38.528  41.143  1.00  0.00    -0.224 OA
ENDBRANCH  29  30
ENDBRANCH  14  24
ENDBRANCH   6  11
ENDBRANCH   3   5
ENDBRANCH   2   3
ENDBRANCH   1   2
BRANCH   1  34
ATOM     34  C   UNL A   1      33.943  32.267  28.356  1.00  0.00     0.275 C 
BRANCH  34  35
ATOM     35  O   UNL A   1      33.884  31.273  27.317  1.00  0.00    -0.458 OA
BRANCH  35  36
ATOM     36  C   UNL A   1      34.266  30.030  27.689  1.00  0.00     0.338 C 
ATOM     37  O   UNL A   1      33.605  29.007  27.635  1.00  0.00    -0.246 OA
BRANCH  36  38
ATOM     38  C   UNL A   1      35.662  30.036  28.152  1.00  0.00     0.060 A 
ATOM     39  C   UNL A   1      36.673  30.190  27.213  1.00  0.00     0.016 A 
ATOM     40  C   UNL A   1      35.980  29.682  29.460  1.00  0.00     0.016 A 
ATOM     41  C   UNL A   1      37.976  29.812  27.521  1.00  0.00     0.010 A 
ATOM     42  C   UNL A   1      37.319  29.465  29.809  1.00  0.00     0.010 A 
ATOM     43  C   UNL A   1      38.332  29.467  28.832  1.00  0.00    -0.014 A 
BRANCH  43  44
ATOM     44  C   UNL A   1      39.743  29.102  29.169  1.00  0.00     0.031 A 
ATOM     45  C   UNL A   1      40.658  30.099  29.841  1.00  0.00     0.074 A 
ATOM     46  C   UNL A   1      40.221  27.876  28.867  1.00  0.00     0.049 A 
ATOM     47  N   UNL A   1      41.951  30.033  30.040  1.00  0.00    -0.248 NA
ATOM     48  C   UNL A   1      40.045  31.343  30.335  1.00  0.00     0.031 C 
ATOM     49  C   UNL A   1      39.454  26.793  28.245  1.00  0.00     0.029 A 
ATOM     50  N   UNL A   1      41.470  27.330  29.043  1.00  0.00    -0.354 N 
ATOM     51  C   UNL A   1      42.316  31.252  30.605  1.00  0.00     0.074 A 
ATOM     52  C   UNL A   1      41.107  32.039  30.718  1.00  0.00     0.031 C 
ATOM     53  C   UNL A   1      40.229  25.707  28.135  1.00  0.00     0.029 A 
ATOM     54  C   UNL A   1      41.578  26.043  28.569  1.00  0.00     0.049 A 
ATOM     55  H   UNL A   1      42.215  27.812  29.469  1.00  0.00     0.167 HD
ATOM     56  C   UNL A   1      43.545  31.681  30.987  1.00  0.00     0.031 A 
ATOM     57  C   UNL A   1      42.644  25.231  28.434  1.00  0.00     0.031 A 
ATOM     58  C   UNL A   1      44.738  30.875  30.917  1.00  0.00     0.049 A 
ATOM     59  C   UNL A   1      43.997  25.724  28.851  1.00  0.00     0.074 A 
ATOM     60  C   UNL A   1      46.022  31.201  31.323  1.00  0.00     0.029 A 
ATOM     61  N   UNL A   1      44.796  29.582  30.417  1.00  0.00    -0.354 N 
ATOM     62  N   UNL A   1      44.324  26.888  29.358  1.00  0.00    -0.248 NA
ATOM     63  C   UNL A   1      45.124  24.802  28.666  1.00  0.00     0.031 C 
ATOM     64  C   UNL A   1      46.865  30.127  31.015  1.00  0.00     0.029 A 
ATOM     65  C   UNL A   1      46.096  29.107  30.478  1.00  0.00     0.049 A 
ATOM     66  H   UNL A   1      44.026  29.076  30.069  1.00  0.00     0.167 HD
ATOM     67  C   UNL A   1      45.698  26.837  29.561  1.00  0.00     0.074 A 
ATOM     68  C   UNL A   1      46.133  25.518  29.143  1.00  0.00     0.031 C 
ATOM     69  C   UNL A   1      46.522  27.797  30.048  1.00  0.00     0.031 A 
BRANCH  56  70
ATOM     70  C   UNL A   1      43.675  33.110  31.454  1.00  0.00    -0.014 A 
ATOM     71  C   UNL A   1      43.653  33.455  32.818  1.00  0.00     0.010 A 
ATOM     72  C   UNL A   1      43.836  34.132  30.498  1.00  0.00     0.010 A 
ATOM     73  C   UNL A   1      43.727  34.796  33.211  1.00  0.00     0.020 A 
ATOM     74  C   UNL A   1      43.942  35.470  30.888  1.00  0.00     0.020 A 
ATOM     75  C   UNL A   1      43.859  35.796  32.242  1.00  0.00     0.054 A 
BRANCH  75  76
ATOM     76  S   UNL A   1      43.938  37.528  32.777  1.00  0.00     0.124 S 
ATOM     77  O   UNL A   1      43.788  38.241  31.511  1.00  0.00    -0.237 OA
ATOM     78  O   UNL A   1      42.807  37.633  33.694  1.00  0.00    -0.237 OA
ATOM     79  O   UNL A   1      45.255  37.640  33.401  1.00  0.00    -0.744 OA
ENDBRANCH  75  76
ENDBRANCH  56  70
BRANCH  57  80
ATOM     80  C   UNL A   1      42.458  23.887  27.818  1.00  0.00    -0.014 A 
ATOM     81  C   UNL A   1      42.514  23.719  26.426  1.00  0.00     0.010 A 
ATOM     82  C   UNL A   1      42.305  22.752  28.639  1.00  0.00     0.010 A 
ATOM     83  C   UNL A   1      42.437  22.440  25.865  1.00  0.00     0.020 A 
ATOM     84  C   UNL A   1      42.262  21.472  28.085  1.00  0.00     0.020 A 
ATOM     85  C   UNL A   1      42.324  21.324  26.699  1.00  0.00     0.054 A 
BRANCH  85  86
ATOM     86  S   UNL A   1      42.337  19.668  25.956  1.00  0.00     0.124 S 
ATOM     87  O   UNL A   1      43.433  19.773  24.999  1.00  0.00    -0.237 OA
ATOM     88  O   UNL A   1      42.584  18.807  27.109  1.00  0.00    -0.237 OA
ATOM     89  O   UNL A   1      41.003  19.545  25.372  1.00  0.00    -0.744 OA
ENDBRANCH  85  86
ENDBRANCH  57  80
BRANCH  69  90
ATOM     90  C   UNL A   1      47.980  27.450  30.180  1.00  0.00    -0.014 A 
ATOM     91  C   UNL A   1      48.895  27.736  29.151  1.00  0.00     0.010 A 
ATOM     92  C   UNL A   1      48.447  26.867  31.372  1.00  0.00     0.010 A 
ATOM     93  C   UNL A   1      50.246  27.416  29.300  1.00  0.00     0.020 A 
ATOM     94  C   UNL A   1      49.803  26.572  31.536  1.00  0.00     0.020 A 
ATOM     95  C   UNL A   1      50.691  26.836  30.492  1.00  0.00     0.054 A 
BRANCH  95  96
ATOM     96  S   UNL A   1      52.458  26.467  30.679  1.00  0.00     0.124 S 
ATOM     97  O   UNL A   1      52.887  26.327  29.290  1.00  0.00    -0.237 OA
ATOM     98  O   UNL A   1      52.960  27.648  31.376  1.00  0.00    -0.237 OA
ATOM     99  O   UNL A   1      52.473  25.234  31.462  1.00  0.00    -0.744 OA
ENDBRANCH  95  96
ENDBRANCH  69  90
ENDBRANCH  43  44
ENDBRANCH  36  38
ENDBRANCH  35  36
ENDBRANCH  34  35
ENDBRANCH   1  34
TORSDOF 19
ENDMDL
MODEL 2
REMARK VINA RESULT:      -9.1      0.838      7.766
REMARK SMILES COc1ccc([C@H]2CC(c3ccc(S(C)(=O)=O)cc3)=NN2c2ccc(C(=O)OCCOC(=O)c3ccc(-c4c5nc(c(-c6ccc(S(=O)(=O)[O-])cc6)c6ccc([nH]6)c(-c6ccc(S(=O)(=O)[O-])cc6)c6nc(c(-c7ccc(S(=O)(=O)[O-])cc7)c7ccc4[nH]7)C=C6)C=C5)cc3)cc2)cc1
REMARK SMILES IDX 29 1 28 2 26 3 27 4 25 5 22 6 23 7 95 8 24 9 94 10 21 11
REMARK SMILES IDX 7 12 8 13 9 14 20 15 6 16 3 17 4 18 97 19 5 20 96 21 2 22
REMARK SMILES IDX 1 23 10 24 11 25 19 26 12 27 18 28 13 29 14 30 15 31 16 32
REMARK SMILES IDX 17 33 30 34 31 35 32 36 33 37 34 38 35 39 93 40 36 41 92 42
REMARK SMILES IDX 37 43 38 44 39 45 86 46 40 47 91 48 85 49 87 50 41 51 90 52
REMARK SMILES IDX 84 53 83 54 42 56 72 57 53 58 71 59 54 60 57 61 70 62 88 63
REMARK SMILES IDX 55 64 56 65 69 67 89 68 58 69 43 70 44 71 52 72 45 73 51 74
REMARK SMILES IDX 46 75 47 76 48 77 49 78 50 79 73 80 74 81 82 82 75 83 81 84
REMARK SMILES IDX 76 85 77 86 78 87 79 88 80 89 59 90 60 91 68 92 61 93 67 94
REMARK SMILES IDX 62 95 63 96 64 97 65 98 66 99
REMARK H PARENT 87 55 57 66
REMARK Flexibility Score: inf
ROOT
ATOM      1  C   UNL A   1      34.722  33.067  27.808  1.00  0.00     0.275 C 
ENDROOT
BRANCH   1   2
ATOM      2  O   UNL A   1      35.214  33.675  29.021  1.00  0.00    -0.458 OA
BRANCH   2   3
ATOM      3  C   UNL A   1      36.481  33.332  29.361  1.00  0.00     0.338 C 
ATOM      4  O   UNL A   1      37.399  33.096  28.591  1.00  0.00    -0.246 OA
BRANCH   3   5
ATOM      5  C   UNL A   1      36.664  33.326  30.828  1.00  0.00     0.060 A 
ATOM      6  C   UNL A   1      37.252  33.103  33.575  1.00  0.00     0.060 A 
ATOM      7  C   UNL A   1      38.107  33.791  32.714  1.00  0.00     0.029 A 
ATOM      8  C   UNL A   1      36.068  32.565  33.043  1.00  0.00     0.029 A 
ATOM      9  C   UNL A   1      37.839  33.863  31.353  1.00  0.00     0.018 A 
ATOM     10  C   UNL A   1      35.758  32.694  31.679  1.00  0.00     0.018 A 
BRANCH   6  11
ATOM     11  N   UNL A   1      37.611  32.946  34.904  1.00  0.00    -0.257 N 
ATOM     12  C   UNL A   1      37.934  31.664  35.528  1.00  0.00     0.144 C 
ATOM     13  C   UNL A   1      38.491  32.085  36.897  1.00  0.00     0.091 C 
ATOM     14  C   UNL A   1      38.438  33.580  36.761  1.00  0.00     0.071 C 
ATOM     15  N   UNL A   1      37.959  34.032  35.647  1.00  0.00    -0.176 NA
BRANCH  12  16
ATOM     16  C   UNL A   1      38.918  30.822  34.727  1.00  0.00    -0.023 A 
ATOM     17  C   UNL A   1      40.677  29.141  33.284  1.00  0.00     0.118 A 
ATOM     18  C   UNL A   1      39.311  29.145  33.005  1.00  0.00     0.047 A 
ATOM     19  C   UNL A   1      41.177  30.018  34.244  1.00  0.00     0.047 A 
ATOM     20  C   UNL A   1      38.438  29.969  33.720  1.00  0.00     0.010 A 
ATOM     21  C   UNL A   1      40.305  30.859  34.951  1.00  0.00     0.010 A 
BRANCH  17  22
ATOM     22  O   UNL A   1      41.417  28.270  32.532  1.00  0.00    -0.497 OA
ATOM     23  C   UNL A   1      42.589  27.749  33.152  1.00  0.00     0.278 C 
ENDBRANCH  17  22
ENDBRANCH  12  16
BRANCH  14  24
ATOM     24  C   UNL A   1      38.828  34.458  37.872  1.00  0.00    -0.002 A 
ATOM     25  C   UNL A   1      38.527  34.043  39.175  1.00  0.00     0.011 A 
ATOM     26  C   UNL A   1      39.512  35.653  37.641  1.00  0.00     0.011 A 
ATOM     27  C   UNL A   1      38.949  34.809  40.261  1.00  0.00     0.021 A 
ATOM     28  C   UNL A   1      39.912  36.436  38.727  1.00  0.00     0.021 A 
ATOM     29  C   UNL A   1      39.638  36.004  40.030  1.00  0.00     0.067 A 
BRANCH  29  30
ATOM     30  S   UNL A   1      40.230  36.938  41.424  1.00  0.00     0.175 S 
ATOM     31  C   UNL A   1      40.091  35.824  42.797  1.00  0.00     0.163 C 
ATOM     32  O   UNL A   1      41.637  37.196  41.179  1.00  0.00    -0.224 OA
ATOM     33  O   UNL A   1      39.305  38.034  41.641  1.00  0.00    -0.224 OA
ENDBRANCH  29  30
ENDBRANCH  14  24
ENDBRANCH   6  11
ENDBRANCH   3   5
ENDBRANCH   2   3
ENDBRANCH   1   2
BRANCH   1  34
ATOM     34  C   UNL A   1      33.810  31.874  28.094  1.00  0.00     0.275 C 
BRANCH  34  35
ATOM     35  O   UNL A   1      34.010  30.834  27.120  1.00  0.00    -0.458 OA
BRANCH  35  36
ATOM     36  C   UNL A   1      34.440  29.654  27.621  1.00  0.00     0.338 C 
ATOM     37  O   UNL A   1      33.820  28.605  27.675  1.00  0.00    -0.246 OA
BRANCH  36  38
ATOM     38  C   UNL A   1      35.833  29.765  28.080  1.00  0.00     0.060 A 
ATOM     39  C   UNL A   1      36.820  30.047  27.146  1.00  0.00     0.016 A 
ATOM     40  C   UNL A   1      36.188  29.387  29.371  1.00  0.00     0.016 A 
ATOM     41  C   UNL A   1      38.153  29.774  27.435  1.00  0.00     0.010 A 
ATOM     42  C   UNL A   1      37.544  29.276  29.708  1.00  0.00     0.010 A 
ATOM     43  C   UNL A   1      38.546  29.408  28.730  1.00  0.00    -0.014 A 
BRANCH  43  44
ATOM     44  C   UNL A   1      39.986  29.158  29.048  1.00  0.00     0.031 A 
ATOM     45  C   UNL A   1      40.648  27.857  28.654  1.00  0.00     0.074 A 
ATOM     46  C   UNL A   1      40.712  30.089  29.701  1.00  0.00     0.049 A 
ATOM     47  N   UNL A   1      41.820  27.386  29.004  1.00  0.00    -0.248 NA
ATOM     48  C   UNL A   1      39.887  26.959  27.771  1.00  0.00     0.031 C 
ATOM     49  C   UNL A   1      40.227  31.406  30.122  1.00  0.00     0.029 A 
ATOM     50  N   UNL A   1      42.020  30.075  30.127  1.00  0.00    -0.354 N 
ATOM     51  C   UNL A   1      41.900  26.110  28.452  1.00  0.00     0.074 A 
ATOM     52  C   UNL A   1      40.658  25.881  27.745  1.00  0.00     0.031 C 
ATOM     53  C   UNL A   1      41.226  32.086  30.698  1.00  0.00     0.029 A 
ATOM     54  C   UNL A   1      42.392  31.217  30.795  1.00  0.00     0.049 A 
ATOM     55  H   UNL A   1      42.631  29.320  29.967  1.00  0.00     0.167 HD
ATOM     56  C   UNL A   1      42.910  25.208  28.535  1.00  0.00     0.031 A 
ATOM     57  C   UNL A   1      43.516  31.528  31.470  1.00  0.00     0.031 A 
ATOM     58  C   UNL A   1      44.164  25.459  29.199  1.00  0.00     0.049 A 
ATOM     59  C   UNL A   1      44.618  30.516  31.560  1.00  0.00     0.074 A 
ATOM     60  C   UNL A   1      45.268  24.628  29.298  1.00  0.00     0.029 A 
ATOM     61  N   UNL A   1      44.486  26.628  29.873  1.00  0.00    -0.354 N 
ATOM     62  N   UNL A   1      44.664  29.307  31.054  1.00  0.00    -0.248 NA
ATOM     63  C   UNL A   1      45.813  30.903  32.321  1.00  0.00     0.031 C 
ATOM     64  C   UNL A   1      46.233  25.273  30.079  1.00  0.00     0.029 A 
ATOM     65  C   UNL A   1      45.759  26.531  30.413  1.00  0.00     0.049 A 
ATOM     66  H   UNL A   1      43.896  27.413  29.956  1.00  0.00     0.167 HD
ATOM     67  C   UNL A   1      45.897  28.789  31.430  1.00  0.00     0.074 A 
ATOM     68  C   UNL A   1      46.573  29.826  32.185  1.00  0.00     0.031 C 
ATOM     69  C   UNL A   1      46.418  27.564  31.173  1.00  0.00     0.031 A 
BRANCH  56  70
ATOM     70  C   UNL A   1      42.676  23.839  27.944  1.00  0.00    -0.014 A 
ATOM     71  C   UNL A   1      41.861  22.882  28.575  1.00  0.00     0.010 A 
ATOM     72  C   UNL A   1      43.281  23.509  26.715  1.00  0.00     0.010 A 
ATOM     73  C   UNL A   1      41.706  21.606  28.022  1.00  0.00     0.020 A 
ATOM     74  C   UNL A   1      43.105  22.247  26.143  1.00  0.00     0.020 A 
ATOM     75  C   UNL A   1      42.339  21.293  26.814  1.00  0.00     0.054 A 
BRANCH  75  76
ATOM     76  S   UNL A   1      42.135  19.627  26.126  1.00  0.00     0.124 S 
ATOM     77  O   UNL A   1      40.696  19.578  25.880  1.00  0.00    -0.237 OA
ATOM     78  O   UNL A   1      42.974  19.666  24.932  1.00  0.00    -0.237 OA
ATOM     79  O   UNL A   1      42.614  18.749  27.192  1.00  0.00    -0.744 OA
ENDBRANCH  75  76
ENDBRANCH  56  70
BRANCH  57  80
ATOM     80  C   UNL A   1      43.607  32.847  32.158  1.00  0.00    -0.014 A 
ATOM     81  C   UNL A   1      43.332  32.963  33.530  1.00  0.00     0.010 A 
ATOM     82  C   UNL A   1      44.054  33.979  31.450  1.00  0.00     0.010 A 
ATOM     83  C   UNL A   1      43.518  34.185  34.185  1.00  0.00     0.020 A 
ATOM     84  C   UNL A   1      44.272  35.191  32.108  1.00  0.00     0.020 A 
ATOM     85  C   UNL A   1      43.998  35.287  33.473  1.00  0.00     0.054 A 
BRANCH  85  86
ATOM     86  S   UNL A   1      44.335  36.831  34.367  1.00  0.00     0.124 S 
ATOM     87  O   UNL A   1      43.579  37.804  33.587  1.00  0.00    -0.237 OA
ATOM     88  O   UNL A   1      43.812  36.543  35.700  1.00  0.00    -0.237 OA
ATOM     89  O   UNL A   1      45.789  36.959  34.292  1.00  0.00    -0.744 OA
ENDBRANCH  85  86
ENDBRANCH  57  80
BRANCH  69  90
ATOM     90  C   UNL A   1      47.803  27.284  31.692  1.00  0.00    -0.014 A 
ATOM     91  C   UNL A   1      48.005  26.710  32.960  1.00  0.00     0.010 A 
ATOM     92  C   UNL A   1      48.916  27.560  30.878  1.00  0.00     0.010 A 
ATOM     93  C   UNL A   1      49.299  26.446  33.416  1.00  0.00     0.020 A 
ATOM     94  C   UNL A   1      50.210  27.272  31.319  1.00  0.00     0.020 A 
ATOM     95  C   UNL A   1      50.393  26.729  32.592  1.00  0.00     0.054 A 
BRANCH  95  96
ATOM     96  S   UNL A   1      52.062  26.341  33.191  1.00  0.00     0.124 S 
ATOM     97  O   UNL A   1      52.738  25.935  31.962  1.00  0.00    -0.237 OA
ATOM     98  O   UNL A   1      52.501  27.612  33.760  1.00  0.00    -0.237 OA
ATOM     99  O   UNL A   1      51.840  25.272  34.162  1.00  0.00    -0.744 OA
ENDBRANCH  95  96
ENDBRANCH  69  90
ENDBRANCH  43  44
ENDBRANCH  36  38
ENDBRANCH  35  36
ENDBRANCH  34  35
ENDBRANCH   1  34
TORSDOF 19
ENDMDL
MODEL 3
REMARK VINA RESULT:      -9.1      5.591     13.475
REMARK SMILES COc1ccc([C@H]2CC(c3ccc(S(C)(=O)=O)cc3)=NN2c2ccc(C(=O)OCCOC(=O)c3ccc(-c4c5nc(c(-c6ccc(S(=O)(=O)[O-])cc6)c6ccc([nH]6)c(-c6ccc(S(=O)(=O)[O-])cc6)c6nc(c(-c7ccc(S(=O)(=O)[O-])cc7)c7ccc4[nH]7)C=C6)C=C5)cc3)cc2)cc1
REMARK SMILES IDX 29 1 28 2 26 3 27 4 25 5 22 6 23 7 95 8 24 9 94 10 21 11
REMARK SMILES IDX 7 12 8 13 9 14 20 15 6 16 3 17 4 18 97 19 5 20 96 21 2 22
REMARK SMILES IDX 1 23 10 24 11 25 19 26 12 27 18 28 13 29 14 30 15 31 16 32
REMARK SMILES IDX 17 33 30 34 31 35 32 36 33 37 34 38 35 39 93 40 36 41 92 42
REMARK SMILES IDX 37 43 38 44 39 45 86 46 40 47 91 48 85 49 87 50 41 51 90 52
REMARK SMILES IDX 84 53 83 54 42 56 72 57 53 58 71 59 54 60 57 61 70 62 88 63
REMARK SMILES IDX 55 64 56 65 69 67 89 68 58 69 43 70 44 71 52 72 45 73 51 74
REMARK SMILES IDX 46 75 47 76 48 77 49 78 50 79 73 80 74 81 82 82 75 83 81 84
REMARK SMILES IDX 76 85 77 86 78 87 79 88 80 89 59 90 60 91 68 92 61 93 67 94
REMARK SMILES IDX 62 95 63 96 64 97 65 98 66 99
REMARK H PARENT 87 55 57 66
REMARK Flexibility Score: inf
ROOT
ATOM      1  C   UNL A   1      40.725  23.340  27.273  1.00  0.00     0.275 C 
ENDROOT
BRANCH   1   2
ATOM      2  O   UNL A   1      39.422  23.531  26.682  1.00  0.00    -0.458 OA
BRANCH   2   3
ATOM      3  C   UNL A   1      38.912  22.442  26.056  1.00  0.00     0.338 C 
ATOM      4  O   UNL A   1      39.446  21.348  25.954  1.00  0.00    -0.246 OA
BRANCH   3   5
ATOM      5  C   UNL A   1      37.555  22.706  25.533  1.00  0.00     0.060 A 
ATOM      6  C   UNL A   1      35.113  23.348  24.280  1.00  0.00     0.060 A 
ATOM      7  C   UNL A   1      35.924  22.327  23.785  1.00  0.00     0.029 A 
ATOM      8  C   UNL A   1      35.525  24.014  25.446  1.00  0.00     0.029 A 
ATOM      9  C   UNL A   1      37.148  22.041  24.377  1.00  0.00     0.018 A 
ATOM     10  C   UNL A   1      36.729  23.683  26.088  1.00  0.00     0.018 A 
BRANCH   6  11
ATOM     11  N   UNL A   1      33.958  23.688  23.595  1.00  0.00    -0.257 N 
ATOM     12  C   UNL A   1      33.157  22.752  22.807  1.00  0.00     0.144 C 
ATOM     13  C   UNL A   1      31.897  23.572  22.487  1.00  0.00     0.091 C 
ATOM     14  C   UNL A   1      32.203  24.839  23.235  1.00  0.00     0.071 C 
ATOM     15  N   UNL A   1      33.342  24.874  23.848  1.00  0.00    -0.176 NA
BRANCH  12  16
ATOM     16  C   UNL A   1      32.843  21.451  23.534  1.00  0.00    -0.023 A 
ATOM     17  C   UNL A   1      32.388  19.042  24.945  1.00  0.00     0.118 A 
ATOM     18  C   UNL A   1      32.620  20.233  25.631  1.00  0.00     0.047 A 
ATOM     19  C   UNL A   1      32.325  19.061  23.553  1.00  0.00     0.047 A 
ATOM     20  C   UNL A   1      32.852  21.424  24.937  1.00  0.00     0.010 A 
ATOM     21  C   UNL A   1      32.540  20.258  22.855  1.00  0.00     0.010 A 
BRANCH  17  22
ATOM     22  O   UNL A   1      32.204  17.944  25.739  1.00  0.00    -0.497 OA
ATOM     23  C   UNL A   1      33.120  16.871  25.547  1.00  0.00     0.278 C 
ENDBRANCH  17  22
ENDBRANCH  12  16
BRANCH  14  24
ATOM     24  C   UNL A   1      31.291  25.989  23.185  1.00  0.00    -0.002 A 
ATOM     25  C   UNL A   1      31.634  27.065  22.358  1.00  0.00     0.011 A 
ATOM     26  C   UNL A   1      30.098  25.995  23.911  1.00  0.00     0.011 A 
ATOM     27  C   UNL A   1      30.757  28.141  22.222  1.00  0.00     0.021 A 
ATOM     28  C   UNL A   1      29.231  27.085  23.798  1.00  0.00     0.021 A 
ATOM     29  C   UNL A   1      29.560  28.146  22.946  1.00  0.00     0.067 A 
BRANCH  29  30
ATOM     30  S   UNL A   1      28.421  29.492  22.713  1.00  0.00     0.175 S 
ATOM     31  C   UNL A   1      29.106  30.824  23.661  1.00  0.00     0.163 C 
ATOM     32  O   UNL A   1      28.483  29.844  21.306  1.00  0.00    -0.224 OA
ATOM     33  O   UNL A   1      27.161  29.109  23.323  1.00  0.00    -0.224 OA
ENDBRANCH  29  30
ENDBRANCH  14  24
ENDBRANCH   6  11
ENDBRANCH   3   5
ENDBRANCH   2   3
ENDBRANCH   1   2
BRANCH   1  34
ATOM     34  C   UNL A   1      41.852  23.695  26.305  1.00  0.00     0.275 C 
BRANCH  34  35
ATOM     35  O   UNL A   1      42.044  25.120  26.243  1.00  0.00    -0.458 OA
BRANCH  35  36
ATOM     36  C   UNL A   1      43.311  25.539  26.456  1.00  0.00     0.338 C 
ATOM     37  O   UNL A   1      44.302  25.255  25.805  1.00  0.00    -0.246 OA
BRANCH  36  38
ATOM     38  C   UNL A   1      43.363  26.464  27.599  1.00  0.00     0.060 A 
ATOM     39  C   UNL A   1      42.825  26.054  28.810  1.00  0.00     0.016 A 
ATOM     40  C   UNL A   1      43.744  27.791  27.423  1.00  0.00     0.016 A 
ATOM     41  C   UNL A   1      42.491  26.995  29.780  1.00  0.00     0.010 A 
ATOM     42  C   UNL A   1      43.559  28.705  28.468  1.00  0.00     0.010 A 
ATOM     43  C   UNL A   1      42.874  28.336  29.641  1.00  0.00    -0.014 A 
BRANCH  43  44
ATOM     44  C   UNL A   1      42.550  29.336  30.704  1.00  0.00     0.031 A 
ATOM     45  C   UNL A   1      43.447  29.498  31.911  1.00  0.00     0.074 A 
ATOM     46  C   UNL A   1      41.444  30.104  30.605  1.00  0.00     0.049 A 
ATOM     47  N   UNL A   1      43.236  30.171  33.015  1.00  0.00    -0.248 NA
ATOM     48  C   UNL A   1      44.740  28.795  31.882  1.00  0.00     0.031 C 
ATOM     49  C   UNL A   1      40.495  30.088  29.488  1.00  0.00     0.029 A 
ATOM     50  N   UNL A   1      40.927  31.052  31.457  1.00  0.00    -0.354 N 
ATOM     51  C   UNL A   1      44.326  29.907  33.840  1.00  0.00     0.074 A 
ATOM     52  C   UNL A   1      45.197  29.013  33.107  1.00  0.00     0.031 C 
ATOM     53  C   UNL A   1      39.545  31.008  29.699  1.00  0.00     0.029 A 
ATOM     54  C   UNL A   1      39.747  31.601  31.014  1.00  0.00     0.049 A 
ATOM     55  H   UNL A   1      41.362  31.313  32.300  1.00  0.00     0.167 HD
ATOM     56  C   UNL A   1      44.575  30.360  35.094  1.00  0.00     0.031 A 
ATOM     57  C   UNL A   1      38.878  32.441  31.609  1.00  0.00     0.031 A 
ATOM     58  C   UNL A   1      43.729  31.288  35.799  1.00  0.00     0.049 A 
ATOM     59  C   UNL A   1      39.163  32.924  33.000  1.00  0.00     0.074 A 
ATOM     60  C   UNL A   1      43.918  31.844  37.054  1.00  0.00     0.029 A 
ATOM     61  N   UNL A   1      42.537  31.805  35.312  1.00  0.00    -0.354 N 
ATOM     62  N   UNL A   1      40.185  32.643  33.771  1.00  0.00    -0.248 NA
ATOM     63  C   UNL A   1      38.174  33.825  33.604  1.00  0.00     0.031 C 
ATOM     64  C   UNL A   1      42.813  32.651  37.347  1.00  0.00     0.029 A 
ATOM     65  C   UNL A   1      41.966  32.650  36.251  1.00  0.00     0.049 A 
ATOM     66  H   UNL A   1      42.152  31.601  34.429  1.00  0.00     0.167 HD
ATOM     67  C   UNL A   1      39.968  33.339  34.953  1.00  0.00     0.074 A 
ATOM     68  C   UNL A   1      38.728  34.072  34.784  1.00  0.00     0.031 C 
ATOM     69  C   UNL A   1      40.726  33.366  36.077  1.00  0.00     0.031 A 
BRANCH  56  70
ATOM     70  C   UNL A   1      45.782  29.806  35.811  1.00  0.00    -0.014 A 
ATOM     71  C   UNL A   1      47.041  30.430  35.746  1.00  0.00     0.010 A 
ATOM     72  C   UNL A   1      45.644  28.636  36.583  1.00  0.00     0.010 A 
ATOM     73  C   UNL A   1      48.148  29.860  36.386  1.00  0.00     0.020 A 
ATOM     74  C   UNL A   1      46.740  28.080  37.249  1.00  0.00     0.020 A 
ATOM     75  C   UNL A   1      47.992  28.682  37.123  1.00  0.00     0.054 A 
BRANCH  75  76
ATOM     76  S   UNL A   1      49.447  27.956  37.930  1.00  0.00     0.124 S 
ATOM     77  O   UNL A   1      50.224  29.145  38.273  1.00  0.00    -0.237 OA
ATOM     78  O   UNL A   1      48.864  27.240  39.061  1.00  0.00    -0.237 OA
ATOM     79  O   UNL A   1      50.032  27.108  36.893  1.00  0.00    -0.744 OA
ENDBRANCH  75  76
ENDBRANCH  56  70
BRANCH  57  80
ATOM     80  C   UNL A   1      37.629  32.820  30.892  1.00  0.00    -0.014 A 
ATOM     81  C   UNL A   1      37.611  33.907  30.003  1.00  0.00     0.010 A 
ATOM     82  C   UNL A   1      36.468  32.035  31.037  1.00  0.00     0.010 A 
ATOM     83  C   UNL A   1      36.460  34.192  29.259  1.00  0.00     0.020 A 
ATOM     84  C   UNL A   1      35.330  32.296  30.273  1.00  0.00     0.020 A 
ATOM     85  C   UNL A   1      35.332  33.377  29.390  1.00  0.00     0.054 A 
BRANCH  85  86
ATOM     86  S   UNL A   1      33.890  33.700  28.336  1.00  0.00     0.124 S 
ATOM     87  O   UNL A   1      34.446  34.594  27.326  1.00  0.00    -0.237 OA
ATOM     88  O   UNL A   1      33.535  32.362  27.870  1.00  0.00    -0.237 OA
ATOM     89  O   UNL A   1      32.927  34.308  29.251  1.00  0.00    -0.744 OA
ENDBRANCH  85  86
ENDBRANCH  57  80
BRANCH  69  90
ATOM     90  C   UNL A   1      40.249  34.237  37.207  1.00  0.00    -0.014 A 
ATOM     91  C   UNL A   1      39.501  33.706  38.273  1.00  0.00     0.010 A 
ATOM     92  C   UNL A   1      40.595  35.601  37.223  1.00  0.00     0.010 A 
ATOM     93  C   UNL A   1      39.080  34.532  39.319  1.00  0.00     0.020 A 
ATOM     94  C   UNL A   1      40.199  36.423  38.281  1.00  0.00     0.020 A 
ATOM     95  C   UNL A   1      39.432  35.885  39.315  1.00  0.00     0.054 A 
BRANCH  95  96
ATOM     96  S   UNL A   1      38.908  36.929  40.705  1.00  0.00     0.124 S 
ATOM     97  O   UNL A   1      38.296  38.063  40.019  1.00  0.00    -0.237 OA
ATOM     98  O   UNL A   1      37.984  36.058  41.428  1.00  0.00    -0.237 OA
ATOM     99  O   UNL A   1      40.155  37.224  41.405  1.00  0.00    -0.744 OA
ENDBRANCH  95  96
ENDBRANCH  69  90
ENDBRANCH  43  44
ENDBRANCH  36  38
ENDBRANCH  35  36
ENDBRANCH  34  35
ENDBRANCH   1  34
TORSDOF 19
ENDMDL
