MODEL 1
REMARK VINA RESULT:     -11.6      0.000      0.000
REMARK SMILES C[C@@](NC(=O)[C@H]1COc2ccccc21)(C(=O)OCCOC(=O)c1ccc(-c2c3nc(c(-c4ccc(S(=O)(=O)[O-])cc4)c4ccc([nH]4)c(-c4ccc(S(=O)(=O)[O-])cc4)c4nc(c(-c5ccc(S(=O)(=O)[O-])cc5)c5ccc2[nH]5)C=C4)C=C3)cc1)C(F)(F)F
REMARK SMILES IDX 19 1 18 2 17 3 15 4 16 5 2 6 1 7 3 8 4 9 5 11 6 12 7 13
REMARK SMILES IDX 14 14 8 15 9 16 13 17 10 18 12 19 11 20 83 21 84 22 85 23
REMARK SMILES IDX 86 24 20 25 21 26 22 27 23 28 24 29 82 30 25 31 81 32 26 33
REMARK SMILES IDX 27 34 28 35 75 36 29 37 80 38 74 39 76 40 30 41 79 42 73 43
REMARK SMILES IDX 72 44 31 46 61 47 42 48 60 49 43 50 46 51 59 52 77 53 44 54
REMARK SMILES IDX 45 55 58 57 78 58 47 59 32 60 33 61 41 62 34 63 40 64 35 65
REMARK SMILES IDX 36 66 37 67 38 68 39 69 62 70 63 71 71 72 64 73 70 74 65 75
REMARK SMILES IDX 66 76 67 77 68 78 69 79 48 80 49 81 57 82 50 83 56 84 51 85
REMARK SMILES IDX 52 86 53 87 54 88 55 89
REMARK H PARENT 3 10 76 45 46 56
REMARK Flexibility Score: inf
ROOT
ATOM      1  C   UNL A   1      40.430  22.529  26.704  1.00  0.00     0.275 C 
ENDROOT
BRANCH   1   2
ATOM      2  C   UNL A   1      39.432  21.485  26.196  1.00  0.00     0.274 C 
BRANCH   2   3
ATOM      3  O   UNL A   1      38.297  22.057  25.504  1.00  0.00    -0.460 OA
BRANCH   3   4
ATOM      4  C   UNL A   1      37.291  21.195  25.175  1.00  0.00     0.341 C 
ATOM      5  O   UNL A   1      37.499  20.047  24.797  1.00  0.00    -0.249 OA
BRANCH   4   6
ATOM      6  C   UNL A   1      35.925  21.880  25.089  1.00  0.00     0.231 C 
ATOM      7  C   UNL A   1      34.830  20.837  24.789  1.00  0.00     0.058 C 
BRANCH   6   8
ATOM      8  N   UNL A   1      35.508  22.609  26.342  1.00  0.00    -0.332 N 
ATOM      9  C   UNL A   1      34.267  22.742  26.912  1.00  0.00     0.232 C 
ATOM     10  H   UNL A   1      36.238  23.060  26.825  1.00  0.00     0.164 HD
ATOM     11  O   UNL A   1      34.194  22.559  28.127  1.00  0.00    -0.274 OA
BRANCH   9  12
ATOM     12  C   UNL A   1      33.118  23.300  26.087  1.00  0.00     0.150 C 
ATOM     13  C   UNL A   1      31.730  23.023  26.681  1.00  0.00     0.248 C 
ATOM     14  C   UNL A   1      33.099  24.792  26.072  1.00  0.00     0.010 A 
ATOM     15  O   UNL A   1      30.957  24.249  26.744  1.00  0.00    -0.492 OA
ATOM     16  C   UNL A   1      31.842  25.241  26.432  1.00  0.00     0.123 A 
ATOM     17  C   UNL A   1      34.095  25.694  25.723  1.00  0.00     0.008 A 
ATOM     18  C   UNL A   1      31.527  26.585  26.454  1.00  0.00     0.047 A 
ATOM     19  C   UNL A   1      33.801  27.058  25.747  1.00  0.00     0.001 A 
ATOM     20  C   UNL A   1      32.520  27.502  26.109  1.00  0.00     0.004 A 
ENDBRANCH   9  12
ENDBRANCH   6   8
BRANCH   6  21
ATOM     21  C   UNL A   1      35.979  22.842  23.885  1.00  0.00     0.422 C 
ATOM     22  F   UNL A   1      36.820  22.411  22.921  1.00  0.00    -0.168 F 
ATOM     23  F   UNL A   1      34.749  22.918  23.307  1.00  0.00    -0.168 F 
ATOM     24  F   UNL A   1      36.322  24.101  24.221  1.00  0.00    -0.168 F 
ENDBRANCH   6  21
ENDBRANCH   4   6
ENDBRANCH   3   4
ENDBRANCH   2   3
ENDBRANCH   1   2
BRANCH   1  25
ATOM     25  O   UNL A   1      39.867  23.852  26.752  1.00  0.00    -0.458 OA
BRANCH  25  26
ATOM     26  C   UNL A   1      40.750  24.854  26.538  1.00  0.00     0.338 C 
ATOM     27  O   UNL A   1      41.494  24.982  25.580  1.00  0.00    -0.246 OA
BRANCH  26  28
ATOM     28  C   UNL A   1      40.556  25.903  27.549  1.00  0.00     0.060 A 
ATOM     29  C   UNL A   1      41.444  26.977  27.523  1.00  0.00     0.016 A 
ATOM     30  C   UNL A   1      39.592  25.812  28.550  1.00  0.00     0.016 A 
ATOM     31  C   UNL A   1      41.408  27.958  28.499  1.00  0.00     0.010 A 
ATOM     32  C   UNL A   1      39.536  26.814  29.527  1.00  0.00     0.010 A 
ATOM     33  C   UNL A   1      40.449  27.885  29.509  1.00  0.00    -0.014 A 
BRANCH  33  34
ATOM     34  C   UNL A   1      40.449  28.916  30.566  1.00  0.00     0.031 A 
ATOM     35  C   UNL A   1      41.412  28.794  31.708  1.00  0.00     0.074 A 
ATOM     36  C   UNL A   1      39.616  29.969  30.472  1.00  0.00     0.049 A 
ATOM     37  N   UNL A   1      41.451  29.470  32.824  1.00  0.00    -0.248 NA
ATOM     38  C   UNL A   1      42.467  27.774  31.579  1.00  0.00     0.031 C 
ATOM     39  C   UNL A   1      38.712  30.237  29.349  1.00  0.00     0.029 A 
ATOM     40  N   UNL A   1      39.390  31.008  31.336  1.00  0.00    -0.354 N 
ATOM     41  C   UNL A   1      42.495  28.920  33.557  1.00  0.00     0.074 A 
ATOM     42  C   UNL A   1      43.080  27.873  32.750  1.00  0.00     0.031 C 
ATOM     43  C   UNL A   1      38.022  31.360  29.600  1.00  0.00     0.029 A 
ATOM     44  C   UNL A   1      38.379  31.846  30.928  1.00  0.00     0.049 A 
ATOM     45  H   UNL A   1      39.902  31.142  32.167  1.00  0.00     0.167 HD
ATOM     46  C   UNL A   1      42.905  29.255  34.802  1.00  0.00     0.031 A 
ATOM     47  C   UNL A   1      37.764  32.849  31.583  1.00  0.00     0.031 A 
ATOM     48  C   UNL A   1      42.322  30.320  35.572  1.00  0.00     0.049 A 
ATOM     49  C   UNL A   1      38.192  33.157  32.990  1.00  0.00     0.074 A 
ATOM     50  C   UNL A   1      42.664  30.753  36.840  1.00  0.00     0.029 A 
ATOM     51  N   UNL A   1      41.276  31.122  35.139  1.00  0.00    -0.354 N 
ATOM     52  N   UNL A   1      39.151  32.604  33.695  1.00  0.00    -0.248 NA
ATOM     53  C   UNL A   1      37.443  34.203  33.699  1.00  0.00     0.031 C 
ATOM     54  C   UNL A   1      41.791  31.789  37.193  1.00  0.00     0.029 A 
ATOM     55  C   UNL A   1      40.936  32.027  36.127  1.00  0.00     0.049 A 
ATOM     56  H   UNL A   1      40.840  31.056  34.259  1.00  0.00     0.167 HD
ATOM     57  C   UNL A   1      39.116  33.230  34.935  1.00  0.00     0.074 A 
ATOM     58  C   UNL A   1      38.061  34.223  34.872  1.00  0.00     0.031 C 
ATOM     59  C   UNL A   1      39.878  32.999  36.032  1.00  0.00     0.031 A 
BRANCH  46  60
ATOM     60  C   UNL A   1      43.981  28.417  35.433  1.00  0.00    -0.014 A 
ATOM     61  C   UNL A   1      43.680  27.272  36.188  1.00  0.00     0.010 A 
ATOM     62  C   UNL A   1      45.328  28.767  35.222  1.00  0.00     0.010 A 
ATOM     63  C   UNL A   1      44.709  26.502  36.742  1.00  0.00     0.020 A 
ATOM     64  C   UNL A   1      46.359  27.992  35.759  1.00  0.00     0.020 A 
ATOM     65  C   UNL A   1      46.041  26.869  36.526  1.00  0.00     0.054 A 
BRANCH  65  66
ATOM     66  S   UNL A   1      47.359  25.838  37.226  1.00  0.00     0.124 S 
ATOM     67  O   UNL A   1      47.509  26.406  38.564  1.00  0.00    -0.237 OA
ATOM     68  O   UNL A   1      46.781  24.498  37.175  1.00  0.00    -0.237 OA
ATOM     69  O   UNL A   1      48.488  26.060  36.326  1.00  0.00    -0.744 OA
ENDBRANCH  65  66
ENDBRANCH  46  60
BRANCH  47  70
ATOM     70  C   UNL A   1      36.609  33.547  30.956  1.00  0.00    -0.014 A 
ATOM     71  C   UNL A   1      36.692  34.062  29.652  1.00  0.00     0.010 A 
ATOM     72  C   UNL A   1      35.406  33.694  31.673  1.00  0.00     0.010 A 
ATOM     73  C   UNL A   1      35.597  34.720  29.080  1.00  0.00     0.020 A 
ATOM     74  C   UNL A   1      34.302  34.328  31.098  1.00  0.00     0.020 A 
ATOM     75  C   UNL A   1      34.409  34.850  29.808  1.00  0.00     0.054 A 
BRANCH  75  76
ATOM     76  S   UNL A   1      32.982  35.663  29.037  1.00  0.00     0.124 S 
ATOM     77  O   UNL A   1      33.621  36.721  28.260  1.00  0.00    -0.237 OA
ATOM     78  O   UNL A   1      32.377  34.584  28.261  1.00  0.00    -0.237 OA
ATOM     79  O   UNL A   1      32.192  36.115  30.180  1.00  0.00    -0.744 OA
ENDBRANCH  75  76
ENDBRANCH  47  70
BRANCH  59  80
ATOM     80  C   UNL A   1      39.600  33.837  37.245  1.00  0.00    -0.014 A 
ATOM     81  C   UNL A   1      38.778  33.351  38.276  1.00  0.00     0.010 A 
ATOM     82  C   UNL A   1      40.226  35.088  37.387  1.00  0.00     0.010 A 
ATOM     83  C   UNL A   1      38.574  34.113  39.428  1.00  0.00     0.020 A 
ATOM     84  C   UNL A   1      40.040  35.843  38.546  1.00  0.00     0.020 A 
ATOM     85  C   UNL A   1      39.208  35.354  39.557  1.00  0.00     0.054 A 
BRANCH  85  86
ATOM     86  S   UNL A   1      38.983  36.296  41.089  1.00  0.00     0.124 S 
ATOM     87  O   UNL A   1      40.272  36.109  41.751  1.00  0.00    -0.237 OA
ATOM     88  O   UNL A   1      38.718  37.647  40.603  1.00  0.00    -0.237 OA
ATOM     89  O   UNL A   1      37.850  35.639  41.735  1.00  0.00    -0.744 OA
ENDBRANCH  85  86
ENDBRANCH  59  80
ENDBRANCH  33  34
ENDBRANCH  26  28
ENDBRANCH  25  26
ENDBRANCH   1  25
TORSDOF 17
ENDMDL
MODEL 2
REMARK VINA RESULT:     -11.5      5.274     10.840
REMARK SMILES C[C@@](NC(=O)[C@H]1COc2ccccc21)(C(=O)OCCOC(=O)c1ccc(-c2c3nc(c(-c4ccc(S(=O)(=O)[O-])cc4)c4ccc([nH]4)c(-c4ccc(S(=O)(=O)[O-])cc4)c4nc(c(-c5ccc(S(=O)(=O)[O-])cc5)c5ccc2[nH]5)C=C4)C=C3)cc1)C(F)(F)F
REMARK SMILES IDX 19 1 18 2 17 3 15 4 16 5 2 6 1 7 3 8 4 9 5 11 6 12 7 13
REMARK SMILES IDX 14 14 8 15 9 16 13 17 10 18 12 19 11 20 83 21 84 22 85 23
REMARK SMILES IDX 86 24 20 25 21 26 22 27 23 28 24 29 82 30 25 31 81 32 26 33
REMARK SMILES IDX 27 34 28 35 75 36 29 37 80 38 74 39 76 40 30 41 79 42 73 43
REMARK SMILES IDX 72 44 31 46 61 47 42 48 60 49 43 50 46 51 59 52 77 53 44 54
REMARK SMILES IDX 45 55 58 57 78 58 47 59 32 60 33 61 41 62 34 63 40 64 35 65
REMARK SMILES IDX 36 66 37 67 38 68 39 69 62 70 63 71 71 72 64 73 70 74 65 75
REMARK SMILES IDX 66 76 67 77 68 78 69 79 48 80 49 81 57 82 50 83 56 84 51 85
REMARK SMILES IDX 52 86 53 87 54 88 55 89
REMARK H PARENT 3 10 76 45 46 56
REMARK Flexibility Score: inf
ROOT
ATOM      1  C   UNL A   1      32.607  28.938  27.131  1.00  0.00     0.275 C 
ENDROOT
BRANCH   1   2
ATOM      2  C   UNL A   1      31.879  27.590  27.153  1.00  0.00     0.274 C 
BRANCH   2   3
ATOM      3  O   UNL A   1      32.408  26.631  26.208  1.00  0.00    -0.460 OA
BRANCH   3   4
ATOM      4  C   UNL A   1      31.822  25.398  26.205  1.00  0.00     0.341 C 
ATOM      5  O   UNL A   1      30.787  25.154  26.815  1.00  0.00    -0.249 OA
BRANCH   4   6
ATOM      6  C   UNL A   1      32.711  24.318  25.581  1.00  0.00     0.231 C 
ATOM      7  C   UNL A   1      34.174  24.801  25.536  1.00  0.00     0.058 C 
BRANCH   6   8
ATOM      8  N   UNL A   1      32.703  22.998  26.312  1.00  0.00    -0.332 N 
ATOM      9  C   UNL A   1      33.700  22.067  26.456  1.00  0.00     0.232 C 
ATOM     10  H   UNL A   1      31.853  22.770  26.752  1.00  0.00     0.164 HD
ATOM     11  O   UNL A   1      33.877  21.617  27.589  1.00  0.00    -0.274 OA
BRANCH   9  12
ATOM     12  C   UNL A   1      34.375  21.491  25.221  1.00  0.00     0.150 C 
ATOM     13  C   UNL A   1      35.861  21.158  25.418  1.00  0.00     0.248 C 
ATOM     14  C   UNL A   1      33.853  20.140  24.863  1.00  0.00     0.010 A 
ATOM     15  O   UNL A   1      36.136  19.806  24.967  1.00  0.00    -0.492 OA
ATOM     16  C   UNL A   1      34.909  19.261  24.719  1.00  0.00     0.123 A 
ATOM     17  C   UNL A   1      32.550  19.720  24.634  1.00  0.00     0.008 A 
ATOM     18  C   UNL A   1      34.717  17.946  24.340  1.00  0.00     0.047 A 
ATOM     19  C   UNL A   1      32.332  18.392  24.259  1.00  0.00     0.001 A 
ATOM     20  C   UNL A   1      33.412  17.510  24.110  1.00  0.00     0.004 A 
ENDBRANCH   9  12
ENDBRANCH   6   8
BRANCH   6  21
ATOM     21  C   UNL A   1      32.245  24.141  24.122  1.00  0.00     0.422 C 
ATOM     22  F   UNL A   1      31.427  25.137  23.720  1.00  0.00    -0.168 F 
ATOM     23  F   UNL A   1      33.323  24.180  23.292  1.00  0.00    -0.168 F 
ATOM     24  F   UNL A   1      31.630  22.964  23.895  1.00  0.00    -0.168 F 
ENDBRANCH   6  21
ENDBRANCH   4   6
ENDBRANCH   3   4
ENDBRANCH   2   3
ENDBRANCH   1   2
BRANCH   1  25
ATOM     25  O   UNL A   1      33.919  28.864  27.714  1.00  0.00    -0.458 OA
BRANCH  25  26
ATOM     26  C   UNL A   1      34.492  30.061  27.979  1.00  0.00     0.338 C 
ATOM     27  O   UNL A   1      33.927  31.138  28.075  1.00  0.00    -0.246 OA
BRANCH  26  28
ATOM     28  C   UNL A   1      35.904  29.862  28.334  1.00  0.00     0.060 A 
ATOM     29  C   UNL A   1      36.838  29.994  27.309  1.00  0.00     0.016 A 
ATOM     30  C   UNL A   1      36.310  29.475  29.610  1.00  0.00     0.016 A 
ATOM     31  C   UNL A   1      38.178  29.720  27.523  1.00  0.00     0.010 A 
ATOM     32  C   UNL A   1      37.667  29.218  29.838  1.00  0.00     0.010 A 
ATOM     33  C   UNL A   1      38.604  29.332  28.792  1.00  0.00    -0.014 A 
BRANCH  33  34
ATOM     34  C   UNL A   1      40.029  29.003  28.995  1.00  0.00     0.031 A 
ATOM     35  C   UNL A   1      40.961  30.063  29.500  1.00  0.00     0.074 A 
ATOM     36  C   UNL A   1      40.466  27.751  28.762  1.00  0.00     0.049 A 
ATOM     37  N   UNL A   1      42.264  30.046  29.567  1.00  0.00    -0.248 NA
ATOM     38  C   UNL A   1      40.344  31.307  29.993  1.00  0.00     0.031 C 
ATOM     39  C   UNL A   1      39.622  26.619  28.368  1.00  0.00     0.029 A 
ATOM     40  N   UNL A   1      41.728  27.221  28.819  1.00  0.00    -0.354 N 
ATOM     41  C   UNL A   1      42.629  31.296  30.052  1.00  0.00     0.074 A 
ATOM     42  C   UNL A   1      41.411  32.037  30.287  1.00  0.00     0.031 C 
ATOM     43  C   UNL A   1      40.393  25.533  28.207  1.00  0.00     0.029 A 
ATOM     44  C   UNL A   1      41.787  25.909  28.412  1.00  0.00     0.049 A 
ATOM     45  H   UNL A   1      42.516  27.730  29.122  1.00  0.00     0.167 HD
ATOM     46  C   UNL A   1      43.877  31.777  30.256  1.00  0.00     0.031 A 
ATOM     47  C   UNL A   1      42.851  25.122  28.167  1.00  0.00     0.031 A 
ATOM     48  C   UNL A   1      45.072  31.008  30.039  1.00  0.00     0.049 A 
ATOM     49  C   UNL A   1      44.227  25.702  28.338  1.00  0.00     0.074 A 
ATOM     50  C   UNL A   1      46.388  31.392  30.222  1.00  0.00     0.029 A 
ATOM     51  N   UNL A   1      45.091  29.696  29.592  1.00  0.00    -0.354 N 
ATOM     52  N   UNL A   1      44.567  26.899  28.754  1.00  0.00    -0.248 NA
ATOM     53  C   UNL A   1      45.361  24.838  27.983  1.00  0.00     0.031 C 
ATOM     54  C   UNL A   1      47.207  30.322  29.841  1.00  0.00     0.029 A 
ATOM     55  C   UNL A   1      46.398  29.261  29.461  1.00  0.00     0.049 A 
ATOM     56  H   UNL A   1      44.294  29.153  29.396  1.00  0.00     0.167 HD
ATOM     57  C   UNL A   1      45.955  26.935  28.704  1.00  0.00     0.074 A 
ATOM     58  C   UNL A   1      46.392  25.631  28.246  1.00  0.00     0.031 C 
ATOM     59  C   UNL A   1      46.795  27.957  28.998  1.00  0.00     0.031 A 
BRANCH  46  60
ATOM     60  C   UNL A   1      44.012  33.217  30.665  1.00  0.00    -0.014 A 
ATOM     61  C   UNL A   1      44.144  34.246  29.719  1.00  0.00     0.010 A 
ATOM     62  C   UNL A   1      43.961  33.544  32.033  1.00  0.00     0.010 A 
ATOM     63  C   UNL A   1      44.245  35.578  30.136  1.00  0.00     0.020 A 
ATOM     64  C   UNL A   1      44.044  34.873  32.453  1.00  0.00     0.020 A 
ATOM     65  C   UNL A   1      44.197  35.882  31.500  1.00  0.00     0.054 A 
BRANCH  65  66
ATOM     66  S   UNL A   1      44.296  37.619  32.016  1.00  0.00     0.124 S 
ATOM     67  O   UNL A   1      43.835  38.316  30.818  1.00  0.00    -0.237 OA
ATOM     68  O   UNL A   1      43.388  37.668  33.159  1.00  0.00    -0.237 OA
ATOM     69  O   UNL A   1      45.709  37.804  32.339  1.00  0.00    -0.744 OA
ENDBRANCH  65  66
ENDBRANCH  46  60
BRANCH  47  70
ATOM     70  C   UNL A   1      42.653  23.750  27.627  1.00  0.00    -0.014 A 
ATOM     71  C   UNL A   1      42.580  23.518  26.243  1.00  0.00     0.010 A 
ATOM     72  C   UNL A   1      42.541  22.658  28.509  1.00  0.00     0.010 A 
ATOM     73  C   UNL A   1      42.388  22.221  25.752  1.00  0.00     0.020 A 
ATOM     74  C   UNL A   1      42.375  21.359  28.023  1.00  0.00     0.020 A 
ATOM     75  C   UNL A   1      42.285  21.151  26.646  1.00  0.00     0.054 A 
BRANCH  75  76
ATOM     76  S   UNL A   1      42.085  19.469  25.995  1.00  0.00     0.124 S 
ATOM     77  O   UNL A   1      42.934  19.502  24.807  1.00  0.00    -0.237 OA
ATOM     78  O   UNL A   1      42.566  18.638  27.095  1.00  0.00    -0.237 OA
ATOM     79  O   UNL A   1      40.650  19.374  25.737  1.00  0.00    -0.744 OA
ENDBRANCH  75  76
ENDBRANCH  47  70
BRANCH  59  80
ATOM     80  C   UNL A   1      48.265  27.701  28.838  1.00  0.00    -0.014 A 
ATOM     81  C   UNL A   1      48.965  26.940  29.791  1.00  0.00     0.010 A 
ATOM     82  C   UNL A   1      48.933  28.161  27.690  1.00  0.00     0.010 A 
ATOM     83  C   UNL A   1      50.319  26.655  29.603  1.00  0.00     0.020 A 
ATOM     84  C   UNL A   1      50.281  27.860  27.490  1.00  0.00     0.020 A 
ATOM     85  C   UNL A   1      50.968  27.116  28.452  1.00  0.00     0.054 A 
BRANCH  85  86
ATOM     86  S   UNL A   1      52.709  26.677  28.196  1.00  0.00     0.124 S 
ATOM     87  O   UNL A   1      53.237  27.888  27.572  1.00  0.00    -0.237 OA
ATOM     88  O   UNL A   1      53.180  26.414  29.553  1.00  0.00    -0.237 OA
ATOM     89  O   UNL A   1      52.644  25.505  27.327  1.00  0.00    -0.744 OA
ENDBRANCH  85  86
ENDBRANCH  59  80
ENDBRANCH  33  34
ENDBRANCH  26  28
ENDBRANCH  25  26
ENDBRANCH   1  25
TORSDOF 17
ENDMDL
MODEL 3
REMARK VINA RESULT:     -11.4      5.247     10.708
REMARK SMILES C[C@@](NC(=O)[C@H]1COc2ccccc21)(C(=O)OCCOC(=O)c1ccc(-c2c3nc(c(-c4ccc(S(=O)(=O)[O-])cc4)c4ccc([nH]4)c(-c4ccc(S(=O)(=O)[O-])cc4)c4nc(c(-c5ccc(S(=O)(=O)[O-])cc5)c5ccc2[nH]5)C=C4)C=C3)cc1)C(F)(F)F
REMARK SMILES IDX 19 1 18 2 17 3 15 4 16 5 2 6 1 7 3 8 4 9 5 11 6 12 7 13
REMARK SMILES IDX 14 14 8 15 9 16 13 17 10 18 12 19 11 20 83 21 84 22 85 23
REMARK SMILES IDX 86 24 20 25 21 26 22 27 23 28 24 29 82 30 25 31 81 32 26 33
REMARK SMILES IDX 27 34 28 35 75 36 29 37 80 38 74 39 76 40 30 41 79 42 73 43
REMARK SMILES IDX 72 44 31 46 61 47 42 48 60 49 43 50 46 51 59 52 77 53 44 54
REMARK SMILES IDX 45 55 58 57 78 58 47 59 32 60 33 61 41 62 34 63 40 64 35 65
REMARK SMILES IDX 36 66 37 67 38 68 39 69 62 70 63 71 71 72 64 73 70 74 65 75
REMARK SMILES IDX 66 76 67 77 68 78 69 79 48 80 49 81 57 82 50 83 56 84 51 85
REMARK SMILES IDX 52 86 53 87 54 88 55 89
REMARK H PARENT 3 10 76 45 46 56
REMARK Flexibility Score: inf
ROOT
ATOM      1  C   UNL A   1      33.709  28.700  25.919  1.00  0.00     0.275 C 
ENDROOT
BRANCH   1   2
ATOM      2  C   UNL A   1      32.323  28.197  25.503  1.00  0.00     0.274 C 
BRANCH   2   3
ATOM      3  O   UNL A   1      32.024  26.864  25.979  1.00  0.00    -0.460 OA
BRANCH   3   4
ATOM      4  C   UNL A   1      31.292  26.072  25.142  1.00  0.00     0.341 C 
ATOM      5  O   UNL A   1      30.147  26.346  24.802  1.00  0.00    -0.249 OA
BRANCH   4   6
ATOM      6  C   UNL A   1      31.950  24.714  24.882  1.00  0.00     0.231 C 
ATOM      7  C   UNL A   1      31.083  23.884  23.916  1.00  0.00     0.058 C 
BRANCH   6   8
ATOM      8  N   UNL A   1      33.332  24.789  24.281  1.00  0.00    -0.332 N 
ATOM      9  C   UNL A   1      34.197  23.783  23.935  1.00  0.00     0.232 C 
ATOM     10  H   UNL A   1      33.664  25.700  24.112  1.00  0.00     0.164 HD
ATOM     11  O   UNL A   1      34.740  23.875  22.833  1.00  0.00    -0.274 OA
BRANCH   9  12
ATOM     12  C   UNL A   1      34.599  22.747  24.973  1.00  0.00     0.150 C 
ATOM     13  C   UNL A   1      34.540  21.299  24.467  1.00  0.00     0.248 C 
ATOM     14  C   UNL A   1      36.043  22.835  25.337  1.00  0.00     0.010 A 
ATOM     15  O   UNL A   1      35.783  20.612  24.767  1.00  0.00    -0.492 OA
ATOM     16  C   UNL A   1      36.626  21.588  25.213  1.00  0.00     0.123 A 
ATOM     17  C   UNL A   1      36.785  23.918  25.789  1.00  0.00     0.008 A 
ATOM     18  C   UNL A   1      37.951  21.368  25.536  1.00  0.00     0.047 A 
ATOM     19  C   UNL A   1      38.129  23.720  26.111  1.00  0.00     0.001 A 
ATOM     20  C   UNL A   1      38.709  22.449  25.987  1.00  0.00     0.004 A 
ENDBRANCH   9  12
ENDBRANCH   6   8
BRANCH   6  21
ATOM     21  C   UNL A   1      31.977  23.963  26.229  1.00  0.00     0.422 C 
ATOM     22  F   UNL A   1      33.090  24.234  26.945  1.00  0.00    -0.168 F 
ATOM     23  F   UNL A   1      30.928  24.366  26.996  1.00  0.00    -0.168 F 
ATOM     24  F   UNL A   1      31.866  22.626  26.100  1.00  0.00    -0.168 F 
ENDBRANCH   6  21
ENDBRANCH   4   6
ENDBRANCH   3   4
ENDBRANCH   2   3
ENDBRANCH   1   2
BRANCH   1  25
ATOM     25  O   UNL A   1      33.840  28.835  27.345  1.00  0.00    -0.458 OA
BRANCH  25  26
ATOM     26  C   UNL A   1      34.359  30.015  27.759  1.00  0.00     0.338 C 
ATOM     27  O   UNL A   1      33.753  31.059  27.933  1.00  0.00    -0.246 OA
BRANCH  26  28
ATOM     28  C   UNL A   1      35.757  29.820  28.167  1.00  0.00     0.060 A 
ATOM     29  C   UNL A   1      36.732  30.000  27.188  1.00  0.00     0.016 A 
ATOM     30  C   UNL A   1      36.113  29.394  29.445  1.00  0.00     0.016 A 
ATOM     31  C   UNL A   1      38.065  29.735  27.449  1.00  0.00     0.010 A 
ATOM     32  C   UNL A   1      37.463  29.146  29.722  1.00  0.00     0.010 A 
ATOM     33  C   UNL A   1      38.442  29.308  28.722  1.00  0.00    -0.014 A 
BRANCH  33  34
ATOM     34  C   UNL A   1      39.862  28.989  28.974  1.00  0.00     0.031 A 
ATOM     35  C   UNL A   1      40.766  30.055  29.516  1.00  0.00     0.074 A 
ATOM     36  C   UNL A   1      40.316  27.742  28.753  1.00  0.00     0.049 A 
ATOM     37  N   UNL A   1      42.066  30.048  29.629  1.00  0.00    -0.248 NA
ATOM     38  C   UNL A   1      40.122  31.292  29.991  1.00  0.00     0.031 C 
ATOM     39  C   UNL A   1      39.496  26.605  28.324  1.00  0.00     0.029 A 
ATOM     40  N   UNL A   1      41.579  27.222  28.852  1.00  0.00    -0.354 N 
ATOM     41  C   UNL A   1      42.403  31.299  30.131  1.00  0.00     0.074 A 
ATOM     42  C   UNL A   1      41.171  32.029  30.326  1.00  0.00     0.031 C 
ATOM     43  C   UNL A   1      40.281  25.525  28.186  1.00  0.00     0.029 A 
ATOM     44  C   UNL A   1      41.664  25.912  28.443  1.00  0.00     0.049 A 
ATOM     45  H   UNL A   1      42.352  27.736  29.185  1.00  0.00     0.167 HD
ATOM     46  C   UNL A   1      43.639  31.789  30.382  1.00  0.00     0.031 A 
ATOM     47  C   UNL A   1      42.743  25.134  28.233  1.00  0.00     0.031 A 
ATOM     48  C   UNL A   1      44.847  31.031  30.204  1.00  0.00     0.049 A 
ATOM     49  C   UNL A   1      44.107  25.724  28.455  1.00  0.00     0.074 A 
ATOM     50  C   UNL A   1      46.153  31.424  30.435  1.00  0.00     0.029 A 
ATOM     51  N   UNL A   1      44.894  29.720  29.753  1.00  0.00    -0.354 N 
ATOM     52  N   UNL A   1      44.422  26.923  28.887  1.00  0.00    -0.248 NA
ATOM     53  C   UNL A   1      45.260  24.871  28.137  1.00  0.00     0.031 C 
ATOM     54  C   UNL A   1      46.994  30.363  30.080  1.00  0.00     0.029 A 
ATOM     55  C   UNL A   1      46.208  29.297  29.668  1.00  0.00     0.049 A 
ATOM     56  H   UNL A   1      44.108  29.172  29.527  1.00  0.00     0.167 HD
ATOM     57  C   UNL A   1      45.811  26.970  28.887  1.00  0.00     0.074 A 
ATOM     58  C   UNL A   1      46.274  25.671  28.439  1.00  0.00     0.031 C 
ATOM     59  C   UNL A   1      46.632  27.998  29.214  1.00  0.00     0.031 A 
BRANCH  46  60
ATOM     60  C   UNL A   1      43.748  33.228  30.800  1.00  0.00    -0.014 A 
ATOM     61  C   UNL A   1      43.727  33.609  32.152  1.00  0.00     0.010 A 
ATOM     62  C   UNL A   1      43.922  34.214  29.811  1.00  0.00     0.010 A 
ATOM     63  C   UNL A   1      43.854  34.957  32.506  1.00  0.00     0.020 A 
ATOM     64  C   UNL A   1      44.066  35.558  30.161  1.00  0.00     0.020 A 
ATOM     65  C   UNL A   1      44.020  35.923  31.508  1.00  0.00     0.054 A 
BRANCH  65  66
ATOM     66  S   UNL A   1      44.217  37.660  31.992  1.00  0.00     0.124 S 
ATOM     67  O   UNL A   1      45.651  37.738  32.261  1.00  0.00    -0.237 OA
ATOM     68  O   UNL A   1      43.760  38.379  30.805  1.00  0.00    -0.237 OA
ATOM     69  O   UNL A   1      43.356  37.792  33.165  1.00  0.00    -0.744 OA
ENDBRANCH  65  66
ENDBRANCH  46  60
BRANCH  47  70
ATOM     70  C   UNL A   1      42.574  23.763  27.680  1.00  0.00    -0.014 A 
ATOM     71  C   UNL A   1      42.659  23.521  26.299  1.00  0.00     0.010 A 
ATOM     72  C   UNL A   1      42.333  22.681  28.549  1.00  0.00     0.010 A 
ATOM     73  C   UNL A   1      42.493  22.225  25.796  1.00  0.00     0.020 A 
ATOM     74  C   UNL A   1      42.192  21.383  28.055  1.00  0.00     0.020 A 
ATOM     75  C   UNL A   1      42.260  21.165  26.678  1.00  0.00     0.054 A 
BRANCH  75  76
ATOM     76  S   UNL A   1      42.095  19.483  26.017  1.00  0.00     0.124 S 
ATOM     77  O   UNL A   1      42.559  18.672  27.139  1.00  0.00    -0.237 OA
ATOM     78  O   UNL A   1      40.668  19.393  25.718  1.00  0.00    -0.237 OA
ATOM     79  O   UNL A   1      42.969  19.492  24.846  1.00  0.00    -0.744 OA
ENDBRANCH  75  76
ENDBRANCH  47  70
BRANCH  59  80
ATOM     80  C   UNL A   1      48.108  27.753  29.106  1.00  0.00    -0.014 A 
ATOM     81  C   UNL A   1      48.799  27.087  30.132  1.00  0.00     0.010 A 
ATOM     82  C   UNL A   1      48.793  28.127  27.937  1.00  0.00     0.010 A 
ATOM     83  C   UNL A   1      50.160  26.810  29.996  1.00  0.00     0.020 A 
ATOM     84  C   UNL A   1      50.150  27.834  27.789  1.00  0.00     0.020 A 
ATOM     85  C   UNL A   1      50.827  27.184  28.824  1.00  0.00     0.054 A 
BRANCH  85  86
ATOM     86  S   UNL A   1      52.579  26.755  28.640  1.00  0.00     0.124 S 
ATOM     87  O   UNL A   1      53.174  28.048  28.312  1.00  0.00    -0.237 OA
ATOM     88  O   UNL A   1      52.922  26.222  29.956  1.00  0.00    -0.237 OA
ATOM     89  O   UNL A   1      52.582  25.775  27.558  1.00  0.00    -0.744 OA
ENDBRANCH  85  86
ENDBRANCH  59  80
ENDBRANCH  33  34
ENDBRANCH  26  28
ENDBRANCH  25  26
ENDBRANCH   1  25
TORSDOF 17
ENDMDL
