MODEL 1
REMARK VINA RESULT:     -12.3      0.000      0.000
REMARK SMILES O=C(Cc1c(C(=O)c2cc3c(cn2)CCCC3)[nH]c2cc(Cl)ccc12)OCCOC(=O)c1ccc(-c2c3nc(c(-c4ccc(S(=O)(=O)[O-])cc4)c4ccc([nH]4)c(-c4ccc(S(=O)(=O)[O-])cc4)c4nc(c(-c5ccc(S(=O)(=O)[O-])cc5)c5ccc2[nH]5)C=C4)C=C3)cc1
REMARK SMILES IDX 27 1 26 2 2 3 1 4 3 5 4 6 5 7 25 8 18 9 19 10 24 11 20 13
REMARK SMILES IDX 23 14 21 15 22 16 6 17 7 18 8 19 9 20 13 21 10 22 12 23
REMARK SMILES IDX 11 24 17 25 14 26 16 27 15 28 28 29 29 30 30 31 31 32 32 33
REMARK SMILES IDX 33 34 91 35 34 36 90 37 35 38 36 39 37 40 84 41 38 42 89 43
REMARK SMILES IDX 83 44 85 45 39 46 88 47 82 48 81 49 40 51 70 52 51 53 69 54
REMARK SMILES IDX 52 55 55 56 68 57 86 58 53 59 54 60 67 62 87 63 56 64 41 65
REMARK SMILES IDX 42 66 50 67 43 68 49 69 44 70 45 71 46 72 47 73 48 74 71 75
REMARK SMILES IDX 72 76 80 77 73 78 79 79 74 80 75 81 76 82 77 83 78 84 57 85
REMARK SMILES IDX 58 86 66 87 59 88 65 89 60 90 61 91 62 92 63 93 64 94
REMARK H PARENT 18 12 85 50 55 61
REMARK Flexibility Score: inf
ROOT
ATOM      1  C   UNL A   1      32.316  28.148  27.259  1.00  0.00     0.274 C 
ENDROOT
BRANCH   1   2
ATOM      2  O   UNL A   1      31.058  27.713  26.708  1.00  0.00    -0.462 OA
BRANCH   2   3
ATOM      3  C   UNL A   1      30.826  26.520  26.115  1.00  0.00     0.310 C 
ATOM      4  O   UNL A   1      31.028  25.478  26.742  1.00  0.00    -0.252 OA
BRANCH   3   5
ATOM      5  C   UNL A   1      30.453  26.459  24.657  1.00  0.00     0.161 C 
BRANCH   5   6
ATOM      6  C   UNL A   1      30.849  27.536  23.691  1.00  0.00     0.000 A 
ATOM      7  C   UNL A   1      32.104  27.984  23.288  1.00  0.00     0.093 A 
ATOM      8  C   UNL A   1      29.870  28.393  23.071  1.00  0.00     0.004 A 
ATOM      9  N   UNL A   1      31.886  29.022  22.399  1.00  0.00    -0.351 N 
ATOM     10  C   UNL A   1      30.552  29.330  22.307  1.00  0.00     0.048 A 
ATOM     11  C   UNL A   1      28.461  28.469  23.128  1.00  0.00     0.012 A 
ATOM     12  H   UNL A   1      32.598  29.480  21.896  1.00  0.00     0.167 HD
ATOM     13  C   UNL A   1      29.903  30.365  21.619  1.00  0.00     0.047 A 
ATOM     14  C   UNL A   1      27.791  29.498  22.458  1.00  0.00     0.021 A 
ATOM     15  C   UNL A   1      28.509  30.433  21.720  1.00  0.00     0.043 A 
ATOM     16  Cl  UNL A   1      27.666  31.695  20.907  1.00  0.00    -0.084 Cl
BRANCH   7  17
ATOM     17  C   UNL A   1      33.422  27.529  23.702  1.00  0.00     0.227 C 
ATOM     18  O   UNL A   1      34.368  28.270  23.945  1.00  0.00    -0.285 OA
BRANCH  17  19
ATOM     19  C   UNL A   1      33.687  26.082  23.765  1.00  0.00     0.113 A 
ATOM     20  C   UNL A   1      34.147  25.552  24.961  1.00  0.00     0.036 A 
ATOM     21  N   UNL A   1      33.431  25.364  22.645  1.00  0.00    -0.252 NA
ATOM     22  C   UNL A   1      34.331  24.174  25.036  1.00  0.00    -0.041 A 
ATOM     23  C   UNL A   1      33.589  24.030  22.755  1.00  0.00     0.115 A 
ATOM     24  C   UNL A   1      34.040  23.389  23.908  1.00  0.00    -0.026 A 
ATOM     25  C   UNL A   1      34.884  23.573  26.302  1.00  0.00     0.036 C 
ATOM     26  C   UNL A   1      34.121  21.888  23.951  1.00  0.00     0.037 C 
ATOM     27  C   UNL A   1      34.657  22.067  26.396  1.00  0.00     0.005 C 
ATOM     28  C   UNL A   1      35.016  21.383  25.081  1.00  0.00     0.005 C 
ENDBRANCH  17  19
ENDBRANCH   7  17
ENDBRANCH   5   6
ENDBRANCH   3   5
ENDBRANCH   2   3
ENDBRANCH   1   2
BRANCH   1  29
ATOM     29  C   UNL A   1      32.660  29.548  26.747  1.00  0.00     0.275 C 
BRANCH  29  30
ATOM     30  O   UNL A   1      34.083  29.737  26.827  1.00  0.00    -0.458 OA
BRANCH  30  31
ATOM     31  C   UNL A   1      34.530  30.652  27.723  1.00  0.00     0.338 C 
ATOM     32  O   UNL A   1      33.880  31.525  28.270  1.00  0.00    -0.246 OA
BRANCH  31  33
ATOM     33  C   UNL A   1      35.903  30.249  28.106  1.00  0.00     0.060 A 
ATOM     34  C   UNL A   1      36.936  30.224  27.162  1.00  0.00     0.016 A 
ATOM     35  C   UNL A   1      36.119  29.761  29.402  1.00  0.00     0.016 A 
ATOM     36  C   UNL A   1      38.182  29.705  27.514  1.00  0.00     0.010 A 
ATOM     37  C   UNL A   1      37.366  29.232  29.748  1.00  0.00     0.010 A 
ATOM     38  C   UNL A   1      38.407  29.208  28.808  1.00  0.00    -0.014 A 
BRANCH  38  39
ATOM     39  C   UNL A   1      39.786  28.858  29.220  1.00  0.00     0.031 A 
ATOM     40  C   UNL A   1      40.658  29.796  29.998  1.00  0.00     0.074 A 
ATOM     41  C   UNL A   1      40.228  27.629  28.896  1.00  0.00     0.049 A 
ATOM     42  N   UNL A   1      41.819  29.552  30.549  1.00  0.00    -0.248 NA
ATOM     43  C   UNL A   1      40.172  31.168  30.202  1.00  0.00     0.031 C 
ATOM     44  C   UNL A   1      39.457  26.638  28.142  1.00  0.00     0.029 A 
ATOM     45  N   UNL A   1      41.418  27.002  29.158  1.00  0.00    -0.354 N 
ATOM     46  C   UNL A   1      42.184  30.720  31.205  1.00  0.00     0.074 A 
ATOM     47  C   UNL A   1      41.138  31.688  30.955  1.00  0.00     0.031 C 
ATOM     48  C   UNL A   1      40.194  25.527  28.001  1.00  0.00     0.029 A 
ATOM     49  C   UNL A   1      41.492  25.733  28.635  1.00  0.00     0.049 A 
ATOM     50  H   UNL A   1      42.148  27.419  29.670  1.00  0.00     0.167 HD
ATOM     51  C   UNL A   1      43.292  30.949  31.950  1.00  0.00     0.031 A 
ATOM     52  C   UNL A   1      42.493  24.832  28.654  1.00  0.00     0.031 A 
ATOM     53  C   UNL A   1      44.354  29.990  32.138  1.00  0.00     0.049 A 
ATOM     54  C   UNL A   1      43.755  25.154  29.398  1.00  0.00     0.074 A 
ATOM     55  C   UNL A   1      45.494  30.123  32.913  1.00  0.00     0.029 A 
ATOM     56  N   UNL A   1      44.431  28.750  31.526  1.00  0.00    -0.354 N 
ATOM     57  N   UNL A   1      44.037  26.224  30.101  1.00  0.00    -0.248 NA
ATOM     58  C   UNL A   1      44.826  24.151  29.366  1.00  0.00     0.031 C 
ATOM     59  C   UNL A   1      46.296  28.998  32.709  1.00  0.00     0.029 A 
ATOM     60  C   UNL A   1      45.624  28.131  31.862  1.00  0.00     0.049 A 
ATOM     61  H   UNL A   1      43.740  28.364  30.939  1.00  0.00     0.167 HD
ATOM     62  C   UNL A   1      45.315  26.019  30.603  1.00  0.00     0.074 A 
ATOM     63  C   UNL A   1      45.747  24.718  30.137  1.00  0.00     0.031 C 
ATOM     64  C   UNL A   1      46.059  26.843  31.381  1.00  0.00     0.031 A 
BRANCH  51  65
ATOM     65  C   UNL A   1      43.442  32.273  32.652  1.00  0.00    -0.014 A 
ATOM     66  C   UNL A   1      43.059  32.400  33.999  1.00  0.00     0.010 A 
ATOM     67  C   UNL A   1      43.760  33.429  31.916  1.00  0.00     0.010 A 
ATOM     68  C   UNL A   1      42.944  33.664  34.587  1.00  0.00     0.020 A 
ATOM     69  C   UNL A   1      43.662  34.694  32.506  1.00  0.00     0.020 A 
ATOM     70  C   UNL A   1      43.227  34.804  33.830  1.00  0.00     0.054 A 
BRANCH  70  71
ATOM     71  S   UNL A   1      42.990  36.437  34.586  1.00  0.00     0.124 S 
ATOM     72  O   UNL A   1      41.710  36.281  35.269  1.00  0.00    -0.237 OA
ATOM     73  O   UNL A   1      44.159  36.559  35.453  1.00  0.00    -0.237 OA
ATOM     74  O   UNL A   1      42.979  37.347  33.442  1.00  0.00    -0.744 OA
ENDBRANCH  70  71
ENDBRANCH  51  65
BRANCH  52  75
ATOM     75  C   UNL A   1      42.309  23.544  27.937  1.00  0.00    -0.014 A 
ATOM     76  C   UNL A   1      41.717  22.452  28.600  1.00  0.00     0.010 A 
ATOM     77  C   UNL A   1      42.807  23.370  26.636  1.00  0.00     0.010 A 
ATOM     78  C   UNL A   1      41.666  21.197  27.994  1.00  0.00     0.020 A 
ATOM     79  C   UNL A   1      42.734  22.119  26.015  1.00  0.00     0.020 A 
ATOM     80  C   UNL A   1      42.189  21.035  26.710  1.00  0.00     0.054 A 
BRANCH  80  81
ATOM     81  S   UNL A   1      42.148  19.388  25.950  1.00  0.00     0.124 S 
ATOM     82  O   UNL A   1      42.676  18.551  27.024  1.00  0.00    -0.237 OA
ATOM     83  O   UNL A   1      40.730  19.207  25.649  1.00  0.00    -0.237 OA
ATOM     84  O   UNL A   1      43.015  19.532  24.783  1.00  0.00    -0.744 OA
ENDBRANCH  80  81
ENDBRANCH  52  75
BRANCH  64  85
ATOM     85  C   UNL A   1      47.440  26.395  31.777  1.00  0.00    -0.014 A 
ATOM     86  C   UNL A   1      48.539  26.699  30.953  1.00  0.00     0.010 A 
ATOM     87  C   UNL A   1      47.624  25.545  32.882  1.00  0.00     0.010 A 
ATOM     88  C   UNL A   1      49.788  26.122  31.197  1.00  0.00     0.020 A 
ATOM     89  C   UNL A   1      48.877  24.987  33.145  1.00  0.00     0.020 A 
ATOM     90  C   UNL A   1      49.944  25.256  32.282  1.00  0.00     0.054 A 
BRANCH  90  91
ATOM     91  S   UNL A   1      51.557  24.469  32.549  1.00  0.00     0.124 S 
ATOM     92  O   UNL A   1      51.926  24.966  33.871  1.00  0.00    -0.237 OA
ATOM     93  O   UNL A   1      51.237  23.046  32.478  1.00  0.00    -0.237 OA
ATOM     94  O   UNL A   1      52.371  24.972  31.444  1.00  0.00    -0.744 OA
ENDBRANCH  90  91
ENDBRANCH  64  85
ENDBRANCH  38  39
ENDBRANCH  31  33
ENDBRANCH  30  31
ENDBRANCH  29  30
ENDBRANCH   1  29
TORSDOF 17
ENDMDL
MODEL 2
REMARK VINA RESULT:     -12.3      0.444      7.927
REMARK SMILES O=C(Cc1c(C(=O)c2cc3c(cn2)CCCC3)[nH]c2cc(Cl)ccc12)OCCOC(=O)c1ccc(-c2c3nc(c(-c4ccc(S(=O)(=O)[O-])cc4)c4ccc([nH]4)c(-c4ccc(S(=O)(=O)[O-])cc4)c4nc(c(-c5ccc(S(=O)(=O)[O-])cc5)c5ccc2[nH]5)C=C4)C=C3)cc1
REMARK SMILES IDX 27 1 26 2 2 3 1 4 3 5 4 6 5 7 25 8 18 9 19 10 24 11 20 13
REMARK SMILES IDX 23 14 21 15 22 16 6 17 7 18 8 19 9 20 13 21 10 22 12 23
REMARK SMILES IDX 11 24 17 25 14 26 16 27 15 28 28 29 29 30 30 31 31 32 32 33
REMARK SMILES IDX 33 34 91 35 34 36 90 37 35 38 36 39 37 40 84 41 38 42 89 43
REMARK SMILES IDX 83 44 85 45 39 46 88 47 82 48 81 49 40 51 70 52 51 53 69 54
REMARK SMILES IDX 52 55 55 56 68 57 86 58 53 59 54 60 67 62 87 63 56 64 41 65
REMARK SMILES IDX 42 66 50 67 43 68 49 69 44 70 45 71 46 72 47 73 48 74 71 75
REMARK SMILES IDX 72 76 80 77 73 78 79 79 74 80 75 81 76 82 77 83 78 84 57 85
REMARK SMILES IDX 58 86 66 87 59 88 65 89 60 90 61 91 62 92 63 93 64 94
REMARK H PARENT 18 12 85 50 55 61
REMARK Flexibility Score: inf
ROOT
ATOM      1  C   UNL A   1      32.331  27.745  27.246  1.00  0.00     0.274 C 
ENDROOT
BRANCH   1   2
ATOM      2  O   UNL A   1      31.018  27.436  26.738  1.00  0.00    -0.462 OA
BRANCH   2   3
ATOM      3  C   UNL A   1      30.664  26.290  26.114  1.00  0.00     0.310 C 
ATOM      4  O   UNL A   1      30.818  25.210  26.690  1.00  0.00    -0.252 OA
BRANCH   3   5
ATOM      5  C   UNL A   1      30.208  26.318  24.679  1.00  0.00     0.161 C 
BRANCH   5   6
ATOM      6  C   UNL A   1      30.672  27.375  23.721  1.00  0.00     0.000 A 
ATOM      7  C   UNL A   1      31.954  27.772  23.349  1.00  0.00     0.093 A 
ATOM      8  C   UNL A   1      29.745  28.267  23.073  1.00  0.00     0.004 A 
ATOM      9  N   UNL A   1      31.800  28.814  22.452  1.00  0.00    -0.351 N 
ATOM     10  C   UNL A   1      30.482  29.174  22.324  1.00  0.00     0.048 A 
ATOM     11  C   UNL A   1      28.339  28.398  23.092  1.00  0.00     0.012 A 
ATOM     12  H   UNL A   1      32.543  29.242  21.967  1.00  0.00     0.167 HD
ATOM     13  C   UNL A   1      29.893  30.231  21.616  1.00  0.00     0.047 A 
ATOM     14  C   UNL A   1      27.727  29.450  22.402  1.00  0.00     0.021 A 
ATOM     15  C   UNL A   1      28.501  30.354  21.681  1.00  0.00     0.043 A 
ATOM     16  Cl  UNL A   1      27.729  31.645  20.842  1.00  0.00    -0.084 Cl
BRANCH   7  17
ATOM     17  C   UNL A   1      33.242  27.267  23.800  1.00  0.00     0.227 C 
ATOM     18  O   UNL A   1      34.208  27.972  24.071  1.00  0.00    -0.285 OA
BRANCH  17  19
ATOM     19  C   UNL A   1      33.450  25.811  23.868  1.00  0.00     0.113 A 
ATOM     20  C   UNL A   1      33.993  25.280  25.028  1.00  0.00     0.036 A 
ATOM     21  N   UNL A   1      33.065  25.087  22.789  1.00  0.00    -0.252 NA
ATOM     22  C   UNL A   1      34.125  23.897  25.113  1.00  0.00    -0.041 A 
ATOM     23  C   UNL A   1      33.176  23.750  22.911  1.00  0.00     0.115 A 
ATOM     24  C   UNL A   1      33.702  23.108  24.031  1.00  0.00    -0.026 A 
ATOM     25  C   UNL A   1      34.764  23.292  26.336  1.00  0.00     0.036 C 
ATOM     26  C   UNL A   1      33.723  21.606  24.096  1.00  0.00     0.037 C 
ATOM     27  C   UNL A   1      34.483  21.800  26.480  1.00  0.00     0.005 C 
ATOM     28  C   UNL A   1      34.693  21.080  25.151  1.00  0.00     0.005 C 
ENDBRANCH  17  19
ENDBRANCH   7  17
ENDBRANCH   5   6
ENDBRANCH   3   5
ENDBRANCH   2   3
ENDBRANCH   1   2
BRANCH   1  29
ATOM     29  C   UNL A   1      32.554  29.259  27.243  1.00  0.00     0.275 C 
BRANCH  29  30
ATOM     30  O   UNL A   1      33.926  29.526  26.908  1.00  0.00    -0.458 OA
BRANCH  30  31
ATOM     31  C   UNL A   1      34.525  30.558  27.555  1.00  0.00     0.338 C 
ATOM     32  O   UNL A   1      34.021  31.622  27.865  1.00  0.00    -0.246 OA
BRANCH  31  33
ATOM     33  C   UNL A   1      35.837  30.066  28.035  1.00  0.00     0.060 A 
ATOM     34  C   UNL A   1      36.029  29.719  29.377  1.00  0.00     0.016 A 
ATOM     35  C   UNL A   1      36.923  30.085  27.148  1.00  0.00     0.016 A 
ATOM     36  C   UNL A   1      37.308  29.396  29.832  1.00  0.00     0.010 A 
ATOM     37  C   UNL A   1      38.204  29.771  27.609  1.00  0.00     0.010 A 
ATOM     38  C   UNL A   1      38.403  29.418  28.953  1.00  0.00    -0.014 A 
BRANCH  38  39
ATOM     39  C   UNL A   1      39.705  28.873  29.404  1.00  0.00     0.031 A 
ATOM     40  C   UNL A   1      40.175  27.499  29.035  1.00  0.00     0.074 A 
ATOM     41  C   UNL A   1      40.484  29.685  30.142  1.00  0.00     0.049 A 
ATOM     42  N   UNL A   1      41.353  26.966  29.236  1.00  0.00    -0.248 NA
ATOM     43  C   UNL A   1      39.225  26.615  28.346  1.00  0.00     0.031 C 
ATOM     44  C   UNL A   1      40.121  31.043  30.554  1.00  0.00     0.029 A 
ATOM     45  N   UNL A   1      41.734  29.496  30.672  1.00  0.00    -0.354 N 
ATOM     46  C   UNL A   1      41.306  25.705  28.659  1.00  0.00     0.074 A 
ATOM     47  C   UNL A   1      39.970  25.534  28.129  1.00  0.00     0.031 C 
ATOM     48  C   UNL A   1      41.124  31.564  31.272  1.00  0.00     0.029 A 
ATOM     49  C   UNL A   1      42.191  30.575  31.389  1.00  0.00     0.049 A 
ATOM     50  H   UNL A   1      42.253  28.668  30.550  1.00  0.00     0.167 HD
ATOM     51  C   UNL A   1      42.297  24.785  28.579  1.00  0.00     0.031 A 
ATOM     52  C   UNL A   1      43.336  30.753  32.074  1.00  0.00     0.031 A 
ATOM     53  C   UNL A   1      43.604  24.949  29.167  1.00  0.00     0.049 A 
ATOM     54  C   UNL A   1      44.376  29.672  32.058  1.00  0.00     0.074 A 
ATOM     55  C   UNL A   1      44.683  24.084  29.098  1.00  0.00     0.029 A 
ATOM     56  N   UNL A   1      44.000  26.017  29.955  1.00  0.00    -0.354 N 
ATOM     57  N   UNL A   1      44.354  28.528  31.417  1.00  0.00    -0.248 NA
ATOM     58  C   UNL A   1      45.596  29.903  32.842  1.00  0.00     0.031 C 
ATOM     59  C   UNL A   1      45.703  24.592  29.906  1.00  0.00     0.029 A 
ATOM     60  C   UNL A   1      45.287  25.809  30.422  1.00  0.00     0.049 A 
ATOM     61  H   UNL A   1      43.448  26.810  30.153  1.00  0.00     0.167 HD
ATOM     62  C   UNL A   1      45.559  27.907  31.712  1.00  0.00     0.074 A 
ATOM     63  C   UNL A   1      46.296  28.806  32.577  1.00  0.00     0.031 C 
ATOM     64  C   UNL A   1      46.009  26.697  31.299  1.00  0.00     0.031 A 
BRANCH  51  65
ATOM     65  C   UNL A   1      42.050  23.507  27.821  1.00  0.00    -0.014 A 
ATOM     66  C   UNL A   1      41.404  22.429  28.454  1.00  0.00     0.010 A 
ATOM     67  C   UNL A   1      42.646  23.307  26.563  1.00  0.00     0.010 A 
ATOM     68  C   UNL A   1      41.399  21.161  27.865  1.00  0.00     0.020 A 
ATOM     69  C   UNL A   1      42.628  22.043  25.963  1.00  0.00     0.020 A 
ATOM     70  C   UNL A   1      42.029  20.972  26.632  1.00  0.00     0.054 A 
BRANCH  70  71
ATOM     71  S   UNL A   1      42.084  19.301  25.925  1.00  0.00     0.124 S 
ATOM     72  O   UNL A   1      42.627  18.514  27.028  1.00  0.00    -0.237 OA
ATOM     73  O   UNL A   1      40.683  19.048  25.597  1.00  0.00    -0.237 OA
ATOM     74  O   UNL A   1      42.967  19.446  24.769  1.00  0.00    -0.744 OA
ENDBRANCH  70  71
ENDBRANCH  51  65
BRANCH  52  75
ATOM     75  C   UNL A   1      43.534  32.022  32.820  1.00  0.00    -0.014 A 
ATOM     76  C   UNL A   1      43.042  32.146  34.134  1.00  0.00     0.010 A 
ATOM     77  C   UNL A   1      44.120  33.136  32.199  1.00  0.00     0.010 A 
ATOM     78  C   UNL A   1      43.090  33.373  34.796  1.00  0.00     0.020 A 
ATOM     79  C   UNL A   1      44.194  34.360  32.870  1.00  0.00     0.020 A 
ATOM     80  C   UNL A   1      43.654  34.477  34.154  1.00  0.00     0.054 A 
BRANCH  80  81
ATOM     81  S   UNL A   1      43.676  36.072  35.016  1.00  0.00     0.124 S 
ATOM     82  O   UNL A   1      42.297  36.521  34.848  1.00  0.00    -0.237 OA
ATOM     83  O   UNL A   1      44.056  35.699  36.376  1.00  0.00    -0.237 OA
ATOM     84  O   UNL A   1      44.679  36.840  34.281  1.00  0.00    -0.744 OA
ENDBRANCH  80  81
ENDBRANCH  52  75
BRANCH  64  85
ATOM     85  C   UNL A   1      47.357  26.234  31.784  1.00  0.00    -0.014 A 
ATOM     86  C   UNL A   1      48.465  26.270  30.917  1.00  0.00     0.010 A 
ATOM     87  C   UNL A   1      47.490  25.625  33.044  1.00  0.00     0.010 A 
ATOM     88  C   UNL A   1      49.668  25.661  31.280  1.00  0.00     0.020 A 
ATOM     89  C   UNL A   1      48.700  25.038  33.422  1.00  0.00     0.020 A 
ATOM     90  C   UNL A   1      49.772  25.034  32.524  1.00  0.00     0.054 A 
BRANCH  90  91
ATOM     91  S   UNL A   1      51.323  24.196  32.955  1.00  0.00     0.124 S 
ATOM     92  O   UNL A   1      51.077  23.786  34.334  1.00  0.00    -0.237 OA
ATOM     93  O   UNL A   1      51.386  23.112  31.977  1.00  0.00    -0.237 OA
ATOM     94  O   UNL A   1      52.334  25.238  32.785  1.00  0.00    -0.744 OA
ENDBRANCH  90  91
ENDBRANCH  64  85
ENDBRANCH  38  39
ENDBRANCH  31  33
ENDBRANCH  30  31
ENDBRANCH  29  30
ENDBRANCH   1  29
TORSDOF 17
ENDMDL
MODEL 3
REMARK VINA RESULT:     -12.3      1.689      8.845
REMARK SMILES O=C(Cc1c(C(=O)c2cc3c(cn2)CCCC3)[nH]c2cc(Cl)ccc12)OCCOC(=O)c1ccc(-c2c3nc(c(-c4ccc(S(=O)(=O)[O-])cc4)c4ccc([nH]4)c(-c4ccc(S(=O)(=O)[O-])cc4)c4nc(c(-c5ccc(S(=O)(=O)[O-])cc5)c5ccc2[nH]5)C=C4)C=C3)cc1
REMARK SMILES IDX 27 1 26 2 2 3 1 4 3 5 4 6 5 7 25 8 18 9 19 10 24 11 20 13
REMARK SMILES IDX 23 14 21 15 22 16 6 17 7 18 8 19 9 20 13 21 10 22 12 23
REMARK SMILES IDX 11 24 17 25 14 26 16 27 15 28 28 29 29 30 30 31 31 32 32 33
REMARK SMILES IDX 33 34 91 35 34 36 90 37 35 38 36 39 37 40 84 41 38 42 89 43
REMARK SMILES IDX 83 44 85 45 39 46 88 47 82 48 81 49 40 51 70 52 51 53 69 54
REMARK SMILES IDX 52 55 55 56 68 57 86 58 53 59 54 60 67 62 87 63 56 64 41 65
REMARK SMILES IDX 42 66 50 67 43 68 49 69 44 70 45 71 46 72 47 73 48 74 71 75
REMARK SMILES IDX 72 76 80 77 73 78 79 79 74 80 75 81 76 82 77 83 78 84 57 85
REMARK SMILES IDX 58 86 66 87 59 88 65 89 60 90 61 91 62 92 63 93 64 94
REMARK H PARENT 18 12 85 50 55 61
REMARK Flexibility Score: inf
ROOT
ATOM      1  C   UNL A   1      31.741  29.114  26.497  1.00  0.00     0.274 C 
ENDROOT
BRANCH   1   2
ATOM      2  O   UNL A   1      32.239  27.923  27.136  1.00  0.00    -0.462 OA
BRANCH   2   3
ATOM      3  C   UNL A   1      32.343  26.703  26.561  1.00  0.00     0.310 C 
ATOM      4  O   UNL A   1      31.444  25.874  26.723  1.00  0.00    -0.252 OA
BRANCH   3   5
ATOM      5  C   UNL A   1      33.606  26.311  25.839  1.00  0.00     0.161 C 
BRANCH   5   6
ATOM      6  C   UNL A   1      33.606  25.291  24.739  1.00  0.00     0.000 A 
ATOM      7  C   UNL A   1      33.313  25.410  23.383  1.00  0.00     0.093 A 
ATOM      8  C   UNL A   1      33.845  23.895  25.003  1.00  0.00     0.004 A 
ATOM      9  N   UNL A   1      33.444  24.145  22.838  1.00  0.00    -0.351 N 
ATOM     10  C   UNL A   1      33.695  23.207  23.807  1.00  0.00     0.048 A 
ATOM     11  C   UNL A   1      34.138  23.157  26.171  1.00  0.00     0.012 A 
ATOM     12  H   UNL A   1      33.367  23.945  21.877  1.00  0.00     0.167 HD
ATOM     13  C   UNL A   1      33.792  21.811  23.717  1.00  0.00     0.047 A 
ATOM     14  C   UNL A   1      34.230  21.762  26.109  1.00  0.00     0.021 A 
ATOM     15  C   UNL A   1      34.052  21.105  24.897  1.00  0.00     0.043 A 
ATOM     16  Cl  UNL A   1      34.164  19.387  24.843  1.00  0.00    -0.084 Cl
BRANCH   7  17
ATOM     17  C   UNL A   1      32.905  26.585  22.628  1.00  0.00     0.227 C 
ATOM     18  O   UNL A   1      33.636  27.212  21.871  1.00  0.00    -0.285 OA
BRANCH  17  19
ATOM     19  C   UNL A   1      31.549  27.124  22.831  1.00  0.00     0.113 A 
ATOM     20  C   UNL A   1      31.269  28.392  22.344  1.00  0.00     0.036 A 
ATOM     21  N   UNL A   1      30.659  26.321  23.461  1.00  0.00    -0.252 NA
ATOM     22  C   UNL A   1      29.969  28.870  22.478  1.00  0.00    -0.041 A 
ATOM     23  C   UNL A   1      29.401  26.796  23.550  1.00  0.00     0.115 A 
ATOM     24  C   UNL A   1      29.006  28.052  23.091  1.00  0.00    -0.026 A 
ATOM     25  C   UNL A   1      29.645  30.265  22.010  1.00  0.00     0.036 C 
ATOM     26  C   UNL A   1      27.563  28.464  23.179  1.00  0.00     0.037 C 
ATOM     27  C   UNL A   1      28.148  30.506  21.843  1.00  0.00     0.005 C 
ATOM     28  C   UNL A   1      27.377  29.975  23.047  1.00  0.00     0.005 C 
ENDBRANCH  17  19
ENDBRANCH   7  17
ENDBRANCH   5   6
ENDBRANCH   3   5
ENDBRANCH   2   3
ENDBRANCH   1   2
BRANCH   1  29
ATOM     29  C   UNL A   1      32.905  29.973  26.001  1.00  0.00     0.275 C 
BRANCH  29  30
ATOM     30  O   UNL A   1      34.092  29.613  26.729  1.00  0.00    -0.458 OA
BRANCH  30  31
ATOM     31  C   UNL A   1      34.540  30.503  27.649  1.00  0.00     0.338 C 
ATOM     32  O   UNL A   1      33.908  31.404  28.170  1.00  0.00    -0.246 OA
BRANCH  31  33
ATOM     33  C   UNL A   1      35.874  30.034  28.092  1.00  0.00     0.060 A 
ATOM     34  C   UNL A   1      36.107  29.679  29.425  1.00  0.00     0.016 A 
ATOM     35  C   UNL A   1      36.937  30.084  27.179  1.00  0.00     0.016 A 
ATOM     36  C   UNL A   1      37.403  29.379  29.845  1.00  0.00     0.010 A 
ATOM     37  C   UNL A   1      38.236  29.794  27.605  1.00  0.00     0.010 A 
ATOM     38  C   UNL A   1      38.475  29.431  28.940  1.00  0.00    -0.014 A 
BRANCH  38  39
ATOM     39  C   UNL A   1      39.799  28.910  29.353  1.00  0.00     0.031 A 
ATOM     40  C   UNL A   1      40.269  27.532  28.999  1.00  0.00     0.074 A 
ATOM     41  C   UNL A   1      40.598  29.746  30.041  1.00  0.00     0.049 A 
ATOM     42  N   UNL A   1      41.459  27.015  29.167  1.00  0.00    -0.248 NA
ATOM     43  C   UNL A   1      39.302  26.622  28.368  1.00  0.00     0.031 C 
ATOM     44  C   UNL A   1      40.236  31.111  30.434  1.00  0.00     0.029 A 
ATOM     45  N   UNL A   1      41.869  29.582  30.526  1.00  0.00    -0.354 N 
ATOM     46  C   UNL A   1      41.402  25.739  28.622  1.00  0.00     0.074 A 
ATOM     47  C   UNL A   1      40.049  25.544  28.148  1.00  0.00     0.031 C 
ATOM     48  C   UNL A   1      41.261  31.658  31.100  1.00  0.00     0.029 A 
ATOM     49  C   UNL A   1      42.342  30.682  31.199  1.00  0.00     0.049 A 
ATOM     50  H   UNL A   1      42.392  28.756  30.404  1.00  0.00     0.167 HD
ATOM     51  C   UNL A   1      42.399  24.827  28.526  1.00  0.00     0.031 A 
ATOM     52  C   UNL A   1      43.511  30.888  31.835  1.00  0.00     0.031 A 
ATOM     53  C   UNL A   1      43.726  25.017  29.059  1.00  0.00     0.049 A 
ATOM     54  C   UNL A   1      44.560  29.816  31.805  1.00  0.00     0.074 A 
ATOM     55  C   UNL A   1      44.810  24.162  28.969  1.00  0.00     0.029 A 
ATOM     56  N   UNL A   1      44.140  26.108  29.805  1.00  0.00    -0.354 N 
ATOM     57  N   UNL A   1      44.525  28.657  31.192  1.00  0.00    -0.248 NA
ATOM     58  C   UNL A   1      45.807  30.077  32.535  1.00  0.00     0.031 C 
ATOM     59  C   UNL A   1      45.855  24.698  29.725  1.00  0.00     0.029 A 
ATOM     60  C   UNL A   1      45.447  25.923  30.227  1.00  0.00     0.049 A 
ATOM     61  H   UNL A   1      43.589  26.900  30.005  1.00  0.00     0.167 HD
ATOM     62  C   UNL A   1      45.747  28.054  31.455  1.00  0.00     0.074 A 
ATOM     63  C   UNL A   1      46.507  28.980  32.269  1.00  0.00     0.031 C 
ATOM     64  C   UNL A   1      46.193  26.839  31.054  1.00  0.00     0.031 A 
BRANCH  51  65
ATOM     65  C   UNL A   1      42.136  23.529  27.809  1.00  0.00    -0.014 A 
ATOM     66  C   UNL A   1      41.660  22.416  28.525  1.00  0.00     0.010 A 
ATOM     67  C   UNL A   1      42.562  23.359  26.479  1.00  0.00     0.010 A 
ATOM     68  C   UNL A   1      41.659  21.145  27.941  1.00  0.00     0.020 A 
ATOM     69  C   UNL A   1      42.547  22.092  25.886  1.00  0.00     0.020 A 
ATOM     70  C   UNL A   1      42.122  20.988  26.632  1.00  0.00     0.054 A 
BRANCH  70  71
ATOM     71  S   UNL A   1      42.192  19.319  25.922  1.00  0.00     0.124 S 
ATOM     72  O   UNL A   1      42.731  18.533  27.028  1.00  0.00    -0.237 OA
ATOM     73  O   UNL A   1      40.795  19.059  25.584  1.00  0.00    -0.237 OA
ATOM     74  O   UNL A   1      43.082  19.471  24.773  1.00  0.00    -0.744 OA
ENDBRANCH  70  71
ENDBRANCH  51  65
BRANCH  52  75
ATOM     75  C   UNL A   1      43.724  32.176  32.543  1.00  0.00    -0.014 A 
ATOM     76  C   UNL A   1      43.264  32.333  33.864  1.00  0.00     0.010 A 
ATOM     77  C   UNL A   1      44.292  33.274  31.878  1.00  0.00     0.010 A 
ATOM     78  C   UNL A   1      43.326  33.578  34.493  1.00  0.00     0.020 A 
ATOM     79  C   UNL A   1      44.380  34.516  32.515  1.00  0.00     0.020 A 
ATOM     80  C   UNL A   1      43.871  34.665  33.808  1.00  0.00     0.054 A 
BRANCH  80  81
ATOM     81  S   UNL A   1      43.912  36.283  34.627  1.00  0.00     0.124 S 
ATOM     82  O   UNL A   1      44.950  36.975  33.868  1.00  0.00    -0.237 OA
ATOM     83  O   UNL A   1      42.552  36.778  34.431  1.00  0.00    -0.237 OA
ATOM     84  O   UNL A   1      44.258  35.955  36.008  1.00  0.00    -0.744 OA
ENDBRANCH  80  81
ENDBRANCH  52  75
BRANCH  64  85
ATOM     85  C   UNL A   1      47.563  26.401  31.497  1.00  0.00    -0.014 A 
ATOM     86  C   UNL A   1      48.676  26.628  30.666  1.00  0.00     0.010 A 
ATOM     87  C   UNL A   1      47.722  25.632  32.663  1.00  0.00     0.010 A 
ATOM     88  C   UNL A   1      49.913  26.052  30.966  1.00  0.00     0.020 A 
ATOM     89  C   UNL A   1      48.965  25.076  32.981  1.00  0.00     0.020 A 
ATOM     90  C   UNL A   1      50.045  25.266  32.113  1.00  0.00     0.054 A 
BRANCH  90  91
ATOM     91  S   UNL A   1      51.642  24.478  32.455  1.00  0.00     0.124 S 
ATOM     92  O   UNL A   1      51.354  23.072  32.189  1.00  0.00    -0.237 OA
ATOM     93  O   UNL A   1      52.535  25.130  31.499  1.00  0.00    -0.237 OA
ATOM     94  O   UNL A   1      51.895  24.809  33.856  1.00  0.00    -0.744 OA
ENDBRANCH  90  91
ENDBRANCH  64  85
ENDBRANCH  38  39
ENDBRANCH  31  33
ENDBRANCH  30  31
ENDBRANCH  29  30
ENDBRANCH   1  29
TORSDOF 17
ENDMDL
