MODEL 1
REMARK VINA RESULT:     -13.9      0.000      0.000
REMARK SMILES Cc1ccccc1OCC(=O)N[C@@H](Cc1c[nH]c2ccccc12)C(=O)OCCOC(=O)c1ccc(-c2c3nc(c(-c4ccc(S(=O)(=O)[O-])cc4)c4ccc([nH]4)c(-c4ccc(S(=O)(=O)[O-])cc4)c4nc(c(-c5ccc(S(=O)(=O)[O-])cc5)c5ccc2[nH]5)C=C4)C=C3)cc1
REMARK SMILES IDX 27 1 26 2 24 3 25 4 13 5 12 6 10 7 11 8 9 10 8 11 7 12 1 13
REMARK SMILES IDX 2 14 3 15 4 16 6 17 5 18 14 19 15 20 16 21 23 22 17 23 18 24
REMARK SMILES IDX 22 25 19 27 21 28 20 29 28 30 29 31 30 32 31 33 32 34 33 35
REMARK SMILES IDX 91 36 34 37 90 38 35 39 36 40 37 41 84 42 38 43 89 44 83 45
REMARK SMILES IDX 85 46 39 47 88 48 82 49 81 50 40 52 70 53 51 54 69 55 52 56
REMARK SMILES IDX 55 57 68 58 86 59 53 60 54 61 67 63 87 64 56 65 41 66 42 67
REMARK SMILES IDX 50 68 43 69 49 70 44 71 45 72 46 73 47 74 48 75 71 76 72 77
REMARK SMILES IDX 80 78 73 79 79 80 74 81 75 82 76 83 77 84 78 85 57 86 58 87
REMARK SMILES IDX 66 88 59 89 65 90 60 91 61 92 62 93 63 94 64 95
REMARK H PARENT 12 9 17 26 85 51 55 62
REMARK Flexibility Score: inf
ROOT
ATOM      1  C   UNL A   1      35.904  29.133  27.604  1.00  0.00     0.274 C 
ENDROOT
BRANCH   1   2
ATOM      2  O   UNL A   1      34.681  28.975  26.829  1.00  0.00    -0.461 OA
BRANCH   2   3
ATOM      3  C   UNL A   1      33.535  28.271  26.901  1.00  0.00     0.329 C 
ATOM      4  O   UNL A   1      32.679  28.815  27.587  1.00  0.00    -0.250 OA
BRANCH   3   5
ATOM      5  C   UNL A   1      33.003  26.960  26.191  1.00  0.00     0.196 C 
BRANCH   5   6
ATOM      6  N   UNL A   1      31.544  25.565  26.927  1.00  0.00    -0.339 N 
ATOM      7  C   UNL A   1      31.289  24.030  26.810  1.00  0.00     0.258 C 
ATOM      8  O   UNL A   1      30.157  23.635  27.121  1.00  0.00    -0.271 OA
ATOM      9  H   UNL A   1      30.861  26.008  27.482  1.00  0.00     0.164 HD
BRANCH   7  10
ATOM     10  C   UNL A   1      32.429  22.878  26.272  1.00  0.00     0.329 C 
BRANCH  10  11
ATOM     11  O   UNL A   1      33.270  22.988  25.115  1.00  0.00    -0.484 OA
BRANCH  11  12
ATOM     12  C   UNL A   1      34.602  22.694  25.122  1.00  0.00     0.122 A 
ATOM     13  C   UNL A   1      34.512  20.121  24.810  1.00  0.00     0.048 C 
ATOM     14  C   UNL A   1      35.196  21.446  24.930  1.00  0.00    -0.009 A 
ATOM     15  C   UNL A   1      36.604  21.369  24.859  1.00  0.00     0.007 A 
ATOM     16  C   UNL A   1      37.424  22.474  25.061  1.00  0.00     0.001 A 
ATOM     17  C   UNL A   1      35.446  23.799  25.408  1.00  0.00     0.047 A 
ATOM     18  C   UNL A   1      36.845  23.692  25.369  1.00  0.00     0.004 A 
ENDBRANCH  11  12
ENDBRANCH  10  11
ENDBRANCH   7  10
ENDBRANCH   5   6
BRANCH   5  19
ATOM     19  C   UNL A   1      33.103  26.538  24.126  1.00  0.00     0.074 C 
BRANCH  19  20
ATOM     20  C   UNL A   1      31.847  27.659  23.040  1.00  0.00    -0.020 A 
ATOM     21  C   UNL A   1      32.329  28.852  22.320  1.00  0.00     0.087 A 
ATOM     22  C   UNL A   1      30.359  28.095  22.971  1.00  0.00     0.003 A 
ATOM     23  N   UNL A   1      31.461  29.792  21.966  1.00  0.00    -0.361 N 
ATOM     24  C   UNL A   1      30.245  29.338  22.263  1.00  0.00     0.046 A 
ATOM     25  C   UNL A   1      29.098  27.663  23.434  1.00  0.00     0.010 A 
ATOM     26  H   UNL A   1      31.677  30.662  21.560  1.00  0.00     0.166 HD
ATOM     27  C   UNL A   1      29.114  30.074  21.933  1.00  0.00     0.026 A 
ATOM     28  C   UNL A   1      27.908  28.383  23.072  1.00  0.00     0.001 A 
ATOM     29  C   UNL A   1      27.914  29.554  22.316  1.00  0.00     0.002 A 
ENDBRANCH  19  20
ENDBRANCH   5  19
ENDBRANCH   3   5
ENDBRANCH   2   3
ENDBRANCH   1   2
BRANCH   1  30
ATOM     30  C   UNL A   1      36.031  30.553  28.237  1.00  0.00     0.275 C 
BRANCH  30  31
ATOM     31  O   UNL A   1      36.816  30.767  29.494  1.00  0.00    -0.458 OA
BRANCH  31  32
ATOM     32  C   UNL A   1      37.004  30.077  30.677  1.00  0.00     0.338 C 
ATOM     33  O   UNL A   1      36.067  29.678  31.358  1.00  0.00    -0.246 OA
BRANCH  32  34
ATOM     34  C   UNL A   1      38.358  29.577  30.948  1.00  0.00     0.060 A 
ATOM     35  C   UNL A   1      39.555  30.002  32.202  1.00  0.00     0.016 A 
ATOM     36  C   UNL A   1      38.590  28.182  29.936  1.00  0.00     0.016 A 
ATOM     37  C   UNL A   1      40.996  28.789  32.338  1.00  0.00     0.010 A 
ATOM     38  C   UNL A   1      39.926  27.392  29.698  1.00  0.00     0.010 A 
ATOM     39  C   UNL A   1      41.143  27.682  30.680  1.00  0.00    -0.014 A 
BRANCH  39  40
ATOM     40  C   UNL A   1      42.380  28.103  29.212  1.00  0.00     0.031 A 
ATOM     41  C   UNL A   1      43.784  27.000  28.961  1.00  0.00     0.074 A 
ATOM     42  C   UNL A   1      42.737  29.164  28.307  1.00  0.00     0.049 A 
ATOM     43  N   UNL A   1      43.850  26.476  27.777  1.00  0.00    -0.248 NA
ATOM     44  C   UNL A   1      44.646  26.130  29.925  1.00  0.00     0.031 C 
ATOM     45  C   UNL A   1      43.448  28.982  26.990  1.00  0.00     0.029 A 
ATOM     46  N   UNL A   1      42.681  30.580  28.189  1.00  0.00    -0.354 N 
ATOM     47  C   UNL A   1      44.437  25.247  27.873  1.00  0.00     0.074 A 
ATOM     48  C   UNL A   1      44.757  24.977  29.240  1.00  0.00     0.031 C 
ATOM     49  C   UNL A   1      44.026  30.122  26.561  1.00  0.00     0.029 A 
ATOM     50  C   UNL A   1      43.855  31.086  27.603  1.00  0.00     0.049 A 
ATOM     51  H   UNL A   1      41.920  31.134  28.480  1.00  0.00     0.167 HD
ATOM     52  C   UNL A   1      45.042  24.742  26.790  1.00  0.00     0.031 A 
ATOM     53  C   UNL A   1      44.820  31.941  28.093  1.00  0.00     0.031 A 
ATOM     54  C   UNL A   1      45.630  25.836  26.060  1.00  0.00     0.049 A 
ATOM     55  C   UNL A   1      46.196  31.349  27.827  1.00  0.00     0.074 A 
ATOM     56  C   UNL A   1      45.231  26.661  25.030  1.00  0.00     0.029 A 
ATOM     57  N   UNL A   1      46.601  26.526  26.766  1.00  0.00    -0.354 N 
ATOM     58  N   UNL A   1      46.347  30.062  27.650  1.00  0.00    -0.248 NA
ATOM     59  C   UNL A   1      47.463  32.070  27.695  1.00  0.00     0.031 C 
ATOM     60  C   UNL A   1      46.014  27.857  25.129  1.00  0.00     0.029 A 
ATOM     61  C   UNL A   1      46.882  27.743  26.207  1.00  0.00     0.049 A 
ATOM     62  H   UNL A   1      47.038  26.180  27.578  1.00  0.00     0.167 HD
ATOM     63  C   UNL A   1      47.615  29.795  27.231  1.00  0.00     0.074 A 
ATOM     64  C   UNL A   1      48.301  31.071  27.350  1.00  0.00     0.031 C 
ATOM     65  C   UNL A   1      47.960  28.553  26.780  1.00  0.00     0.031 A 
BRANCH  52  66
ATOM     66  C   UNL A   1      44.858  23.329  26.383  1.00  0.00    -0.014 A 
ATOM     67  C   UNL A   1      45.956  22.715  25.773  1.00  0.00     0.010 A 
ATOM     68  C   UNL A   1      43.629  22.623  26.411  1.00  0.00     0.010 A 
ATOM     69  C   UNL A   1      45.849  21.457  25.189  1.00  0.00     0.020 A 
ATOM     70  C   UNL A   1      43.518  21.342  25.839  1.00  0.00     0.020 A 
ATOM     71  C   UNL A   1      44.635  20.776  25.224  1.00  0.00     0.054 A 
BRANCH  71  72
ATOM     72  S   UNL A   1      44.576  19.150  24.431  1.00  0.00     0.124 S 
ATOM     73  O   UNL A   1      43.417  18.534  25.074  1.00  0.00    -0.237 OA
ATOM     74  O   UNL A   1      44.402  19.498  23.023  1.00  0.00    -0.237 OA
ATOM     75  O   UNL A   1      45.863  18.547  24.767  1.00  0.00    -0.744 OA
ENDBRANCH  71  72
ENDBRANCH  52  66
BRANCH  53  76
ATOM     76  C   UNL A   1      44.506  32.868  29.235  1.00  0.00    -0.014 A 
ATOM     77  C   UNL A   1      43.308  33.618  29.178  1.00  0.00     0.010 A 
ATOM     78  C   UNL A   1      45.114  32.683  30.495  1.00  0.00     0.010 A 
ATOM     79  C   UNL A   1      42.595  33.927  30.350  1.00  0.00     0.020 A 
ATOM     80  C   UNL A   1      44.411  33.016  31.681  1.00  0.00     0.020 A 
ATOM     81  C   UNL A   1      43.120  33.566  31.595  1.00  0.00     0.054 A 
BRANCH  81  82
ATOM     82  S   UNL A   1      41.938  33.366  32.991  1.00  0.00     0.124 S 
ATOM     83  O   UNL A   1      42.192  31.996  33.420  1.00  0.00    -0.237 OA
ATOM     84  O   UNL A   1      42.354  34.401  33.936  1.00  0.00    -0.237 OA
ATOM     85  O   UNL A   1      40.636  33.603  32.371  1.00  0.00    -0.744 OA
ENDBRANCH  81  82
ENDBRANCH  53  76
BRANCH  65  86
ATOM     86  C   UNL A   1      49.357  27.972  26.807  1.00  0.00    -0.014 A 
ATOM     87  C   UNL A   1      50.177  27.832  25.686  1.00  0.00     0.010 A 
ATOM     88  C   UNL A   1      49.938  27.602  28.050  1.00  0.00     0.010 A 
ATOM     89  C   UNL A   1      51.457  27.280  25.782  1.00  0.00     0.020 A 
ATOM     90  C   UNL A   1      51.233  27.114  28.174  1.00  0.00     0.020 A 
ATOM     91  C   UNL A   1      51.973  26.921  27.024  1.00  0.00     0.054 A 
BRANCH  91  92
ATOM     92  S   UNL A   1      53.602  26.169  27.100  1.00  0.00     0.124 S 
ATOM     93  O   UNL A   1      53.803  26.045  28.542  1.00  0.00    -0.237 OA
ATOM     94  O   UNL A   1      53.394  24.915  26.381  1.00  0.00    -0.237 OA
ATOM     95  O   UNL A   1      54.466  27.135  26.428  1.00  0.00    -0.744 OA
ENDBRANCH  91  92
ENDBRANCH  65  86
ENDBRANCH  39  40
ENDBRANCH  32  34
ENDBRANCH  31  32
ENDBRANCH  30  31
ENDBRANCH   1  30
TORSDOF 20
ENDMDL
MODEL 2
REMARK VINA RESULT:     -13.3      1.276      4.386
REMARK SMILES Cc1ccccc1OCC(=O)N[C@@H](Cc1c[nH]c2ccccc12)C(=O)OCCOC(=O)c1ccc(-c2c3nc(c(-c4ccc(S(=O)(=O)[O-])cc4)c4ccc([nH]4)c(-c4ccc(S(=O)(=O)[O-])cc4)c4nc(c(-c5ccc(S(=O)(=O)[O-])cc5)c5ccc2[nH]5)C=C4)C=C3)cc1
REMARK SMILES IDX 27 1 26 2 24 3 25 4 13 5 12 6 10 7 11 8 9 10 8 11 7 12 1 13
REMARK SMILES IDX 2 14 3 15 4 16 6 17 5 18 14 19 15 20 16 21 23 22 17 23 18 24
REMARK SMILES IDX 22 25 19 27 21 28 20 29 28 30 29 31 30 32 31 33 32 34 33 35
REMARK SMILES IDX 91 36 34 37 90 38 35 39 36 40 37 41 84 42 38 43 89 44 83 45
REMARK SMILES IDX 85 46 39 47 88 48 82 49 81 50 40 52 70 53 51 54 69 55 52 56
REMARK SMILES IDX 55 57 68 58 86 59 53 60 54 61 67 63 87 64 56 65 41 66 42 67
REMARK SMILES IDX 50 68 43 69 49 70 44 71 45 72 46 73 47 74 48 75 71 76 72 77
REMARK SMILES IDX 80 78 73 79 79 80 74 81 75 82 76 83 77 84 78 85 57 86 58 87
REMARK SMILES IDX 66 88 59 89 65 90 60 91 61 92 62 93 63 94 64 95
REMARK H PARENT 12 9 17 26 85 51 55 62
REMARK Flexibility Score: inf
ROOT
ATOM      1  C   UNL A   1      35.743  29.389  28.309  1.00  0.00     0.274 C 
ENDROOT
BRANCH   1   2
ATOM      2  O   UNL A   1      35.100  29.383  27.002  1.00  0.00    -0.461 OA
BRANCH   2   3
ATOM      3  C   UNL A   1      33.849  29.337  26.503  1.00  0.00     0.329 C 
ATOM      4  O   UNL A   1      33.275  30.418  26.545  1.00  0.00    -0.250 OA
BRANCH   3   5
ATOM      5  C   UNL A   1      33.003  28.228  25.756  1.00  0.00     0.196 C 
BRANCH   5   6
ATOM      6  N   UNL A   1      33.332  27.422  23.792  1.00  0.00    -0.339 N 
ATOM      7  C   UNL A   1      32.440  26.923  22.612  1.00  0.00     0.258 C 
ATOM      8  O   UNL A   1      33.003  26.232  21.752  1.00  0.00    -0.271 OA
ATOM      9  H   UNL A   1      34.291  27.350  23.581  1.00  0.00     0.164 HD
BRANCH   7  10
ATOM     10  C   UNL A   1      30.771  27.235  22.435  1.00  0.00     0.329 C 
BRANCH  10  11
ATOM     11  O   UNL A   1      30.181  28.395  21.830  1.00  0.00    -0.484 OA
BRANCH  11  12
ATOM     12  C   UNL A   1      29.836  29.515  22.529  1.00  0.00     0.122 A 
ATOM     13  C   UNL A   1      28.083  30.545  20.919  1.00  0.00     0.048 C 
ATOM     14  C   UNL A   1      28.869  30.461  22.189  1.00  0.00    -0.009 A 
ATOM     15  C   UNL A   1      28.578  31.493  23.108  1.00  0.00     0.007 A 
ATOM     16  C   UNL A   1      29.280  31.654  24.298  1.00  0.00     0.001 A 
ATOM     17  C   UNL A   1      30.602  29.733  23.704  1.00  0.00     0.047 A 
ATOM     18  C   UNL A   1      30.321  30.789  24.585  1.00  0.00     0.004 A 
ENDBRANCH  11  12
ENDBRANCH  10  11
ENDBRANCH   7  10
ENDBRANCH   5   6
BRANCH   5  19
ATOM     19  C   UNL A   1      31.723  26.819  26.668  1.00  0.00     0.074 C 
BRANCH  19  20
ATOM     20  C   UNL A   1      32.302  24.927  26.361  1.00  0.00    -0.020 A 
ATOM     21  C   UNL A   1      31.497  23.799  26.864  1.00  0.00     0.087 A 
ATOM     22  C   UNL A   1      33.578  24.063  26.172  1.00  0.00     0.003 A 
ATOM     23  N   UNL A   1      32.070  22.612  27.025  1.00  0.00    -0.361 N 
ATOM     24  C   UNL A   1      33.306  22.702  26.540  1.00  0.00     0.046 A 
ATOM     25  C   UNL A   1      34.929  24.222  25.797  1.00  0.00     0.010 A 
ATOM     26  H   UNL A   1      31.658  21.815  27.429  1.00  0.00     0.166 HD
ATOM     27  C   UNL A   1      34.134  21.587  26.497  1.00  0.00     0.026 A 
ATOM     28  C   UNL A   1      35.794  23.079  25.703  1.00  0.00     0.001 A 
ATOM     29  C   UNL A   1      35.398  21.781  26.025  1.00  0.00     0.002 A 
ENDBRANCH  19  20
ENDBRANCH   5  19
ENDBRANCH   3   5
ENDBRANCH   2   3
ENDBRANCH   1   2
BRANCH   1  30
ATOM     30  C   UNL A   1      36.318  30.791  28.685  1.00  0.00     0.275 C 
BRANCH  30  31
ATOM     31  O   UNL A   1      36.962  31.025  30.016  1.00  0.00    -0.458 OA
BRANCH  31  32
ATOM     32  C   UNL A   1      37.180  30.279  31.159  1.00  0.00     0.338 C 
ATOM     33  O   UNL A   1      36.260  29.841  31.841  1.00  0.00    -0.246 OA
BRANCH  32  34
ATOM     34  C   UNL A   1      38.542  29.774  31.375  1.00  0.00     0.060 A 
ATOM     35  C   UNL A   1      39.804  30.221  32.554  1.00  0.00     0.016 A 
ATOM     36  C   UNL A   1      38.711  28.351  30.390  1.00  0.00     0.016 A 
ATOM     37  C   UNL A   1      41.241  28.999  32.649  1.00  0.00     0.010 A 
ATOM     38  C   UNL A   1      40.027  27.543  30.105  1.00  0.00     0.010 A 
ATOM     39  C   UNL A   1      41.296  27.848  31.017  1.00  0.00    -0.014 A 
BRANCH  39  40
ATOM     40  C   UNL A   1      42.460  28.220  29.477  1.00  0.00     0.031 A 
ATOM     41  C   UNL A   1      43.814  27.074  29.159  1.00  0.00     0.074 A 
ATOM     42  C   UNL A   1      42.795  29.262  28.542  1.00  0.00     0.049 A 
ATOM     43  N   UNL A   1      43.798  26.538  27.978  1.00  0.00    -0.248 NA
ATOM     44  C   UNL A   1      44.703  26.187  30.082  1.00  0.00     0.031 C 
ATOM     45  C   UNL A   1      43.426  29.048  27.189  1.00  0.00     0.029 A 
ATOM     46  N   UNL A   1      42.773  30.678  28.413  1.00  0.00    -0.354 N 
ATOM     47  C   UNL A   1      44.354  25.292  28.055  1.00  0.00     0.074 A 
ATOM     48  C   UNL A   1      44.743  25.025  29.404  1.00  0.00     0.031 C 
ATOM     49  C   UNL A   1      44.011  30.165  26.717  1.00  0.00     0.029 A 
ATOM     50  C   UNL A   1      43.927  31.143  27.757  1.00  0.00     0.049 A 
ATOM     51  H   UNL A   1      42.047  31.256  28.741  1.00  0.00     0.167 HD
ATOM     52  C   UNL A   1      44.882  24.760  26.945  1.00  0.00     0.031 A 
ATOM     53  C   UNL A   1      44.942  31.974  28.183  1.00  0.00     0.031 A 
ATOM     54  C   UNL A   1      45.460  25.831  26.171  1.00  0.00     0.049 A 
ATOM     55  C   UNL A   1      46.284  31.339  27.847  1.00  0.00     0.074 A 
ATOM     56  C   UNL A   1      45.028  26.657  25.157  1.00  0.00     0.029 A 
ATOM     57  N   UNL A   1      46.489  26.498  26.815  1.00  0.00    -0.354 N 
ATOM     58  N   UNL A   1      46.386  30.047  27.675  1.00  0.00    -0.248 NA
ATOM     59  C   UNL A   1      47.561  32.022  27.636  1.00  0.00     0.031 C 
ATOM     60  C   UNL A   1      45.849  27.831  25.199  1.00  0.00     0.029 A 
ATOM     61  C   UNL A   1      46.772  27.701  26.228  1.00  0.00     0.049 A 
ATOM     62  H   UNL A   1      46.960  26.146  27.604  1.00  0.00     0.167 HD
ATOM     63  C   UNL A   1      47.621  29.739  27.188  1.00  0.00     0.074 A 
ATOM     64  C   UNL A   1      48.349  30.995  27.255  1.00  0.00     0.031 C 
ATOM     65  C   UNL A   1      47.904  28.484  26.732  1.00  0.00     0.031 A 
BRANCH  52  66
ATOM     66  C   UNL A   1      44.635  23.350  26.563  1.00  0.00    -0.014 A 
ATOM     67  C   UNL A   1      45.693  22.687  25.934  1.00  0.00     0.010 A 
ATOM     68  C   UNL A   1      43.382  22.691  26.634  1.00  0.00     0.010 A 
ATOM     69  C   UNL A   1      45.524  21.426  25.371  1.00  0.00     0.020 A 
ATOM     70  C   UNL A   1      43.208  21.407  26.083  1.00  0.00     0.020 A 
ATOM     71  C   UNL A   1      44.286  20.791  25.447  1.00  0.00     0.054 A 
BRANCH  71  72
ATOM     72  S   UNL A   1      44.146  19.158  24.680  1.00  0.00     0.124 S 
ATOM     73  O   UNL A   1      42.754  18.806  24.955  1.00  0.00    -0.237 OA
ATOM     74  O   UNL A   1      44.456  19.445  23.282  1.00  0.00    -0.237 OA
ATOM     75  O   UNL A   1      45.138  18.352  25.384  1.00  0.00    -0.744 OA
ENDBRANCH  71  72
ENDBRANCH  52  66
BRANCH  53  76
ATOM     76  C   UNL A   1      44.720  32.920  29.332  1.00  0.00    -0.014 A 
ATOM     77  C   UNL A   1      43.674  33.866  29.226  1.00  0.00     0.010 A 
ATOM     78  C   UNL A   1      45.206  32.609  30.619  1.00  0.00     0.010 A 
ATOM     79  C   UNL A   1      42.952  34.271  30.362  1.00  0.00     0.020 A 
ATOM     80  C   UNL A   1      44.497  33.036  31.771  1.00  0.00     0.020 A 
ATOM     81  C   UNL A   1      43.327  33.802  31.625  1.00  0.00     0.054 A 
BRANCH  81  82
ATOM     82  S   UNL A   1      42.043  33.783  32.943  1.00  0.00     0.124 S 
ATOM     83  O   UNL A   1      42.367  34.978  33.711  1.00  0.00    -0.237 OA
ATOM     84  O   UNL A   1      40.789  33.847  32.192  1.00  0.00    -0.237 OA
ATOM     85  O   UNL A   1      42.273  32.511  33.624  1.00  0.00    -0.744 OA
ENDBRANCH  81  82
ENDBRANCH  53  76
BRANCH  65  86
ATOM     86  C   UNL A   1      49.283  27.862  26.686  1.00  0.00    -0.014 A 
ATOM     87  C   UNL A   1      50.225  27.953  27.713  1.00  0.00     0.010 A 
ATOM     88  C   UNL A   1      49.654  27.062  25.573  1.00  0.00     0.010 A 
ATOM     89  C   UNL A   1      51.485  27.359  27.602  1.00  0.00     0.020 A 
ATOM     90  C   UNL A   1      50.877  26.409  25.475  1.00  0.00     0.020 A 
ATOM     91  C   UNL A   1      51.803  26.596  26.482  1.00  0.00     0.054 A 
BRANCH  91  92
ATOM     92  S   UNL A   1      53.449  25.891  26.353  1.00  0.00     0.124 S 
ATOM     93  O   UNL A   1      53.150  24.479  26.130  1.00  0.00    -0.237 OA
ATOM     94  O   UNL A   1      54.001  26.608  25.207  1.00  0.00    -0.237 OA
ATOM     95  O   UNL A   1      54.067  26.205  27.639  1.00  0.00    -0.744 OA
ENDBRANCH  91  92
ENDBRANCH  65  86
ENDBRANCH  39  40
ENDBRANCH  32  34
ENDBRANCH  31  32
ENDBRANCH  30  31
ENDBRANCH   1  30
TORSDOF 20
ENDMDL
MODEL 3
REMARK VINA RESULT:     -13.2      4.479     10.343
REMARK SMILES Cc1ccccc1OCC(=O)N[C@@H](Cc1c[nH]c2ccccc12)C(=O)OCCOC(=O)c1ccc(-c2c3nc(c(-c4ccc(S(=O)(=O)[O-])cc4)c4ccc([nH]4)c(-c4ccc(S(=O)(=O)[O-])cc4)c4nc(c(-c5ccc(S(=O)(=O)[O-])cc5)c5ccc2[nH]5)C=C4)C=C3)cc1
REMARK SMILES IDX 27 1 26 2 24 3 25 4 13 5 12 6 10 7 11 8 9 10 8 11 7 12 1 13
REMARK SMILES IDX 2 14 3 15 4 16 6 17 5 18 14 19 15 20 16 21 23 22 17 23 18 24
REMARK SMILES IDX 22 25 19 27 21 28 20 29 28 30 29 31 30 32 31 33 32 34 33 35
REMARK SMILES IDX 91 36 34 37 90 38 35 39 36 40 37 41 84 42 38 43 89 44 83 45
REMARK SMILES IDX 85 46 39 47 88 48 82 49 81 50 40 52 70 53 51 54 69 55 52 56
REMARK SMILES IDX 55 57 68 58 86 59 53 60 54 61 67 63 87 64 56 65 41 66 42 67
REMARK SMILES IDX 50 68 43 69 49 70 44 71 45 72 46 73 47 74 48 75 71 76 72 77
REMARK SMILES IDX 80 78 73 79 79 80 74 81 75 82 76 83 77 84 78 85 57 86 58 87
REMARK SMILES IDX 66 88 59 89 65 90 60 91 61 92 62 93 63 94 64 95
REMARK H PARENT 12 9 17 26 85 51 55 62
REMARK Flexibility Score: inf
ROOT
ATOM      1  C   UNL A   1      43.868  24.311  24.980  1.00  0.00     0.274 C 
ENDROOT
BRANCH   1   2
ATOM      2  O   UNL A   1      43.451  23.138  25.735  1.00  0.00    -0.461 OA
BRANCH   2   3
ATOM      3  C   UNL A   1      42.424  22.266  25.742  1.00  0.00     0.329 C 
ATOM      4  O   UNL A   1      42.764  21.121  25.469  1.00  0.00    -0.250 OA
BRANCH   3   5
ATOM      5  C   UNL A   1      40.899  22.365  26.150  1.00  0.00     0.196 C 
BRANCH   5   6
ATOM      6  N   UNL A   1      39.284  21.091  25.529  1.00  0.00    -0.339 N 
ATOM      7  C   UNL A   1      37.737  21.222  25.375  1.00  0.00     0.258 C 
ATOM      8  O   UNL A   1      37.102  20.161  25.286  1.00  0.00    -0.271 OA
ATOM      9  H   UNL A   1      39.602  20.194  25.275  1.00  0.00     0.164 HD
BRANCH   7  10
ATOM     10  C   UNL A   1      36.868  22.691  25.344  1.00  0.00     0.329 C 
BRANCH  10  11
ATOM     11  O   UNL A   1      35.455  22.849  25.534  1.00  0.00    -0.484 OA
BRANCH  11  12
ATOM     12  C   UNL A   1      34.554  22.852  24.509  1.00  0.00     0.122 A 
ATOM     13  C   UNL A   1      33.665  20.420  24.668  1.00  0.00     0.048 C 
ATOM     14  C   UNL A   1      33.699  21.816  24.131  1.00  0.00    -0.009 A 
ATOM     15  C   UNL A   1      32.752  22.057  23.111  1.00  0.00     0.007 A 
ATOM     16  C   UNL A   1      32.700  23.256  22.409  1.00  0.00     0.001 A 
ATOM     17  C   UNL A   1      34.548  24.041  23.735  1.00  0.00     0.047 A 
ATOM     18  C   UNL A   1      33.623  24.245  22.699  1.00  0.00     0.004 A 
ENDBRANCH  11  12
ENDBRANCH  10  11
ENDBRANCH   7  10
ENDBRANCH   5   6
BRANCH   5  19
ATOM     19  C   UNL A   1      40.129  23.359  27.846  1.00  0.00     0.074 C 
BRANCH  19  20
ATOM     20  C   UNL A   1      39.926  25.332  27.567  1.00  0.00    -0.020 A 
ATOM     21  C   UNL A   1      40.556  26.002  26.415  1.00  0.00     0.087 A 
ATOM     22  C   UNL A   1      39.723  26.654  28.353  1.00  0.00     0.003 A 
ATOM     23  N   UNL A   1      40.769  27.312  26.462  1.00  0.00    -0.361 N 
ATOM     24  C   UNL A   1      40.203  27.763  27.579  1.00  0.00     0.046 A 
ATOM     25  C   UNL A   1      39.255  27.086  29.614  1.00  0.00     0.010 A 
ATOM     26  H   UNL A   1      41.254  27.848  25.794  1.00  0.00     0.166 HD
ATOM     27  C   UNL A   1      40.191  29.122  27.868  1.00  0.00     0.026 A 
ATOM     28  C   UNL A   1      39.192  28.489  29.921  1.00  0.00     0.001 A 
ATOM     29  C   UNL A   1      39.631  29.490  29.055  1.00  0.00     0.002 A 
ENDBRANCH  19  20
ENDBRANCH   5  19
ENDBRANCH   3   5
ENDBRANCH   2   3
ENDBRANCH   1   2
BRANCH   1  30
ATOM     30  C   UNL A   1      45.385  24.630  25.162  1.00  0.00     0.275 C 
BRANCH  30  31
ATOM     31  O   UNL A   1      45.889  26.037  25.084  1.00  0.00    -0.458 OA
BRANCH  31  32
ATOM     32  C   UNL A   1      45.450  27.275  25.516  1.00  0.00     0.338 C 
ATOM     33  O   UNL A   1      44.503  27.852  24.993  1.00  0.00    -0.246 OA
BRANCH  32  34
ATOM     34  C   UNL A   1      45.961  27.750  26.808  1.00  0.00     0.060 A 
ATOM     35  C   UNL A   1      46.204  26.921  28.369  1.00  0.00     0.016 A 
ATOM     36  C   UNL A   1      46.609  29.341  26.537  1.00  0.00     0.016 A 
ATOM     37  C   UNL A   1      47.247  27.894  29.607  1.00  0.00     0.010 A 
ATOM     38  C   UNL A   1      47.101  30.364  27.621  1.00  0.00     0.010 A 
ATOM     39  C   UNL A   1      47.317  29.827  29.103  1.00  0.00    -0.014 A 
BRANCH  39  40
ATOM     40  C   UNL A   1      46.139  31.187  29.894  1.00  0.00     0.031 A 
ATOM     41  C   UNL A   1      44.444  30.704  30.272  1.00  0.00     0.074 A 
ATOM     42  C   UNL A   1      46.047  32.606  30.120  1.00  0.00     0.049 A 
ATOM     43  N   UNL A   1      44.104  30.865  31.514  1.00  0.00    -0.248 NA
ATOM     44  C   UNL A   1      43.450  29.693  29.625  1.00  0.00     0.031 C 
ATOM     45  C   UNL A   1      45.191  33.266  31.172  1.00  0.00     0.029 A 
ATOM     46  N   UNL A   1      46.530  33.839  29.604  1.00  0.00    -0.354 N 
ATOM     47  C   UNL A   1      43.175  29.919  31.840  1.00  0.00     0.074 A 
ATOM     48  C   UNL A   1      42.919  29.089  30.705  1.00  0.00     0.031 C 
ATOM     49  C   UNL A   1      44.960  34.565  30.899  1.00  0.00     0.029 A 
ATOM     50  C   UNL A   1      45.522  34.820  29.609  1.00  0.00     0.049 A 
ATOM     51  H   UNL A   1      47.450  33.987  29.284  1.00  0.00     0.167 HD
ATOM     52  C   UNL A   1      42.342  30.168  32.859  1.00  0.00     0.031 A 
ATOM     53  C   UNL A   1      44.924  35.514  28.579  1.00  0.00     0.031 A 
ATOM     54  C   UNL A   1      42.057  31.581  32.864  1.00  0.00     0.049 A 
ATOM     55  C   UNL A   1      43.413  35.461  28.749  1.00  0.00     0.074 A 
ATOM     56  C   UNL A   1      42.593  32.691  33.481  1.00  0.00     0.029 A 
ATOM     57  N   UNL A   1      41.423  32.031  31.719  1.00  0.00    -0.354 N 
ATOM     58  N   UNL A   1      42.852  34.503  29.440  1.00  0.00    -0.248 NA
ATOM     59  C   UNL A   1      42.428  36.420  28.245  1.00  0.00     0.031 C 
ATOM     60  C   UNL A   1      42.236  33.824  32.679  1.00  0.00     0.029 A 
ATOM     61  C   UNL A   1      41.484  33.393  31.594  1.00  0.00     0.049 A 
ATOM     62  H   UNL A   1      40.979  31.439  31.070  1.00  0.00     0.167 HD
ATOM     63  C   UNL A   1      41.530  34.774  29.624  1.00  0.00     0.074 A 
ATOM     64  C   UNL A   1      41.291  35.942  28.791  1.00  0.00     0.031 C 
ATOM     65  C   UNL A   1      40.773  34.033  30.485  1.00  0.00     0.031 A 
BRANCH  52  66
ATOM     66  C   UNL A   1      42.035  29.142  33.883  1.00  0.00    -0.014 A 
ATOM     67  C   UNL A   1      42.625  29.326  35.137  1.00  0.00     0.010 A 
ATOM     68  C   UNL A   1      41.344  27.928  33.642  1.00  0.00     0.010 A 
ATOM     69  C   UNL A   1      42.558  28.343  36.119  1.00  0.00     0.020 A 
ATOM     70  C   UNL A   1      41.256  26.936  34.637  1.00  0.00     0.020 A 
ATOM     71  C   UNL A   1      41.876  27.155  35.868  1.00  0.00     0.054 A 
BRANCH  71  72
ATOM     72  S   UNL A   1      41.846  25.922  37.194  1.00  0.00     0.124 S 
ATOM     73  O   UNL A   1      40.467  26.016  37.671  1.00  0.00    -0.237 OA
ATOM     74  O   UNL A   1      42.180  24.693  36.480  1.00  0.00    -0.237 OA
ATOM     75  O   UNL A   1      42.859  26.392  38.134  1.00  0.00    -0.744 OA
ENDBRANCH  71  72
ENDBRANCH  52  66
BRANCH  53  76
ATOM     76  C   UNL A   1      45.620  35.656  27.252  1.00  0.00    -0.014 A 
ATOM     77  C   UNL A   1      46.279  36.876  26.970  1.00  0.00     0.010 A 
ATOM     78  C   UNL A   1      45.993  34.514  26.514  1.00  0.00     0.010 A 
ATOM     79  C   UNL A   1      47.450  36.898  26.193  1.00  0.00     0.020 A 
ATOM     80  C   UNL A   1      47.160  34.537  25.707  1.00  0.00     0.020 A 
ATOM     81  C   UNL A   1      47.923  35.714  25.618  1.00  0.00     0.054 A 
BRANCH  81  82
ATOM     82  S   UNL A   1      49.713  35.623  25.205  1.00  0.00     0.124 S 
ATOM     83  O   UNL A   1      49.813  36.514  24.056  1.00  0.00    -0.237 OA
ATOM     84  O   UNL A   1      50.365  36.103  26.424  1.00  0.00    -0.237 OA
ATOM     85  O   UNL A   1      49.927  34.205  24.927  1.00  0.00    -0.744 OA
ENDBRANCH  81  82
ENDBRANCH  53  76
BRANCH  65  86
ATOM     86  C   UNL A   1      39.274  33.850  30.392  1.00  0.00    -0.014 A 
ATOM     87  C   UNL A   1      38.345  34.508  31.202  1.00  0.00     0.010 A 
ATOM     88  C   UNL A   1      38.731  33.018  29.376  1.00  0.00     0.010 A 
ATOM     89  C   UNL A   1      36.972  34.285  31.066  1.00  0.00     0.020 A 
ATOM     90  C   UNL A   1      37.367  32.838  29.184  1.00  0.00     0.020 A 
ATOM     91  C   UNL A   1      36.494  33.448  30.062  1.00  0.00     0.054 A 
BRANCH  91  92
ATOM     92  S   UNL A   1      34.727  33.150  29.952  1.00  0.00     0.124 S 
ATOM     93  O   UNL A   1      34.196  34.510  29.956  1.00  0.00    -0.237 OA
ATOM     94  O   UNL A   1      34.616  32.432  28.685  1.00  0.00    -0.237 OA
ATOM     95  O   UNL A   1      34.430  32.358  31.143  1.00  0.00    -0.744 OA
ENDBRANCH  91  92
ENDBRANCH  65  86
ENDBRANCH  39  40
ENDBRANCH  32  34
ENDBRANCH  31  32
ENDBRANCH  30  31
ENDBRANCH   1  30
TORSDOF 20
ENDMDL
