MODEL 1
REMARK VINA RESULT:     -11.0      0.000      0.000
REMARK SMILES O=C1CN(S(=O)(=O)c2ccc(CC(=O)OCCOC(=O)c3ccc(-c4c5nc(c(-c6ccc(S(=O)(=O)[O-])cc6)c6ccc([nH]6)c(-c6ccc(S(=O)(=O)[O-])cc6)c6nc(c(-c7ccc(S(=O)(=O)[O-])cc7)c7ccc4[nH]7)C=C6)C=C5)cc3)cc2)CCN1
REMARK SMILES IDX 16 1 15 2 13 3 14 4 12 5 11 6 8 7 9 8 82 9 10 10 81 11 5 12
REMARK SMILES IDX 6 13 7 14 4 15 1 16 2 17 3 18 85 19 84 20 83 22 17 23 18 24
REMARK SMILES IDX 19 25 20 26 21 27 22 28 80 29 23 30 79 31 24 32 25 33 26 34
REMARK SMILES IDX 73 35 27 36 78 37 72 38 74 39 28 40 77 41 71 42 70 43 29 45
REMARK SMILES IDX 59 46 40 47 58 48 41 49 44 50 57 51 75 52 42 53 43 54 56 56
REMARK SMILES IDX 76 57 45 58 30 59 31 60 39 61 32 62 38 63 33 64 34 65 35 66
REMARK SMILES IDX 36 67 37 68 60 69 61 70 69 71 62 72 68 73 63 74 64 75 65 76
REMARK SMILES IDX 66 77 67 78 46 79 47 80 55 81 48 82 54 83 49 84 50 85 51 86
REMARK SMILES IDX 52 87 53 88
REMARK H PARENT 85 21 74 44 44 55
REMARK Flexibility Score: inf
ROOT
ATOM      1  C   UNL A   1      37.781  22.258  25.155  1.00  0.00     0.274 C 
ENDROOT
BRANCH   1   2
ATOM      2  O   UNL A   1      37.016  21.069  25.432  1.00  0.00    -0.462 OA
BRANCH   2   3
ATOM      3  C   UNL A   1      35.667  21.224  25.467  1.00  0.00     0.310 C 
ATOM      4  O   UNL A   1      34.900  20.813  24.601  1.00  0.00    -0.252 OA
BRANCH   3   5
ATOM      5  C   UNL A   1      35.163  22.013  26.657  1.00  0.00     0.158 C 
BRANCH   5   6
ATOM      6  C   UNL A   1      34.303  23.220  26.369  1.00  0.00    -0.037 A 
ATOM      7  C   UNL A   1      32.662  25.424  25.825  1.00  0.00     0.082 A 
ATOM      8  C   UNL A   1      33.988  25.430  25.390  1.00  0.00     0.022 A 
ATOM      9  C   UNL A   1      32.150  24.318  26.513  1.00  0.00     0.022 A 
ATOM     10  C   UNL A   1      34.805  24.328  25.666  1.00  0.00     0.006 A 
ATOM     11  C   UNL A   1      32.971  23.232  26.799  1.00  0.00     0.006 A 
BRANCH   7  12
ATOM     12  S   UNL A   1      31.546  26.710  25.329  1.00  0.00     0.243 S 
ATOM     13  O   UNL A   1      31.106  27.377  26.539  1.00  0.00    -0.207 OA
ATOM     14  O   UNL A   1      30.572  26.150  24.419  1.00  0.00    -0.207 OA
BRANCH  12  15
ATOM     15  N   UNL A   1      32.489  27.817  24.421  1.00  0.00    -0.187 NA
ATOM     16  O   UNL A   1      32.387  30.678  26.659  1.00  0.00    -0.274 OA
ATOM     17  C   UNL A   1      32.173  29.996  25.659  1.00  0.00     0.235 C 
ATOM     18  C   UNL A   1      33.137  28.921  25.181  1.00  0.00     0.202 C 
ATOM     19  N   UNL A   1      31.091  30.263  24.854  1.00  0.00    -0.354 N 
ATOM     20  C   UNL A   1      30.652  29.395  23.771  1.00  0.00     0.132 C 
ATOM     21  H   UNL A   1      30.584  31.090  25.019  1.00  0.00     0.163 HD
ATOM     22  C   UNL A   1      31.732  28.422  23.271  1.00  0.00     0.124 C 
ENDBRANCH  12  15
ENDBRANCH   7  12
ENDBRANCH   5   6
ENDBRANCH   3   5
ENDBRANCH   2   3
ENDBRANCH   1   2
BRANCH   1  23
ATOM     23  C   UNL A   1      38.873  22.486  26.201  1.00  0.00     0.275 C 
BRANCH  23  24
ATOM     24  O   UNL A   1      38.972  23.879  26.547  1.00  0.00    -0.458 OA
BRANCH  24  25
ATOM     25  C   UNL A   1      40.209  24.287  26.908  1.00  0.00     0.338 C 
ATOM     26  O   UNL A   1      41.278  23.795  26.592  1.00  0.00    -0.246 OA
BRANCH  25  27
ATOM     27  C   UNL A   1      40.114  25.490  27.742  1.00  0.00     0.060 A 
ATOM     28  C   UNL A   1      41.109  26.464  27.652  1.00  0.00     0.016 A 
ATOM     29  C   UNL A   1      39.123  25.574  28.717  1.00  0.00     0.016 A 
ATOM     30  C   UNL A   1      41.151  27.506  28.574  1.00  0.00     0.010 A 
ATOM     31  C   UNL A   1      39.134  26.650  29.608  1.00  0.00     0.010 A 
ATOM     32  C   UNL A   1      40.163  27.610  29.560  1.00  0.00    -0.014 A 
BRANCH  32  33
ATOM     33  C   UNL A   1      40.211  28.696  30.570  1.00  0.00     0.031 A 
ATOM     34  C   UNL A   1      41.190  28.614  31.710  1.00  0.00     0.074 A 
ATOM     35  C   UNL A   1      39.366  29.739  30.476  1.00  0.00     0.049 A 
ATOM     36  N   UNL A   1      41.280  29.366  32.777  1.00  0.00    -0.248 NA
ATOM     37  C   UNL A   1      42.197  27.541  31.643  1.00  0.00     0.031 C 
ATOM     38  C   UNL A   1      38.409  29.961  29.389  1.00  0.00     0.029 A 
ATOM     39  N   UNL A   1      39.165  30.804  31.317  1.00  0.00    -0.354 N 
ATOM     40  C   UNL A   1      42.329  28.841  33.523  1.00  0.00     0.074 A 
ATOM     41  C   UNL A   1      42.833  27.695  32.796  1.00  0.00     0.031 C 
ATOM     42  C   UNL A   1      37.728  31.093  29.628  1.00  0.00     0.029 A 
ATOM     43  C   UNL A   1      38.148  31.637  30.915  1.00  0.00     0.049 A 
ATOM     44  H   UNL A   1      39.698  30.957  32.130  1.00  0.00     0.167 HD
ATOM     45  C   UNL A   1      42.828  29.277  34.705  1.00  0.00     0.031 A 
ATOM     46  C   UNL A   1      37.588  32.696  31.531  1.00  0.00     0.031 A 
ATOM     47  C   UNL A   1      42.319  30.420  35.419  1.00  0.00     0.049 A 
ATOM     48  C   UNL A   1      38.102  33.108  32.884  1.00  0.00     0.074 A 
ATOM     49  C   UNL A   1      42.751  30.942  36.625  1.00  0.00     0.029 A 
ATOM     50  N   UNL A   1      41.269  31.218  34.991  1.00  0.00    -0.354 N 
ATOM     51  N   UNL A   1      39.080  32.590  33.587  1.00  0.00    -0.248 NA
ATOM     52  C   UNL A   1      37.434  34.248  33.527  1.00  0.00     0.031 C 
ATOM     53  C   UNL A   1      41.929  32.026  36.951  1.00  0.00     0.029 A 
ATOM     54  C   UNL A   1      41.027  32.219  35.916  1.00  0.00     0.049 A 
ATOM     55  H   UNL A   1      40.769  31.091  34.152  1.00  0.00     0.167 HD
ATOM     56  C   UNL A   1      39.169  33.365  34.738  1.00  0.00     0.074 A 
ATOM     57  C   UNL A   1      38.152  34.391  34.632  1.00  0.00     0.031 C 
ATOM     58  C   UNL A   1      40.020  33.242  35.787  1.00  0.00     0.031 A 
BRANCH  45  59
ATOM     59  C   UNL A   1      43.964  28.500  35.317  1.00  0.00    -0.014 A 
ATOM     60  C   UNL A   1      43.726  27.407  36.170  1.00  0.00     0.010 A 
ATOM     61  C   UNL A   1      45.293  28.836  34.995  1.00  0.00     0.010 A 
ATOM     62  C   UNL A   1      44.793  26.690  36.719  1.00  0.00     0.020 A 
ATOM     63  C   UNL A   1      46.362  28.103  35.518  1.00  0.00     0.020 A 
ATOM     64  C   UNL A   1      46.106  27.044  36.389  1.00  0.00     0.054 A 
BRANCH  64  65
ATOM     65  S   UNL A   1      47.469  26.076  37.094  1.00  0.00     0.124 S 
ATOM     66  O   UNL A   1      46.903  24.730  37.117  1.00  0.00    -0.237 OA
ATOM     67  O   UNL A   1      48.545  26.289  36.130  1.00  0.00    -0.237 OA
ATOM     68  O   UNL A   1      47.683  26.683  38.406  1.00  0.00    -0.744 OA
ENDBRANCH  64  65
ENDBRANCH  45  59
BRANCH  46  69
ATOM     69  C   UNL A   1      36.457  33.423  30.891  1.00  0.00    -0.014 A 
ATOM     70  C   UNL A   1      36.641  34.098  29.673  1.00  0.00     0.010 A 
ATOM     71  C   UNL A   1      35.188  33.448  31.501  1.00  0.00     0.010 A 
ATOM     72  C   UNL A   1      35.589  34.810  29.091  1.00  0.00     0.020 A 
ATOM     73  C   UNL A   1      34.125  34.131  30.906  1.00  0.00     0.020 A 
ATOM     74  C   UNL A   1      34.336  34.822  29.712  1.00  0.00     0.054 A 
BRANCH  74  75
ATOM     75  S   UNL A   1      32.977  35.728  28.923  1.00  0.00     0.124 S 
ATOM     76  O   UNL A   1      33.691  36.780  28.206  1.00  0.00    -0.237 OA
ATOM     77  O   UNL A   1      32.357  34.702  28.088  1.00  0.00    -0.237 OA
ATOM     78  O   UNL A   1      32.165  36.178  30.050  1.00  0.00    -0.744 OA
ENDBRANCH  74  75
ENDBRANCH  46  69
BRANCH  58  79
ATOM     79  C   UNL A   1      39.932  34.277  36.878  1.00  0.00    -0.014 A 
ATOM     80  C   UNL A   1      40.584  35.517  36.769  1.00  0.00     0.010 A 
ATOM     81  C   UNL A   1      39.131  34.020  38.006  1.00  0.00     0.010 A 
ATOM     82  C   UNL A   1      40.460  36.470  37.783  1.00  0.00     0.020 A 
ATOM     83  C   UNL A   1      38.979  34.981  39.007  1.00  0.00     0.020 A 
ATOM     84  C   UNL A   1      39.657  36.197  38.896  1.00  0.00     0.054 A 
BRANCH  84  85
ATOM     85  S   UNL A   1      39.469  37.472  40.172  1.00  0.00     0.124 S 
ATOM     86  O   UNL A   1      38.507  38.381  39.554  1.00  0.00    -0.237 OA
ATOM     87  O   UNL A   1      38.970  36.711  41.314  1.00  0.00    -0.237 OA
ATOM     88  O   UNL A   1      40.820  38.008  40.329  1.00  0.00    -0.744 OA
ENDBRANCH  84  85
ENDBRANCH  58  79
ENDBRANCH  32  33
ENDBRANCH  25  27
ENDBRANCH  24  25
ENDBRANCH  23  24
ENDBRANCH   1  23
TORSDOF 17
ENDMDL
MODEL 2
REMARK VINA RESULT:     -10.8      2.075      8.816
REMARK SMILES O=C1CN(S(=O)(=O)c2ccc(CC(=O)OCCOC(=O)c3ccc(-c4c5nc(c(-c6ccc(S(=O)(=O)[O-])cc6)c6ccc([nH]6)c(-c6ccc(S(=O)(=O)[O-])cc6)c6nc(c(-c7ccc(S(=O)(=O)[O-])cc7)c7ccc4[nH]7)C=C6)C=C5)cc3)cc2)CCN1
REMARK SMILES IDX 16 1 15 2 13 3 14 4 12 5 11 6 8 7 9 8 82 9 10 10 81 11 5 12
REMARK SMILES IDX 6 13 7 14 4 15 1 16 2 17 3 18 85 19 84 20 83 22 17 23 18 24
REMARK SMILES IDX 19 25 20 26 21 27 22 28 80 29 23 30 79 31 24 32 25 33 26 34
REMARK SMILES IDX 73 35 27 36 78 37 72 38 74 39 28 40 77 41 71 42 70 43 29 45
REMARK SMILES IDX 59 46 40 47 58 48 41 49 44 50 57 51 75 52 42 53 43 54 56 56
REMARK SMILES IDX 76 57 45 58 30 59 31 60 39 61 32 62 38 63 33 64 34 65 35 66
REMARK SMILES IDX 36 67 37 68 60 69 61 70 69 71 62 72 68 73 63 74 64 75 65 76
REMARK SMILES IDX 66 77 67 78 46 79 47 80 55 81 48 82 54 83 49 84 50 85 51 86
REMARK SMILES IDX 52 87 53 88
REMARK H PARENT 85 21 74 44 44 55
REMARK Flexibility Score: inf
ROOT
ATOM      1  C   UNL A   1      43.336  22.537  26.051  1.00  0.00     0.274 C 
ENDROOT
BRANCH   1   2
ATOM      2  O   UNL A   1      42.262  21.788  25.448  1.00  0.00    -0.462 OA
BRANCH   2   3
ATOM      3  C   UNL A   1      41.579  20.956  26.276  1.00  0.00     0.310 C 
ATOM      4  O   UNL A   1      41.790  19.751  26.374  1.00  0.00    -0.252 OA
BRANCH   3   5
ATOM      5  C   UNL A   1      40.469  21.629  27.054  1.00  0.00     0.158 C 
BRANCH   5   6
ATOM      6  C   UNL A   1      39.245  22.055  26.279  1.00  0.00    -0.037 A 
ATOM      7  C   UNL A   1      36.958  22.879  24.887  1.00  0.00     0.082 A 
ATOM      8  C   UNL A   1      37.422  21.572  24.736  1.00  0.00     0.022 A 
ATOM      9  C   UNL A   1      37.620  23.768  25.742  1.00  0.00     0.022 A 
ATOM     10  C   UNL A   1      38.566  21.165  25.431  1.00  0.00     0.006 A 
ATOM     11  C   UNL A   1      38.767  23.363  26.418  1.00  0.00     0.006 A 
BRANCH   7  12
ATOM     12  S   UNL A   1      35.408  23.373  24.179  1.00  0.00     0.243 S 
ATOM     13  O   UNL A   1      35.557  23.288  22.739  1.00  0.00    -0.207 OA
ATOM     14  O   UNL A   1      34.998  24.616  24.791  1.00  0.00    -0.207 OA
BRANCH  12  15
ATOM     15  N   UNL A   1      34.275  22.184  24.670  1.00  0.00    -0.187 NA
ATOM     16  O   UNL A   1      31.252  24.201  24.689  1.00  0.00    -0.274 OA
ATOM     17  C   UNL A   1      32.186  23.530  25.123  1.00  0.00     0.235 C 
ATOM     18  C   UNL A   1      32.852  22.431  24.309  1.00  0.00     0.202 C 
ATOM     19  N   UNL A   1      32.596  23.673  26.427  1.00  0.00    -0.354 N 
ATOM     20  C   UNL A   1      33.807  23.071  26.967  1.00  0.00     0.132 C 
ATOM     21  H   UNL A   1      32.038  24.213  27.032  1.00  0.00     0.163 HD
ATOM     22  C   UNL A   1      34.340  21.889  26.142  1.00  0.00     0.124 C 
ENDBRANCH  12  15
ENDBRANCH   7  12
ENDBRANCH   5   6
ENDBRANCH   3   5
ENDBRANCH   2   3
ENDBRANCH   1   2
BRANCH   1  23
ATOM     23  C   UNL A   1      43.240  24.029  25.726  1.00  0.00     0.275 C 
BRANCH  23  24
ATOM     24  O   UNL A   1      42.274  24.678  26.572  1.00  0.00    -0.458 OA
BRANCH  24  25
ATOM     25  C   UNL A   1      41.797  25.849  26.093  1.00  0.00     0.338 C 
ATOM     26  O   UNL A   1      41.668  26.180  24.928  1.00  0.00    -0.246 OA
BRANCH  25  27
ATOM     27  C   UNL A   1      41.389  26.712  27.206  1.00  0.00     0.060 A 
ATOM     28  C   UNL A   1      42.021  27.944  27.383  1.00  0.00     0.016 A 
ATOM     29  C   UNL A   1      40.492  26.232  28.157  1.00  0.00     0.016 A 
ATOM     30  C   UNL A   1      41.799  28.684  28.541  1.00  0.00     0.010 A 
ATOM     31  C   UNL A   1      40.228  27.000  29.294  1.00  0.00     0.010 A 
ATOM     32  C   UNL A   1      40.899  28.219  29.507  1.00  0.00    -0.014 A 
BRANCH  32  33
ATOM     33  C   UNL A   1      40.676  28.979  30.762  1.00  0.00     0.031 A 
ATOM     34  C   UNL A   1      39.602  30.031  30.818  1.00  0.00     0.074 A 
ATOM     35  C   UNL A   1      41.449  28.740  31.839  1.00  0.00     0.049 A 
ATOM     36  N   UNL A   1      39.357  30.911  31.755  1.00  0.00    -0.248 NA
ATOM     37  C   UNL A   1      38.687  30.106  29.667  1.00  0.00     0.031 C 
ATOM     38  C   UNL A   1      42.485  27.708  31.928  1.00  0.00     0.029 A 
ATOM     39  N   UNL A   1      41.490  29.359  33.063  1.00  0.00    -0.354 N 
ATOM     40  C   UNL A   1      38.282  31.664  31.294  1.00  0.00     0.074 A 
ATOM     41  C   UNL A   1      37.935  31.150  29.987  1.00  0.00     0.031 C 
ATOM     42  C   UNL A   1      43.056  27.764  33.142  1.00  0.00     0.029 A 
ATOM     43  C   UNL A   1      42.477  28.875  33.888  1.00  0.00     0.049 A 
ATOM     44  H   UNL A   1      40.873  30.079  33.324  1.00  0.00     0.167 HD
ATOM     45  C   UNL A   1      37.643  32.689  31.908  1.00  0.00     0.031 A 
ATOM     46  C   UNL A   1      42.898  29.304  35.094  1.00  0.00     0.031 A 
ATOM     47  C   UNL A   1      37.997  33.192  33.211  1.00  0.00     0.049 A 
ATOM     48  C   UNL A   1      42.229  30.500  35.717  1.00  0.00     0.074 A 
ATOM     49  C   UNL A   1      37.416  34.229  33.919  1.00  0.00     0.029 A 
ATOM     50  N   UNL A   1      39.022  32.694  34.000  1.00  0.00    -0.354 N 
ATOM     51  N   UNL A   1      41.229  31.215  35.261  1.00  0.00    -0.248 NA
ATOM     52  C   UNL A   1      42.748  30.946  37.017  1.00  0.00     0.031 C 
ATOM     53  C   UNL A   1      38.122  34.390  35.116  1.00  0.00     0.029 A 
ATOM     54  C   UNL A   1      39.101  33.410  35.182  1.00  0.00     0.049 A 
ATOM     55  H   UNL A   1      39.608  31.940  33.756  1.00  0.00     0.167 HD
ATOM     56  C   UNL A   1      40.975  32.173  36.237  1.00  0.00     0.074 A 
ATOM     57  C   UNL A   1      41.920  31.939  37.309  1.00  0.00     0.031 C 
ATOM     58  C   UNL A   1      40.039  33.155  36.246  1.00  0.00     0.031 A 
BRANCH  45  59
ATOM     59  C   UNL A   1      36.514  33.356  31.167  1.00  0.00    -0.014 A 
ATOM     60  C   UNL A   1      35.227  33.453  31.729  1.00  0.00     0.010 A 
ATOM     61  C   UNL A   1      36.754  33.938  29.908  1.00  0.00     0.010 A 
ATOM     62  C   UNL A   1      34.196  34.087  31.030  1.00  0.00     0.020 A 
ATOM     63  C   UNL A   1      35.732  34.599  29.220  1.00  0.00     0.020 A 
ATOM     64  C   UNL A   1      34.455  34.656  29.779  1.00  0.00     0.054 A 
BRANCH  64  65
ATOM     65  S   UNL A   1      33.102  35.496  28.910  1.00  0.00     0.124 S 
ATOM     66  O   UNL A   1      33.820  36.513  28.146  1.00  0.00    -0.237 OA
ATOM     67  O   UNL A   1      32.510  34.420  28.121  1.00  0.00    -0.237 OA
ATOM     68  O   UNL A   1      32.261  36.008  29.990  1.00  0.00    -0.744 OA
ENDBRANCH  64  65
ENDBRANCH  45  59
BRANCH  46  69
ATOM     69  C   UNL A   1      44.028  28.620  35.780  1.00  0.00    -0.014 A 
ATOM     70  C   UNL A   1      45.347  29.071  35.603  1.00  0.00     0.010 A 
ATOM     71  C   UNL A   1      43.792  27.507  36.609  1.00  0.00     0.010 A 
ATOM     72  C   UNL A   1      46.412  28.407  36.219  1.00  0.00     0.020 A 
ATOM     73  C   UNL A   1      44.850  26.860  37.253  1.00  0.00     0.020 A 
ATOM     74  C   UNL A   1      46.156  27.305  37.041  1.00  0.00     0.054 A 
BRANCH  74  75
ATOM     75  S   UNL A   1      47.551  26.477  37.853  1.00  0.00     0.124 S 
ATOM     76  O   UNL A   1      47.113  26.441  39.245  1.00  0.00    -0.237 OA
ATOM     77  O   UNL A   1      47.592  25.186  37.169  1.00  0.00    -0.237 OA
ATOM     78  O   UNL A   1      48.682  27.357  37.574  1.00  0.00    -0.744 OA
ENDBRANCH  74  75
ENDBRANCH  46  69
BRANCH  58  79
ATOM     79  C   UNL A   1      39.947  34.014  37.480  1.00  0.00    -0.014 A 
ATOM     80  C   UNL A   1      40.680  35.207  37.602  1.00  0.00     0.010 A 
ATOM     81  C   UNL A   1      39.062  33.644  38.510  1.00  0.00     0.010 A 
ATOM     82  C   UNL A   1      40.551  36.000  38.746  1.00  0.00     0.020 A 
ATOM     83  C   UNL A   1      38.907  34.448  39.640  1.00  0.00     0.020 A 
ATOM     84  C   UNL A   1      39.663  35.616  39.757  1.00  0.00     0.054 A 
BRANCH  84  85
ATOM     85  S   UNL A   1      39.474  36.690  41.206  1.00  0.00     0.124 S 
ATOM     86  O   UNL A   1      38.642  35.872  42.085  1.00  0.00    -0.237 OA
ATOM     87  O   UNL A   1      40.853  36.881  41.646  1.00  0.00    -0.237 OA
ATOM     88  O   UNL A   1      38.826  37.886  40.670  1.00  0.00    -0.744 OA
ENDBRANCH  84  85
ENDBRANCH  58  79
ENDBRANCH  32  33
ENDBRANCH  25  27
ENDBRANCH  24  25
ENDBRANCH  23  24
ENDBRANCH   1  23
TORSDOF 17
ENDMDL
MODEL 3
REMARK VINA RESULT:     -10.8      6.419     10.932
REMARK SMILES O=C1CN(S(=O)(=O)c2ccc(CC(=O)OCCOC(=O)c3ccc(-c4c5nc(c(-c6ccc(S(=O)(=O)[O-])cc6)c6ccc([nH]6)c(-c6ccc(S(=O)(=O)[O-])cc6)c6nc(c(-c7ccc(S(=O)(=O)[O-])cc7)c7ccc4[nH]7)C=C6)C=C5)cc3)cc2)CCN1
REMARK SMILES IDX 16 1 15 2 13 3 14 4 12 5 11 6 8 7 9 8 82 9 10 10 81 11 5 12
REMARK SMILES IDX 6 13 7 14 4 15 1 16 2 17 3 18 85 19 84 20 83 22 17 23 18 24
REMARK SMILES IDX 19 25 20 26 21 27 22 28 80 29 23 30 79 31 24 32 25 33 26 34
REMARK SMILES IDX 73 35 27 36 78 37 72 38 74 39 28 40 77 41 71 42 70 43 29 45
REMARK SMILES IDX 59 46 40 47 58 48 41 49 44 50 57 51 75 52 42 53 43 54 56 56
REMARK SMILES IDX 76 57 45 58 30 59 31 60 39 61 32 62 38 63 33 64 34 65 35 66
REMARK SMILES IDX 36 67 37 68 60 69 61 70 69 71 62 72 68 73 63 74 64 75 65 76
REMARK SMILES IDX 66 77 67 78 46 79 47 80 55 81 48 82 54 83 49 84 50 85 51 86
REMARK SMILES IDX 52 87 53 88
REMARK H PARENT 85 21 74 44 44 55
REMARK Flexibility Score: inf
ROOT
ATOM      1  C   UNL A   1      38.193  21.400  25.544  1.00  0.00     0.274 C 
ENDROOT
BRANCH   1   2
ATOM      2  O   UNL A   1      37.089  21.313  24.621  1.00  0.00    -0.462 OA
BRANCH   2   3
ATOM      3  C   UNL A   1      35.876  21.042  25.170  1.00  0.00     0.310 C 
ATOM      4  O   UNL A   1      35.074  20.233  24.711  1.00  0.00    -0.252 OA
BRANCH   3   5
ATOM      5  C   UNL A   1      35.548  21.871  26.393  1.00  0.00     0.158 C 
BRANCH   5   6
ATOM      6  C   UNL A   1      34.626  23.051  26.197  1.00  0.00    -0.037 A 
ATOM      7  C   UNL A   1      32.873  25.203  25.821  1.00  0.00     0.082 A 
ATOM      8  C   UNL A   1      34.194  25.308  25.384  1.00  0.00     0.022 A 
ATOM      9  C   UNL A   1      32.421  24.025  26.427  1.00  0.00     0.022 A 
ATOM     10  C   UNL A   1      35.067  24.232  25.575  1.00  0.00     0.006 A 
ATOM     11  C   UNL A   1      33.298  22.964  26.630  1.00  0.00     0.006 A 
BRANCH   7  12
ATOM     12  S   UNL A   1      31.690  26.464  25.424  1.00  0.00     0.243 S 
ATOM     13  O   UNL A   1      32.442  27.654  25.074  1.00  0.00    -0.207 OA
ATOM     14  O   UNL A   1      30.702  26.518  26.478  1.00  0.00    -0.207 OA
BRANCH  12  15
ATOM     15  N   UNL A   1      30.880  25.912  24.017  1.00  0.00    -0.187 NA
ATOM     16  O   UNL A   1      33.637  26.014  21.652  1.00  0.00    -0.274 OA
ATOM     17  C   UNL A   1      32.569  26.314  22.183  1.00  0.00     0.235 C 
ATOM     18  C   UNL A   1      31.728  25.307  22.953  1.00  0.00     0.202 C 
ATOM     19  N   UNL A   1      32.029  27.564  21.999  1.00  0.00    -0.354 N 
ATOM     20  C   UNL A   1      30.882  28.069  22.739  1.00  0.00     0.132 C 
ATOM     21  H   UNL A   1      32.442  28.153  21.326  1.00  0.00     0.163 HD
ATOM     22  C   UNL A   1      30.021  26.971  23.385  1.00  0.00     0.124 C 
ENDBRANCH  12  15
ENDBRANCH   7  12
ENDBRANCH   5   6
ENDBRANCH   3   5
ENDBRANCH   2   3
ENDBRANCH   1   2
BRANCH   1  23
ATOM     23  C   UNL A   1      39.139  20.206  25.410  1.00  0.00     0.275 C 
BRANCH  23  24
ATOM     24  O   UNL A   1      40.038  20.133  26.531  1.00  0.00    -0.458 OA
BRANCH  24  25
ATOM     25  C   UNL A   1      41.328  19.893  26.208  1.00  0.00     0.338 C 
ATOM     26  O   UNL A   1      41.801  18.877  25.730  1.00  0.00    -0.246 OA
BRANCH  25  27
ATOM     27  C   UNL A   1      42.139  21.085  26.478  1.00  0.00     0.060 A 
ATOM     28  C   UNL A   1      42.436  21.425  27.799  1.00  0.00     0.016 A 
ATOM     29  C   UNL A   1      42.469  21.945  25.432  1.00  0.00     0.016 A 
ATOM     30  C   UNL A   1      43.021  22.653  28.090  1.00  0.00     0.010 A 
ATOM     31  C   UNL A   1      43.106  23.154  25.721  1.00  0.00     0.010 A 
ATOM     32  C   UNL A   1      43.363  23.530  27.053  1.00  0.00    -0.014 A 
BRANCH  32  33
ATOM     33  C   UNL A   1      43.958  24.857  27.347  1.00  0.00     0.031 A 
ATOM     34  C   UNL A   1      43.073  25.993  27.782  1.00  0.00     0.074 A 
ATOM     35  C   UNL A   1      45.283  25.046  27.203  1.00  0.00     0.049 A 
ATOM     36  N   UNL A   1      43.366  27.259  27.928  1.00  0.00    -0.248 NA
ATOM     37  C   UNL A   1      41.671  25.661  28.089  1.00  0.00     0.031 C 
ATOM     38  C   UNL A   1      46.254  24.011  26.841  1.00  0.00     0.029 A 
ATOM     39  N   UNL A   1      46.041  26.182  27.331  1.00  0.00    -0.354 N 
ATOM     40  C   UNL A   1      42.183  27.881  28.311  1.00  0.00     0.074 A 
ATOM     41  C   UNL A   1      41.163  26.856  28.358  1.00  0.00     0.031 C 
ATOM     42  C   UNL A   1      47.479  24.559  26.781  1.00  0.00     0.029 A 
ATOM     43  C   UNL A   1      47.369  25.992  27.030  1.00  0.00     0.049 A 
ATOM     44  H   UNL A   1      45.670  27.050  27.612  1.00  0.00     0.167 HD
ATOM     45  C   UNL A   1      41.969  29.187  28.601  1.00  0.00     0.031 A 
ATOM     46  C   UNL A   1      48.378  26.878  26.925  1.00  0.00     0.031 A 
ATOM     47  C   UNL A   1      42.993  30.199  28.552  1.00  0.00     0.049 A 
ATOM     48  C   UNL A   1      48.097  28.337  27.166  1.00  0.00     0.074 A 
ATOM     49  C   UNL A   1      42.879  31.552  28.822  1.00  0.00     0.029 A 
ATOM     50  N   UNL A   1      44.318  29.969  28.213  1.00  0.00    -0.354 N 
ATOM     51  N   UNL A   1      46.970  28.913  27.507  1.00  0.00    -0.248 NA
ATOM     52  C   UNL A   1      49.225  29.264  27.006  1.00  0.00     0.031 C 
ATOM     53  C   UNL A   1      44.124  32.148  28.598  1.00  0.00     0.029 A 
ATOM     54  C   UNL A   1      45.030  31.157  28.252  1.00  0.00     0.049 A 
ATOM     55  H   UNL A   1      44.697  29.091  27.979  1.00  0.00     0.167 HD
ATOM     56  C   UNL A   1      47.262  30.266  27.639  1.00  0.00     0.074 A 
ATOM     57  C   UNL A   1      48.673  30.419  27.350  1.00  0.00     0.031 C 
ATOM     58  C   UNL A   1      46.438  31.290  27.975  1.00  0.00     0.031 A 
BRANCH  45  59
ATOM     59  C   UNL A   1      40.569  29.604  28.968  1.00  0.00    -0.014 A 
ATOM     60  C   UNL A   1      39.559  29.709  27.994  1.00  0.00     0.010 A 
ATOM     61  C   UNL A   1      40.244  29.850  30.316  1.00  0.00     0.010 A 
ATOM     62  C   UNL A   1      38.262  30.085  28.356  1.00  0.00     0.020 A 
ATOM     63  C   UNL A   1      38.942  30.198  30.685  1.00  0.00     0.020 A 
ATOM     64  C   UNL A   1      37.962  30.328  29.700  1.00  0.00     0.054 A 
BRANCH  64  65
ATOM     65  S   UNL A   1      36.263  30.787  30.142  1.00  0.00     0.124 S 
ATOM     66  O   UNL A   1      36.037  29.987  31.343  1.00  0.00    -0.237 OA
ATOM     67  O   UNL A   1      36.366  32.227  30.358  1.00  0.00    -0.237 OA
ATOM     68  O   UNL A   1      35.481  30.390  28.973  1.00  0.00    -0.744 OA
ENDBRANCH  64  65
ENDBRANCH  45  59
BRANCH  46  69
ATOM     69  C   UNL A   1      49.742  26.418  26.545  1.00  0.00    -0.014 A 
ATOM     70  C   UNL A   1      50.131  26.376  25.195  1.00  0.00     0.010 A 
ATOM     71  C   UNL A   1      50.660  26.013  27.533  1.00  0.00     0.010 A 
ATOM     72  C   UNL A   1      51.399  25.910  24.836  1.00  0.00     0.020 A 
ATOM     73  C   UNL A   1      51.941  25.578  27.181  1.00  0.00     0.020 A 
ATOM     74  C   UNL A   1      52.297  25.514  25.832  1.00  0.00     0.054 A 
BRANCH  74  75
ATOM     75  S   UNL A   1      53.947  24.941  25.345  1.00  0.00     0.124 S 
ATOM     76  O   UNL A   1      54.256  25.825  24.225  1.00  0.00    -0.237 OA
ATOM     77  O   UNL A   1      54.729  25.161  26.559  1.00  0.00    -0.237 OA
ATOM     78  O   UNL A   1      53.733  23.539  24.996  1.00  0.00    -0.744 OA
ENDBRANCH  74  75
ENDBRANCH  46  69
BRANCH  58  79
ATOM     79  C   UNL A   1      47.050  32.659  28.110  1.00  0.00    -0.014 A 
ATOM     80  C   UNL A   1      47.688  33.066  29.294  1.00  0.00     0.010 A 
ATOM     81  C   UNL A   1      47.034  33.530  27.005  1.00  0.00     0.010 A 
ATOM     82  C   UNL A   1      48.275  34.331  29.380  1.00  0.00     0.020 A 
ATOM     83  C   UNL A   1      47.645  34.783  27.076  1.00  0.00     0.020 A 
ATOM     84  C   UNL A   1      48.251  35.182  28.269  1.00  0.00     0.054 A 
BRANCH  84  85
ATOM     85  S   UNL A   1      49.066  36.798  28.388  1.00  0.00     0.124 S 
ATOM     86  O   UNL A   1      49.278  37.136  26.984  1.00  0.00    -0.237 OA
ATOM     87  O   UNL A   1      48.072  37.607  29.087  1.00  0.00    -0.237 OA
ATOM     88  O   UNL A   1      50.281  36.518  29.151  1.00  0.00    -0.744 OA
ENDBRANCH  84  85
ENDBRANCH  58  79
ENDBRANCH  32  33
ENDBRANCH  25  27
ENDBRANCH  24  25
ENDBRANCH  23  24
ENDBRANCH   1  23
TORSDOF 17
ENDMDL
