MODEL 1
REMARK VINA RESULT:     -11.3      0.000      0.000
REMARK SMILES CCN(CCC(=O)OCCOC(=O)c1ccc(-c2c3nc(c(-c4ccc(S(=O)(=O)[O-])cc4)c4ccc([nH]4)c(-c4ccc(S(=O)(=O)[O-])cc4)c4nc(c(-c5ccc(S(=O)(=O)[O-])cc5)c5ccc2[nH]5)C=C4)C=C3)cc1)C(=O)N1C[C@@H]2CCC[N@@H+]2C[C@@H]1C
REMARK SMILES IDX 9 1 8 2 6 3 7 4 5 5 4 6 3 7 2 8 1 9 74 10 75 11 76 12 77 13
REMARK SMILES IDX 84 14 78 15 83 16 85 17 79 18 82 19 80 20 81 21 10 23 11 24
REMARK SMILES IDX 12 25 13 26 14 27 15 28 73 29 16 30 72 31 17 32 18 33 19 34
REMARK SMILES IDX 66 35 20 36 71 37 65 38 67 39 21 40 70 41 64 42 63 43 22 45
REMARK SMILES IDX 52 46 33 47 51 48 34 49 37 50 50 51 68 52 35 53 36 54 49 56
REMARK SMILES IDX 69 57 38 58 23 59 24 60 32 61 25 62 31 63 26 64 27 65 28 66
REMARK SMILES IDX 29 67 30 68 53 69 54 70 62 71 55 72 61 73 56 74 57 75 58 76
REMARK SMILES IDX 59 77 60 78 39 79 40 80 48 81 41 82 47 83 42 84 43 85 44 86
REMARK SMILES IDX 45 87 46 88
REMARK H PARENT 82 22 67 44 37 55
REMARK Flexibility Score: inf
ROOT
ATOM      1  C   UNL A   1      33.178  27.488  25.572  1.00  0.00     0.274 C 
ENDROOT
BRANCH   1   2
ATOM      2  O   UNL A   1      32.643  26.127  25.583  1.00  0.00    -0.462 OA
BRANCH   2   3
ATOM      3  C   UNL A   1      31.455  25.596  25.940  1.00  0.00     0.307 C 
ATOM      4  O   UNL A   1      31.216  25.108  27.026  1.00  0.00    -0.252 OA
BRANCH   3   5
ATOM      5  C   UNL A   1      30.362  25.829  24.867  1.00  0.00     0.144 C 
BRANCH   5   6
ATOM      6  C   UNL A   1      30.458  25.139  23.503  1.00  0.00     0.133 C 
BRANCH   6   7
ATOM      7  N   UNL A   1      31.413  25.734  22.614  1.00  0.00    -0.324 N 
BRANCH   7   8
ATOM      8  C   UNL A   1      31.019  26.972  21.919  1.00  0.00     0.118 C 
ATOM      9  C   UNL A   1      31.385  28.292  22.604  1.00  0.00     0.027 C 
ENDBRANCH   7   8
BRANCH   7  10
ATOM     10  C   UNL A   1      32.524  25.061  22.199  1.00  0.00     0.320 C 
ATOM     11  O   UNL A   1      33.199  25.514  21.263  1.00  0.00    -0.248 OA
BRANCH  10  12
ATOM     12  N   UNL A   1      32.929  23.847  22.757  1.00  0.00    -0.310 N 
ATOM     13  C   UNL A   1      34.641  24.322  23.391  1.00  0.00     0.186 C 
ATOM     14  C   UNL A   1      32.270  22.026  23.042  1.00  0.00     0.139 C 
ATOM     15  C   UNL A   1      35.526  23.098  24.563  1.00  0.00     0.204 C 
ATOM     16  C   UNL A   1      33.519  20.808  24.019  1.00  0.00     0.287 C 
ATOM     17  C   UNL A   1      31.853  20.947  21.994  1.00  0.00     0.037 C 
ATOM     18  C   UNL A   1      36.942  22.754  24.168  1.00  0.00     0.073 C 
ATOM     19  N   UNL A   1      34.899  21.500  24.952  1.00  0.00    -0.329 N 
ATOM     20  C   UNL A   1      37.293  21.511  24.990  1.00  0.00     0.068 C 
ATOM     21  C   UNL A   1      36.042  20.645  25.180  1.00  0.00     0.262 C 
ATOM     22  H   UNL A   1      34.343  21.600  25.801  1.00  0.00     0.348 HD
ENDBRANCH  10  12
ENDBRANCH   7  10
ENDBRANCH   6   7
ENDBRANCH   5   6
ENDBRANCH   3   5
ENDBRANCH   2   3
ENDBRANCH   1   2
BRANCH   1  23
ATOM     23  C   UNL A   1      32.343  28.713  26.364  1.00  0.00     0.275 C 
BRANCH  23  24
ATOM     24  O   UNL A   1      32.988  30.014  27.404  1.00  0.00    -0.458 OA
BRANCH  24  25
ATOM     25  C   UNL A   1      34.350  30.890  28.191  1.00  0.00     0.338 C 
ATOM     26  O   UNL A   1      34.283  32.027  28.693  1.00  0.00    -0.246 OA
BRANCH  25  27
ATOM     27  C   UNL A   1      35.790  30.333  28.420  1.00  0.00     0.060 A 
ATOM     28  C   UNL A   1      36.155  29.807  29.680  1.00  0.00     0.016 A 
ATOM     29  C   UNL A   1      36.801  30.426  27.462  1.00  0.00     0.016 A 
ATOM     30  C   UNL A   1      37.405  29.214  29.898  1.00  0.00     0.010 A 
ATOM     31  C   UNL A   1      38.022  29.778  27.641  1.00  0.00     0.010 A 
ATOM     32  C   UNL A   1      38.346  29.189  28.869  1.00  0.00    -0.014 A 
BRANCH  32  33
ATOM     33  C   UNL A   1      39.752  28.786  29.114  1.00  0.00     0.031 A 
ATOM     34  C   UNL A   1      40.684  29.824  29.689  1.00  0.00     0.074 A 
ATOM     35  C   UNL A   1      40.204  27.557  28.798  1.00  0.00     0.049 A 
ATOM     36  N   UNL A   1      41.974  29.761  29.890  1.00  0.00    -0.248 NA
ATOM     37  C   UNL A   1      40.084  31.123  30.050  1.00  0.00     0.031 C 
ATOM     38  C   UNL A   1      39.407  26.477  28.216  1.00  0.00     0.029 A 
ATOM     39  N   UNL A   1      41.463  27.019  28.906  1.00  0.00    -0.354 N 
ATOM     40  C   UNL A   1      42.334  31.013  30.378  1.00  0.00     0.074 A 
ATOM     41  C   UNL A   1      41.149  31.838  30.367  1.00  0.00     0.031 C 
ATOM     42  C   UNL A   1      40.198  25.407  28.016  1.00  0.00     0.029 A 
ATOM     43  C   UNL A   1      41.560  25.731  28.431  1.00  0.00     0.049 A 
ATOM     44  H   UNL A   1      42.226  27.509  29.289  1.00  0.00     0.167 HD
ATOM     45  C   UNL A   1      43.536  31.432  30.837  1.00  0.00     0.031 A 
ATOM     46  C   UNL A   1      42.630  24.916  28.336  1.00  0.00     0.031 A 
ATOM     47  C   UNL A   1      44.706  30.602  30.866  1.00  0.00     0.049 A 
ATOM     48  C   UNL A   1      43.966  25.408  28.840  1.00  0.00     0.074 A 
ATOM     49  C   UNL A   1      45.968  30.911  31.338  1.00  0.00     0.029 A 
ATOM     50  N   UNL A   1      44.752  29.293  30.412  1.00  0.00    -0.354 N 
ATOM     51  N   UNL A   1      44.276  26.577  29.350  1.00  0.00    -0.248 NA
ATOM     52  C   UNL A   1      45.089  24.462  28.780  1.00  0.00     0.031 C 
ATOM     53  C   UNL A   1      46.791  29.799  31.129  1.00  0.00     0.029 A 
ATOM     54  C   UNL A   1      46.024  28.780  30.585  1.00  0.00     0.049 A 
ATOM     55  H   UNL A   1      43.992  28.802  30.024  1.00  0.00     0.167 HD
ATOM     56  C   UNL A   1      45.621  26.494  29.700  1.00  0.00     0.074 A 
ATOM     57  C   UNL A   1      46.057  25.155  29.364  1.00  0.00     0.031 C 
ATOM     58  C   UNL A   1      46.426  27.438  30.249  1.00  0.00     0.031 A 
BRANCH  45  59
ATOM     59  C   UNL A   1      43.624  32.839  31.365  1.00  0.00    -0.014 A 
ATOM     60  C   UNL A   1      43.201  33.145  32.674  1.00  0.00     0.010 A 
ATOM     61  C   UNL A   1      44.156  33.864  30.563  1.00  0.00     0.010 A 
ATOM     62  C   UNL A   1      43.277  34.453  33.156  1.00  0.00     0.020 A 
ATOM     63  C   UNL A   1      44.265  35.168  31.055  1.00  0.00     0.020 A 
ATOM     64  C   UNL A   1      43.812  35.456  32.344  1.00  0.00     0.054 A 
BRANCH  64  65
ATOM     65  S   UNL A   1      43.943  37.134  33.018  1.00  0.00     0.124 S 
ATOM     66  O   UNL A   1      42.814  37.177  33.945  1.00  0.00    -0.237 OA
ATOM     67  O   UNL A   1      45.265  37.125  33.640  1.00  0.00    -0.237 OA
ATOM     68  O   UNL A   1      43.815  37.991  31.842  1.00  0.00    -0.744 OA
ENDBRANCH  64  65
ENDBRANCH  45  59
BRANCH  46  69
ATOM     69  C   UNL A   1      42.494  23.551  27.751  1.00  0.00    -0.014 A 
ATOM     70  C   UNL A   1      42.177  22.447  28.565  1.00  0.00     0.010 A 
ATOM     71  C   UNL A   1      42.706  23.341  26.376  1.00  0.00     0.010 A 
ATOM     72  C   UNL A   1      42.110  21.159  28.022  1.00  0.00     0.020 A 
ATOM     73  C   UNL A   1      42.608  22.059  25.824  1.00  0.00     0.020 A 
ATOM     74  C   UNL A   1      42.326  20.973  26.654  1.00  0.00     0.054 A 
BRANCH  74  75
ATOM     75  S   UNL A   1      42.207  19.296  25.969  1.00  0.00     0.124 S 
ATOM     76  O   UNL A   1      42.696  18.480  27.075  1.00  0.00    -0.237 OA
ATOM     77  O   UNL A   1      40.781  19.178  25.675  1.00  0.00    -0.237 OA
ATOM     78  O   UNL A   1      43.075  19.345  24.795  1.00  0.00    -0.744 OA
ENDBRANCH  74  75
ENDBRANCH  46  69
BRANCH  58  79
ATOM     79  C   UNL A   1      47.845  27.042  30.563  1.00  0.00    -0.014 A 
ATOM     80  C   UNL A   1      48.895  27.314  29.669  1.00  0.00     0.010 A 
ATOM     81  C   UNL A   1      48.135  26.436  31.799  1.00  0.00     0.010 A 
ATOM     82  C   UNL A   1      50.205  26.949  29.990  1.00  0.00     0.020 A 
ATOM     83  C   UNL A   1      49.447  26.099  32.137  1.00  0.00     0.020 A 
ATOM     84  C   UNL A   1      50.472  26.343  31.221  1.00  0.00     0.054 A 
BRANCH  84  85
ATOM     85  S   UNL A   1      52.185  25.908  31.625  1.00  0.00     0.124 S 
ATOM     86  O   UNL A   1      52.053  24.517  32.048  1.00  0.00    -0.237 OA
ATOM     87  O   UNL A   1      52.876  26.116  30.356  1.00  0.00    -0.237 OA
ATOM     88  O   UNL A   1      52.541  26.849  32.684  1.00  0.00    -0.744 OA
ENDBRANCH  84  85
ENDBRANCH  58  79
ENDBRANCH  32  33
ENDBRANCH  25  27
ENDBRANCH  24  25
ENDBRANCH  23  24
ENDBRANCH   1  23
TORSDOF 19
ENDMDL
MODEL 2
REMARK VINA RESULT:     -11.0      4.596     10.501
REMARK SMILES CCN(CCC(=O)OCCOC(=O)c1ccc(-c2c3nc(c(-c4ccc(S(=O)(=O)[O-])cc4)c4ccc([nH]4)c(-c4ccc(S(=O)(=O)[O-])cc4)c4nc(c(-c5ccc(S(=O)(=O)[O-])cc5)c5ccc2[nH]5)C=C4)C=C3)cc1)C(=O)N1C[C@@H]2CCC[N@@H+]2C[C@@H]1C
REMARK SMILES IDX 9 1 8 2 6 3 7 4 5 5 4 6 3 7 2 8 1 9 74 10 75 11 76 12 77 13
REMARK SMILES IDX 84 14 78 15 83 16 85 17 79 18 82 19 80 20 81 21 10 23 11 24
REMARK SMILES IDX 12 25 13 26 14 27 15 28 73 29 16 30 72 31 17 32 18 33 19 34
REMARK SMILES IDX 66 35 20 36 71 37 65 38 67 39 21 40 70 41 64 42 63 43 22 45
REMARK SMILES IDX 52 46 33 47 51 48 34 49 37 50 50 51 68 52 35 53 36 54 49 56
REMARK SMILES IDX 69 57 38 58 23 59 24 60 32 61 25 62 31 63 26 64 27 65 28 66
REMARK SMILES IDX 29 67 30 68 53 69 54 70 62 71 55 72 61 73 56 74 57 75 58 76
REMARK SMILES IDX 59 77 60 78 39 79 40 80 48 81 41 82 47 83 42 84 43 85 44 86
REMARK SMILES IDX 45 87 46 88
REMARK H PARENT 82 22 67 44 37 55
REMARK Flexibility Score: inf
ROOT
ATOM      1  C   UNL A   1      37.527  22.202  25.280  1.00  0.00     0.274 C 
ENDROOT
BRANCH   1   2
ATOM      2  O   UNL A   1      36.358  21.474  25.769  1.00  0.00    -0.462 OA
BRANCH   2   3
ATOM      3  C   UNL A   1      35.253  20.979  25.174  1.00  0.00     0.307 C 
ATOM      4  O   UNL A   1      35.123  19.828  24.808  1.00  0.00    -0.252 OA
BRANCH   3   5
ATOM      5  C   UNL A   1      34.088  22.000  25.155  1.00  0.00     0.144 C 
BRANCH   5   6
ATOM      6  C   UNL A   1      33.638  22.636  23.837  1.00  0.00     0.133 C 
BRANCH   6   7
ATOM      7  N   UNL A   1      32.828  23.808  24.002  1.00  0.00    -0.324 N 
BRANCH   7   8
ATOM      8  C   UNL A   1      31.512  23.643  24.642  1.00  0.00     0.118 C 
ATOM      9  C   UNL A   1      31.455  23.835  26.160  1.00  0.00     0.027 C 
ENDBRANCH   7   8
BRANCH   7  10
ATOM     10  C   UNL A   1      33.115  24.975  23.357  1.00  0.00     0.320 C 
ATOM     11  O   UNL A   1      33.915  24.970  22.410  1.00  0.00    -0.248 OA
BRANCH  10  12
ATOM     12  N   UNL A   1      32.574  26.205  23.737  1.00  0.00    -0.310 N 
ATOM     13  C   UNL A   1      33.894  26.792  24.951  1.00  0.00     0.186 C 
ATOM     14  C   UNL A   1      31.026  27.348  23.374  1.00  0.00     0.139 C 
ATOM     15  C   UNL A   1      33.823  28.612  25.530  1.00  0.00     0.204 C 
ATOM     16  C   UNL A   1      31.000  29.089  24.357  1.00  0.00     0.287 C 
ATOM     17  C   UNL A   1      29.509  27.063  23.604  1.00  0.00     0.037 C 
ATOM     18  C   UNL A   1      33.884  28.804  27.027  1.00  0.00     0.073 C 
ATOM     19  N   UNL A   1      32.514  29.713  25.115  1.00  0.00    -0.329 N 
ATOM     20  C   UNL A   1      33.430  30.247  27.262  1.00  0.00     0.068 C 
ATOM     21  C   UNL A   1      32.372  30.633  26.221  1.00  0.00     0.262 C 
ATOM     22  H   UNL A   1      32.798  30.203  24.267  1.00  0.00     0.348 HD
ENDBRANCH  10  12
ENDBRANCH   7  10
ENDBRANCH   6   7
ENDBRANCH   5   6
ENDBRANCH   3   5
ENDBRANCH   2   3
ENDBRANCH   1   2
BRANCH   1  23
ATOM     23  C   UNL A   1      38.978  22.106  26.124  1.00  0.00     0.275 C 
BRANCH  23  24
ATOM     24  O   UNL A   1      40.192  23.384  26.409  1.00  0.00    -0.458 OA
BRANCH  24  25
ATOM     25  C   UNL A   1      40.729  25.102  26.369  1.00  0.00     0.338 C 
ATOM     26  O   UNL A   1      41.165  25.699  25.368  1.00  0.00    -0.246 OA
BRANCH  25  27
ATOM     27  C   UNL A   1      40.666  26.112  27.558  1.00  0.00     0.060 A 
ATOM     28  C   UNL A   1      39.623  26.025  28.507  1.00  0.00     0.016 A 
ATOM     29  C   UNL A   1      41.540  27.193  27.681  1.00  0.00     0.016 A 
ATOM     30  C   UNL A   1      39.583  26.853  29.636  1.00  0.00     0.010 A 
ATOM     31  C   UNL A   1      41.555  27.976  28.834  1.00  0.00     0.010 A 
ATOM     32  C   UNL A   1      40.562  27.832  29.810  1.00  0.00    -0.014 A 
BRANCH  32  33
ATOM     33  C   UNL A   1      40.437  28.876  30.856  1.00  0.00     0.031 A 
ATOM     34  C   UNL A   1      41.312  28.745  32.079  1.00  0.00     0.074 A 
ATOM     35  C   UNL A   1      39.549  29.883  30.752  1.00  0.00     0.049 A 
ATOM     36  N   UNL A   1      41.316  29.454  33.176  1.00  0.00    -0.248 NA
ATOM     37  C   UNL A   1      42.289  27.638  32.077  1.00  0.00     0.031 C 
ATOM     38  C   UNL A   1      38.633  30.103  29.632  1.00  0.00     0.029 A 
ATOM     39  N   UNL A   1      39.259  30.905  31.623  1.00  0.00    -0.354 N 
ATOM     40  C   UNL A   1      42.275  28.866  33.994  1.00  0.00     0.074 A 
ATOM     41  C   UNL A   1      42.773  27.700  33.305  1.00  0.00     0.031 C 
ATOM     42  C   UNL A   1      37.882  31.189  29.886  1.00  0.00     0.029 A 
ATOM     43  C   UNL A   1      38.243  31.728  31.195  1.00  0.00     0.049 A 
ATOM     44  H   UNL A   1      39.734  31.036  32.475  1.00  0.00     0.167 HD
ATOM     45  C   UNL A   1      42.736  29.281  35.196  1.00  0.00     0.031 A 
ATOM     46  C   UNL A   1      37.668  32.788  31.799  1.00  0.00     0.031 A 
ATOM     47  C   UNL A   1      42.254  30.453  35.869  1.00  0.00     0.049 A 
ATOM     48  C   UNL A   1      38.187  33.226  33.147  1.00  0.00     0.074 A 
ATOM     49  C   UNL A   1      42.669  30.986  37.075  1.00  0.00     0.029 A 
ATOM     50  N   UNL A   1      41.252  31.281  35.383  1.00  0.00    -0.354 N 
ATOM     51  N   UNL A   1      39.134  32.690  33.881  1.00  0.00    -0.248 NA
ATOM     52  C   UNL A   1      37.578  34.427  33.736  1.00  0.00     0.031 C 
ATOM     53  C   UNL A   1      41.887  32.115  37.340  1.00  0.00     0.029 A 
ATOM     54  C   UNL A   1      41.029  32.317  36.270  1.00  0.00     0.049 A 
ATOM     55  H   UNL A   1      40.772  31.149  34.534  1.00  0.00     0.167 HD
ATOM     56  C   UNL A   1      39.254  33.507  35.002  1.00  0.00     0.074 A 
ATOM     57  C   UNL A   1      38.300  34.584  34.837  1.00  0.00     0.031 C 
ATOM     58  C   UNL A   1      40.078  33.381  36.074  1.00  0.00     0.031 A 
BRANCH  45  59
ATOM     59  C   UNL A   1      43.832  28.470  35.836  1.00  0.00    -0.014 A 
ATOM     60  C   UNL A   1      43.526  27.416  36.719  1.00  0.00     0.010 A 
ATOM     61  C   UNL A   1      45.179  28.741  35.537  1.00  0.00     0.010 A 
ATOM     62  C   UNL A   1      44.546  26.673  37.317  1.00  0.00     0.020 A 
ATOM     63  C   UNL A   1      46.201  27.977  36.107  1.00  0.00     0.020 A 
ATOM     64  C   UNL A   1      45.878  26.956  37.004  1.00  0.00     0.054 A 
BRANCH  64  65
ATOM     65  S   UNL A   1      47.176  25.940  37.758  1.00  0.00     0.124 S 
ATOM     66  O   UNL A   1      47.376  24.904  36.747  1.00  0.00    -0.237 OA
ATOM     67  O   UNL A   1      48.276  26.889  37.909  1.00  0.00    -0.237 OA
ATOM     68  O   UNL A   1      46.576  25.481  39.008  1.00  0.00    -0.744 OA
ENDBRANCH  64  65
ENDBRANCH  45  59
BRANCH  46  69
ATOM     69  C   UNL A   1      36.547  33.520  31.141  1.00  0.00    -0.014 A 
ATOM     70  C   UNL A   1      35.341  33.758  31.827  1.00  0.00     0.010 A 
ATOM     71  C   UNL A   1      36.668  33.961  29.810  1.00  0.00     0.010 A 
ATOM     72  C   UNL A   1      34.270  34.390  31.186  1.00  0.00     0.020 A 
ATOM     73  C   UNL A   1      35.611  34.623  29.176  1.00  0.00     0.020 A 
ATOM     74  C   UNL A   1      34.412  34.819  29.863  1.00  0.00     0.054 A 
BRANCH  74  75
ATOM     75  S   UNL A   1      33.019  35.661  29.062  1.00  0.00     0.124 S 
ATOM     76  O   UNL A   1      32.416  34.581  28.285  1.00  0.00    -0.237 OA
ATOM     77  O   UNL A   1      32.238  36.134  30.202  1.00  0.00    -0.237 OA
ATOM     78  O   UNL A   1      33.661  36.713  28.277  1.00  0.00    -0.744 OA
ENDBRANCH  74  75
ENDBRANCH  46  69
BRANCH  58  79
ATOM     79  C   UNL A   1      40.015  34.457  37.126  1.00  0.00    -0.014 A 
ATOM     80  C   UNL A   1      39.111  34.379  38.198  1.00  0.00     0.010 A 
ATOM     81  C   UNL A   1      40.919  35.535  37.065  1.00  0.00     0.010 A 
ATOM     82  C   UNL A   1      39.082  35.383  39.170  1.00  0.00     0.020 A 
ATOM     83  C   UNL A   1      40.915  36.522  38.051  1.00  0.00     0.020 A 
ATOM     84  C   UNL A   1      39.984  36.449  39.089  1.00  0.00     0.054 A 
BRANCH  84  85
ATOM     85  S   UNL A   1      39.947  37.721  40.380  1.00  0.00     0.124 S 
ATOM     86  O   UNL A   1      40.777  38.770  39.795  1.00  0.00    -0.237 OA
ATOM     87  O   UNL A   1      38.523  38.031  40.483  1.00  0.00    -0.237 OA
ATOM     88  O   UNL A   1      40.519  37.051  41.545  1.00  0.00    -0.744 OA
ENDBRANCH  84  85
ENDBRANCH  58  79
ENDBRANCH  32  33
ENDBRANCH  25  27
ENDBRANCH  24  25
ENDBRANCH  23  24
ENDBRANCH   1  23
TORSDOF 19
ENDMDL
MODEL 3
REMARK VINA RESULT:     -11.0      4.196      5.381
REMARK SMILES CCN(CCC(=O)OCCOC(=O)c1ccc(-c2c3nc(c(-c4ccc(S(=O)(=O)[O-])cc4)c4ccc([nH]4)c(-c4ccc(S(=O)(=O)[O-])cc4)c4nc(c(-c5ccc(S(=O)(=O)[O-])cc5)c5ccc2[nH]5)C=C4)C=C3)cc1)C(=O)N1C[C@@H]2CCC[N@@H+]2C[C@@H]1C
REMARK SMILES IDX 9 1 8 2 6 3 7 4 5 5 4 6 3 7 2 8 1 9 74 10 75 11 76 12 77 13
REMARK SMILES IDX 84 14 78 15 83 16 85 17 79 18 82 19 80 20 81 21 10 23 11 24
REMARK SMILES IDX 12 25 13 26 14 27 15 28 73 29 16 30 72 31 17 32 18 33 19 34
REMARK SMILES IDX 66 35 20 36 71 37 65 38 67 39 21 40 70 41 64 42 63 43 22 45
REMARK SMILES IDX 52 46 33 47 51 48 34 49 37 50 50 51 68 52 35 53 36 54 49 56
REMARK SMILES IDX 69 57 38 58 23 59 24 60 32 61 25 62 31 63 26 64 27 65 28 66
REMARK SMILES IDX 29 67 30 68 53 69 54 70 62 71 55 72 61 73 56 74 57 75 58 76
REMARK SMILES IDX 59 77 60 78 39 79 40 80 48 81 41 82 47 83 42 84 43 85 44 86
REMARK SMILES IDX 45 87 46 88
REMARK H PARENT 82 22 67 44 37 55
REMARK Flexibility Score: inf
ROOT
ATOM      1  C   UNL A   1      31.994  30.405  26.788  1.00  0.00     0.274 C 
ENDROOT
BRANCH   1   2
ATOM      2  O   UNL A   1      32.922  30.083  25.705  1.00  0.00    -0.462 OA
BRANCH   2   3
ATOM      3  C   UNL A   1      33.064  29.020  24.886  1.00  0.00     0.307 C 
ATOM      4  O   UNL A   1      33.598  29.056  23.796  1.00  0.00    -0.252 OA
BRANCH   3   5
ATOM      5  C   UNL A   1      32.622  27.697  25.560  1.00  0.00     0.144 C 
BRANCH   5   6
ATOM      6  C   UNL A   1      31.287  27.047  25.185  1.00  0.00     0.133 C 
BRANCH   6   7
ATOM      7  N   UNL A   1      31.405  25.689  24.737  1.00  0.00    -0.324 N 
BRANCH   7   8
ATOM      8  C   UNL A   1      30.997  25.389  23.354  1.00  0.00     0.118 C 
ATOM      9  C   UNL A   1      32.106  25.369  22.298  1.00  0.00     0.027 C 
ENDBRANCH   7   8
BRANCH   7  10
ATOM     10  C   UNL A   1      31.612  24.662  25.609  1.00  0.00     0.320 C 
ATOM     11  O   UNL A   1      31.022  24.656  26.699  1.00  0.00    -0.248 OA
BRANCH  10  12
ATOM     12  N   UNL A   1      32.500  23.615  25.352  1.00  0.00    -0.310 N 
ATOM     13  C   UNL A   1      34.099  24.358  26.022  1.00  0.00     0.186 C 
ATOM     14  C   UNL A   1      32.520  21.806  24.602  1.00  0.00     0.139 C 
ATOM     15  C   UNL A   1      35.601  23.193  26.231  1.00  0.00     0.204 C 
ATOM     16  C   UNL A   1      34.297  20.890  24.628  1.00  0.00     0.287 C 
ATOM     17  C   UNL A   1      32.164  21.328  23.160  1.00  0.00     0.037 C 
ATOM     18  C   UNL A   1      36.884  23.695  25.612  1.00  0.00     0.073 C 
ATOM     19  N   UNL A   1      35.614  21.518  25.690  1.00  0.00    -0.329 N 
ATOM     20  C   UNL A   1      37.805  22.474  25.560  1.00  0.00     0.068 C 
ATOM     21  C   UNL A   1      36.975  21.209  25.314  1.00  0.00     0.262 C 
ATOM     22  H   UNL A   1      35.316  20.950  26.483  1.00  0.00     0.348 HD
ENDBRANCH  10  12
ENDBRANCH   7  10
ENDBRANCH   6   7
ENDBRANCH   5   6
ENDBRANCH   3   5
ENDBRANCH   2   3
ENDBRANCH   1   2
BRANCH   1  23
ATOM     23  C   UNL A   1      31.381  31.965  26.918  1.00  0.00     0.275 C 
BRANCH  23  24
ATOM     24  O   UNL A   1      32.226  33.460  27.409  1.00  0.00    -0.458 OA
BRANCH  24  25
ATOM     25  C   UNL A   1      33.385  34.361  28.452  1.00  0.00     0.338 C 
ATOM     26  O   UNL A   1      33.348  35.582  28.686  1.00  0.00    -0.246 OA
BRANCH  25  27
ATOM     27  C   UNL A   1      34.561  33.738  29.268  1.00  0.00     0.060 A 
ATOM     28  C   UNL A   1      35.865  34.272  29.155  1.00  0.00     0.016 A 
ATOM     29  C   UNL A   1      34.420  32.584  30.041  1.00  0.00     0.016 A 
ATOM     30  C   UNL A   1      36.925  33.801  29.939  1.00  0.00     0.010 A 
ATOM     31  C   UNL A   1      35.446  32.150  30.878  1.00  0.00     0.010 A 
ATOM     32  C   UNL A   1      36.716  32.737  30.817  1.00  0.00    -0.014 A 
BRANCH  32  33
ATOM     33  C   UNL A   1      37.846  32.055  31.492  1.00  0.00     0.031 A 
ATOM     34  C   UNL A   1      38.291  32.600  32.827  1.00  0.00     0.074 A 
ATOM     35  C   UNL A   1      38.490  31.016  30.925  1.00  0.00     0.049 A 
ATOM     36  N   UNL A   1      39.316  32.259  33.563  1.00  0.00    -0.248 NA
ATOM     37  C   UNL A   1      37.492  33.706  33.389  1.00  0.00     0.031 C 
ATOM     38  C   UNL A   1      38.169  30.415  29.630  1.00  0.00     0.029 A 
ATOM     39  N   UNL A   1      39.570  30.292  31.367  1.00  0.00    -0.354 N 
ATOM     40  C   UNL A   1      39.291  33.120  34.655  1.00  0.00     0.074 A 
ATOM     41  C   UNL A   1      38.205  34.048  34.448  1.00  0.00     0.031 C 
ATOM     42  C   UNL A   1      39.036  29.417  29.382  1.00  0.00     0.029 A 
ATOM     43  C   UNL A   1      39.988  29.323  30.485  1.00  0.00     0.049 A 
ATOM     44  H   UNL A   1      40.005  30.453  32.236  1.00  0.00     0.167 HD
ATOM     45  C   UNL A   1      40.075  33.116  35.757  1.00  0.00     0.031 A 
ATOM     46  C   UNL A   1      41.027  28.465  30.562  1.00  0.00     0.031 A 
ATOM     47  C   UNL A   1      41.140  32.179  35.969  1.00  0.00     0.049 A 
ATOM     48  C   UNL A   1      41.899  28.487  31.794  1.00  0.00     0.074 A 
ATOM     49  C   UNL A   1      41.979  32.061  37.062  1.00  0.00     0.029 A 
ATOM     50  N   UNL A   1      41.505  31.188  35.070  1.00  0.00    -0.354 N 
ATOM     51  N   UNL A   1      41.826  29.274  32.843  1.00  0.00    -0.248 NA
ATOM     52  C   UNL A   1      42.976  27.490  31.865  1.00  0.00     0.031 C 
ATOM     53  C   UNL A   1      42.881  31.025  36.804  1.00  0.00     0.029 A 
ATOM     54  C   UNL A   1      42.564  30.459  35.579  1.00  0.00     0.049 A 
ATOM     55  H   UNL A   1      41.075  31.029  34.199  1.00  0.00     0.167 HD
ATOM     56  C   UNL A   1      42.827  28.843  33.710  1.00  0.00     0.074 A 
ATOM     57  C   UNL A   1      43.474  27.716  33.072  1.00  0.00     0.031 C 
ATOM     58  C   UNL A   1      43.182  29.335  34.924  1.00  0.00     0.031 A 
BRANCH  45  59
ATOM     59  C   UNL A   1      39.782  34.143  36.820  1.00  0.00    -0.014 A 
ATOM     60  C   UNL A   1      38.982  33.819  37.933  1.00  0.00     0.010 A 
ATOM     61  C   UNL A   1      40.328  35.434  36.725  1.00  0.00     0.010 A 
ATOM     62  C   UNL A   1      38.706  34.776  38.911  1.00  0.00     0.020 A 
ATOM     63  C   UNL A   1      40.083  36.385  37.720  1.00  0.00     0.020 A 
ATOM     64  C   UNL A   1      39.262  36.053  38.800  1.00  0.00     0.054 A 
BRANCH  64  65
ATOM     65  S   UNL A   1      38.925  37.258  40.112  1.00  0.00     0.124 S 
ATOM     66  O   UNL A   1      38.168  36.457  41.071  1.00  0.00    -0.237 OA
ATOM     67  O   UNL A   1      40.267  37.645  40.540  1.00  0.00    -0.237 OA
ATOM     68  O   UNL A   1      38.163  38.304  39.435  1.00  0.00    -0.744 OA
ENDBRANCH  64  65
ENDBRANCH  45  59
BRANCH  46  69
ATOM     69  C   UNL A   1      41.302  27.508  29.452  1.00  0.00    -0.014 A 
ATOM     70  C   UNL A   1      40.506  26.361  29.275  1.00  0.00     0.010 A 
ATOM     71  C   UNL A   1      42.383  27.724  28.577  1.00  0.00     0.010 A 
ATOM     72  C   UNL A   1      40.805  25.434  28.271  1.00  0.00     0.020 A 
ATOM     73  C   UNL A   1      42.665  26.816  27.550  1.00  0.00     0.020 A 
ATOM     74  C   UNL A   1      41.884  25.668  27.414  1.00  0.00     0.054 A 
BRANCH  74  75
ATOM     75  S   UNL A   1      42.236  24.465  26.101  1.00  0.00     0.124 S 
ATOM     76  O   UNL A   1      43.471  23.849  26.576  1.00  0.00    -0.237 OA
ATOM     77  O   UNL A   1      41.051  23.613  26.129  1.00  0.00    -0.237 OA
ATOM     78  O   UNL A   1      42.370  25.294  24.905  1.00  0.00    -0.744 OA
ENDBRANCH  74  75
ENDBRANCH  46  69
BRANCH  58  79
ATOM     79  C   UNL A   1      44.289  28.628  35.661  1.00  0.00    -0.014 A 
ATOM     80  C   UNL A   1      44.020  27.573  36.549  1.00  0.00     0.010 A 
ATOM     81  C   UNL A   1      45.626  28.995  35.415  1.00  0.00     0.010 A 
ATOM     82  C   UNL A   1      45.065  26.924  37.210  1.00  0.00     0.020 A 
ATOM     83  C   UNL A   1      46.675  28.327  36.049  1.00  0.00     0.020 A 
ATOM     84  C   UNL A   1      46.387  27.306  36.956  1.00  0.00     0.054 A 
BRANCH  84  85
ATOM     85  S   UNL A   1      47.726  26.426  37.803  1.00  0.00     0.124 S 
ATOM     86  O   UNL A   1      46.997  25.658  38.808  1.00  0.00    -0.237 OA
ATOM     87  O   UNL A   1      48.326  25.643  36.727  1.00  0.00    -0.237 OA
ATOM     88  O   UNL A   1      48.568  27.499  38.329  1.00  0.00    -0.744 OA
ENDBRANCH  84  85
ENDBRANCH  58  79
ENDBRANCH  32  33
ENDBRANCH  25  27
ENDBRANCH  24  25
ENDBRANCH  23  24
ENDBRANCH   1  23
TORSDOF 19
ENDMDL
