MODEL 1
REMARK VINA RESULT:     -10.2      0.000      0.000
REMARK SMILES CCOC(=O)c1cccc(NC(=O)CCC(=O)OCCOC(=O)c2ccc(-c3c4nc(c(-c5ccc(S(=O)(=O)[O-])cc5)c5ccc([nH]5)c(-c5ccc(S(=O)(=O)[O-])cc5)c5nc(c(-c6ccc(S(=O)(=O)[O-])cc6)c6ccc3[nH]6)C=C5)C=C4)cc2)c1
REMARK SMILES IDX 18 1 16 2 17 3 15 4 14 5 12 6 11 7 13 9 10 10 6 11 7 12
REMARK SMILES IDX 84 13 8 14 9 15 4 16 5 17 3 18 2 19 1 20 19 21 20 22 21 23
REMARK SMILES IDX 22 24 23 25 24 26 25 27 83 28 26 29 82 30 27 31 28 32 29 33
REMARK SMILES IDX 76 34 30 35 81 36 75 37 77 38 31 39 80 40 74 41 73 42 32 44
REMARK SMILES IDX 62 45 43 46 61 47 44 48 47 49 60 50 78 51 45 52 46 53 59 55
REMARK SMILES IDX 79 56 48 57 33 58 34 59 42 60 35 61 41 62 36 63 37 64 38 65
REMARK SMILES IDX 39 66 40 67 63 68 64 69 72 70 65 71 71 72 66 73 67 74 68 75
REMARK SMILES IDX 69 76 70 77 49 78 50 79 58 80 51 81 57 82 52 83 53 84 54 85
REMARK SMILES IDX 55 86 56 87
REMARK H PARENT 11 8 77 43 47 54
REMARK Flexibility Score: inf
ROOT
ATOM      1  O   UNL A   1      35.550  21.794  26.218  1.00  0.00    -0.462 OA
ENDROOT
BRANCH   1   2
ATOM      2  C   UNL A   1      34.251  21.586  25.885  1.00  0.00     0.306 C 
ATOM      3  O   UNL A   1      33.880  21.154  24.800  1.00  0.00    -0.252 OA
BRANCH   2   4
ATOM      4  C   UNL A   1      33.305  21.820  27.063  1.00  0.00     0.132 C 
BRANCH   4   5
ATOM      5  C   UNL A   1      32.480  23.116  27.164  1.00  0.00     0.112 C 
BRANCH   5   6
ATOM      6  C   UNL A   1      31.295  23.272  26.241  1.00  0.00     0.224 C 
ATOM      7  N   UNL A   1      31.067  24.413  25.526  1.00  0.00    -0.326 N 
ATOM      8  H   UNL A   1      30.156  24.504  25.163  1.00  0.00     0.169 HD
ATOM      9  O   UNL A   1      30.492  22.342  26.111  1.00  0.00    -0.275 OA
BRANCH   7  10
ATOM     10  C   UNL A   1      31.937  25.477  25.230  1.00  0.00     0.042 A 
ATOM     11  C   UNL A   1      32.283  28.568  25.562  1.00  0.00     0.062 A 
ATOM     12  C   UNL A   1      33.292  28.629  24.082  1.00  0.00     0.016 A 
ATOM     13  C   UNL A   1      31.626  26.999  26.146  1.00  0.00     0.041 A 
ATOM     14  C   UNL A   1      33.624  27.135  23.142  1.00  0.00     0.003 A 
ATOM     15  C   UNL A   1      32.981  25.551  23.748  1.00  0.00     0.026 A 
BRANCH  11  16
ATOM     16  C   UNL A   1      32.088  29.827  26.286  1.00  0.00     0.338 C 
ATOM     17  O   UNL A   1      31.450  30.760  25.834  1.00  0.00    -0.246 OA
BRANCH  16  18
ATOM     18  O   UNL A   1      32.836  29.798  27.411  1.00  0.00    -0.462 OA
BRANCH  18  19
ATOM     19  C   UNL A   1      34.070  30.530  27.328  1.00  0.00     0.230 C 
ATOM     20  C   UNL A   1      35.261  29.633  27.633  1.00  0.00     0.049 C 
ENDBRANCH  18  19
ENDBRANCH  16  18
ENDBRANCH  11  16
ENDBRANCH   7  10
ENDBRANCH   5   6
ENDBRANCH   4   5
ENDBRANCH   2   4
ENDBRANCH   1   2
BRANCH   1  21
ATOM     21  C   UNL A   1      36.238  23.283  26.194  1.00  0.00     0.274 C 
BRANCH  21  22
ATOM     22  C   UNL A   1      38.370  23.753  26.416  1.00  0.00     0.275 C 
BRANCH  22  23
ATOM     23  O   UNL A   1      39.055  25.198  26.582  1.00  0.00    -0.458 OA
BRANCH  23  24
ATOM     24  C   UNL A   1      40.295  25.358  27.113  1.00  0.00     0.338 C 
ATOM     25  O   UNL A   1      41.360  25.023  26.627  1.00  0.00    -0.246 OA
BRANCH  24  26
ATOM     26  C   UNL A   1      40.132  26.386  28.166  1.00  0.00     0.060 A 
ATOM     27  C   UNL A   1      40.756  27.632  27.988  1.00  0.00     0.016 A 
ATOM     28  C   UNL A   1      39.296  26.162  29.259  1.00  0.00     0.016 A 
ATOM     29  C   UNL A   1      40.562  28.655  28.910  1.00  0.00     0.010 A 
ATOM     30  C   UNL A   1      39.136  27.172  30.206  1.00  0.00     0.010 A 
ATOM     31  C   UNL A   1      39.797  28.406  30.050  1.00  0.00    -0.014 A 
BRANCH  31  32
ATOM     32  C   UNL A   1      39.925  29.309  31.212  1.00  0.00     0.031 A 
ATOM     33  C   UNL A   1      41.105  29.087  32.116  1.00  0.00     0.074 A 
ATOM     34  C   UNL A   1      39.041  30.295  31.439  1.00  0.00     0.049 A 
ATOM     35  N   UNL A   1      41.383  29.631  33.269  1.00  0.00    -0.248 NA
ATOM     36  C   UNL A   1      42.104  28.103  31.659  1.00  0.00     0.031 C 
ATOM     37  C   UNL A   1      37.917  30.644  30.571  1.00  0.00     0.029 A 
ATOM     38  N   UNL A   1      38.948  31.177  32.483  1.00  0.00    -0.354 N 
ATOM     39  C   UNL A   1      42.564  29.029  33.689  1.00  0.00     0.074 A 
ATOM     40  C   UNL A   1      42.943  28.069  32.681  1.00  0.00     0.031 C 
ATOM     41  C   UNL A   1      37.232  31.657  31.133  1.00  0.00     0.029 A 
ATOM     42  C   UNL A   1      37.841  31.990  32.418  1.00  0.00     0.049 A 
ATOM     43  H   UNL A   1      39.610  31.225  33.211  1.00  0.00     0.167 HD
ATOM     44  C   UNL A   1      43.266  29.259  34.822  1.00  0.00     0.031 A 
ATOM     45  C   UNL A   1      37.362  32.871  33.318  1.00  0.00     0.031 A 
ATOM     46  C   UNL A   1      42.861  30.219  35.813  1.00  0.00     0.049 A 
ATOM     47  C   UNL A   1      38.119  33.060  34.608  1.00  0.00     0.074 A 
ATOM     48  C   UNL A   1      43.484  30.546  37.001  1.00  0.00     0.029 A 
ATOM     49  N   UNL A   1      41.720  31.006  35.722  1.00  0.00    -0.354 N 
ATOM     50  N   UNL A   1      39.228  32.478  35.006  1.00  0.00    -0.248 NA
ATOM     51  C   UNL A   1      37.567  34.023  35.568  1.00  0.00     0.031 C 
ATOM     52  C   UNL A   1      42.686  31.487  37.660  1.00  0.00     0.029 A 
ATOM     53  C   UNL A   1      41.607  31.801  36.847  1.00  0.00     0.049 A 
ATOM     54  H   UNL A   1      41.086  30.998  34.969  1.00  0.00     0.167 HD
ATOM     55  C   UNL A   1      39.520  33.025  36.251  1.00  0.00     0.074 A 
ATOM     56  C   UNL A   1      38.479  33.995  36.531  1.00  0.00     0.031 C 
ATOM     57  C   UNL A   1      40.553  32.756  37.089  1.00  0.00     0.031 A 
BRANCH  44  58
ATOM     58  C   UNL A   1      44.497  28.424  35.066  1.00  0.00    -0.014 A 
ATOM     59  C   UNL A   1      45.744  28.772  34.518  1.00  0.00     0.010 A 
ATOM     60  C   UNL A   1      44.403  27.275  35.873  1.00  0.00     0.010 A 
ATOM     61  C   UNL A   1      46.866  27.969  34.742  1.00  0.00     0.020 A 
ATOM     62  C   UNL A   1      45.529  26.487  36.126  1.00  0.00     0.020 A 
ATOM     63  C   UNL A   1      46.751  26.830  35.546  1.00  0.00     0.054 A 
BRANCH  63  64
ATOM     64  S   UNL A   1      48.230  25.823  35.845  1.00  0.00     0.124 S 
ATOM     65  O   UNL A   1      48.065  24.747  34.871  1.00  0.00    -0.237 OA
ATOM     66  O   UNL A   1      49.314  26.760  35.568  1.00  0.00    -0.237 OA
ATOM     67  O   UNL A   1      48.100  25.421  37.244  1.00  0.00    -0.744 OA
ENDBRANCH  63  64
ENDBRANCH  44  58
BRANCH  45  68
ATOM     68  C   UNL A   1      36.097  33.609  33.044  1.00  0.00    -0.014 A 
ATOM     69  C   UNL A   1      36.103  34.998  32.833  1.00  0.00     0.010 A 
ATOM     70  C   UNL A   1      34.872  32.917  32.976  1.00  0.00     0.010 A 
ATOM     71  C   UNL A   1      34.911  35.682  32.568  1.00  0.00     0.020 A 
ATOM     72  C   UNL A   1      33.683  33.592  32.682  1.00  0.00     0.020 A 
ATOM     73  C   UNL A   1      33.709  34.973  32.489  1.00  0.00     0.054 A 
BRANCH  73  74
ATOM     74  S   UNL A   1      32.186  35.875  32.088  1.00  0.00     0.124 S 
ATOM     75  O   UNL A   1      32.496  37.222  32.557  1.00  0.00    -0.237 OA
ATOM     76  O   UNL A   1      32.098  35.714  30.639  1.00  0.00    -0.237 OA
ATOM     77  O   UNL A   1      31.158  35.168  32.849  1.00  0.00    -0.744 OA
ENDBRANCH  73  74
ENDBRANCH  45  68
BRANCH  57  78
ATOM     78  C   UNL A   1      40.630  33.552  38.365  1.00  0.00    -0.014 A 
ATOM     79  C   UNL A   1      41.277  34.799  38.410  1.00  0.00     0.010 A 
ATOM     80  C   UNL A   1      39.984  33.067  39.517  1.00  0.00     0.010 A 
ATOM     81  C   UNL A   1      41.304  35.532  39.599  1.00  0.00     0.020 A 
ATOM     82  C   UNL A   1      39.982  33.813  40.697  1.00  0.00     0.020 A 
ATOM     83  C   UNL A   1      40.654  35.035  40.733  1.00  0.00     0.054 A 
BRANCH  83  84
ATOM     84  S   UNL A   1      40.667  36.029  42.249  1.00  0.00     0.124 S 
ATOM     85  O   UNL A   1      40.460  35.015  43.279  1.00  0.00    -0.237 OA
ATOM     86  O   UNL A   1      41.996  36.635  42.223  1.00  0.00    -0.237 OA
ATOM     87  O   UNL A   1      39.559  36.962  42.062  1.00  0.00    -0.744 OA
ENDBRANCH  83  84
ENDBRANCH  57  78
ENDBRANCH  31  32
ENDBRANCH  24  26
ENDBRANCH  23  24
ENDBRANCH  22  23
ENDBRANCH  21  22
ENDBRANCH   1  21
TORSDOF 20
ENDMDL
MODEL 2
REMARK VINA RESULT:      -9.5      6.411     11.629
REMARK SMILES CCOC(=O)c1cccc(NC(=O)CCC(=O)OCCOC(=O)c2ccc(-c3c4nc(c(-c5ccc(S(=O)(=O)[O-])cc5)c5ccc([nH]5)c(-c5ccc(S(=O)(=O)[O-])cc5)c5nc(c(-c6ccc(S(=O)(=O)[O-])cc6)c6ccc3[nH]6)C=C5)C=C4)cc2)c1
REMARK SMILES IDX 18 1 16 2 17 3 15 4 14 5 12 6 11 7 13 9 10 10 6 11 7 12
REMARK SMILES IDX 84 13 8 14 9 15 4 16 5 17 3 18 2 19 1 20 19 21 20 22 21 23
REMARK SMILES IDX 22 24 23 25 24 26 25 27 83 28 26 29 82 30 27 31 28 32 29 33
REMARK SMILES IDX 76 34 30 35 81 36 75 37 77 38 31 39 80 40 74 41 73 42 32 44
REMARK SMILES IDX 62 45 43 46 61 47 44 48 47 49 60 50 78 51 45 52 46 53 59 55
REMARK SMILES IDX 79 56 48 57 33 58 34 59 42 60 35 61 41 62 36 63 37 64 38 65
REMARK SMILES IDX 39 66 40 67 63 68 64 69 72 70 65 71 71 72 66 73 67 74 68 75
REMARK SMILES IDX 69 76 70 77 49 78 50 79 58 80 51 81 57 82 52 83 53 84 54 85
REMARK SMILES IDX 55 86 56 87
REMARK H PARENT 11 8 77 43 47 54
REMARK Flexibility Score: inf
ROOT
ATOM      1  O   UNL A   1      38.311  22.746  25.589  1.00  0.00    -0.462 OA
ENDROOT
BRANCH   1   2
ATOM      2  C   UNL A   1      37.400  23.546  26.197  1.00  0.00     0.306 C 
ATOM      3  O   UNL A   1      37.582  24.731  26.447  1.00  0.00    -0.252 OA
BRANCH   2   4
ATOM      4  C   UNL A   1      36.061  22.839  26.413  1.00  0.00     0.132 C 
BRANCH   4   5
ATOM      5  C   UNL A   1      34.745  23.637  26.432  1.00  0.00     0.112 C 
BRANCH   5   6
ATOM      6  C   UNL A   1      33.490  22.944  25.955  1.00  0.00     0.224 C 
ATOM      7  N   UNL A   1      32.611  23.531  25.092  1.00  0.00    -0.326 N 
ATOM      8  H   UNL A   1      31.723  23.106  25.047  1.00  0.00     0.169 HD
ATOM      9  O   UNL A   1      33.237  21.800  26.348  1.00  0.00    -0.275 OA
BRANCH   7  10
ATOM     10  C   UNL A   1      32.781  24.649  24.257  1.00  0.00     0.042 A 
ATOM     11  C   UNL A   1      31.770  27.571  23.784  1.00  0.00     0.062 A 
ATOM     12  C   UNL A   1      32.174  27.445  22.043  1.00  0.00     0.016 A 
ATOM     13  C   UNL A   1      32.090  26.189  24.891  1.00  0.00     0.041 A 
ATOM     14  C   UNL A   1      32.863  25.927  21.374  1.00  0.00     0.003 A 
ATOM     15  C   UNL A   1      33.208  24.545  22.497  1.00  0.00     0.026 A 
BRANCH  11  16
ATOM     16  C   UNL A   1      31.241  28.855  24.253  1.00  0.00     0.338 C 
ATOM     17  O   UNL A   1      30.128  29.258  23.968  1.00  0.00    -0.246 OA
BRANCH  16  18
ATOM     18  O   UNL A   1      32.228  29.520  24.892  1.00  0.00    -0.462 OA
BRANCH  18  19
ATOM     19  C   UNL A   1      31.864  30.036  26.184  1.00  0.00     0.230 C 
ATOM     20  C   UNL A   1      31.861  28.935  27.233  1.00  0.00     0.049 C 
ENDBRANCH  18  19
ENDBRANCH  16  18
ENDBRANCH  11  16
ENDBRANCH   7  10
ENDBRANCH   5   6
ENDBRANCH   4   5
ENDBRANCH   2   4
ENDBRANCH   1   2
BRANCH   1  21
ATOM     21  C   UNL A   1      39.513  21.994  26.415  1.00  0.00     0.274 C 
BRANCH  21  22
ATOM     22  C   UNL A   1      40.218  19.935  26.131  1.00  0.00     0.275 C 
BRANCH  22  23
ATOM     23  O   UNL A   1      41.670  19.330  26.462  1.00  0.00    -0.458 OA
BRANCH  23  24
ATOM     24  C   UNL A   1      42.776  19.662  25.748  1.00  0.00     0.338 C 
ATOM     25  O   UNL A   1      43.207  19.116  24.749  1.00  0.00    -0.246 OA
BRANCH  24  26
ATOM     26  C   UNL A   1      43.096  21.048  26.159  1.00  0.00     0.060 A 
ATOM     27  C   UNL A   1      43.220  22.032  25.163  1.00  0.00     0.016 A 
ATOM     28  C   UNL A   1      43.173  21.393  27.507  1.00  0.00     0.016 A 
ATOM     29  C   UNL A   1      43.436  23.361  25.508  1.00  0.00     0.010 A 
ATOM     30  C   UNL A   1      43.434  22.718  27.853  1.00  0.00     0.010 A 
ATOM     31  C   UNL A   1      43.601  23.695  26.853  1.00  0.00    -0.014 A 
BRANCH  31  32
ATOM     32  C   UNL A   1      44.234  24.984  27.200  1.00  0.00     0.031 A 
ATOM     33  C   UNL A   1      43.326  26.072  27.701  1.00  0.00     0.074 A 
ATOM     34  C   UNL A   1      45.560  25.170  27.091  1.00  0.00     0.049 A 
ATOM     35  N   UNL A   1      43.587  27.328  27.940  1.00  0.00    -0.248 NA
ATOM     36  C   UNL A   1      41.925  25.688  27.957  1.00  0.00     0.031 C 
ATOM     37  C   UNL A   1      46.531  24.149  26.699  1.00  0.00     0.029 A 
ATOM     38  N   UNL A   1      46.315  26.295  27.291  1.00  0.00    -0.354 N 
ATOM     39  C   UNL A   1      42.377  27.889  28.336  1.00  0.00     0.074 A 
ATOM     40  C   UNL A   1      41.380  26.846  28.290  1.00  0.00     0.031 C 
ATOM     41  C   UNL A   1      47.757  24.704  26.667  1.00  0.00     0.029 A 
ATOM     42  C   UNL A   1      47.645  26.125  26.987  1.00  0.00     0.049 A 
ATOM     43  H   UNL A   1      45.942  27.145  27.621  1.00  0.00     0.167 HD
ATOM     44  C   UNL A   1      42.125  29.167  28.701  1.00  0.00     0.031 A 
ATOM     45  C   UNL A   1      48.643  27.029  26.938  1.00  0.00     0.031 A 
ATOM     46  C   UNL A   1      43.138  30.186  28.732  1.00  0.00     0.049 A 
ATOM     47  C   UNL A   1      48.326  28.464  27.278  1.00  0.00     0.074 A 
ATOM     48  C   UNL A   1      43.012  31.516  29.084  1.00  0.00     0.029 A 
ATOM     49  N   UNL A   1      44.469  29.980  28.393  1.00  0.00    -0.354 N 
ATOM     50  N   UNL A   1      47.178  28.992  27.638  1.00  0.00    -0.248 NA
ATOM     51  C   UNL A   1      49.435  29.423  27.208  1.00  0.00     0.031 C 
ATOM     52  C   UNL A   1      44.255  32.130  28.899  1.00  0.00     0.029 A 
ATOM     53  C   UNL A   1      45.171  31.166  28.504  1.00  0.00     0.049 A 
ATOM     54  H   UNL A   1      44.855  29.118  28.116  1.00  0.00     0.167 HD
ATOM     55  C   UNL A   1      47.433  30.339  27.865  1.00  0.00     0.074 A 
ATOM     56  C   UNL A   1      48.848  30.541  27.616  1.00  0.00     0.031 C 
ATOM     57  C   UNL A   1      46.581  31.325  28.246  1.00  0.00     0.031 A 
BRANCH  44  58
ATOM     58  C   UNL A   1      40.702  29.532  29.037  1.00  0.00    -0.014 A 
ATOM     59  C   UNL A   1      39.708  29.616  28.045  1.00  0.00     0.010 A 
ATOM     60  C   UNL A   1      40.351  29.782  30.376  1.00  0.00     0.010 A 
ATOM     61  C   UNL A   1      38.400  29.978  28.380  1.00  0.00     0.020 A 
ATOM     62  C   UNL A   1      39.037  30.113  30.720  1.00  0.00     0.020 A 
ATOM     63  C   UNL A   1      38.073  30.224  29.718  1.00  0.00     0.054 A 
BRANCH  63  64
ATOM     64  S   UNL A   1      36.360  30.662  30.128  1.00  0.00     0.124 S 
ATOM     65  O   UNL A   1      36.477  32.085  30.435  1.00  0.00    -0.237 OA
ATOM     66  O   UNL A   1      35.647  30.342  28.895  1.00  0.00    -0.237 OA
ATOM     67  O   UNL A   1      36.046  29.803  31.268  1.00  0.00    -0.744 OA
ENDBRANCH  63  64
ENDBRANCH  44  58
BRANCH  45  68
ATOM     68  C   UNL A   1      50.013  26.612  26.525  1.00  0.00    -0.014 A 
ATOM     69  C   UNL A   1      50.948  26.166  27.474  1.00  0.00     0.010 A 
ATOM     70  C   UNL A   1      50.386  26.644  25.167  1.00  0.00     0.010 A 
ATOM     71  C   UNL A   1      52.230  25.768  27.077  1.00  0.00     0.020 A 
ATOM     72  C   UNL A   1      51.654  26.219  24.762  1.00  0.00     0.020 A 
ATOM     73  C   UNL A   1      52.573  25.793  25.722  1.00  0.00     0.054 A 
BRANCH  73  74
ATOM     74  S   UNL A   1      54.221  25.217  25.227  1.00  0.00     0.124 S 
ATOM     75  O   UNL A   1      53.973  23.814  24.911  1.00  0.00    -0.237 OA
ATOM     76  O   UNL A   1      54.526  26.079  24.087  1.00  0.00    -0.237 OA
ATOM     77  O   UNL A   1      55.039  25.457  26.414  1.00  0.00    -0.744 OA
ENDBRANCH  73  74
ENDBRANCH  45  68
BRANCH  57  78
ATOM     78  C   UNL A   1      47.165  32.696  28.459  1.00  0.00    -0.014 A 
ATOM     79  C   UNL A   1      47.226  33.634  27.414  1.00  0.00     0.010 A 
ATOM     80  C   UNL A   1      47.598  33.068  29.745  1.00  0.00     0.010 A 
ATOM     81  C   UNL A   1      47.742  34.911  27.647  1.00  0.00     0.020 A 
ATOM     82  C   UNL A   1      48.083  34.353  29.988  1.00  0.00     0.020 A 
ATOM     83  C   UNL A   1      48.165  35.263  28.933  1.00  0.00     0.054 A 
BRANCH  83  84
ATOM     84  S   UNL A   1      48.787  36.941  29.216  1.00  0.00     0.124 S 
ATOM     85  O   UNL A   1      48.258  37.660  28.060  1.00  0.00    -0.237 OA
ATOM     86  O   UNL A   1      48.188  37.292  30.502  1.00  0.00    -0.237 OA
ATOM     87  O   UNL A   1      50.238  36.776  29.237  1.00  0.00    -0.744 OA
ENDBRANCH  83  84
ENDBRANCH  57  78
ENDBRANCH  31  32
ENDBRANCH  24  26
ENDBRANCH  23  24
ENDBRANCH  22  23
ENDBRANCH  21  22
ENDBRANCH   1  21
TORSDOF 20
ENDMDL
MODEL 3
REMARK VINA RESULT:      -8.9      4.796     11.876
REMARK SMILES CCOC(=O)c1cccc(NC(=O)CCC(=O)OCCOC(=O)c2ccc(-c3c4nc(c(-c5ccc(S(=O)(=O)[O-])cc5)c5ccc([nH]5)c(-c5ccc(S(=O)(=O)[O-])cc5)c5nc(c(-c6ccc(S(=O)(=O)[O-])cc6)c6ccc3[nH]6)C=C5)C=C4)cc2)c1
REMARK SMILES IDX 18 1 16 2 17 3 15 4 14 5 12 6 11 7 13 9 10 10 6 11 7 12
REMARK SMILES IDX 84 13 8 14 9 15 4 16 5 17 3 18 2 19 1 20 19 21 20 22 21 23
REMARK SMILES IDX 22 24 23 25 24 26 25 27 83 28 26 29 82 30 27 31 28 32 29 33
REMARK SMILES IDX 76 34 30 35 81 36 75 37 77 38 31 39 80 40 74 41 73 42 32 44
REMARK SMILES IDX 62 45 43 46 61 47 44 48 47 49 60 50 78 51 45 52 46 53 59 55
REMARK SMILES IDX 79 56 48 57 33 58 34 59 42 60 35 61 41 62 36 63 37 64 38 65
REMARK SMILES IDX 39 66 40 67 63 68 64 69 72 70 65 71 71 72 66 73 67 74 68 75
REMARK SMILES IDX 69 76 70 77 49 78 50 79 58 80 51 81 57 82 52 83 53 84 54 85
REMARK SMILES IDX 55 86 56 87
REMARK H PARENT 11 8 77 43 47 54
REMARK Flexibility Score: inf
ROOT
ATOM      1  O   UNL A   1      50.458  20.246  33.277  1.00  0.00    -0.462 OA
ENDROOT
BRANCH   1   2
ATOM      2  C   UNL A   1      50.168  19.899  34.556  1.00  0.00     0.306 C 
ATOM      3  O   UNL A   1      50.844  19.134  35.232  1.00  0.00    -0.252 OA
BRANCH   2   4
ATOM      4  C   UNL A   1      48.975  20.679  35.111  1.00  0.00     0.132 C 
BRANCH   4   5
ATOM      5  C   UNL A   1      47.562  20.069  35.099  1.00  0.00     0.112 C 
BRANCH   5   6
ATOM      6  C   UNL A   1      46.730  20.186  36.354  1.00  0.00     0.224 C 
ATOM      7  N   UNL A   1      45.978  21.290  36.635  1.00  0.00    -0.326 N 
ATOM      8  H   UNL A   1      45.685  21.368  37.573  1.00  0.00     0.169 HD
ATOM      9  O   UNL A   1      46.714  19.255  37.167  1.00  0.00    -0.275 OA
BRANCH   7  10
ATOM     10  C   UNL A   1      45.559  22.331  35.789  1.00  0.00     0.042 A 
ATOM     11  C   UNL A   1      43.880  24.970  35.744  1.00  0.00     0.062 A 
ATOM     12  C   UNL A   1      43.540  24.742  34.000  1.00  0.00     0.016 A 
ATOM     13  C   UNL A   1      44.901  23.784  36.632  1.00  0.00     0.041 A 
ATOM     14  C   UNL A   1      44.177  23.307  33.127  1.00  0.00     0.003 A 
ATOM     15  C   UNL A   1      45.226  22.126  34.017  1.00  0.00     0.026 A 
BRANCH  11  16
ATOM     16  C   UNL A   1      43.349  26.184  36.372  1.00  0.00     0.338 C 
ATOM     17  O   UNL A   1      43.616  27.305  35.980  1.00  0.00    -0.246 OA
BRANCH  16  18
ATOM     18  O   UNL A   1      42.675  25.832  37.490  1.00  0.00    -0.462 OA
BRANCH  18  19
ATOM     19  C   UNL A   1      41.244  25.870  37.363  1.00  0.00     0.230 C 
ATOM     20  C   UNL A   1      40.789  25.201  36.074  1.00  0.00     0.049 C 
ENDBRANCH  18  19
ENDBRANCH  16  18
ENDBRANCH  11  16
ENDBRANCH   7  10
ENDBRANCH   5   6
ENDBRANCH   4   5
ENDBRANCH   2   4
ENDBRANCH   1   2
BRANCH   1  21
ATOM     21  C   UNL A   1      51.750  21.180  32.890  1.00  0.00     0.274 C 
BRANCH  21  22
ATOM     22  C   UNL A   1      52.051  23.292  33.406  1.00  0.00     0.275 C 
BRANCH  22  23
ATOM     23  O   UNL A   1      50.936  24.397  33.751  1.00  0.00    -0.458 OA
BRANCH  23  24
ATOM     24  C   UNL A   1      51.187  25.730  33.683  1.00  0.00     0.338 C 
ATOM     25  O   UNL A   1      52.241  26.274  33.408  1.00  0.00    -0.246 OA
BRANCH  24  26
ATOM     26  C   UNL A   1      49.855  26.367  33.580  1.00  0.00     0.060 A 
ATOM     27  C   UNL A   1      48.764  25.749  34.215  1.00  0.00     0.016 A 
ATOM     28  C   UNL A   1      49.702  27.604  32.955  1.00  0.00     0.016 A 
ATOM     29  C   UNL A   1      47.513  26.354  34.216  1.00  0.00     0.010 A 
ATOM     30  C   UNL A   1      48.437  28.190  32.917  1.00  0.00     0.010 A 
ATOM     31  C   UNL A   1      47.336  27.549  33.516  1.00  0.00    -0.014 A 
BRANCH  31  32
ATOM     32  C   UNL A   1      45.968  27.974  33.156  1.00  0.00     0.031 A 
ATOM     33  C   UNL A   1      45.302  27.233  32.030  1.00  0.00     0.074 A 
ATOM     34  C   UNL A   1      45.341  28.962  33.816  1.00  0.00     0.049 A 
ATOM     35  N   UNL A   1      44.176  27.485  31.420  1.00  0.00    -0.248 NA
ATOM     36  C   UNL A   1      46.014  26.048  31.515  1.00  0.00     0.031 C 
ATOM     37  C   UNL A   1      45.870  29.678  34.976  1.00  0.00     0.029 A 
ATOM     38  N   UNL A   1      44.120  29.540  33.589  1.00  0.00    -0.354 N 
ATOM     39  C   UNL A   1      44.067  26.516  30.429  1.00  0.00     0.074 A 
ATOM     40  C   UNL A   1      45.243  25.683  30.505  1.00  0.00     0.031 C 
ATOM     41  C   UNL A   1      44.982  30.619  35.348  1.00  0.00     0.029 A 
ATOM     42  C   UNL A   1      43.852  30.601  34.422  1.00  0.00     0.049 A 
ATOM     43  H   UNL A   1      43.493  29.227  32.897  1.00  0.00     0.167 HD
ATOM     44  C   UNL A   1      43.070  26.343  29.531  1.00  0.00     0.031 A 
ATOM     45  C   UNL A   1      42.826  31.475  34.406  1.00  0.00     0.031 A 
ATOM     46  C   UNL A   1      41.911  27.193  29.475  1.00  0.00     0.049 A 
ATOM     47  C   UNL A   1      41.762  31.310  33.351  1.00  0.00     0.074 A 
ATOM     48  C   UNL A   1      40.832  27.123  28.616  1.00  0.00     0.029 A 
ATOM     49  N   UNL A   1      41.688  28.272  30.320  1.00  0.00    -0.354 N 
ATOM     50  N   UNL A   1      41.670  30.401  32.407  1.00  0.00    -0.248 NA
ATOM     51  C   UNL A   1      40.663  32.283  33.359  1.00  0.00     0.031 C 
ATOM     52  C   UNL A   1      39.985  28.199  28.901  1.00  0.00     0.029 A 
ATOM     53  C   UNL A   1      40.499  28.893  29.987  1.00  0.00     0.049 A 
ATOM     54  H   UNL A   1      42.288  28.552  31.049  1.00  0.00     0.167 HD
ATOM     55  C   UNL A   1      40.489  30.676  31.727  1.00  0.00     0.074 A 
ATOM     56  C   UNL A   1      39.895  31.827  32.378  1.00  0.00     0.031 C 
ATOM     57  C   UNL A   1      39.940  30.039  30.661  1.00  0.00     0.031 A 
BRANCH  44  58
ATOM     58  C   UNL A   1      43.222  25.238  28.517  1.00  0.00    -0.014 A 
ATOM     59  C   UNL A   1      42.713  23.948  28.751  1.00  0.00     0.010 A 
ATOM     60  C   UNL A   1      43.877  25.503  27.301  1.00  0.00     0.010 A 
ATOM     61  C   UNL A   1      42.887  22.935  27.803  1.00  0.00     0.020 A 
ATOM     62  C   UNL A   1      44.025  24.502  26.337  1.00  0.00     0.020 A 
ATOM     63  C   UNL A   1      43.541  23.220  26.600  1.00  0.00     0.054 A 
BRANCH  63  64
ATOM     64  S   UNL A   1      43.725  21.893  25.375  1.00  0.00     0.124 S 
ATOM     65  O   UNL A   1      45.104  21.465  25.599  1.00  0.00    -0.237 OA
ATOM     66  O   UNL A   1      42.698  20.940  25.782  1.00  0.00    -0.237 OA
ATOM     67  O   UNL A   1      43.481  22.563  24.100  1.00  0.00    -0.744 OA
ENDBRANCH  63  64
ENDBRANCH  44  58
BRANCH  45  68
ATOM     68  C   UNL A   1      42.778  32.591  35.393  1.00  0.00    -0.014 A 
ATOM     69  C   UNL A   1      43.380  33.829  35.111  1.00  0.00     0.010 A 
ATOM     70  C   UNL A   1      42.110  32.424  36.622  1.00  0.00     0.010 A 
ATOM     71  C   UNL A   1      43.324  34.874  36.040  1.00  0.00     0.020 A 
ATOM     72  C   UNL A   1      42.024  33.475  37.539  1.00  0.00     0.020 A 
ATOM     73  C   UNL A   1      42.641  34.692  37.247  1.00  0.00     0.054 A 
BRANCH  73  74
ATOM     74  S   UNL A   1      42.533  36.082  38.408  1.00  0.00     0.124 S 
ATOM     75  O   UNL A   1      41.106  36.388  38.386  1.00  0.00    -0.237 OA
ATOM     76  O   UNL A   1      43.035  35.496  39.648  1.00  0.00    -0.237 OA
ATOM     77  O   UNL A   1      43.400  37.096  37.812  1.00  0.00    -0.744 OA
ENDBRANCH  73  74
ENDBRANCH  45  68
BRANCH  57  78
ATOM     78  C   UNL A   1      38.613  30.546  30.164  1.00  0.00    -0.014 A 
ATOM     79  C   UNL A   1      37.405  30.119  30.742  1.00  0.00     0.010 A 
ATOM     80  C   UNL A   1      38.586  31.516  29.145  1.00  0.00     0.010 A 
ATOM     81  C   UNL A   1      36.189  30.630  30.284  1.00  0.00     0.020 A 
ATOM     82  C   UNL A   1      37.374  32.054  28.709  1.00  0.00     0.020 A 
ATOM     83  C   UNL A   1      36.182  31.597  29.272  1.00  0.00     0.054 A 
BRANCH  83  84
ATOM     84  S   UNL A   1      34.592  32.277  28.729  1.00  0.00     0.124 S 
ATOM     85  O   UNL A   1      34.050  32.812  29.975  1.00  0.00    -0.237 OA
ATOM     86  O   UNL A   1      34.992  33.274  27.739  1.00  0.00    -0.237 OA
ATOM     87  O   UNL A   1      33.885  31.119  28.188  1.00  0.00    -0.744 OA
ENDBRANCH  83  84
ENDBRANCH  57  78
ENDBRANCH  31  32
ENDBRANCH  24  26
ENDBRANCH  23  24
ENDBRANCH  22  23
ENDBRANCH  21  22
ENDBRANCH   1  21
TORSDOF 20
ENDMDL
