MODEL 1
REMARK VINA RESULT:      -8.5      0.000      0.000
REMARK SMILES CC(C)C[C@H](NC(=O)CNC(=O)[C@@H]([NH3+])C(C)C)C(=O)OCCOC(=O)c1ccc(-c2c3nc(c(-c4ccc(S(=O)(=O)[O-])cc4)c4ccc([nH]4)c(-c4ccc(S(=O)(=O)[O-])cc4)c4nc(c(-c5ccc(S(=O)(=O)[O-])cc5)c5ccc2[nH]5)C=C4)C=C3)cc1
REMARK SMILES IDX 21 1 20 2 18 3 19 4 5 5 4 6 2 7 1 8 3 9 6 10 7 11 8 13 9 14
REMARK SMILES IDX 10 15 11 16 12 18 13 19 14 20 15 24 16 25 17 26 22 27 23 28
REMARK SMILES IDX 24 29 25 30 26 31 27 32 85 33 28 34 84 35 29 36 30 37 31 38
REMARK SMILES IDX 78 39 32 40 83 41 77 42 79 43 33 44 82 45 76 46 75 47 34 49
REMARK SMILES IDX 64 50 45 51 63 52 46 53 49 54 62 55 80 56 47 57 48 58 61 60
REMARK SMILES IDX 81 61 50 62 35 63 36 64 44 65 37 66 43 67 38 68 39 69 40 70
REMARK SMILES IDX 41 71 42 72 65 73 66 74 74 75 67 76 73 77 68 78 69 79 70 80
REMARK SMILES IDX 71 81 72 82 51 83 52 84 60 85 53 86 59 87 54 88 55 89 56 90
REMARK SMILES IDX 57 91 58 92
REMARK H PARENT 6 12 10 17 14 21 14 22 14 23 79 48 49 59
REMARK Flexibility Score: inf
ROOT
ATOM      1  C   UNL A   1      32.759  33.337  27.537  1.00  0.00     0.274 C 
ENDROOT
BRANCH   1   2
ATOM      2  O   UNL A   1      32.946  33.914  28.840  1.00  0.00    -0.461 OA
BRANCH   2   3
ATOM      3  C   UNL A   1      34.075  34.664  29.013  1.00  0.00     0.328 C 
ATOM      4  O   UNL A   1      34.566  35.397  28.165  1.00  0.00    -0.250 OA
BRANCH   3   5
ATOM      5  C   UNL A   1      34.682  34.448  30.402  1.00  0.00     0.192 C 
BRANCH   5   6
ATOM      6  C   UNL A   1      35.462  33.126  30.460  1.00  0.00     0.040 C 
BRANCH   6   7
ATOM      7  C   UNL A   1      36.982  33.067  30.186  1.00  0.00    -0.015 C 
ATOM      8  C   UNL A   1      37.345  33.237  28.706  1.00  0.00     0.007 C 
ATOM      9  C   UNL A   1      37.656  34.215  30.956  1.00  0.00     0.007 C 
ENDBRANCH   6   7
ENDBRANCH   5   6
BRANCH   5  10
ATOM     10  N   UNL A   1      33.655  34.641  31.445  1.00  0.00    -0.341 N 
ATOM     11  C   UNL A   1      33.717  35.417  32.572  1.00  0.00     0.240 C 
ATOM     12  H   UNL A   1      32.814  34.145  31.314  1.00  0.00     0.164 HD
ATOM     13  O   UNL A   1      32.718  36.073  32.881  1.00  0.00    -0.273 OA
BRANCH  11  14
ATOM     14  C   UNL A   1      34.968  35.444  33.455  1.00  0.00     0.216 C 
BRANCH  14  15
ATOM     15  N   UNL A   1      35.354  34.073  33.755  1.00  0.00    -0.342 N 
ATOM     16  C   UNL A   1      36.453  33.477  34.274  1.00  0.00     0.278 C 
ATOM     17  H   UNL A   1      34.649  33.425  33.526  1.00  0.00     0.164 HD
ATOM     18  O   UNL A   1      36.431  32.238  34.227  1.00  0.00    -0.268 OA
BRANCH  16  19
ATOM     19  C   UNL A   1      37.711  34.211  34.833  1.00  0.00     0.273 C 
BRANCH  19  20
ATOM     20  N   UNL A   1      38.008  33.879  36.239  1.00  0.00    -0.347 N 
ATOM     21  H   UNL A   1      38.265  34.728  36.742  1.00  0.00     0.345 HD
ATOM     22  H   UNL A   1      38.782  33.215  36.276  1.00  0.00     0.345 HD
ATOM     23  H   UNL A   1      37.183  33.463  36.672  1.00  0.00     0.345 HD
ENDBRANCH  19  20
BRANCH  19  24
ATOM     24  C   UNL A   1      38.937  33.982  33.909  1.00  0.00     0.051 C 
ATOM     25  C   UNL A   1      40.156  34.795  34.374  1.00  0.00     0.014 C 
ATOM     26  C   UNL A   1      39.363  32.507  33.845  1.00  0.00     0.014 C 
ENDBRANCH  19  24
ENDBRANCH  16  19
ENDBRANCH  14  15
ENDBRANCH  11  14
ENDBRANCH   5  10
ENDBRANCH   3   5
ENDBRANCH   2   3
ENDBRANCH   1   2
BRANCH   1  27
ATOM     27  C   UNL A   1      32.866  31.808  27.574  1.00  0.00     0.275 C 
BRANCH  27  28
ATOM     28  O   UNL A   1      34.148  31.360  28.052  1.00  0.00    -0.458 OA
BRANCH  28  29
ATOM     29  C   UNL A   1      34.567  30.167  27.576  1.00  0.00     0.338 C 
ATOM     30  O   UNL A   1      33.992  29.469  26.743  1.00  0.00    -0.246 OA
BRANCH  29  31
ATOM     31  C   UNL A   1      35.932  29.880  28.047  1.00  0.00     0.060 A 
ATOM     32  C   UNL A   1      36.989  30.002  27.134  1.00  0.00     0.016 A 
ATOM     33  C   UNL A   1      36.175  29.467  29.357  1.00  0.00     0.016 A 
ATOM     34  C   UNL A   1      38.292  29.714  27.522  1.00  0.00     0.010 A 
ATOM     35  C   UNL A   1      37.484  29.168  29.744  1.00  0.00     0.010 A 
ATOM     36  C   UNL A   1      38.544  29.280  28.828  1.00  0.00    -0.014 A 
BRANCH  36  37
ATOM     37  C   UNL A   1      39.906  28.859  29.222  1.00  0.00     0.031 A 
ATOM     38  C   UNL A   1      40.808  29.850  29.893  1.00  0.00     0.074 A 
ATOM     39  C   UNL A   1      40.335  27.612  28.955  1.00  0.00     0.049 A 
ATOM     40  N   UNL A   1      42.081  29.752  30.171  1.00  0.00    -0.248 NA
ATOM     41  C   UNL A   1      40.194  31.125  30.298  1.00  0.00     0.031 C 
ATOM     42  C   UNL A   1      39.526  26.548  28.359  1.00  0.00     0.029 A 
ATOM     43  N   UNL A   1      41.569  27.040  29.131  1.00  0.00    -0.354 N 
ATOM     44  C   UNL A   1      42.432  30.966  30.749  1.00  0.00     0.074 A 
ATOM     45  C   UNL A   1      41.238  31.784  30.778  1.00  0.00     0.031 C 
ATOM     46  C   UNL A   1      40.295  25.459  28.193  1.00  0.00     0.029 A 
ATOM     47  C   UNL A   1      41.657  25.768  28.620  1.00  0.00     0.049 A 
ATOM     48  H   UNL A   1      42.318  27.497  29.579  1.00  0.00     0.167 HD
ATOM     49  C   UNL A   1      43.645  31.363  31.200  1.00  0.00     0.031 A 
ATOM     50  C   UNL A   1      42.727  24.962  28.466  1.00  0.00     0.031 A 
ATOM     51  C   UNL A   1      44.824  30.540  31.159  1.00  0.00     0.049 A 
ATOM     52  C   UNL A   1      44.079  25.444  28.918  1.00  0.00     0.074 A 
ATOM     53  C   UNL A   1      46.098  30.839  31.607  1.00  0.00     0.029 A 
ATOM     54  N   UNL A   1      44.874  29.259  30.629  1.00  0.00    -0.354 N 
ATOM     55  N   UNL A   1      44.401  26.591  29.467  1.00  0.00    -0.248 NA
ATOM     56  C   UNL A   1      45.210  24.528  28.728  1.00  0.00     0.031 C 
ATOM     57  C   UNL A   1      46.931  29.758  31.298  1.00  0.00     0.029 A 
ATOM     58  C   UNL A   1      46.163  28.763  30.712  1.00  0.00     0.049 A 
ATOM     59  H   UNL A   1      44.106  28.774  30.248  1.00  0.00     0.167 HD
ATOM     60  C   UNL A   1      45.769  26.527  29.706  1.00  0.00     0.074 A 
ATOM     61  C   UNL A   1      46.211  25.225  29.250  1.00  0.00     0.031 C 
ATOM     62  C   UNL A   1      46.583  27.462  30.255  1.00  0.00     0.031 A 
BRANCH  49  63
ATOM     63  C   UNL A   1      43.762  32.771  31.718  1.00  0.00    -0.014 A 
ATOM     64  C   UNL A   1      43.737  33.054  33.095  1.00  0.00     0.010 A 
ATOM     65  C   UNL A   1      43.901  33.831  30.803  1.00  0.00     0.010 A 
ATOM     66  C   UNL A   1      43.798  34.376  33.545  1.00  0.00     0.020 A 
ATOM     67  C   UNL A   1      43.989  35.151  31.249  1.00  0.00     0.020 A 
ATOM     68  C   UNL A   1      43.914  35.417  32.618  1.00  0.00     0.054 A 
BRANCH  68  69
ATOM     69  S   UNL A   1      43.983  37.125  33.226  1.00  0.00     0.124 S 
ATOM     70  O   UNL A   1      44.195  37.874  31.989  1.00  0.00    -0.237 OA
ATOM     71  O   UNL A   1      42.673  37.299  33.848  1.00  0.00    -0.237 OA
ATOM     72  O   UNL A   1      45.113  37.117  34.151  1.00  0.00    -0.744 OA
ENDBRANCH  68  69
ENDBRANCH  49  63
BRANCH  50  73
ATOM     73  C   UNL A   1      42.556  23.640  27.808  1.00  0.00    -0.014 A 
ATOM     74  C   UNL A   1      42.817  23.479  26.437  1.00  0.00     0.010 A 
ATOM     75  C   UNL A   1      42.173  22.518  28.568  1.00  0.00     0.010 A 
ATOM     76  C   UNL A   1      42.699  22.220  25.838  1.00  0.00     0.020 A 
ATOM     77  C   UNL A   1      42.080  21.254  27.979  1.00  0.00     0.020 A 
ATOM     78  C   UNL A   1      42.339  21.115  26.615  1.00  0.00     0.054 A 
BRANCH  78  79
ATOM     79  S   UNL A   1      42.277  19.477  25.834  1.00  0.00     0.124 S 
ATOM     80  O   UNL A   1      40.885  19.398  25.404  1.00  0.00    -0.237 OA
ATOM     81  O   UNL A   1      43.265  19.600  24.764  1.00  0.00    -0.237 OA
ATOM     82  O   UNL A   1      42.655  18.569  26.915  1.00  0.00    -0.744 OA
ENDBRANCH  78  79
ENDBRANCH  50  73
BRANCH  62  83
ATOM     83  C   UNL A   1      48.035  27.105  30.432  1.00  0.00    -0.014 A 
ATOM     84  C   UNL A   1      48.996  27.467  29.472  1.00  0.00     0.010 A 
ATOM     85  C   UNL A   1      48.452  26.480  31.621  1.00  0.00     0.010 A 
ATOM     86  C   UNL A   1      50.349  27.203  29.696  1.00  0.00     0.020 A 
ATOM     87  C   UNL A   1      49.807  26.235  31.859  1.00  0.00     0.020 A 
ATOM     88  C   UNL A   1      50.747  26.592  30.890  1.00  0.00     0.054 A 
BRANCH  88  89
ATOM     89  S   UNL A   1      52.516  26.328  31.191  1.00  0.00     0.124 S 
ATOM     90  O   UNL A   1      53.052  26.287  29.833  1.00  0.00    -0.237 OA
ATOM     91  O   UNL A   1      52.887  27.502  31.977  1.00  0.00    -0.237 OA
ATOM     92  O   UNL A   1      52.560  25.061  31.918  1.00  0.00    -0.744 OA
ENDBRANCH  88  89
ENDBRANCH  62  83
ENDBRANCH  36  37
ENDBRANCH  29  31
ENDBRANCH  28  29
ENDBRANCH  27  28
ENDBRANCH   1  27
TORSDOF 22
ENDMDL
MODEL 2
REMARK VINA RESULT:      -8.4      4.507     10.626
REMARK SMILES CC(C)C[C@H](NC(=O)CNC(=O)[C@@H]([NH3+])C(C)C)C(=O)OCCOC(=O)c1ccc(-c2c3nc(c(-c4ccc(S(=O)(=O)[O-])cc4)c4ccc([nH]4)c(-c4ccc(S(=O)(=O)[O-])cc4)c4nc(c(-c5ccc(S(=O)(=O)[O-])cc5)c5ccc2[nH]5)C=C4)C=C3)cc1
REMARK SMILES IDX 21 1 20 2 18 3 19 4 5 5 4 6 2 7 1 8 3 9 6 10 7 11 8 13 9 14
REMARK SMILES IDX 10 15 11 16 12 18 13 19 14 20 15 24 16 25 17 26 22 27 23 28
REMARK SMILES IDX 24 29 25 30 26 31 27 32 85 33 28 34 84 35 29 36 30 37 31 38
REMARK SMILES IDX 78 39 32 40 83 41 77 42 79 43 33 44 82 45 76 46 75 47 34 49
REMARK SMILES IDX 64 50 45 51 63 52 46 53 49 54 62 55 80 56 47 57 48 58 61 60
REMARK SMILES IDX 81 61 50 62 35 63 36 64 44 65 37 66 43 67 38 68 39 69 40 70
REMARK SMILES IDX 41 71 42 72 65 73 66 74 74 75 67 76 73 77 68 78 69 79 70 80
REMARK SMILES IDX 71 81 72 82 51 83 52 84 60 85 53 86 59 87 54 88 55 89 56 90
REMARK SMILES IDX 57 91 58 92
REMARK H PARENT 6 12 10 17 14 21 14 22 14 23 79 48 49 59
REMARK Flexibility Score: inf
ROOT
ATOM      1  C   UNL A   1      32.079  29.476  25.675  1.00  0.00     0.274 C 
ENDROOT
BRANCH   1   2
ATOM      2  O   UNL A   1      32.470  28.144  26.045  1.00  0.00    -0.461 OA
BRANCH   2   3
ATOM      3  C   UNL A   1      31.523  27.390  26.679  1.00  0.00     0.328 C 
ATOM      4  O   UNL A   1      31.074  27.621  27.793  1.00  0.00    -0.250 OA
BRANCH   3   5
ATOM      5  C   UNL A   1      31.109  26.183  25.832  1.00  0.00     0.192 C 
BRANCH   5   6
ATOM      6  C   UNL A   1      30.075  26.588  24.770  1.00  0.00     0.040 C 
BRANCH   6   7
ATOM      7  C   UNL A   1      30.430  26.632  23.267  1.00  0.00    -0.015 C 
ATOM      8  C   UNL A   1      30.325  28.032  22.652  1.00  0.00     0.007 C 
ATOM      9  C   UNL A   1      31.888  26.169  23.101  1.00  0.00     0.007 C 
ENDBRANCH   6   7
ENDBRANCH   5   6
BRANCH   5  10
ATOM     10  N   UNL A   1      30.735  25.051  26.703  1.00  0.00    -0.341 N 
ATOM     11  C   UNL A   1      31.153  23.748  26.638  1.00  0.00     0.240 C 
ATOM     12  H   UNL A   1      30.100  25.260  27.427  1.00  0.00     0.164 HD
ATOM     13  O   UNL A   1      31.421  23.171  27.695  1.00  0.00    -0.273 OA
BRANCH  11  14
ATOM     14  C   UNL A   1      31.247  23.007  25.302  1.00  0.00     0.216 C 
BRANCH  14  15
ATOM     15  N   UNL A   1      31.850  21.702  25.536  1.00  0.00    -0.342 N 
ATOM     16  C   UNL A   1      33.109  21.249  25.735  1.00  0.00     0.278 C 
ATOM     17  H   UNL A   1      31.183  20.978  25.554  1.00  0.00     0.164 HD
ATOM     18  O   UNL A   1      33.210  20.013  25.752  1.00  0.00    -0.268 OA
BRANCH  16  19
ATOM     19  C   UNL A   1      34.388  22.134  25.865  1.00  0.00     0.273 C 
BRANCH  19  20
ATOM     20  N   UNL A   1      35.550  21.409  26.414  1.00  0.00    -0.347 N 
ATOM     21  H   UNL A   1      36.343  21.510  25.781  1.00  0.00     0.345 HD
ATOM     22  H   UNL A   1      35.318  20.421  26.514  1.00  0.00     0.345 HD
ATOM     23  H   UNL A   1      35.791  21.796  27.327  1.00  0.00     0.345 HD
ENDBRANCH  19  20
BRANCH  19  24
ATOM     24  C   UNL A   1      34.717  22.826  24.515  1.00  0.00     0.051 C 
ATOM     25  C   UNL A   1      34.714  24.357  24.649  1.00  0.00     0.014 C 
ATOM     26  C   UNL A   1      36.089  22.414  23.957  1.00  0.00     0.014 C 
ENDBRANCH  19  24
ENDBRANCH  16  19
ENDBRANCH  14  15
ENDBRANCH  11  14
ENDBRANCH   5  10
ENDBRANCH   3   5
ENDBRANCH   2   3
ENDBRANCH   1   2
BRANCH   1  27
ATOM     27  C   UNL A   1      32.362  30.482  26.797  1.00  0.00     0.275 C 
BRANCH  27  28
ATOM     28  O   UNL A   1      33.659  30.289  27.390  1.00  0.00    -0.458 OA
BRANCH  28  29
ATOM     29  C   UNL A   1      34.245  31.399  27.893  1.00  0.00     0.338 C 
ATOM     30  O   UNL A   1      33.720  32.501  28.039  1.00  0.00    -0.246 OA
BRANCH  29  31
ATOM     31  C   UNL A   1      35.573  31.073  28.437  1.00  0.00     0.060 A 
ATOM     32  C   UNL A   1      35.732  29.856  29.114  1.00  0.00     0.016 A 
ATOM     33  C   UNL A   1      36.644  31.958  28.316  1.00  0.00     0.016 A 
ATOM     34  C   UNL A   1      36.959  29.514  29.672  1.00  0.00     0.010 A 
ATOM     35  C   UNL A   1      37.874  31.620  28.886  1.00  0.00     0.010 A 
ATOM     36  C   UNL A   1      38.034  30.404  29.574  1.00  0.00    -0.014 A 
BRANCH  36  37
ATOM     37  C   UNL A   1      39.309  30.108  30.261  1.00  0.00     0.031 A 
ATOM     38  C   UNL A   1      40.165  28.985  29.755  1.00  0.00     0.074 A 
ATOM     39  C   UNL A   1      39.680  30.820  31.341  1.00  0.00     0.049 A 
ATOM     40  N   UNL A   1      41.226  28.449  30.296  1.00  0.00    -0.248 NA
ATOM     41  C   UNL A   1      39.765  28.384  28.472  1.00  0.00     0.031 C 
ATOM     42  C   UNL A   1      38.956  31.969  31.886  1.00  0.00     0.029 A 
ATOM     43  N   UNL A   1      40.748  30.661  32.185  1.00  0.00    -0.354 N 
ATOM     44  C   UNL A   1      41.601  27.420  29.440  1.00  0.00     0.074 A 
ATOM     45  C   UNL A   1      40.651  27.408  28.348  1.00  0.00     0.031 C 
ATOM     46  C   UNL A   1      39.587  32.395  32.992  1.00  0.00     0.029 A 
ATOM     47  C   UNL A   1      40.725  31.518  33.260  1.00  0.00     0.049 A 
ATOM     48  H   UNL A   1      41.462  29.999  32.037  1.00  0.00     0.167 HD
ATOM     49  C   UNL A   1      42.637  26.557  29.566  1.00  0.00     0.031 A 
ATOM     50  C   UNL A   1      41.500  31.557  34.362  1.00  0.00     0.031 A 
ATOM     51  C   UNL A   1      43.569  26.579  30.661  1.00  0.00     0.049 A 
ATOM     52  C   UNL A   1      42.609  30.550  34.514  1.00  0.00     0.074 A 
ATOM     53  C   UNL A   1      44.665  25.761  30.874  1.00  0.00     0.029 A 
ATOM     54  N   UNL A   1      43.508  27.457  31.732  1.00  0.00    -0.354 N 
ATOM     55  N   UNL A   1      42.959  29.585  33.698  1.00  0.00    -0.248 NA
ATOM     56  C   UNL A   1      43.424  30.637  35.732  1.00  0.00     0.031 C 
ATOM     57  C   UNL A   1      45.235  26.112  32.102  1.00  0.00     0.029 A 
ATOM     58  C   UNL A   1      44.530  27.186  32.625  1.00  0.00     0.049 A 
ATOM     59  H   UNL A   1      42.837  28.169  31.842  1.00  0.00     0.167 HD
ATOM     60  C   UNL A   1      44.048  28.959  34.294  1.00  0.00     0.074 A 
ATOM     61  C   UNL A   1      44.304  29.663  35.535  1.00  0.00     0.031 C 
ATOM     62  C   UNL A   1      44.770  27.900  33.854  1.00  0.00     0.031 A 
BRANCH  49  63
ATOM     63  C   UNL A   1      42.771  25.483  28.520  1.00  0.00    -0.014 A 
ATOM     64  C   UNL A   1      42.331  24.168  28.754  1.00  0.00     0.010 A 
ATOM     65  C   UNL A   1      43.347  25.803  27.276  1.00  0.00     0.010 A 
ATOM     66  C   UNL A   1      42.514  23.180  27.782  1.00  0.00     0.020 A 
ATOM     67  C   UNL A   1      43.507  24.824  26.293  1.00  0.00     0.020 A 
ATOM     68  C   UNL A   1      43.110  23.512  26.561  1.00  0.00     0.054 A 
BRANCH  68  69
ATOM     69  S   UNL A   1      43.343  22.211  25.320  1.00  0.00     0.124 S 
ATOM     70  O   UNL A   1      43.451  22.989  24.088  1.00  0.00    -0.237 OA
ATOM     71  O   UNL A   1      44.574  21.560  25.761  1.00  0.00    -0.237 OA
ATOM     72  O   UNL A   1      42.135  21.398  25.439  1.00  0.00    -0.744 OA
ENDBRANCH  68  69
ENDBRANCH  49  63
BRANCH  50  73
ATOM     73  C   UNL A   1      41.211  32.556  35.424  1.00  0.00    -0.014 A 
ATOM     74  C   UNL A   1      41.687  33.874  35.321  1.00  0.00     0.010 A 
ATOM     75  C   UNL A   1      40.413  32.201  36.528  1.00  0.00     0.010 A 
ATOM     76  C   UNL A   1      41.369  34.819  36.302  1.00  0.00     0.020 A 
ATOM     77  C   UNL A   1      40.071  33.149  37.496  1.00  0.00     0.020 A 
ATOM     78  C   UNL A   1      40.556  34.452  37.379  1.00  0.00     0.054 A 
BRANCH  78  79
ATOM     79  S   UNL A   1      40.086  35.716  38.594  1.00  0.00     0.124 S 
ATOM     80  O   UNL A   1      41.251  35.743  39.472  1.00  0.00    -0.237 OA
ATOM     81  O   UNL A   1      39.894  36.900  37.758  1.00  0.00    -0.237 OA
ATOM     82  O   UNL A   1      38.863  35.181  39.187  1.00  0.00    -0.744 OA
ENDBRANCH  78  79
ENDBRANCH  50  73
BRANCH  62  83
ATOM     83  C   UNL A   1      45.935  27.452  34.695  1.00  0.00    -0.014 A 
ATOM     84  C   UNL A   1      45.788  26.443  35.663  1.00  0.00     0.010 A 
ATOM     85  C   UNL A   1      47.213  27.984  34.445  1.00  0.00     0.010 A 
ATOM     86  C   UNL A   1      46.899  25.981  36.373  1.00  0.00     0.020 A 
ATOM     87  C   UNL A   1      48.330  27.508  35.136  1.00  0.00     0.020 A 
ATOM     88  C   UNL A   1      48.164  26.514  36.102  1.00  0.00     0.054 A 
BRANCH  88  89
ATOM     89  S   UNL A   1      49.603  25.844  36.982  1.00  0.00     0.124 S 
ATOM     90  O   UNL A   1      50.385  25.271  35.890  1.00  0.00    -0.237 OA
ATOM     91  O   UNL A   1      50.176  27.031  37.610  1.00  0.00    -0.237 OA
ATOM     92  O   UNL A   1      49.022  24.875  37.908  1.00  0.00    -0.744 OA
ENDBRANCH  88  89
ENDBRANCH  62  83
ENDBRANCH  36  37
ENDBRANCH  29  31
ENDBRANCH  28  29
ENDBRANCH  27  28
ENDBRANCH   1  27
TORSDOF 22
ENDMDL
MODEL 3
REMARK VINA RESULT:      -8.3      4.306      7.208
REMARK SMILES CC(C)C[C@H](NC(=O)CNC(=O)[C@@H]([NH3+])C(C)C)C(=O)OCCOC(=O)c1ccc(-c2c3nc(c(-c4ccc(S(=O)(=O)[O-])cc4)c4ccc([nH]4)c(-c4ccc(S(=O)(=O)[O-])cc4)c4nc(c(-c5ccc(S(=O)(=O)[O-])cc5)c5ccc2[nH]5)C=C4)C=C3)cc1
REMARK SMILES IDX 21 1 20 2 18 3 19 4 5 5 4 6 2 7 1 8 3 9 6 10 7 11 8 13 9 14
REMARK SMILES IDX 10 15 11 16 12 18 13 19 14 20 15 24 16 25 17 26 22 27 23 28
REMARK SMILES IDX 24 29 25 30 26 31 27 32 85 33 28 34 84 35 29 36 30 37 31 38
REMARK SMILES IDX 78 39 32 40 83 41 77 42 79 43 33 44 82 45 76 46 75 47 34 49
REMARK SMILES IDX 64 50 45 51 63 52 46 53 49 54 62 55 80 56 47 57 48 58 61 60
REMARK SMILES IDX 81 61 50 62 35 63 36 64 44 65 37 66 43 67 38 68 39 69 40 70
REMARK SMILES IDX 41 71 42 72 65 73 66 74 74 75 67 76 73 77 68 78 69 79 70 80
REMARK SMILES IDX 71 81 72 82 51 83 52 84 60 85 53 86 59 87 54 88 55 89 56 90
REMARK SMILES IDX 57 91 58 92
REMARK H PARENT 6 12 10 17 14 21 14 22 14 23 79 48 49 59
REMARK Flexibility Score: inf
ROOT
ATOM      1  C   UNL A   1      33.248  27.314  26.243  1.00  0.00     0.274 C 
ENDROOT
BRANCH   1   2
ATOM      2  O   UNL A   1      33.965  26.315  25.499  1.00  0.00    -0.461 OA
BRANCH   2   3
ATOM      3  C   UNL A   1      33.495  26.040  24.246  1.00  0.00     0.328 C 
ATOM      4  O   UNL A   1      34.055  26.352  23.204  1.00  0.00    -0.250 OA
BRANCH   3   5
ATOM      5  C   UNL A   1      32.146  25.317  24.300  1.00  0.00     0.192 C 
BRANCH   5   6
ATOM      6  C   UNL A   1      32.343  23.805  24.487  1.00  0.00     0.040 C 
BRANCH   6   7
ATOM      7  C   UNL A   1      32.125  23.121  25.856  1.00  0.00    -0.015 C 
ATOM      8  C   UNL A   1      30.760  23.426  26.484  1.00  0.00     0.007 C 
ATOM      9  C   UNL A   1      32.204  21.598  25.653  1.00  0.00     0.007 C 
ENDBRANCH   6   7
ENDBRANCH   5   6
BRANCH   5  10
ATOM     10  N   UNL A   1      31.302  25.724  23.159  1.00  0.00    -0.341 N 
ATOM     11  C   UNL A   1      30.828  26.971  22.850  1.00  0.00     0.240 C 
ATOM     12  H   UNL A   1      31.045  25.003  22.538  1.00  0.00     0.164 HD
ATOM     13  O   UNL A   1      30.849  27.324  21.667  1.00  0.00    -0.273 OA
BRANCH  11  14
ATOM     14  C   UNL A   1      30.245  27.893  23.925  1.00  0.00     0.216 C 
BRANCH  14  15
ATOM     15  N   UNL A   1      28.918  28.316  23.505  1.00  0.00    -0.342 N 
ATOM     16  C   UNL A   1      28.399  29.435  22.946  1.00  0.00     0.278 C 
ATOM     17  H   UNL A   1      28.234  27.625  23.664  1.00  0.00     0.164 HD
ATOM     18  O   UNL A   1      27.161  29.443  22.878  1.00  0.00    -0.268 OA
BRANCH  16  19
ATOM     19  C   UNL A   1      29.211  30.680  22.473  1.00  0.00     0.273 C 
BRANCH  19  20
ATOM     20  N   UNL A   1      30.131  30.391  21.356  1.00  0.00    -0.347 N 
ATOM     21  H   UNL A   1      30.447  29.423  21.418  1.00  0.00     0.345 HD
ATOM     22  H   UNL A   1      30.936  31.016  21.409  1.00  0.00     0.345 HD
ATOM     23  H   UNL A   1      29.646  30.535  20.470  1.00  0.00     0.345 HD
ENDBRANCH  19  20
BRANCH  19  24
ATOM     24  C   UNL A   1      28.262  31.867  22.154  1.00  0.00     0.051 C 
ATOM     25  C   UNL A   1      28.774  33.180  22.768  1.00  0.00     0.014 C 
ATOM     26  C   UNL A   1      28.090  32.098  20.645  1.00  0.00     0.014 C 
ENDBRANCH  19  24
ENDBRANCH  16  19
ENDBRANCH  14  15
ENDBRANCH  11  14
ENDBRANCH   5  10
ENDBRANCH   3   5
ENDBRANCH   2   3
ENDBRANCH   1   2
BRANCH   1  27
ATOM     27  C   UNL A   1      33.887  28.699  26.093  1.00  0.00     0.275 C 
BRANCH  27  28
ATOM     28  O   UNL A   1      33.731  29.504  27.276  1.00  0.00    -0.458 OA
BRANCH  28  29
ATOM     29  C   UNL A   1      34.597  30.535  27.402  1.00  0.00     0.338 C 
ATOM     30  O   UNL A   1      34.351  31.724  27.208  1.00  0.00    -0.246 OA
BRANCH  29  31
ATOM     31  C   UNL A   1      35.859  30.072  28.000  1.00  0.00     0.060 A 
ATOM     32  C   UNL A   1      35.819  29.509  29.284  1.00  0.00     0.016 A 
ATOM     33  C   UNL A   1      37.075  30.212  27.331  1.00  0.00     0.016 A 
ATOM     34  C   UNL A   1      36.987  29.082  29.904  1.00  0.00     0.010 A 
ATOM     35  C   UNL A   1      38.250  29.794  27.958  1.00  0.00     0.010 A 
ATOM     36  C   UNL A   1      38.213  29.238  29.249  1.00  0.00    -0.014 A 
BRANCH  36  37
ATOM     37  C   UNL A   1      39.475  28.898  29.941  1.00  0.00     0.031 A 
ATOM     38  C   UNL A   1      39.903  29.722  31.119  1.00  0.00     0.074 A 
ATOM     39  C   UNL A   1      40.238  27.881  29.502  1.00  0.00     0.049 A 
ATOM     40  N   UNL A   1      41.038  29.709  31.765  1.00  0.00    -0.248 NA
ATOM     41  C   UNL A   1      38.922  30.693  31.629  1.00  0.00     0.031 C 
ATOM     42  C   UNL A   1      39.894  26.978  28.403  1.00  0.00     0.029 A 
ATOM     43  N   UNL A   1      41.475  27.456  29.913  1.00  0.00    -0.354 N 
ATOM     44  C   UNL A   1      40.926  30.697  32.736  1.00  0.00     0.074 A 
ATOM     45  C   UNL A   1      39.613  31.289  32.590  1.00  0.00     0.031 C 
ATOM     46  C   UNL A   1      40.910  26.121  28.210  1.00  0.00     0.029 A 
ATOM     47  C   UNL A   1      41.993  26.451  29.133  1.00  0.00     0.049 A 
ATOM     48  H   UNL A   1      41.945  27.835  30.692  1.00  0.00     0.167 HD
ATOM     49  C   UNL A   1      41.843  31.081  33.655  1.00  0.00     0.031 A 
ATOM     50  C   UNL A   1      43.221  25.895  29.128  1.00  0.00     0.031 A 
ATOM     51  C   UNL A   1      43.146  30.486  33.784  1.00  0.00     0.049 A 
ATOM     52  C   UNL A   1      44.248  26.378  30.117  1.00  0.00     0.074 A 
ATOM     53  C   UNL A   1      44.144  30.789  34.694  1.00  0.00     0.029 A 
ATOM     54  N   UNL A   1      43.636  29.475  32.971  1.00  0.00    -0.354 N 
ATOM     55  N   UNL A   1      44.132  27.308  31.034  1.00  0.00    -0.248 NA
ATOM     56  C   UNL A   1      45.569  25.739  30.071  1.00  0.00     0.031 C 
ATOM     57  C   UNL A   1      45.256  29.996  34.396  1.00  0.00     0.029 A 
ATOM     58  C   UNL A   1      44.931  29.158  33.339  1.00  0.00     0.049 A 
ATOM     59  H   UNL A   1      43.135  29.045  32.240  1.00  0.00     0.167 HD
ATOM     60  C   UNL A   1      45.358  27.354  31.687  1.00  0.00     0.074 A 
ATOM     61  C   UNL A   1      46.198  26.350  31.066  1.00  0.00     0.031 C 
ATOM     62  C   UNL A   1      45.751  28.153  32.709  1.00  0.00     0.031 A 
BRANCH  49  63
ATOM     63  C   UNL A   1      41.482  32.238  34.548  1.00  0.00    -0.014 A 
ATOM     64  C   UNL A   1      40.901  32.041  35.812  1.00  0.00     0.010 A 
ATOM     65  C   UNL A   1      41.736  33.551  34.107  1.00  0.00     0.010 A 
ATOM     66  C   UNL A   1      40.532  33.136  36.598  1.00  0.00     0.020 A 
ATOM     67  C   UNL A   1      41.393  34.647  34.901  1.00  0.00     0.020 A 
ATOM     68  C   UNL A   1      40.771  34.434  36.133  1.00  0.00     0.054 A 
BRANCH  68  69
ATOM     69  S   UNL A   1      40.276  35.838  37.167  1.00  0.00     0.124 S 
ATOM     70  O   UNL A   1      39.754  36.773  36.172  1.00  0.00    -0.237 OA
ATOM     71  O   UNL A   1      39.279  35.248  38.057  1.00  0.00    -0.237 OA
ATOM     72  O   UNL A   1      41.520  36.247  37.814  1.00  0.00    -0.744 OA
ENDBRANCH  68  69
ENDBRANCH  49  63
BRANCH  50  73
ATOM     73  C   UNL A   1      43.549  24.857  28.115  1.00  0.00    -0.014 A 
ATOM     74  C   UNL A   1      43.142  23.525  28.291  1.00  0.00     0.010 A 
ATOM     75  C   UNL A   1      44.238  25.213  26.939  1.00  0.00     0.010 A 
ATOM     76  C   UNL A   1      43.414  22.566  27.309  1.00  0.00     0.020 A 
ATOM     77  C   UNL A   1      44.489  24.264  25.945  1.00  0.00     0.020 A 
ATOM     78  C   UNL A   1      44.079  22.945  26.139  1.00  0.00     0.054 A 
BRANCH  78  79
ATOM     79  S   UNL A   1      44.345  21.703  24.841  1.00  0.00     0.124 S 
ATOM     80  O   UNL A   1      43.425  20.644  25.241  1.00  0.00    -0.237 OA
ATOM     81  O   UNL A   1      43.983  22.433  23.628  1.00  0.00    -0.237 OA
ATOM     82  O   UNL A   1      45.765  21.382  24.962  1.00  0.00    -0.744 OA
ENDBRANCH  78  79
ENDBRANCH  50  73
BRANCH  62  83
ATOM     83  C   UNL A   1      47.141  27.958  33.253  1.00  0.00    -0.014 A 
ATOM     84  C   UNL A   1      48.253  28.562  32.643  1.00  0.00     0.010 A 
ATOM     85  C   UNL A   1      47.320  27.235  34.447  1.00  0.00     0.010 A 
ATOM     86  C   UNL A   1      49.523  28.439  33.212  1.00  0.00     0.020 A 
ATOM     87  C   UNL A   1      48.584  27.129  35.032  1.00  0.00     0.020 A 
ATOM     88  C   UNL A   1      49.679  27.726  34.406  1.00  0.00     0.054 A 
BRANCH  88  89
ATOM     89  S   UNL A   1      51.324  27.645  35.168  1.00  0.00     0.124 S 
ATOM     90  O   UNL A   1      51.238  26.411  35.944  1.00  0.00    -0.237 OA
ATOM     91  O   UNL A   1      52.212  27.598  34.010  1.00  0.00    -0.237 OA
ATOM     92  O   UNL A   1      51.403  28.873  35.956  1.00  0.00    -0.744 OA
ENDBRANCH  88  89
ENDBRANCH  62  83
ENDBRANCH  36  37
ENDBRANCH  29  31
ENDBRANCH  28  29
ENDBRANCH  27  28
ENDBRANCH   1  27
TORSDOF 22
ENDMDL
