MODEL 1
REMARK VINA RESULT:     -11.9      0.000      0.000
REMARK SMILES Cc1nc(-c2ccccc2)sc1C(=O)N[C@@H](CC1=c2ccccc2=NC1)C(=O)OCCOC(=O)c1ccc(-c2c3nc(c(-c4ccc(S(=O)(=O)[O-])cc4)c4ccc([nH]4)c(-c4ccc(S(=O)(=O)[O-])cc4)c4nc(c(-c5ccc(S(=O)(=O)[O-])cc5)c5ccc2[nH]5)C=C4)C=C3)cc1
REMARK SMILES IDX 30 1 29 2 27 3 28 4 16 5 15 6 13 7 14 8 12 10 1 11 2 12 3 13
REMARK SMILES IDX 4 14 11 15 5 16 6 17 10 18 7 19 9 20 8 21 17 22 18 23 19 24
REMARK SMILES IDX 26 25 20 26 24 27 25 28 21 29 23 30 22 31 31 32 32 33 33 34
REMARK SMILES IDX 34 35 35 36 36 37 94 38 37 39 93 40 38 41 39 42 40 43 87 44
REMARK SMILES IDX 41 45 92 46 86 47 88 48 42 49 91 50 85 51 84 52 43 54 73 55
REMARK SMILES IDX 54 56 72 57 55 58 58 59 71 60 89 61 56 62 57 63 70 65 90 66
REMARK SMILES IDX 59 67 44 68 45 69 53 70 46 71 52 72 47 73 48 74 49 75 50 76
REMARK SMILES IDX 51 77 74 78 75 79 83 80 76 81 82 82 77 83 78 84 79 85 80 86
REMARK SMILES IDX 81 87 60 88 61 89 69 90 62 91 68 92 63 93 64 94 65 95 66 96
REMARK SMILES IDX 67 97
REMARK H PARENT 15 9 88 53 58 64
REMARK Flexibility Score: inf
ROOT
ATOM      1  C   UNL A   1      37.568  23.176  25.299  1.00  0.00     0.274 C 
ENDROOT
BRANCH   1   2
ATOM      2  O   UNL A   1      36.349  23.942  25.253  1.00  0.00    -0.461 OA
BRANCH   2   3
ATOM      3  C   UNL A   1      35.542  23.706  24.184  1.00  0.00     0.329 C 
ATOM      4  O   UNL A   1      35.812  22.955  23.252  1.00  0.00    -0.250 OA
BRANCH   3   5
ATOM      5  C   UNL A   1      34.251  24.534  24.213  1.00  0.00     0.196 C 
BRANCH   5   6
ATOM      6  N   UNL A   1      33.006  23.777  24.188  1.00  0.00    -0.338 N 
ATOM      7  C   UNL A   1      31.701  24.108  23.921  1.00  0.00     0.264 C 
ATOM      8  O   UNL A   1      30.898  23.228  24.254  1.00  0.00    -0.268 OA
ATOM      9  H   UNL A   1      33.126  22.825  24.410  1.00  0.00     0.164 HD
BRANCH   7  10
ATOM     10  C   UNL A   1      31.273  25.342  23.266  1.00  0.00     0.115 A 
ATOM     11  C   UNL A   1      32.499  25.811  20.978  1.00  0.00     0.068 C 
ATOM     12  C   UNL A   1      31.536  26.035  22.085  1.00  0.00     0.062 A 
ATOM     13  N   UNL A   1      30.791  27.191  21.907  1.00  0.00    -0.241 NA
ATOM     14  C   UNL A   1      30.076  27.478  22.965  1.00  0.00     0.124 A 
ATOM     15  S   UNL A   1      30.150  26.313  24.204  1.00  0.00    -0.108 S 
BRANCH  14  16
ATOM     16  C   UNL A   1      29.253  28.680  23.076  1.00  0.00     0.010 A 
ATOM     17  C   UNL A   1      29.860  29.888  23.445  1.00  0.00     0.011 A 
ATOM     18  C   UNL A   1      27.860  28.639  22.929  1.00  0.00     0.011 A 
ATOM     19  C   UNL A   1      29.099  31.041  23.634  1.00  0.00     0.001 A 
ATOM     20  C   UNL A   1      27.095  29.790  23.139  1.00  0.00     0.001 A 
ATOM     21  C   UNL A   1      27.716  30.991  23.484  1.00  0.00     0.000 A 
ENDBRANCH  14  16
ENDBRANCH   7  10
ENDBRANCH   5   6
BRANCH   5  22
ATOM     22  C   UNL A   1      34.284  25.482  25.431  1.00  0.00     0.070 C 
BRANCH  22  23
ATOM     23  C   UNL A   1      33.800  26.871  25.145  1.00  0.00    -0.037 C 
ATOM     24  C   UNL A   1      33.010  27.636  25.893  1.00  0.00     0.001 A 
ATOM     25  C   UNL A   1      34.203  27.591  23.893  1.00  0.00     0.174 C 
ATOM     26  C   UNL A   1      32.330  27.485  27.139  1.00  0.00     0.010 A 
ATOM     27  C   UNL A   1      32.999  28.908  25.154  1.00  0.00     0.065 A 
ATOM     28  N   UNL A   1      33.634  28.955  24.022  1.00  0.00    -0.280 NA
ATOM     29  C   UNL A   1      31.702  28.549  27.665  1.00  0.00     0.001 A 
ATOM     30  C   UNL A   1      32.288  30.034  25.797  1.00  0.00     0.028 A 
ATOM     31  C   UNL A   1      31.698  29.835  26.987  1.00  0.00     0.002 A 
ENDBRANCH  22  23
ENDBRANCH   5  22
ENDBRANCH   3   5
ENDBRANCH   2   3
ENDBRANCH   1   2
BRANCH   1  32
ATOM     32  C   UNL A   1      38.449  23.634  26.460  1.00  0.00     0.275 C 
BRANCH  32  33
ATOM     33  O   UNL A   1      38.452  25.068  26.579  1.00  0.00    -0.458 OA
BRANCH  33  34
ATOM     34  C   UNL A   1      39.654  25.598  26.906  1.00  0.00     0.338 C 
ATOM     35  O   UNL A   1      40.718  25.427  26.332  1.00  0.00    -0.246 OA
BRANCH  34  36
ATOM     36  C   UNL A   1      39.505  26.522  28.037  1.00  0.00     0.060 A 
ATOM     37  C   UNL A   1      40.121  27.768  27.955  1.00  0.00     0.016 A 
ATOM     38  C   UNL A   1      38.899  26.108  29.222  1.00  0.00     0.016 A 
ATOM     39  C   UNL A   1      40.183  28.592  29.075  1.00  0.00     0.010 A 
ATOM     40  C   UNL A   1      38.919  26.959  30.334  1.00  0.00     0.010 A 
ATOM     41  C   UNL A   1      39.586  28.197  30.280  1.00  0.00    -0.014 A 
BRANCH  41  42
ATOM     42  C   UNL A   1      39.732  29.051  31.490  1.00  0.00     0.031 A 
ATOM     43  C   UNL A   1      40.919  28.873  32.403  1.00  0.00     0.074 A 
ATOM     44  C   UNL A   1      38.859  30.049  31.731  1.00  0.00     0.049 A 
ATOM     45  N   UNL A   1      41.180  29.468  33.539  1.00  0.00    -0.248 NA
ATOM     46  C   UNL A   1      41.951  27.916  31.973  1.00  0.00     0.031 C 
ATOM     47  C   UNL A   1      37.711  30.392  30.890  1.00  0.00     0.029 A 
ATOM     48  N   UNL A   1      38.816  30.975  32.744  1.00  0.00    -0.354 N 
ATOM     49  C   UNL A   1      42.400  28.954  33.964  1.00  0.00     0.074 A 
ATOM     50  C   UNL A   1      42.808  27.972  32.983  1.00  0.00     0.031 C 
ATOM     51  C   UNL A   1      37.099  31.471  31.402  1.00  0.00     0.029 A 
ATOM     52  C   UNL A   1      37.763  31.854  32.644  1.00  0.00     0.049 A 
ATOM     53  H   UNL A   1      39.476  31.008  33.474  1.00  0.00     0.167 HD
ATOM     54  C   UNL A   1      43.128  29.284  35.057  1.00  0.00     0.031 A 
ATOM     55  C   UNL A   1      37.349  32.831  33.473  1.00  0.00     0.031 A 
ATOM     56  C   UNL A   1      42.752  30.288  36.016  1.00  0.00     0.049 A 
ATOM     57  C   UNL A   1      38.099  33.086  34.750  1.00  0.00     0.074 A 
ATOM     58  C   UNL A   1      43.431  30.683  37.158  1.00  0.00     0.029 A 
ATOM     59  N   UNL A   1      41.606  31.061  35.946  1.00  0.00    -0.354 N 
ATOM     60  N   UNL A   1      39.207  32.530  35.177  1.00  0.00    -0.248 NA
ATOM     61  C   UNL A   1      37.529  34.083  35.667  1.00  0.00     0.031 C 
ATOM     62  C   UNL A   1      42.677  31.676  37.794  1.00  0.00     0.029 A 
ATOM     63  C   UNL A   1      41.551  31.925  37.027  1.00  0.00     0.049 A 
ATOM     64  H   UNL A   1      40.931  31.006  35.231  1.00  0.00     0.167 HD
ATOM     65  C   UNL A   1      39.468  33.114  36.412  1.00  0.00     0.074 A 
ATOM     66  C   UNL A   1      38.416  34.079  36.653  1.00  0.00     0.031 C 
ATOM     67  C   UNL A   1      40.489  32.867  37.270  1.00  0.00     0.031 A 
BRANCH  54  68
ATOM     68  C   UNL A   1      44.409  28.532  35.284  1.00  0.00    -0.014 A 
ATOM     69  C   UNL A   1      44.456  27.417  36.139  1.00  0.00     0.010 A 
ATOM     70  C   UNL A   1      45.575  28.930  34.606  1.00  0.00     0.010 A 
ATOM     71  C   UNL A   1      45.658  26.733  36.339  1.00  0.00     0.020 A 
ATOM     72  C   UNL A   1      46.775  28.237  34.789  1.00  0.00     0.020 A 
ATOM     73  C   UNL A   1      46.811  27.151  35.668  1.00  0.00     0.054 A 
BRANCH  73  74
ATOM     74  S   UNL A   1      48.357  26.241  35.935  1.00  0.00     0.124 S 
ATOM     75  O   UNL A   1      47.867  24.910  36.286  1.00  0.00    -0.237 OA
ATOM     76  O   UNL A   1      49.020  26.343  34.638  1.00  0.00    -0.237 OA
ATOM     77  O   UNL A   1      49.007  26.972  37.021  1.00  0.00    -0.744 OA
ENDBRANCH  73  74
ENDBRANCH  54  68
BRANCH  55  78
ATOM     78  C   UNL A   1      36.115  33.600  33.151  1.00  0.00    -0.014 A 
ATOM     79  C   UNL A   1      34.842  33.070  33.422  1.00  0.00     0.010 A 
ATOM     80  C   UNL A   1      36.216  34.880  32.574  1.00  0.00     0.010 A 
ATOM     81  C   UNL A   1      33.692  33.807  33.121  1.00  0.00     0.020 A 
ATOM     82  C   UNL A   1      35.071  35.629  32.296  1.00  0.00     0.020 A 
ATOM     83  C   UNL A   1      33.814  35.083  32.562  1.00  0.00     0.054 A 
BRANCH  83  84
ATOM     84  S   UNL A   1      32.317  36.057  32.239  1.00  0.00     0.124 S 
ATOM     85  O   UNL A   1      31.262  35.129  32.634  1.00  0.00    -0.237 OA
ATOM     86  O   UNL A   1      32.497  37.219  33.108  1.00  0.00    -0.237 OA
ATOM     87  O   UNL A   1      32.402  36.342  30.809  1.00  0.00    -0.744 OA
ENDBRANCH  83  84
ENDBRANCH  55  78
BRANCH  67  88
ATOM     88  C   UNL A   1      40.521  33.660  38.547  1.00  0.00    -0.014 A 
ATOM     89  C   UNL A   1      41.183  34.899  38.607  1.00  0.00     0.010 A 
ATOM     90  C   UNL A   1      39.852  33.181  39.687  1.00  0.00     0.010 A 
ATOM     91  C   UNL A   1      41.194  35.636  39.795  1.00  0.00     0.020 A 
ATOM     92  C   UNL A   1      39.844  33.924  40.870  1.00  0.00     0.020 A 
ATOM     93  C   UNL A   1      40.527  35.142  40.920  1.00  0.00     0.054 A 
BRANCH  93  94
ATOM     94  S   UNL A   1      40.519  36.134  42.440  1.00  0.00     0.124 S 
ATOM     95  O   UNL A   1      40.200  35.132  43.454  1.00  0.00    -0.237 OA
ATOM     96  O   UNL A   1      41.879  36.665  42.487  1.00  0.00    -0.237 OA
ATOM     97  O   UNL A   1      39.477  37.129  42.196  1.00  0.00    -0.744 OA
ENDBRANCH  93  94
ENDBRANCH  67  88
ENDBRANCH  41  42
ENDBRANCH  34  36
ENDBRANCH  33  34
ENDBRANCH  32  33
ENDBRANCH   1  32
TORSDOF 19
ENDMDL
MODEL 2
REMARK VINA RESULT:     -11.9      3.589      4.456
REMARK SMILES Cc1nc(-c2ccccc2)sc1C(=O)N[C@@H](CC1=c2ccccc2=NC1)C(=O)OCCOC(=O)c1ccc(-c2c3nc(c(-c4ccc(S(=O)(=O)[O-])cc4)c4ccc([nH]4)c(-c4ccc(S(=O)(=O)[O-])cc4)c4nc(c(-c5ccc(S(=O)(=O)[O-])cc5)c5ccc2[nH]5)C=C4)C=C3)cc1
REMARK SMILES IDX 30 1 29 2 27 3 28 4 16 5 15 6 13 7 14 8 12 10 1 11 2 12 3 13
REMARK SMILES IDX 4 14 11 15 5 16 6 17 10 18 7 19 9 20 8 21 17 22 18 23 19 24
REMARK SMILES IDX 26 25 20 26 24 27 25 28 21 29 23 30 22 31 31 32 32 33 33 34
REMARK SMILES IDX 34 35 35 36 36 37 94 38 37 39 93 40 38 41 39 42 40 43 87 44
REMARK SMILES IDX 41 45 92 46 86 47 88 48 42 49 91 50 85 51 84 52 43 54 73 55
REMARK SMILES IDX 54 56 72 57 55 58 58 59 71 60 89 61 56 62 57 63 70 65 90 66
REMARK SMILES IDX 59 67 44 68 45 69 53 70 46 71 52 72 47 73 48 74 49 75 50 76
REMARK SMILES IDX 51 77 74 78 75 79 83 80 76 81 82 82 77 83 78 84 79 85 80 86
REMARK SMILES IDX 81 87 60 88 61 89 69 90 62 91 68 92 63 93 64 94 65 95 66 96
REMARK SMILES IDX 67 97
REMARK H PARENT 15 9 88 53 58 64
REMARK Flexibility Score: inf
ROOT
ATOM      1  C   UNL A   1      36.596  20.787  24.984  1.00  0.00     0.274 C 
ENDROOT
BRANCH   1   2
ATOM      2  O   UNL A   1      35.293  21.353  24.749  1.00  0.00    -0.461 OA
BRANCH   2   3
ATOM      3  C   UNL A   1      34.603  21.729  25.859  1.00  0.00     0.329 C 
ATOM      4  O   UNL A   1      34.706  21.204  26.963  1.00  0.00    -0.250 OA
BRANCH   3   5
ATOM      5  C   UNL A   1      33.605  22.862  25.588  1.00  0.00     0.196 C 
BRANCH   5   6
ATOM      6  N   UNL A   1      32.449  22.921  26.475  1.00  0.00    -0.338 N 
ATOM      7  C   UNL A   1      31.289  23.654  26.472  1.00  0.00     0.264 C 
ATOM      8  O   UNL A   1      30.673  23.594  27.543  1.00  0.00    -0.268 OA
ATOM      9  H   UNL A   1      32.516  22.304  27.239  1.00  0.00     0.164 HD
BRANCH   7  10
ATOM     10  C   UNL A   1      30.778  24.399  25.324  1.00  0.00     0.115 A 
ATOM     11  C   UNL A   1      31.005  23.108  23.034  1.00  0.00     0.068 C 
ATOM     12  C   UNL A   1      30.613  24.207  23.952  1.00  0.00     0.062 A 
ATOM     13  N   UNL A   1      30.001  25.256  23.284  1.00  0.00    -0.241 NA
ATOM     14  C   UNL A   1      29.822  26.292  24.064  1.00  0.00     0.124 A 
ATOM     15  S   UNL A   1      30.259  26.036  25.689  1.00  0.00    -0.108 S 
BRANCH  14  16
ATOM     16  C   UNL A   1      29.263  27.560  23.599  1.00  0.00     0.010 A 
ATOM     17  C   UNL A   1      27.875  27.682  23.463  1.00  0.00     0.011 A 
ATOM     18  C   UNL A   1      30.081  28.619  23.183  1.00  0.00     0.011 A 
ATOM     19  C   UNL A   1      27.307  28.849  22.952  1.00  0.00     0.001 A 
ATOM     20  C   UNL A   1      29.513  29.780  22.651  1.00  0.00     0.001 A 
ATOM     21  C   UNL A   1      28.127  29.897  22.544  1.00  0.00     0.000 A 
ENDBRANCH  14  16
ENDBRANCH   7  10
ENDBRANCH   5   6
BRANCH   5  22
ATOM     22  C   UNL A   1      34.355  24.211  25.587  1.00  0.00     0.070 C 
BRANCH  22  23
ATOM     23  C   UNL A   1      34.091  25.062  24.382  1.00  0.00    -0.037 C 
ATOM     24  C   UNL A   1      33.850  26.370  24.336  1.00  0.00     0.001 A 
ATOM     25  C   UNL A   1      34.087  24.475  23.002  1.00  0.00     0.174 C 
ATOM     26  C   UNL A   1      33.723  27.414  25.300  1.00  0.00     0.010 A 
ATOM     27  C   UNL A   1      33.799  26.638  22.891  1.00  0.00     0.065 A 
ATOM     28  N   UNL A   1      33.912  25.626  22.083  1.00  0.00    -0.280 NA
ATOM     29  C   UNL A   1      33.596  28.679  24.867  1.00  0.00     0.001 A 
ATOM     30  C   UNL A   1      33.658  28.054  22.492  1.00  0.00     0.028 A 
ATOM     31  C   UNL A   1      33.578  28.995  23.448  1.00  0.00     0.002 A 
ENDBRANCH  22  23
ENDBRANCH   5  22
ENDBRANCH   3   5
ENDBRANCH   2   3
ENDBRANCH   1   2
BRANCH   1  32
ATOM     32  C   UNL A   1      37.689  21.823  24.724  1.00  0.00     0.275 C 
BRANCH  32  33
ATOM     33  O   UNL A   1      37.907  22.653  25.879  1.00  0.00    -0.458 OA
BRANCH  33  34
ATOM     34  C   UNL A   1      39.210  22.839  26.193  1.00  0.00     0.338 C 
ATOM     35  O   UNL A   1      40.146  22.096  25.939  1.00  0.00    -0.246 OA
BRANCH  34  36
ATOM     36  C   UNL A   1      39.392  24.149  26.829  1.00  0.00     0.060 A 
ATOM     37  C   UNL A   1      40.093  25.129  26.131  1.00  0.00     0.016 A 
ATOM     38  C   UNL A   1      39.012  24.359  28.153  1.00  0.00     0.016 A 
ATOM     39  C   UNL A   1      40.468  26.308  26.769  1.00  0.00     0.010 A 
ATOM     40  C   UNL A   1      39.346  25.567  28.779  1.00  0.00     0.010 A 
ATOM     41  C   UNL A   1      40.103  26.541  28.102  1.00  0.00    -0.014 A 
BRANCH  41  42
ATOM     42  C   UNL A   1      40.582  27.768  28.794  1.00  0.00     0.031 A 
ATOM     43  C   UNL A   1      42.018  27.875  29.238  1.00  0.00     0.074 A 
ATOM     44  C   UNL A   1      39.763  28.829  28.947  1.00  0.00     0.049 A 
ATOM     45  N   UNL A   1      42.600  28.829  29.919  1.00  0.00    -0.248 NA
ATOM     46  C   UNL A   1      42.918  26.777  28.851  1.00  0.00     0.031 C 
ATOM     47  C   UNL A   1      38.374  28.900  28.493  1.00  0.00     0.029 A 
ATOM     48  N   UNL A   1      39.992  30.061  29.509  1.00  0.00    -0.354 N 
ATOM     49  C   UNL A   1      43.930  28.444  30.050  1.00  0.00     0.074 A 
ATOM     50  C   UNL A   1      44.059  27.153  29.410  1.00  0.00     0.031 C 
ATOM     51  C   UNL A   1      37.886  30.121  28.761  1.00  0.00     0.029 A 
ATOM     52  C   UNL A   1      38.899  30.895  29.472  1.00  0.00     0.049 A 
ATOM     53  H   UNL A   1      40.856  30.324  29.901  1.00  0.00     0.167 HD
ATOM     54  C   UNL A   1      44.956  29.112  30.628  1.00  0.00     0.031 A 
ATOM     55  C   UNL A   1      38.713  32.127  29.984  1.00  0.00     0.031 A 
ATOM     56  C   UNL A   1      44.849  30.414  31.229  1.00  0.00     0.049 A 
ATOM     57  C   UNL A   1      39.829  32.791  30.739  1.00  0.00     0.074 A 
ATOM     58  C   UNL A   1      45.840  31.163  31.842  1.00  0.00     0.029 A 
ATOM     59  N   UNL A   1      43.687  31.166  31.288  1.00  0.00    -0.354 N 
ATOM     60  N   UNL A   1      41.058  32.373  30.925  1.00  0.00    -0.248 NA
ATOM     61  C   UNL A   1      39.525  34.081  31.374  1.00  0.00     0.031 C 
ATOM     62  C   UNL A   1      45.268  32.356  32.299  1.00  0.00     0.029 A 
ATOM     63  C   UNL A   1      43.932  32.365  31.935  1.00  0.00     0.049 A 
ATOM     64  H   UNL A   1      42.816  30.888  30.922  1.00  0.00     0.167 HD
ATOM     65  C   UNL A   1      41.674  33.352  31.696  1.00  0.00     0.074 A 
ATOM     66  C   UNL A   1      40.691  34.392  31.924  1.00  0.00     0.031 C 
ATOM     67  C   UNL A   1      42.942  33.384  32.175  1.00  0.00     0.031 A 
BRANCH  54  68
ATOM     68  C   UNL A   1      46.295  28.430  30.650  1.00  0.00    -0.014 A 
ATOM     69  C   UNL A   1      47.236  28.642  29.628  1.00  0.00     0.010 A 
ATOM     70  C   UNL A   1      46.626  27.588  31.728  1.00  0.00     0.010 A 
ATOM     71  C   UNL A   1      48.475  27.996  29.666  1.00  0.00     0.020 A 
ATOM     72  C   UNL A   1      47.870  26.955  31.778  1.00  0.00     0.020 A 
ATOM     73  C   UNL A   1      48.782  27.151  30.737  1.00  0.00     0.054 A 
BRANCH  73  74
ATOM     74  S   UNL A   1      50.400  26.332  30.770  1.00  0.00     0.124 S 
ATOM     75  O   UNL A   1      51.291  27.439  31.111  1.00  0.00    -0.237 OA
ATOM     76  O   UNL A   1      50.229  25.321  31.810  1.00  0.00    -0.237 OA
ATOM     77  O   UNL A   1      50.550  25.807  29.415  1.00  0.00    -0.744 OA
ENDBRANCH  73  74
ENDBRANCH  54  68
BRANCH  55  78
ATOM     78  C   UNL A   1      37.384  32.787  29.856  1.00  0.00    -0.014 A 
ATOM     79  C   UNL A   1      36.411  32.652  30.860  1.00  0.00     0.010 A 
ATOM     80  C   UNL A   1      37.094  33.567  28.719  1.00  0.00     0.010 A 
ATOM     81  C   UNL A   1      35.169  33.284  30.730  1.00  0.00     0.020 A 
ATOM     82  C   UNL A   1      35.866  34.220  28.599  1.00  0.00     0.020 A 
ATOM     83  C   UNL A   1      34.907  34.067  29.600  1.00  0.00     0.054 A 
BRANCH  83  84
ATOM     84  S   UNL A   1      33.319  34.937  29.475  1.00  0.00     0.124 S 
ATOM     85  O   UNL A   1      32.537  34.023  28.650  1.00  0.00    -0.237 OA
ATOM     86  O   UNL A   1      32.902  35.044  30.872  1.00  0.00    -0.237 OA
ATOM     87  O   UNL A   1      33.678  36.205  28.845  1.00  0.00    -0.744 OA
ENDBRANCH  83  84
ENDBRANCH  55  78
BRANCH  67  88
ATOM     88  C   UNL A   1      43.342  34.584  32.987  1.00  0.00    -0.014 A 
ATOM     89  C   UNL A   1      43.320  34.542  34.392  1.00  0.00     0.010 A 
ATOM     90  C   UNL A   1      43.784  35.753  32.341  1.00  0.00     0.010 A 
ATOM     91  C   UNL A   1      43.709  35.658  35.138  1.00  0.00     0.020 A 
ATOM     92  C   UNL A   1      44.192  36.863  33.084  1.00  0.00     0.020 A 
ATOM     93  C   UNL A   1      44.139  36.814  34.479  1.00  0.00     0.054 A 
BRANCH  93  94
ATOM     94  S   UNL A   1      44.680  38.237  35.467  1.00  0.00     0.124 S 
ATOM     95  O   UNL A   1      44.416  39.352  34.560  1.00  0.00    -0.237 OA
ATOM     96  O   UNL A   1      43.814  38.163  36.641  1.00  0.00    -0.237 OA
ATOM     97  O   UNL A   1      46.091  37.961  35.724  1.00  0.00    -0.744 OA
ENDBRANCH  93  94
ENDBRANCH  67  88
ENDBRANCH  41  42
ENDBRANCH  34  36
ENDBRANCH  33  34
ENDBRANCH  32  33
ENDBRANCH   1  32
TORSDOF 19
ENDMDL
MODEL 3
REMARK VINA RESULT:     -11.9      4.535     10.468
REMARK SMILES Cc1nc(-c2ccccc2)sc1C(=O)N[C@@H](CC1=c2ccccc2=NC1)C(=O)OCCOC(=O)c1ccc(-c2c3nc(c(-c4ccc(S(=O)(=O)[O-])cc4)c4ccc([nH]4)c(-c4ccc(S(=O)(=O)[O-])cc4)c4nc(c(-c5ccc(S(=O)(=O)[O-])cc5)c5ccc2[nH]5)C=C4)C=C3)cc1
REMARK SMILES IDX 30 1 29 2 27 3 28 4 16 5 15 6 13 7 14 8 12 10 1 11 2 12 3 13
REMARK SMILES IDX 4 14 11 15 5 16 6 17 10 18 7 19 9 20 8 21 17 22 18 23 19 24
REMARK SMILES IDX 26 25 20 26 24 27 25 28 21 29 23 30 22 31 31 32 32 33 33 34
REMARK SMILES IDX 34 35 35 36 36 37 94 38 37 39 93 40 38 41 39 42 40 43 87 44
REMARK SMILES IDX 41 45 92 46 86 47 88 48 42 49 91 50 85 51 84 52 43 54 73 55
REMARK SMILES IDX 54 56 72 57 55 58 58 59 71 60 89 61 56 62 57 63 70 65 90 66
REMARK SMILES IDX 59 67 44 68 45 69 53 70 46 71 52 72 47 73 48 74 49 75 50 76
REMARK SMILES IDX 51 77 74 78 75 79 83 80 76 81 82 82 77 83 78 84 79 85 80 86
REMARK SMILES IDX 81 87 60 88 61 89 69 90 62 91 68 92 63 93 64 94 65 95 66 96
REMARK SMILES IDX 67 97
REMARK H PARENT 15 9 88 53 58 64
REMARK Flexibility Score: inf
ROOT
ATOM      1  C   UNL A   1      31.901  29.763  25.717  1.00  0.00     0.274 C 
ENDROOT
BRANCH   1   2
ATOM      2  O   UNL A   1      32.427  28.428  25.842  1.00  0.00    -0.461 OA
BRANCH   2   3
ATOM      3  C   UNL A   1      32.937  27.885  24.704  1.00  0.00     0.329 C 
ATOM      4  O   UNL A   1      33.536  28.510  23.834  1.00  0.00    -0.250 OA
BRANCH   3   5
ATOM      5  C   UNL A   1      32.634  26.388  24.567  1.00  0.00     0.196 C 
BRANCH   5   6
ATOM      6  N   UNL A   1      32.056  25.743  25.740  1.00  0.00    -0.338 N 
ATOM      7  C   UNL A   1      31.988  24.441  26.169  1.00  0.00     0.264 C 
ATOM      8  O   UNL A   1      31.187  24.277  27.097  1.00  0.00    -0.268 OA
ATOM      9  H   UNL A   1      31.621  26.377  26.355  1.00  0.00     0.164 HD
BRANCH   7  10
ATOM     10  C   UNL A   1      32.800  23.348  25.641  1.00  0.00     0.115 A 
ATOM     11  C   UNL A   1      35.331  23.989  25.267  1.00  0.00     0.068 C 
ATOM     12  C   UNL A   1      34.133  23.114  25.303  1.00  0.00     0.062 A 
ATOM     13  N   UNL A   1      34.410  21.826  24.873  1.00  0.00    -0.241 NA
ATOM     14  C   UNL A   1      33.321  21.113  24.736  1.00  0.00     0.124 A 
ATOM     15  S   UNL A   1      31.896  21.899  25.236  1.00  0.00    -0.108 S 
BRANCH  14  16
ATOM     16  C   UNL A   1      33.317  19.743  24.227  1.00  0.00     0.010 A 
ATOM     17  C   UNL A   1      34.339  18.869  24.619  1.00  0.00     0.011 A 
ATOM     18  C   UNL A   1      32.384  19.311  23.276  1.00  0.00     0.011 A 
ATOM     19  C   UNL A   1      34.413  17.578  24.098  1.00  0.00     0.001 A 
ATOM     20  C   UNL A   1      32.470  18.024  22.738  1.00  0.00     0.001 A 
ATOM     21  C   UNL A   1      33.480  17.157  23.155  1.00  0.00     0.000 A 
ENDBRANCH  14  16
ENDBRANCH   7  10
ENDBRANCH   5   6
BRANCH   5  22
ATOM     22  C   UNL A   1      31.739  26.162  23.330  1.00  0.00     0.070 C 
BRANCH  22  23
ATOM     23  C   UNL A   1      30.352  26.714  23.463  1.00  0.00    -0.037 C 
ATOM     24  C   UNL A   1      29.882  27.874  23.012  1.00  0.00     0.001 A 
ATOM     25  C   UNL A   1      29.273  25.942  24.162  1.00  0.00     0.174 C 
ATOM     26  C   UNL A   1      30.430  28.989  22.309  1.00  0.00     0.010 A 
ATOM     27  C   UNL A   1      28.450  27.789  23.336  1.00  0.00     0.065 A 
ATOM     28  N   UNL A   1      28.038  26.745  23.989  1.00  0.00    -0.280 NA
ATOM     29  C   UNL A   1      29.601  29.963  21.899  1.00  0.00     0.001 A 
ATOM     30  C   UNL A   1      27.602  28.899  22.851  1.00  0.00     0.028 A 
ATOM     31  C   UNL A   1      28.174  29.902  22.164  1.00  0.00     0.002 A 
ENDBRANCH  22  23
ENDBRANCH   5  22
ENDBRANCH   3   5
ENDBRANCH   2   3
ENDBRANCH   1   2
BRANCH   1  32
ATOM     32  C   UNL A   1      32.523  30.688  26.762  1.00  0.00     0.275 C 
BRANCH  32  33
ATOM     33  O   UNL A   1      33.580  30.027  27.481  1.00  0.00    -0.458 OA
BRANCH  33  34
ATOM     34  C   UNL A   1      34.397  30.864  28.163  1.00  0.00     0.338 C 
ATOM     35  O   UNL A   1      34.108  31.944  28.653  1.00  0.00    -0.246 OA
BRANCH  34  36
ATOM     36  C   UNL A   1      35.718  30.247  28.333  1.00  0.00     0.060 A 
ATOM     37  C   UNL A   1      36.083  29.810  29.603  1.00  0.00     0.016 A 
ATOM     38  C   UNL A   1      36.642  30.240  27.290  1.00  0.00     0.016 A 
ATOM     39  C   UNL A   1      37.392  29.411  29.856  1.00  0.00     0.010 A 
ATOM     40  C   UNL A   1      37.947  29.792  27.533  1.00  0.00     0.010 A 
ATOM     41  C   UNL A   1      38.342  29.400  28.826  1.00  0.00    -0.014 A 
BRANCH  41  42
ATOM     42  C   UNL A   1      39.756  29.051  29.130  1.00  0.00     0.031 A 
ATOM     43  C   UNL A   1      40.631  30.024  29.878  1.00  0.00     0.074 A 
ATOM     44  C   UNL A   1      40.240  27.831  28.823  1.00  0.00     0.049 A 
ATOM     45  N   UNL A   1      41.904  29.930  30.170  1.00  0.00    -0.248 NA
ATOM     46  C   UNL A   1      39.989  31.250  30.378  1.00  0.00     0.031 C 
ATOM     47  C   UNL A   1      39.484  26.759  28.173  1.00  0.00     0.029 A 
ATOM     48  N   UNL A   1      41.479  27.279  29.039  1.00  0.00    -0.354 N 
ATOM     49  C   UNL A   1      42.217  31.085  30.877  1.00  0.00     0.074 A 
ATOM     50  C   UNL A   1      41.010  31.881  30.940  1.00  0.00     0.031 C 
ATOM     51  C   UNL A   1      40.261  25.669  28.076  1.00  0.00     0.029 A 
ATOM     52  C   UNL A   1      41.592  25.985  28.586  1.00  0.00     0.049 A 
ATOM     53  H   UNL A   1      42.216  27.763  29.476  1.00  0.00     0.167 HD
ATOM     54  C   UNL A   1      43.392  31.443  31.446  1.00  0.00     0.031 A 
ATOM     55  C   UNL A   1      42.653  25.155  28.547  1.00  0.00     0.031 A 
ATOM     56  C   UNL A   1      44.587  30.641  31.427  1.00  0.00     0.049 A 
ATOM     57  C   UNL A   1      43.982  25.629  29.062  1.00  0.00     0.074 A 
ATOM     58  C   UNL A   1      45.826  30.931  31.976  1.00  0.00     0.029 A 
ATOM     59  N   UNL A   1      44.693  29.393  30.838  1.00  0.00    -0.354 N 
ATOM     60  N   UNL A   1      44.279  26.760  29.655  1.00  0.00    -0.248 NA
ATOM     61  C   UNL A   1      45.125  24.722  28.882  1.00  0.00     0.031 C 
ATOM     62  C   UNL A   1      46.690  29.867  31.690  1.00  0.00     0.029 A 
ATOM     63  C   UNL A   1      45.978  28.901  31.000  1.00  0.00     0.049 A 
ATOM     64  H   UNL A   1      43.963  28.923  30.374  1.00  0.00     0.167 HD
ATOM     65  C   UNL A   1      45.642  26.699  29.920  1.00  0.00     0.074 A 
ATOM     66  C   UNL A   1      46.108  25.412  29.445  1.00  0.00     0.031 C 
ATOM     67  C   UNL A   1      46.437  27.629  30.504  1.00  0.00     0.031 A 
BRANCH  54  68
ATOM     68  C   UNL A   1      43.448  32.780  32.129  1.00  0.00    -0.014 A 
ATOM     69  C   UNL A   1      43.252  32.896  33.517  1.00  0.00     0.010 A 
ATOM     70  C   UNL A   1      43.731  33.933  31.375  1.00  0.00     0.010 A 
ATOM     71  C   UNL A   1      43.305  34.149  34.133  1.00  0.00     0.020 A 
ATOM     72  C   UNL A   1      43.802  35.185  31.990  1.00  0.00     0.020 A 
ATOM     73  C   UNL A   1      43.573  35.287  33.364  1.00  0.00     0.054 A 
BRANCH  73  74
ATOM     74  S   UNL A   1      43.647  36.901  34.188  1.00  0.00     0.124 S 
ATOM     75  O   UNL A   1      44.634  36.659  35.239  1.00  0.00    -0.237 OA
ATOM     76  O   UNL A   1      44.078  37.792  33.115  1.00  0.00    -0.237 OA
ATOM     77  O   UNL A   1      42.279  37.114  34.657  1.00  0.00    -0.744 OA
ENDBRANCH  73  74
ENDBRANCH  54  68
BRANCH  55  78
ATOM     78  C   UNL A   1      42.513  23.807  27.930  1.00  0.00    -0.014 A 
ATOM     79  C   UNL A   1      42.700  23.621  26.550  1.00  0.00     0.010 A 
ATOM     80  C   UNL A   1      42.198  22.696  28.736  1.00  0.00     0.010 A 
ATOM     81  C   UNL A   1      42.574  22.347  25.986  1.00  0.00     0.020 A 
ATOM     82  C   UNL A   1      42.096  21.420  28.180  1.00  0.00     0.020 A 
ATOM     83  C   UNL A   1      42.275  21.254  26.806  1.00  0.00     0.054 A 
BRANCH  83  84
ATOM     84  S   UNL A   1      42.180  19.597  26.073  1.00  0.00     0.124 S 
ATOM     85  O   UNL A   1      43.073  19.721  24.926  1.00  0.00    -0.237 OA
ATOM     86  O   UNL A   1      42.656  18.740  27.157  1.00  0.00    -0.237 OA
ATOM     87  O   UNL A   1      40.763  19.450  25.753  1.00  0.00    -0.744 OA
ENDBRANCH  83  84
ENDBRANCH  55  78
BRANCH  67  88
ATOM     88  C   UNL A   1      47.892  27.287  30.669  1.00  0.00    -0.014 A 
ATOM     89  C   UNL A   1      48.353  26.654  31.837  1.00  0.00     0.010 A 
ATOM     90  C   UNL A   1      48.800  27.563  29.631  1.00  0.00     0.010 A 
ATOM     91  C   UNL A   1      49.705  26.325  31.973  1.00  0.00     0.020 A 
ATOM     92  C   UNL A   1      50.147  27.218  29.757  1.00  0.00     0.020 A 
ATOM     93  C   UNL A   1      50.595  26.613  30.933  1.00  0.00     0.054 A 
BRANCH  93  94
ATOM     94  S   UNL A   1      52.337  26.140  31.114  1.00  0.00     0.124 S 
ATOM     95  O   UNL A   1      52.815  26.213  29.736  1.00  0.00    -0.237 OA
ATOM     96  O   UNL A   1      52.859  27.165  32.015  1.00  0.00    -0.237 OA
ATOM     97  O   UNL A   1      52.272  24.796  31.682  1.00  0.00    -0.744 OA
ENDBRANCH  93  94
ENDBRANCH  67  88
ENDBRANCH  41  42
ENDBRANCH  34  36
ENDBRANCH  33  34
ENDBRANCH  32  33
ENDBRANCH   1  32
TORSDOF 19
ENDMDL
