MODEL 1
REMARK VINA RESULT:     -10.6      0.000      0.000
REMARK SMILES Cc1c[nH]c(C[N@H+]2C[C@@H]3CN(S(C)(=O)=O)C[C@]3(C(=O)OCCOC(=O)c3ccc(-c4c5nc(c(-c6ccc(S(=O)(=O)[O-])cc6)c6ccc([nH]6)c(-c6ccc(S(=O)(=O)[O-])cc6)c6nc(c(-c7ccc(S(=O)(=O)[O-])cc7)c7ccc4[nH]7)C=C6)C=C5)cc3)C2)n1
REMARK SMILES IDX 22 1 21 2 20 3 18 4 19 5 17 6 7 7 8 8 86 9 9 11 10 12 16 13
REMARK SMILES IDX 11 14 6 15 5 16 1 17 2 18 3 19 87 20 4 21 12 23 13 24 14 25
REMARK SMILES IDX 15 26 23 27 24 28 25 29 26 30 27 31 85 32 28 33 84 34 29 35
REMARK SMILES IDX 30 36 31 37 78 38 32 39 83 40 77 41 79 42 33 43 82 44 76 45
REMARK SMILES IDX 75 46 34 48 64 49 45 50 63 51 46 52 49 53 62 54 80 55 47 56
REMARK SMILES IDX 48 57 61 59 81 60 50 61 35 62 36 63 44 64 37 65 43 66 38 67
REMARK SMILES IDX 39 68 40 69 41 70 42 71 65 72 66 73 74 74 67 75 73 76 68 77
REMARK SMILES IDX 69 78 70 79 71 80 72 81 51 82 52 83 60 84 53 85 59 86 54 87
REMARK SMILES IDX 55 88 56 89 57 90 58 91
REMARK H PARENT 7 10 4 22 79 47 49 58
REMARK Flexibility Score: inf
ROOT
ATOM      1  C   UNL A   1      32.124  29.070  27.352  1.00  0.00     0.275 C 
ENDROOT
BRANCH   1   2
ATOM      2  C   UNL A   1      31.450  27.715  27.679  1.00  0.00     0.274 C 
BRANCH   2   3
ATOM      3  O   UNL A   1      30.699  27.132  26.579  1.00  0.00    -0.461 OA
BRANCH   3   4
ATOM      4  C   UNL A   1      31.199  25.951  26.095  1.00  0.00     0.319 C 
ATOM      5  O   UNL A   1      31.235  24.977  26.835  1.00  0.00    -0.251 OA
BRANCH   4   6
ATOM      6  C   UNL A   1      31.789  26.066  24.588  1.00  0.00     0.140 C 
ATOM      7  N   UNL A   1      33.752  24.517  23.951  1.00  0.00    -0.327 N 
ATOM      8  C   UNL A   1      33.211  24.994  22.712  1.00  0.00     0.268 C 
ATOM      9  C   UNL A   1      32.720  24.801  24.956  1.00  0.00     0.283 C 
ATOM     10  H   UNL A   1      34.634  24.989  24.145  1.00  0.00     0.348 HD
ATOM     11  C   UNL A   1      31.798  25.393  23.099  1.00  0.00     0.084 C 
ATOM     12  C   UNL A   1      31.293  26.371  22.044  1.00  0.00     0.113 C 
ATOM     13  C   UNL A   1      30.332  26.576  24.144  1.00  0.00     0.127 C 
ATOM     14  N   UNL A   1      30.513  27.288  22.848  1.00  0.00    -0.200 NA
BRANCH   7  15
ATOM     15  C   UNL A   1      34.145  23.087  23.953  1.00  0.00     0.338 C 
BRANCH  15  16
ATOM     16  C   UNL A   1      35.468  22.728  24.588  1.00  0.00     0.161 A 
ATOM     17  C   UNL A   1      38.592  23.265  26.235  1.00  0.00     0.068 C 
ATOM     18  C   UNL A   1      37.382  22.710  25.587  1.00  0.00     0.056 A 
ATOM     19  C   UNL A   1      37.109  21.400  25.273  1.00  0.00     0.107 A 
ATOM     20  N   UNL A   1      36.349  23.522  25.169  1.00  0.00    -0.233 NA
ATOM     21  N   UNL A   1      35.909  21.425  24.627  1.00  0.00    -0.344 N 
ATOM     22  H   UNL A   1      35.438  20.645  24.253  1.00  0.00     0.167 HD
ENDBRANCH  15  16
ENDBRANCH   7  15
BRANCH  14  23
ATOM     23  S   UNL A   1      30.976  28.918  22.848  1.00  0.00     0.211 S 
ATOM     24  C   UNL A   1      32.757  28.861  22.692  1.00  0.00     0.176 C 
ATOM     25  O   UNL A   1      30.460  29.524  21.645  1.00  0.00    -0.213 OA
ATOM     26  O   UNL A   1      30.676  29.477  24.154  1.00  0.00    -0.213 OA
ENDBRANCH  14  23
ENDBRANCH   4   6
ENDBRANCH   3   4
ENDBRANCH   2   3
ENDBRANCH   1   2
BRANCH   1  27
ATOM     27  O   UNL A   1      33.551  29.060  27.600  1.00  0.00    -0.458 OA
BRANCH  27  28
ATOM     28  C   UNL A   1      34.124  30.237  27.961  1.00  0.00     0.338 C 
ATOM     29  O   UNL A   1      33.558  31.309  28.094  1.00  0.00    -0.246 OA
BRANCH  28  30
ATOM     30  C   UNL A   1      35.555  30.049  28.297  1.00  0.00     0.060 A 
ATOM     31  C   UNL A   1      36.486  30.159  27.271  1.00  0.00     0.016 A 
ATOM     32  C   UNL A   1      35.985  29.619  29.550  1.00  0.00     0.016 A 
ATOM     33  C   UNL A   1      37.834  29.893  27.477  1.00  0.00     0.010 A 
ATOM     34  C   UNL A   1      37.356  29.370  29.771  1.00  0.00     0.010 A 
ATOM     35  C   UNL A   1      38.299  29.510  28.734  1.00  0.00    -0.014 A 
BRANCH  35  36
ATOM     36  C   UNL A   1      39.752  29.218  28.910  1.00  0.00     0.031 A 
ATOM     37  C   UNL A   1      40.680  30.268  29.462  1.00  0.00     0.074 A 
ATOM     38  C   UNL A   1      40.236  27.980  28.661  1.00  0.00     0.049 A 
ATOM     39  N   UNL A   1      41.983  30.242  29.580  1.00  0.00    -0.248 NA
ATOM     40  C   UNL A   1      40.060  31.506  29.964  1.00  0.00     0.031 C 
ATOM     41  C   UNL A   1      39.438  26.825  28.240  1.00  0.00     0.029 A 
ATOM     42  N   UNL A   1      41.516  27.479  28.738  1.00  0.00    -0.354 N 
ATOM     43  C   UNL A   1      42.343  31.465  30.135  1.00  0.00     0.074 A 
ATOM     44  C   UNL A   1      41.120  32.210  30.338  1.00  0.00     0.031 C 
ATOM     45  C   UNL A   1      40.235  25.752  28.128  1.00  0.00     0.029 A 
ATOM     46  C   UNL A   1      41.616  26.160  28.357  1.00  0.00     0.049 A 
ATOM     47  H   UNL A   1      42.287  28.014  29.036  1.00  0.00     0.167 HD
ATOM     48  C   UNL A   1      43.580  31.928  30.435  1.00  0.00     0.031 A 
ATOM     49  C   UNL A   1      42.694  25.378  28.147  1.00  0.00     0.031 A 
ATOM     50  C   UNL A   1      44.795  31.186  30.218  1.00  0.00     0.049 A 
ATOM     51  C   UNL A   1      44.064  25.968  28.325  1.00  0.00     0.074 A 
ATOM     52  C   UNL A   1      46.101  31.583  30.449  1.00  0.00     0.029 A 
ATOM     53  N   UNL A   1      44.855  29.896  29.711  1.00  0.00    -0.354 N 
ATOM     54  N   UNL A   1      44.395  27.151  28.785  1.00  0.00    -0.248 NA
ATOM     55  C   UNL A   1      45.206  25.134  27.925  1.00  0.00     0.031 C 
ATOM     56  C   UNL A   1      46.952  30.560  30.018  1.00  0.00     0.029 A 
ATOM     57  C   UNL A   1      46.175  29.499  29.580  1.00  0.00     0.049 A 
ATOM     58  H   UNL A   1      44.074  29.344  29.478  1.00  0.00     0.167 HD
ATOM     59  C   UNL A   1      45.782  27.204  28.727  1.00  0.00     0.074 A 
ATOM     60  C   UNL A   1      46.230  25.924  28.217  1.00  0.00     0.031 C 
ATOM     61  C   UNL A   1      46.608  28.226  29.060  1.00  0.00     0.031 A 
BRANCH  48  62
ATOM     62  C   UNL A   1      43.689  33.338  30.952  1.00  0.00    -0.014 A 
ATOM     63  C   UNL A   1      43.850  34.435  30.089  1.00  0.00     0.010 A 
ATOM     64  C   UNL A   1      43.601  33.568  32.339  1.00  0.00     0.010 A 
ATOM     65  C   UNL A   1      43.962  35.730  30.605  1.00  0.00     0.020 A 
ATOM     66  C   UNL A   1      43.687  34.863  32.857  1.00  0.00     0.020 A 
ATOM     67  C   UNL A   1      43.885  35.935  31.986  1.00  0.00     0.054 A 
BRANCH  67  68
ATOM     68  S   UNL A   1      44.032  37.625  32.628  1.00  0.00     0.124 S 
ATOM     69  O   UNL A   1      45.433  37.672  33.037  1.00  0.00    -0.237 OA
ATOM     70  O   UNL A   1      43.689  38.440  31.465  1.00  0.00    -0.237 OA
ATOM     71  O   UNL A   1      43.063  37.667  33.722  1.00  0.00    -0.744 OA
ENDBRANCH  67  68
ENDBRANCH  48  62
BRANCH  49  72
ATOM     72  C   UNL A   1      42.517  23.987  27.638  1.00  0.00    -0.014 A 
ATOM     73  C   UNL A   1      42.480  23.717  26.259  1.00  0.00     0.010 A 
ATOM     74  C   UNL A   1      42.400  22.914  28.544  1.00  0.00     0.010 A 
ATOM     75  C   UNL A   1      42.338  22.402  25.798  1.00  0.00     0.020 A 
ATOM     76  C   UNL A   1      42.293  21.598  28.088  1.00  0.00     0.020 A 
ATOM     77  C   UNL A   1      42.257  21.351  26.716  1.00  0.00     0.054 A 
BRANCH  77  78
ATOM     78  S   UNL A   1      42.156  19.649  26.096  1.00  0.00     0.124 S 
ATOM     79  O   UNL A   1      40.757  19.555  25.692  1.00  0.00    -0.237 OA
ATOM     80  O   UNL A   1      43.132  19.652  25.009  1.00  0.00    -0.237 OA
ATOM     81  O   UNL A   1      42.530  18.839  27.254  1.00  0.00    -0.744 OA
ENDBRANCH  77  78
ENDBRANCH  49  72
BRANCH  61  82
ATOM     82  C   UNL A   1      48.086  28.005  28.891  1.00  0.00    -0.014 A 
ATOM     83  C   UNL A   1      48.830  27.314  29.863  1.00  0.00     0.010 A 
ATOM     84  C   UNL A   1      48.724  28.431  27.712  1.00  0.00     0.010 A 
ATOM     85  C   UNL A   1      50.190  27.064  29.665  1.00  0.00     0.020 A 
ATOM     86  C   UNL A   1      50.078  28.160  27.498  1.00  0.00     0.020 A 
ATOM     87  C   UNL A   1      50.804  27.484  28.481  1.00  0.00     0.054 A 
BRANCH  87  88
ATOM     88  S   UNL A   1      52.554  27.084  28.219  1.00  0.00     0.124 S 
ATOM     89  O   UNL A   1      52.888  27.919  27.069  1.00  0.00    -0.237 OA
ATOM     90  O   UNL A   1      53.166  27.481  29.484  1.00  0.00    -0.237 OA
ATOM     91  O   UNL A   1      52.546  25.645  27.961  1.00  0.00    -0.744 OA
ENDBRANCH  87  88
ENDBRANCH  61  82
ENDBRANCH  35  36
ENDBRANCH  28  30
ENDBRANCH  27  28
ENDBRANCH   1  27
TORSDOF 17
ENDMDL
MODEL 2
REMARK VINA RESULT:     -10.4      1.516      3.556
REMARK SMILES Cc1c[nH]c(C[N@H+]2C[C@@H]3CN(S(C)(=O)=O)C[C@]3(C(=O)OCCOC(=O)c3ccc(-c4c5nc(c(-c6ccc(S(=O)(=O)[O-])cc6)c6ccc([nH]6)c(-c6ccc(S(=O)(=O)[O-])cc6)c6nc(c(-c7ccc(S(=O)(=O)[O-])cc7)c7ccc4[nH]7)C=C6)C=C5)cc3)C2)n1
REMARK SMILES IDX 22 1 21 2 20 3 18 4 19 5 17 6 7 7 8 8 86 9 9 11 10 12 16 13
REMARK SMILES IDX 11 14 6 15 5 16 1 17 2 18 3 19 87 20 4 21 12 23 13 24 14 25
REMARK SMILES IDX 15 26 23 27 24 28 25 29 26 30 27 31 85 32 28 33 84 34 29 35
REMARK SMILES IDX 30 36 31 37 78 38 32 39 83 40 77 41 79 42 33 43 82 44 76 45
REMARK SMILES IDX 75 46 34 48 64 49 45 50 63 51 46 52 49 53 62 54 80 55 47 56
REMARK SMILES IDX 48 57 61 59 81 60 50 61 35 62 36 63 44 64 37 65 43 66 38 67
REMARK SMILES IDX 39 68 40 69 41 70 42 71 65 72 66 73 74 74 67 75 73 76 68 77
REMARK SMILES IDX 69 78 70 79 71 80 72 81 51 82 52 83 60 84 53 85 59 86 54 87
REMARK SMILES IDX 55 88 56 89 57 90 58 91
REMARK H PARENT 7 10 4 22 79 47 49 58
REMARK Flexibility Score: inf
ROOT
ATOM      1  C   UNL A   1      32.181  28.938  27.188  1.00  0.00     0.275 C 
ENDROOT
BRANCH   1   2
ATOM      2  C   UNL A   1      31.606  27.532  26.891  1.00  0.00     0.274 C 
BRANCH   2   3
ATOM      3  O   UNL A   1      32.585  26.564  26.422  1.00  0.00    -0.461 OA
BRANCH   3   4
ATOM      4  C   UNL A   1      32.103  25.296  26.227  1.00  0.00     0.319 C 
ATOM      5  O   UNL A   1      31.325  24.827  27.047  1.00  0.00    -0.251 OA
BRANCH   4   6
ATOM      6  C   UNL A   1      32.753  24.544  24.945  1.00  0.00     0.140 C 
ATOM      7  N   UNL A   1      31.942  25.260  22.602  1.00  0.00    -0.327 N 
ATOM      8  C   UNL A   1      33.168  24.547  22.392  1.00  0.00     0.268 C 
ATOM      9  C   UNL A   1      31.929  25.589  24.033  1.00  0.00     0.283 C 
ATOM     10  H   UNL A   1      31.153  24.677  22.323  1.00  0.00     0.348 HD
ATOM     11  C   UNL A   1      33.853  24.660  23.742  1.00  0.00     0.084 C 
ATOM     12  C   UNL A   1      34.888  23.544  23.826  1.00  0.00     0.113 C 
ATOM     13  C   UNL A   1      34.052  24.292  25.855  1.00  0.00     0.127 C 
ATOM     14  N   UNL A   1      34.797  23.168  25.221  1.00  0.00    -0.200 NA
BRANCH   7  15
ATOM     15  C   UNL A   1      31.766  26.465  21.757  1.00  0.00     0.338 C 
BRANCH  15  16
ATOM     16  C   UNL A   1      30.994  27.623  22.344  1.00  0.00     0.161 A 
ATOM     17  C   UNL A   1      28.182  29.736  22.971  1.00  0.00     0.068 C 
ATOM     18  C   UNL A   1      29.502  29.067  22.940  1.00  0.00     0.056 A 
ATOM     19  C   UNL A   1      30.669  29.457  23.552  1.00  0.00     0.107 A 
ATOM     20  N   UNL A   1      29.714  27.920  22.205  1.00  0.00    -0.233 NA
ATOM     21  N   UNL A   1      31.608  28.550  23.155  1.00  0.00    -0.344 N 
ATOM     22  H   UNL A   1      32.560  28.557  23.407  1.00  0.00     0.167 HD
ENDBRANCH  15  16
ENDBRANCH   7  15
BRANCH  14  23
ATOM     23  S   UNL A   1      34.359  21.571  25.575  1.00  0.00     0.211 S 
ATOM     24  C   UNL A   1      33.106  21.186  24.356  1.00  0.00     0.176 C 
ATOM     25  O   UNL A   1      35.497  20.728  25.299  1.00  0.00    -0.213 OA
ATOM     26  O   UNL A   1      33.714  21.552  26.876  1.00  0.00    -0.213 OA
ENDBRANCH  14  23
ENDBRANCH   4   6
ENDBRANCH   3   4
ENDBRANCH   2   3
ENDBRANCH   1   2
BRANCH   1  27
ATOM     27  O   UNL A   1      33.573  28.900  27.588  1.00  0.00    -0.458 OA
BRANCH  27  28
ATOM     28  C   UNL A   1      34.179  30.092  27.828  1.00  0.00     0.338 C 
ATOM     29  O   UNL A   1      33.645  31.188  27.837  1.00  0.00    -0.246 OA
BRANCH  28  30
ATOM     30  C   UNL A   1      35.600  29.898  28.201  1.00  0.00     0.060 A 
ATOM     31  C   UNL A   1      36.555  29.973  27.193  1.00  0.00     0.016 A 
ATOM     32  C   UNL A   1      35.997  29.495  29.474  1.00  0.00     0.016 A 
ATOM     33  C   UNL A   1      37.895  29.698  27.437  1.00  0.00     0.010 A 
ATOM     34  C   UNL A   1      37.360  29.238  29.731  1.00  0.00     0.010 A 
ATOM     35  C   UNL A   1      38.328  29.342  28.713  1.00  0.00    -0.014 A 
BRANCH  35  36
ATOM     36  C   UNL A   1      39.773  29.040  28.930  1.00  0.00     0.031 A 
ATOM     37  C   UNL A   1      40.689  30.079  29.522  1.00  0.00     0.074 A 
ATOM     38  C   UNL A   1      40.258  27.803  28.680  1.00  0.00     0.049 A 
ATOM     39  N   UNL A   1      41.988  30.044  29.678  1.00  0.00    -0.248 NA
ATOM     40  C   UNL A   1      40.061  31.314  30.021  1.00  0.00     0.031 C 
ATOM     41  C   UNL A   1      39.467  26.658  28.221  1.00  0.00     0.029 A 
ATOM     42  N   UNL A   1      41.532  27.295  28.789  1.00  0.00    -0.354 N 
ATOM     43  C   UNL A   1      42.337  31.258  30.259  1.00  0.00     0.074 A 
ATOM     44  C   UNL A   1      41.112  32.008  30.434  1.00  0.00     0.031 C 
ATOM     45  C   UNL A   1      40.262  25.582  28.120  1.00  0.00     0.029 A 
ATOM     46  C   UNL A   1      41.637  25.980  28.395  1.00  0.00     0.049 A 
ATOM     47  H   UNL A   1      42.296  27.822  29.116  1.00  0.00     0.167 HD
ATOM     48  C   UNL A   1      43.567  31.711  30.602  1.00  0.00     0.031 A 
ATOM     49  C   UNL A   1      42.717  25.194  28.208  1.00  0.00     0.031 A 
ATOM     50  C   UNL A   1      44.785  30.965  30.413  1.00  0.00     0.049 A 
ATOM     51  C   UNL A   1      44.084  25.774  28.435  1.00  0.00     0.074 A 
ATOM     52  C   UNL A   1      46.085  31.352  30.688  1.00  0.00     0.029 A 
ATOM     53  N   UNL A   1      44.853  29.681  29.892  1.00  0.00    -0.354 N 
ATOM     54  N   UNL A   1      44.407  26.950  28.919  1.00  0.00    -0.248 NA
ATOM     55  C   UNL A   1      45.233  24.939  28.059  1.00  0.00     0.031 C 
ATOM     56  C   UNL A   1      46.943  30.330  30.271  1.00  0.00     0.029 A 
ATOM     57  C   UNL A   1      46.175  29.278  29.796  1.00  0.00     0.049 A 
ATOM     58  H   UNL A   1      44.076  29.136  29.629  1.00  0.00     0.167 HD
ATOM     59  C   UNL A   1      45.796  26.996  28.904  1.00  0.00     0.074 A 
ATOM     60  C   UNL A   1      46.252  25.720  28.392  1.00  0.00     0.031 C 
ATOM     61  C   UNL A   1      46.617  28.010  29.274  1.00  0.00     0.031 A 
BRANCH  48  62
ATOM     62  C   UNL A   1      43.667  33.114  31.140  1.00  0.00    -0.014 A 
ATOM     63  C   UNL A   1      43.947  34.210  30.306  1.00  0.00     0.010 A 
ATOM     64  C   UNL A   1      43.448  33.339  32.513  1.00  0.00     0.010 A 
ATOM     65  C   UNL A   1      44.048  35.498  30.842  1.00  0.00     0.020 A 
ATOM     66  C   UNL A   1      43.523  34.628  33.048  1.00  0.00     0.020 A 
ATOM     67  C   UNL A   1      43.840  35.697  32.210  1.00  0.00     0.054 A 
BRANCH  67  68
ATOM     68  S   UNL A   1      43.974  37.379  32.878  1.00  0.00     0.124 S 
ATOM     69  O   UNL A   1      42.895  37.399  33.862  1.00  0.00    -0.237 OA
ATOM     70  O   UNL A   1      45.327  37.398  33.429  1.00  0.00    -0.237 OA
ATOM     71  O   UNL A   1      43.767  38.234  31.711  1.00  0.00    -0.744 OA
ENDBRANCH  67  68
ENDBRANCH  48  62
BRANCH  49  72
ATOM     72  C   UNL A   1      42.548  23.810  27.677  1.00  0.00    -0.014 A 
ATOM     73  C   UNL A   1      42.587  23.553  26.296  1.00  0.00     0.010 A 
ATOM     74  C   UNL A   1      42.363  22.732  28.565  1.00  0.00     0.010 A 
ATOM     75  C   UNL A   1      42.452  22.244  25.816  1.00  0.00     0.020 A 
ATOM     76  C   UNL A   1      42.262  21.421  28.092  1.00  0.00     0.020 A 
ATOM     77  C   UNL A   1      42.301  21.186  26.718  1.00  0.00     0.054 A 
BRANCH  77  78
ATOM     78  S   UNL A   1      42.211  19.491  26.077  1.00  0.00     0.124 S 
ATOM     79  O   UNL A   1      43.088  19.559  24.914  1.00  0.00    -0.237 OA
ATOM     80  O   UNL A   1      42.708  18.703  27.202  1.00  0.00    -0.237 OA
ATOM     81  O   UNL A   1      40.790  19.312  25.782  1.00  0.00    -0.744 OA
ENDBRANCH  77  78
ENDBRANCH  49  72
BRANCH  61  82
ATOM     82  C   UNL A   1      48.098  27.782  29.147  1.00  0.00    -0.014 A 
ATOM     83  C   UNL A   1      48.846  27.272  30.222  1.00  0.00     0.010 A 
ATOM     84  C   UNL A   1      48.735  28.014  27.914  1.00  0.00     0.010 A 
ATOM     85  C   UNL A   1      50.210  27.010  30.070  1.00  0.00     0.020 A 
ATOM     86  C   UNL A   1      50.093  27.728  27.751  1.00  0.00     0.020 A 
ATOM     87  C   UNL A   1      50.824  27.235  28.834  1.00  0.00     0.054 A 
BRANCH  87  88
ATOM     88  S   UNL A   1      52.579  26.820  28.646  1.00  0.00     0.124 S 
ATOM     89  O   UNL A   1      52.882  26.192  29.929  1.00  0.00    -0.237 OA
ATOM     90  O   UNL A   1      52.574  25.924  27.492  1.00  0.00    -0.237 OA
ATOM     91  O   UNL A   1      53.219  28.115  28.421  1.00  0.00    -0.744 OA
ENDBRANCH  87  88
ENDBRANCH  61  82
ENDBRANCH  35  36
ENDBRANCH  28  30
ENDBRANCH  27  28
ENDBRANCH   1  27
TORSDOF 17
ENDMDL
MODEL 3
REMARK VINA RESULT:     -10.4      1.470      2.228
REMARK SMILES Cc1c[nH]c(C[N@H+]2C[C@@H]3CN(S(C)(=O)=O)C[C@]3(C(=O)OCCOC(=O)c3ccc(-c4c5nc(c(-c6ccc(S(=O)(=O)[O-])cc6)c6ccc([nH]6)c(-c6ccc(S(=O)(=O)[O-])cc6)c6nc(c(-c7ccc(S(=O)(=O)[O-])cc7)c7ccc4[nH]7)C=C6)C=C5)cc3)C2)n1
REMARK SMILES IDX 22 1 21 2 20 3 18 4 19 5 17 6 7 7 8 8 86 9 9 11 10 12 16 13
REMARK SMILES IDX 11 14 6 15 5 16 1 17 2 18 3 19 87 20 4 21 12 23 13 24 14 25
REMARK SMILES IDX 15 26 23 27 24 28 25 29 26 30 27 31 85 32 28 33 84 34 29 35
REMARK SMILES IDX 30 36 31 37 78 38 32 39 83 40 77 41 79 42 33 43 82 44 76 45
REMARK SMILES IDX 75 46 34 48 64 49 45 50 63 51 46 52 49 53 62 54 80 55 47 56
REMARK SMILES IDX 48 57 61 59 81 60 50 61 35 62 36 63 44 64 37 65 43 66 38 67
REMARK SMILES IDX 39 68 40 69 41 70 42 71 65 72 66 73 74 74 67 75 73 76 68 77
REMARK SMILES IDX 69 78 70 79 71 80 72 81 51 82 52 83 60 84 53 85 59 86 54 87
REMARK SMILES IDX 55 88 56 89 57 90 58 91
REMARK H PARENT 7 10 4 22 79 47 49 58
REMARK Flexibility Score: inf
ROOT
ATOM      1  C   UNL A   1      33.341  28.609  26.340  1.00  0.00     0.275 C 
ENDROOT
BRANCH   1   2
ATOM      2  C   UNL A   1      32.281  27.485  26.244  1.00  0.00     0.274 C 
BRANCH   2   3
ATOM      3  O   UNL A   1      32.797  26.145  26.481  1.00  0.00    -0.461 OA
BRANCH   3   4
ATOM      4  C   UNL A   1      32.080  25.134  25.895  1.00  0.00     0.319 C 
ATOM      5  O   UNL A   1      31.021  24.789  26.404  1.00  0.00    -0.251 OA
BRANCH   4   6
ATOM      6  C   UNL A   1      32.834  24.453  24.630  1.00  0.00     0.140 C 
ATOM      7  N   UNL A   1      34.767  22.819  25.131  1.00  0.00    -0.327 N 
ATOM      8  C   UNL A   1      34.389  22.574  23.769  1.00  0.00     0.268 C 
ATOM      9  C   UNL A   1      33.650  23.575  25.710  1.00  0.00     0.283 C 
ATOM     10  H   UNL A   1      35.648  23.331  25.155  1.00  0.00     0.348 HD
ATOM     11  C   UNL A   1      32.966  23.103  23.720  1.00  0.00     0.084 C 
ATOM     12  C   UNL A   1      32.631  23.382  22.260  1.00  0.00     0.113 C 
ATOM     13  C   UNL A   1      31.463  24.642  23.816  1.00  0.00     0.127 C 
ATOM     14  N   UNL A   1      31.820  24.576  22.371  1.00  0.00    -0.200 NA
BRANCH   7  15
ATOM     15  C   UNL A   1      35.079  21.603  25.920  1.00  0.00     0.338 C 
BRANCH  15  16
ATOM     16  C   UNL A   1      34.402  20.315  25.515  1.00  0.00     0.161 A 
ATOM     17  C   UNL A   1      33.988  17.191  23.831  1.00  0.00     0.068 C 
ATOM     18  C   UNL A   1      33.861  18.399  24.678  1.00  0.00     0.056 A 
ATOM     19  C   UNL A   1      32.804  18.775  25.472  1.00  0.00     0.107 A 
ATOM     20  N   UNL A   1      34.852  19.357  24.725  1.00  0.00    -0.233 NA
ATOM     21  N   UNL A   1      33.147  19.993  25.980  1.00  0.00    -0.344 N 
ATOM     22  H   UNL A   1      32.594  20.546  26.578  1.00  0.00     0.167 HD
ENDBRANCH  15  16
ENDBRANCH   7  15
BRANCH  14  23
ATOM     23  S   UNL A   1      32.368  25.971  21.582  1.00  0.00     0.211 S 
ATOM     24  C   UNL A   1      31.538  27.305  22.437  1.00  0.00     0.176 C 
ATOM     25  O   UNL A   1      33.780  26.105  21.848  1.00  0.00    -0.213 OA
ATOM     26  O   UNL A   1      31.863  25.953  20.220  1.00  0.00    -0.213 OA
ENDBRANCH  14  23
ENDBRANCH   4   6
ENDBRANCH   3   4
ENDBRANCH   2   3
ENDBRANCH   1   2
BRANCH   1  27
ATOM     27  O   UNL A   1      33.690  28.934  27.708  1.00  0.00    -0.458 OA
BRANCH  27  28
ATOM     28  C   UNL A   1      34.302  30.127  27.924  1.00  0.00     0.338 C 
ATOM     29  O   UNL A   1      33.770  31.225  27.926  1.00  0.00    -0.246 OA
BRANCH  28  30
ATOM     30  C   UNL A   1      35.726  29.935  28.280  1.00  0.00     0.060 A 
ATOM     31  C   UNL A   1      36.672  30.046  27.267  1.00  0.00     0.016 A 
ATOM     32  C   UNL A   1      36.137  29.502  29.538  1.00  0.00     0.016 A 
ATOM     33  C   UNL A   1      38.017  29.776  27.492  1.00  0.00     0.010 A 
ATOM     34  C   UNL A   1      37.505  29.249  29.778  1.00  0.00     0.010 A 
ATOM     35  C   UNL A   1      38.463  29.389  28.756  1.00  0.00    -0.014 A 
BRANCH  35  36
ATOM     36  C   UNL A   1      39.913  29.094  28.952  1.00  0.00     0.031 A 
ATOM     37  C   UNL A   1      40.835  30.142  29.517  1.00  0.00     0.074 A 
ATOM     38  C   UNL A   1      40.397  27.855  28.709  1.00  0.00     0.049 A 
ATOM     39  N   UNL A   1      42.137  30.112  29.653  1.00  0.00    -0.248 NA
ATOM     40  C   UNL A   1      40.211  31.380  30.012  1.00  0.00     0.031 C 
ATOM     41  C   UNL A   1      39.603  26.702  28.276  1.00  0.00     0.029 A 
ATOM     42  N   UNL A   1      41.674  27.352  28.803  1.00  0.00    -0.354 N 
ATOM     43  C   UNL A   1      42.491  31.334  30.214  1.00  0.00     0.074 A 
ATOM     44  C   UNL A   1      41.267  32.083  30.400  1.00  0.00     0.031 C 
ATOM     45  C   UNL A   1      40.399  25.628  28.174  1.00  0.00     0.029 A 
ATOM     46  C   UNL A   1      41.777  26.033  28.423  1.00  0.00     0.049 A 
ATOM     47  H   UNL A   1      42.443  27.885  29.112  1.00  0.00     0.167 HD
ATOM     48  C   UNL A   1      43.725  31.795  30.532  1.00  0.00     0.031 A 
ATOM     49  C   UNL A   1      42.857  25.248  28.227  1.00  0.00     0.031 A 
ATOM     50  C   UNL A   1      44.942  31.049  30.331  1.00  0.00     0.049 A 
ATOM     51  C   UNL A   1      44.225  25.835  28.426  1.00  0.00     0.074 A 
ATOM     52  C   UNL A   1      46.245  31.444  30.582  1.00  0.00     0.029 A 
ATOM     53  N   UNL A   1      45.005  29.760  29.825  1.00  0.00    -0.354 N 
ATOM     54  N   UNL A   1      44.552  27.017  28.890  1.00  0.00    -0.248 NA
ATOM     55  C   UNL A   1      45.371  24.998  28.041  1.00  0.00     0.031 C 
ATOM     56  C   UNL A   1      47.100  30.419  30.162  1.00  0.00     0.029 A 
ATOM     57  C   UNL A   1      46.327  29.360  29.712  1.00  0.00     0.049 A 
ATOM     58  H   UNL A   1      44.226  29.210  29.581  1.00  0.00     0.167 HD
ATOM     59  C   UNL A   1      45.941  27.067  28.853  1.00  0.00     0.074 A 
ATOM     60  C   UNL A   1      46.393  25.786  28.348  1.00  0.00     0.031 C 
ATOM     61  C   UNL A   1      46.764  28.087  29.198  1.00  0.00     0.031 A 
BRANCH  48  62
ATOM     62  C   UNL A   1      43.830  33.204  31.052  1.00  0.00    -0.014 A 
ATOM     63  C   UNL A   1      43.825  33.489  32.428  1.00  0.00     0.010 A 
ATOM     64  C   UNL A   1      43.963  34.265  30.135  1.00  0.00     0.010 A 
ATOM     65  C   UNL A   1      43.908  34.812  32.876  1.00  0.00     0.020 A 
ATOM     66  C   UNL A   1      44.073  35.585  30.579  1.00  0.00     0.020 A 
ATOM     67  C   UNL A   1      44.026  35.851  31.948  1.00  0.00     0.054 A 
BRANCH  67  68
ATOM     68  S   UNL A   1      44.136  37.557  32.557  1.00  0.00     0.124 S 
ATOM     69  O   UNL A   1      43.749  38.323  31.375  1.00  0.00    -0.237 OA
ATOM     70  O   UNL A   1      43.173  37.567  33.656  1.00  0.00    -0.237 OA
ATOM     71  O   UNL A   1      45.535  37.694  32.957  1.00  0.00    -0.744 OA
ENDBRANCH  67  68
ENDBRANCH  48  62
BRANCH  49  72
ATOM     72  C   UNL A   1      42.683  23.857  27.716  1.00  0.00    -0.014 A 
ATOM     73  C   UNL A   1      42.604  22.765  28.596  1.00  0.00     0.010 A 
ATOM     74  C   UNL A   1      42.579  23.623  26.331  1.00  0.00     0.010 A 
ATOM     75  C   UNL A   1      42.416  21.468  28.101  1.00  0.00     0.020 A 
ATOM     76  C   UNL A   1      42.357  22.336  25.834  1.00  0.00     0.020 A 
ATOM     77  C   UNL A   1      42.283  21.265  26.723  1.00  0.00     0.054 A 
BRANCH  77  78
ATOM     78  S   UNL A   1      41.958  19.588  26.110  1.00  0.00     0.124 S 
ATOM     79  O   UNL A   1      42.828  19.518  24.942  1.00  0.00    -0.237 OA
ATOM     80  O   UNL A   1      42.351  18.757  27.245  1.00  0.00    -0.237 OA
ATOM     81  O   UNL A   1      40.524  19.600  25.825  1.00  0.00    -0.744 OA
ENDBRANCH  77  78
ENDBRANCH  49  72
BRANCH  61  82
ATOM     82  C   UNL A   1      48.244  27.862  29.050  1.00  0.00    -0.014 A 
ATOM     83  C   UNL A   1      48.908  28.185  27.854  1.00  0.00     0.010 A 
ATOM     84  C   UNL A   1      48.989  27.389  30.145  1.00  0.00     0.010 A 
ATOM     85  C   UNL A   1      50.292  28.026  27.751  1.00  0.00     0.020 A 
ATOM     86  C   UNL A   1      50.378  27.254  30.054  1.00  0.00     0.020 A 
ATOM     87  C   UNL A   1      51.019  27.566  28.854  1.00  0.00     0.054 A 
BRANCH  87  88
ATOM     88  S   UNL A   1      52.822  27.437  28.715  1.00  0.00     0.124 S 
ATOM     89  O   UNL A   1      53.254  27.715  30.082  1.00  0.00    -0.237 OA
ATOM     90  O   UNL A   1      53.011  26.061  28.263  1.00  0.00    -0.237 OA
ATOM     91  O   UNL A   1      53.169  28.463  27.733  1.00  0.00    -0.744 OA
ENDBRANCH  87  88
ENDBRANCH  61  82
ENDBRANCH  35  36
ENDBRANCH  28  30
ENDBRANCH  27  28
ENDBRANCH   1  27
TORSDOF 17
ENDMDL
