MODEL 1
REMARK VINA RESULT:     -10.4      0.000      0.000
REMARK SMILES O=C(Cn1cccc1C(=O)OCCOC(=O)c1ccc(-c2c3nc(c(-c4ccc(S(=O)(=O)[O-])cc4)c4ccc([nH]4)c(-c4ccc(S(=O)(=O)[O-])cc4)c4nc(c(-c5ccc(S(=O)(=O)[O-])cc5)c5ccc2[nH]5)C=C4)C=C3)cc1)NCC1CCCC1
REMARK SMILES IDX 12 1 11 2 9 3 10 4 8 5 4 6 5 7 6 8 7 9 3 10 2 11 1 12 77 13
REMARK SMILES IDX 78 15 79 16 80 17 83 18 81 19 82 20 13 21 14 22 15 23 16 24
REMARK SMILES IDX 17 25 18 26 76 27 19 28 75 29 20 30 21 31 22 32 69 33 23 34
REMARK SMILES IDX 74 35 68 36 70 37 24 38 73 39 67 40 66 41 25 43 55 44 36 45
REMARK SMILES IDX 54 46 37 47 40 48 53 49 71 50 38 51 39 52 52 54 72 55 41 56
REMARK SMILES IDX 26 57 27 58 35 59 28 60 34 61 29 62 30 63 31 64 32 65 33 66
REMARK SMILES IDX 56 67 57 68 65 69 58 70 64 71 59 72 60 73 61 74 62 75 63 76
REMARK SMILES IDX 42 77 43 78 51 79 44 80 50 81 45 82 46 83 47 84 48 85 49 86
REMARK H PARENT 77 14 70 42 40 53
REMARK Flexibility Score: inf
ROOT
ATOM      1  C   UNL A   1      34.584  31.948  29.248  1.00  0.00     0.275 C 
ENDROOT
BRANCH   1   2
ATOM      2  O   UNL A   1      34.242  33.220  29.833  1.00  0.00    -0.457 OA
BRANCH   2   3
ATOM      3  C   UNL A   1      33.554  34.079  29.026  1.00  0.00     0.355 C 
ATOM      4  O   UNL A   1      32.973  33.743  28.011  1.00  0.00    -0.244 OA
BRANCH   3   5
ATOM      5  C   UNL A   1      33.495  35.420  29.601  1.00  0.00     0.128 A 
ATOM      6  N   UNL A   1      33.351  35.830  30.919  1.00  0.00    -0.333 N 
ATOM      7  C   UNL A   1      33.302  37.210  30.965  1.00  0.00     0.087 A 
ATOM      8  C   UNL A   1      33.368  37.698  29.684  1.00  0.00     0.020 A 
ATOM      9  C   UNL A   1      33.489  36.583  28.833  1.00  0.00     0.035 A 
BRANCH   6  10
ATOM     10  C   UNL A   1      33.453  35.026  32.137  1.00  0.00     0.222 C 
BRANCH  10  11
ATOM     11  C   UNL A   1      34.806  34.925  32.811  1.00  0.00     0.239 C 
ATOM     12  O   UNL A   1      35.092  35.703  33.726  1.00  0.00    -0.273 OA
ATOM     13  N   UNL A   1      35.642  33.895  32.435  1.00  0.00    -0.354 N 
ATOM     14  H   UNL A   1      35.294  33.157  31.886  1.00  0.00     0.163 HD
BRANCH  13  15
ATOM     15  C   UNL A   1      37.034  33.893  32.848  1.00  0.00     0.119 C 
BRANCH  15  16
ATOM     16  C   UNL A   1      38.066  33.855  31.729  1.00  0.00     0.008 C 
ATOM     17  C   UNL A   1      38.411  32.407  31.368  1.00  0.00     0.005 C 
ATOM     18  C   UNL A   1      37.619  34.425  30.390  1.00  0.00     0.005 C 
ATOM     19  C   UNL A   1      39.078  32.501  30.005  1.00  0.00     0.000 C 
ATOM     20  C   UNL A   1      38.566  33.793  29.373  1.00  0.00     0.000 C 
ENDBRANCH  15  16
ENDBRANCH  13  15
ENDBRANCH  10  11
ENDBRANCH   6  10
ENDBRANCH   3   5
ENDBRANCH   2   3
ENDBRANCH   1   2
BRANCH   1  21
ATOM     21  C   UNL A   1      35.782  32.018  28.292  1.00  0.00     0.275 C 
BRANCH  21  22
ATOM     22  O   UNL A   1      35.781  31.041  27.241  1.00  0.00    -0.458 OA
BRANCH  22  23
ATOM     23  C   UNL A   1      36.024  29.792  27.686  1.00  0.00     0.338 C 
ATOM     24  O   UNL A   1      35.242  28.856  27.718  1.00  0.00    -0.246 OA
BRANCH  23  25
ATOM     25  C   UNL A   1      37.291  29.642  28.380  1.00  0.00     0.060 A 
ATOM     26  C   UNL A   1      38.438  29.815  27.594  1.00  0.00     0.016 A 
ATOM     27  C   UNL A   1      37.311  28.960  29.600  1.00  0.00     0.016 A 
ATOM     28  C   UNL A   1      39.609  29.208  27.987  1.00  0.00     0.010 A 
ATOM     29  C   UNL A   1      38.484  28.337  29.984  1.00  0.00     0.010 A 
ATOM     30  C   UNL A   1      39.612  28.441  29.157  1.00  0.00    -0.014 A 
BRANCH  30  31
ATOM     31  C   UNL A   1      40.886  27.837  29.561  1.00  0.00     0.031 A 
ATOM     32  C   UNL A   1      41.164  26.556  28.767  1.00  0.00     0.074 A 
ATOM     33  C   UNL A   1      41.533  28.458  30.593  1.00  0.00     0.049 A 
ATOM     34  N   UNL A   1      41.931  25.553  29.056  1.00  0.00    -0.248 NA
ATOM     35  C   UNL A   1      40.424  26.316  27.493  1.00  0.00     0.031 C 
ATOM     36  C   UNL A   1      41.073  29.702  31.260  1.00  0.00     0.029 A 
ATOM     37  N   UNL A   1      42.678  28.181  31.301  1.00  0.00    -0.354 N 
ATOM     38  C   UNL A   1      41.897  24.663  27.962  1.00  0.00     0.074 A 
ATOM     39  C   UNL A   1      40.894  25.144  27.064  1.00  0.00     0.031 C 
ATOM     40  C   UNL A   1      41.876  30.018  32.300  1.00  0.00     0.029 A 
ATOM     41  C   UNL A   1      42.939  29.037  32.400  1.00  0.00     0.049 A 
ATOM     42  H   UNL A   1      43.279  27.438  31.061  1.00  0.00     0.167 HD
ATOM     43  C   UNL A   1      42.757  23.619  27.813  1.00  0.00     0.031 A 
ATOM     44  C   UNL A   1      43.918  28.935  33.349  1.00  0.00     0.031 A 
ATOM     45  C   UNL A   1      43.613  23.506  28.944  1.00  0.00     0.049 A 
ATOM     46  C   UNL A   1      44.756  27.796  32.934  1.00  0.00     0.074 A 
ATOM     47  C   UNL A   1      43.416  23.007  30.205  1.00  0.00     0.029 A 
ATOM     48  N   UNL A   1      44.766  24.253  28.937  1.00  0.00    -0.354 N 
ATOM     49  N   UNL A   1      45.560  27.793  31.916  1.00  0.00    -0.248 NA
ATOM     50  C   UNL A   1      44.636  26.527  33.661  1.00  0.00     0.031 C 
ATOM     51  C   UNL A   1      44.213  23.833  31.028  1.00  0.00     0.029 A 
ATOM     52  C   UNL A   1      44.953  24.706  30.224  1.00  0.00     0.049 A 
ATOM     53  H   UNL A   1      45.347  24.430  28.162  1.00  0.00     0.167 HD
ATOM     54  C   UNL A   1      45.731  26.453  31.666  1.00  0.00     0.074 A 
ATOM     55  C   UNL A   1      45.419  25.767  32.901  1.00  0.00     0.031 C 
ATOM     56  C   UNL A   1      45.621  25.978  30.400  1.00  0.00     0.031 A 
BRANCH  43  57
ATOM     57  C   UNL A   1      43.024  22.727  26.638  1.00  0.00    -0.014 A 
ATOM     58  C   UNL A   1      42.593  21.381  26.741  1.00  0.00     0.010 A 
ATOM     59  C   UNL A   1      43.918  23.049  25.606  1.00  0.00     0.010 A 
ATOM     60  C   UNL A   1      43.128  20.376  25.936  1.00  0.00     0.020 A 
ATOM     61  C   UNL A   1      44.438  22.044  24.770  1.00  0.00     0.020 A 
ATOM     62  C   UNL A   1      44.080  20.710  24.979  1.00  0.00     0.054 A 
BRANCH  62  63
ATOM     63  S   UNL A   1      44.900  19.361  24.086  1.00  0.00     0.124 S 
ATOM     64  O   UNL A   1      46.310  19.629  24.354  1.00  0.00    -0.237 OA
ATOM     65  O   UNL A   1      44.356  18.171  24.740  1.00  0.00    -0.237 OA
ATOM     66  O   UNL A   1      44.473  19.553  22.704  1.00  0.00    -0.744 OA
ENDBRANCH  62  63
ENDBRANCH  43  57
BRANCH  44  67
ATOM     67  C   UNL A   1      44.256  29.556  34.684  1.00  0.00    -0.014 A 
ATOM     68  C   UNL A   1      43.386  30.286  35.502  1.00  0.00     0.010 A 
ATOM     69  C   UNL A   1      45.531  29.259  35.249  1.00  0.00     0.010 A 
ATOM     70  C   UNL A   1      43.713  30.566  36.851  1.00  0.00     0.020 A 
ATOM     71  C   UNL A   1      45.846  29.484  36.591  1.00  0.00     0.020 A 
ATOM     72  C   UNL A   1      44.918  30.114  37.399  1.00  0.00     0.054 A 
BRANCH  72  73
ATOM     73  S   UNL A   1      45.222  30.204  39.188  1.00  0.00     0.124 S 
ATOM     74  O   UNL A   1      44.081  30.980  39.662  1.00  0.00    -0.237 OA
ATOM     75  O   UNL A   1      45.241  28.799  39.585  1.00  0.00    -0.237 OA
ATOM     76  O   UNL A   1      46.518  30.878  39.276  1.00  0.00    -0.744 OA
ENDBRANCH  72  73
ENDBRANCH  44  67
BRANCH  56  77
ATOM     77  C   UNL A   1      45.806  27.022  29.301  1.00  0.00    -0.014 A 
ATOM     78  C   UNL A   1      47.094  27.444  28.928  1.00  0.00     0.010 A 
ATOM     79  C   UNL A   1      44.718  27.670  28.686  1.00  0.00     0.010 A 
ATOM     80  C   UNL A   1      47.283  28.465  27.981  1.00  0.00     0.020 A 
ATOM     81  C   UNL A   1      44.890  28.689  27.735  1.00  0.00     0.020 A 
ATOM     82  C   UNL A   1      46.179  29.081  27.386  1.00  0.00     0.054 A 
BRANCH  82  83
ATOM     83  S   UNL A   1      46.452  30.401  26.170  1.00  0.00     0.124 S 
ATOM     84  O   UNL A   1      46.571  29.666  24.914  1.00  0.00    -0.237 OA
ATOM     85  O   UNL A   1      45.242  31.210  26.308  1.00  0.00    -0.237 OA
ATOM     86  O   UNL A   1      47.683  31.049  26.620  1.00  0.00    -0.744 OA
ENDBRANCH  82  83
ENDBRANCH  56  77
ENDBRANCH  30  31
ENDBRANCH  23  25
ENDBRANCH  22  23
ENDBRANCH  21  22
ENDBRANCH   1  21
TORSDOF 18
ENDMDL
MODEL 2
REMARK VINA RESULT:     -10.2      5.027      7.806
REMARK SMILES O=C(Cn1cccc1C(=O)OCCOC(=O)c1ccc(-c2c3nc(c(-c4ccc(S(=O)(=O)[O-])cc4)c4ccc([nH]4)c(-c4ccc(S(=O)(=O)[O-])cc4)c4nc(c(-c5ccc(S(=O)(=O)[O-])cc5)c5ccc2[nH]5)C=C4)C=C3)cc1)NCC1CCCC1
REMARK SMILES IDX 12 1 11 2 9 3 10 4 8 5 4 6 5 7 6 8 7 9 3 10 2 11 1 12 77 13
REMARK SMILES IDX 78 15 79 16 80 17 83 18 81 19 82 20 13 21 14 22 15 23 16 24
REMARK SMILES IDX 17 25 18 26 76 27 19 28 75 29 20 30 21 31 22 32 69 33 23 34
REMARK SMILES IDX 74 35 68 36 70 37 24 38 73 39 67 40 66 41 25 43 55 44 36 45
REMARK SMILES IDX 54 46 37 47 40 48 53 49 71 50 38 51 39 52 52 54 72 55 41 56
REMARK SMILES IDX 26 57 27 58 35 59 28 60 34 61 29 62 30 63 31 64 32 65 33 66
REMARK SMILES IDX 56 67 57 68 65 69 58 70 64 71 59 72 60 73 61 74 62 75 63 76
REMARK SMILES IDX 42 77 43 78 51 79 44 80 50 81 45 82 46 83 47 84 48 85 49 86
REMARK H PARENT 77 14 70 42 40 53
REMARK Flexibility Score: inf
ROOT
ATOM      1  C   UNL A   1      32.070  30.819  26.899  1.00  0.00     0.275 C 
ENDROOT
BRANCH   1   2
ATOM      2  O   UNL A   1      31.939  29.400  26.690  1.00  0.00    -0.457 OA
BRANCH   2   3
ATOM      3  C   UNL A   1      31.980  28.983  25.391  1.00  0.00     0.355 C 
ATOM      4  O   UNL A   1      31.805  29.715  24.435  1.00  0.00    -0.244 OA
BRANCH   3   5
ATOM      5  C   UNL A   1      32.386  27.584  25.291  1.00  0.00     0.128 A 
ATOM      6  N   UNL A   1      31.922  26.569  24.466  1.00  0.00    -0.333 N 
ATOM      7  C   UNL A   1      32.584  25.394  24.771  1.00  0.00     0.087 A 
ATOM      8  C   UNL A   1      33.442  25.629  25.817  1.00  0.00     0.020 A 
ATOM      9  C   UNL A   1      33.319  26.994  26.141  1.00  0.00     0.035 A 
BRANCH   6  10
ATOM     10  C   UNL A   1      31.051  26.674  23.296  1.00  0.00     0.222 C 
BRANCH  10  11
ATOM     11  C   UNL A   1      29.625  27.138  23.510  1.00  0.00     0.239 C 
ATOM     12  O   UNL A   1      28.832  26.412  24.118  1.00  0.00    -0.273 OA
ATOM     13  N   UNL A   1      29.287  28.410  23.097  1.00  0.00    -0.354 N 
ATOM     14  H   UNL A   1      29.994  29.045  22.841  1.00  0.00     0.163 HD
BRANCH  13  15
ATOM     15  C   UNL A   1      27.895  28.815  23.038  1.00  0.00     0.119 C 
BRANCH  15  16
ATOM     16  C   UNL A   1      27.635  30.273  22.682  1.00  0.00     0.008 C 
ATOM     17  C   UNL A   1      28.437  31.200  23.600  1.00  0.00     0.005 C 
ATOM     18  C   UNL A   1      28.091  30.713  21.298  1.00  0.00     0.005 C 
ATOM     19  C   UNL A   1      28.437  32.542  22.885  1.00  0.00     0.000 C 
ATOM     20  C   UNL A   1      28.221  32.230  21.405  1.00  0.00     0.000 C 
ENDBRANCH  15  16
ENDBRANCH  13  15
ENDBRANCH  10  11
ENDBRANCH   6  10
ENDBRANCH   3   5
ENDBRANCH   2   3
ENDBRANCH   1   2
BRANCH   1  21
ATOM     21  C   UNL A   1      33.429  31.227  27.483  1.00  0.00     0.275 C 
BRANCH  21  22
ATOM     22  O   UNL A   1      33.843  32.568  27.187  1.00  0.00    -0.458 OA
BRANCH  22  23
ATOM     23  C   UNL A   1      33.642  33.418  28.213  1.00  0.00     0.338 C 
ATOM     24  O   UNL A   1      32.765  34.260  28.311  1.00  0.00    -0.246 OA
BRANCH  23  25
ATOM     25  C   UNL A   1      34.722  33.446  29.184  1.00  0.00     0.060 A 
ATOM     26  C   UNL A   1      35.972  33.843  28.690  1.00  0.00     0.016 A 
ATOM     27  C   UNL A   1      34.578  32.719  30.369  1.00  0.00     0.016 A 
ATOM     28  C   UNL A   1      37.108  33.420  29.342  1.00  0.00     0.010 A 
ATOM     29  C   UNL A   1      35.721  32.280  31.013  1.00  0.00     0.010 A 
ATOM     30  C   UNL A   1      36.973  32.609  30.474  1.00  0.00    -0.014 A 
BRANCH  30  31
ATOM     31  C   UNL A   1      38.205  32.205  31.160  1.00  0.00     0.031 A 
ATOM     32  C   UNL A   1      38.768  30.910  30.565  1.00  0.00     0.074 A 
ATOM     33  C   UNL A   1      38.571  32.983  32.223  1.00  0.00     0.049 A 
ATOM     34  N   UNL A   1      39.570  30.038  31.088  1.00  0.00    -0.248 NA
ATOM     35  C   UNL A   1      38.316  30.478  29.209  1.00  0.00     0.031 C 
ATOM     36  C   UNL A   1      37.859  34.208  32.666  1.00  0.00     0.029 A 
ATOM     37  N   UNL A   1      39.583  32.911  33.150  1.00  0.00    -0.354 N 
ATOM     38  C   UNL A   1      39.843  29.066  30.102  1.00  0.00     0.074 A 
ATOM     39  C   UNL A   1      38.984  29.343  28.994  1.00  0.00     0.031 C 
ATOM     40  C   UNL A   1      38.410  34.705  33.796  1.00  0.00     0.029 A 
ATOM     41  C   UNL A   1      39.534  33.878  34.185  1.00  0.00     0.049 A 
ATOM     42  H   UNL A   1      40.296  32.232  33.099  1.00  0.00     0.167 HD
ATOM     43  C   UNL A   1      40.825  28.131  30.219  1.00  0.00     0.031 A 
ATOM     44  C   UNL A   1      40.319  33.976  35.300  1.00  0.00     0.031 A 
ATOM     45  C   UNL A   1      41.456  28.217  31.491  1.00  0.00     0.049 A 
ATOM     46  C   UNL A   1      41.340  32.923  35.162  1.00  0.00     0.074 A 
ATOM     47  C   UNL A   1      41.077  27.800  32.740  1.00  0.00     0.029 A 
ATOM     48  N   UNL A   1      42.501  29.101  31.616  1.00  0.00    -0.354 N 
ATOM     49  N   UNL A   1      42.319  32.940  34.311  1.00  0.00    -0.248 NA
ATOM     50  C   UNL A   1      41.223  31.711  35.982  1.00  0.00     0.031 C 
ATOM     51  C   UNL A   1      41.607  28.783  33.604  1.00  0.00     0.029 A 
ATOM     52  C   UNL A   1      42.387  29.676  32.862  1.00  0.00     0.049 A 
ATOM     53  H   UNL A   1      43.196  29.288  30.944  1.00  0.00     0.167 HD
ATOM     54  C   UNL A   1      42.680  31.617  34.234  1.00  0.00     0.074 A 
ATOM     55  C   UNL A   1      42.215  30.997  35.457  1.00  0.00     0.031 C 
ATOM     56  C   UNL A   1      42.867  31.032  33.024  1.00  0.00     0.031 A 
BRANCH  43  57
ATOM     57  C   UNL A   1      41.407  27.188  29.208  1.00  0.00    -0.014 A 
ATOM     58  C   UNL A   1      40.521  26.260  28.609  1.00  0.00     0.010 A 
ATOM     59  C   UNL A   1      42.784  26.969  29.054  1.00  0.00     0.010 A 
ATOM     60  C   UNL A   1      40.982  25.095  27.996  1.00  0.00     0.020 A 
ATOM     61  C   UNL A   1      43.257  25.811  28.410  1.00  0.00     0.020 A 
ATOM     62  C   UNL A   1      42.351  24.859  27.936  1.00  0.00     0.054 A 
BRANCH  62  63
ATOM     63  S   UNL A   1      42.910  23.250  27.313  1.00  0.00     0.124 S 
ATOM     64  O   UNL A   1      42.536  23.322  25.902  1.00  0.00    -0.237 OA
ATOM     65  O   UNL A   1      44.347  23.289  27.580  1.00  0.00    -0.237 OA
ATOM     66  O   UNL A   1      42.160  22.290  28.116  1.00  0.00    -0.744 OA
ENDBRANCH  62  63
ENDBRANCH  43  57
BRANCH  44  67
ATOM     67  C   UNL A   1      40.326  34.739  36.604  1.00  0.00    -0.014 A 
ATOM     68  C   UNL A   1      41.013  35.932  36.862  1.00  0.00     0.010 A 
ATOM     69  C   UNL A   1      39.443  34.301  37.633  1.00  0.00     0.010 A 
ATOM     70  C   UNL A   1      40.719  36.712  38.006  1.00  0.00     0.020 A 
ATOM     71  C   UNL A   1      39.106  35.084  38.739  1.00  0.00     0.020 A 
ATOM     72  C   UNL A   1      39.727  36.308  38.907  1.00  0.00     0.054 A 
BRANCH  72  73
ATOM     73  S   UNL A   1      39.133  37.429  40.208  1.00  0.00     0.124 S 
ATOM     74  O   UNL A   1      38.373  36.531  41.071  1.00  0.00    -0.237 OA
ATOM     75  O   UNL A   1      40.372  37.955  40.774  1.00  0.00    -0.237 OA
ATOM     76  O   UNL A   1      38.337  38.409  39.469  1.00  0.00    -0.744 OA
ENDBRANCH  72  73
ENDBRANCH  44  67
BRANCH  56  77
ATOM     77  C   UNL A   1      43.143  32.000  31.877  1.00  0.00    -0.014 A 
ATOM     78  C   UNL A   1      44.432  32.526  31.682  1.00  0.00     0.010 A 
ATOM     79  C   UNL A   1      42.123  32.478  31.031  1.00  0.00     0.010 A 
ATOM     80  C   UNL A   1      44.688  33.483  30.686  1.00  0.00     0.020 A 
ATOM     81  C   UNL A   1      42.364  33.431  30.029  1.00  0.00     0.020 A 
ATOM     82  C   UNL A   1      43.653  33.929  29.861  1.00  0.00     0.054 A 
BRANCH  82  83
ATOM     83  S   UNL A   1      44.010  35.171  28.585  1.00  0.00     0.124 S 
ATOM     84  O   UNL A   1      43.540  36.411  29.198  1.00  0.00    -0.237 OA
ATOM     85  O   UNL A   1      45.460  35.058  28.435  1.00  0.00    -0.237 OA
ATOM     86  O   UNL A   1      43.233  34.725  27.430  1.00  0.00    -0.744 OA
ENDBRANCH  82  83
ENDBRANCH  56  77
ENDBRANCH  30  31
ENDBRANCH  23  25
ENDBRANCH  22  23
ENDBRANCH  21  22
ENDBRANCH   1  21
TORSDOF 18
ENDMDL
MODEL 3
REMARK VINA RESULT:     -10.1      1.661      2.584
REMARK SMILES O=C(Cn1cccc1C(=O)OCCOC(=O)c1ccc(-c2c3nc(c(-c4ccc(S(=O)(=O)[O-])cc4)c4ccc([nH]4)c(-c4ccc(S(=O)(=O)[O-])cc4)c4nc(c(-c5ccc(S(=O)(=O)[O-])cc5)c5ccc2[nH]5)C=C4)C=C3)cc1)NCC1CCCC1
REMARK SMILES IDX 12 1 11 2 9 3 10 4 8 5 4 6 5 7 6 8 7 9 3 10 2 11 1 12 77 13
REMARK SMILES IDX 78 15 79 16 80 17 83 18 81 19 82 20 13 21 14 22 15 23 16 24
REMARK SMILES IDX 17 25 18 26 76 27 19 28 75 29 20 30 21 31 22 32 69 33 23 34
REMARK SMILES IDX 74 35 68 36 70 37 24 38 73 39 67 40 66 41 25 43 55 44 36 45
REMARK SMILES IDX 54 46 37 47 40 48 53 49 71 50 38 51 39 52 52 54 72 55 41 56
REMARK SMILES IDX 26 57 27 58 35 59 28 60 34 61 29 62 30 63 31 64 32 65 33 66
REMARK SMILES IDX 56 67 57 68 65 69 58 70 64 71 59 72 60 73 61 74 62 75 63 76
REMARK SMILES IDX 42 77 43 78 51 79 44 80 50 81 45 82 46 83 47 84 48 85 49 86
REMARK H PARENT 77 14 70 42 40 53
REMARK Flexibility Score: inf
ROOT
ATOM      1  C   UNL A   1      34.506  33.059  28.551  1.00  0.00     0.275 C 
ENDROOT
BRANCH   1   2
ATOM      2  O   UNL A   1      35.393  33.673  29.507  1.00  0.00    -0.457 OA
BRANCH   2   3
ATOM      3  C   UNL A   1      35.058  33.510  30.820  1.00  0.00     0.355 C 
ATOM      4  O   UNL A   1      33.999  33.868  31.302  1.00  0.00    -0.244 OA
BRANCH   3   5
ATOM      5  C   UNL A   1      36.070  32.742  31.539  1.00  0.00     0.128 A 
ATOM      6  N   UNL A   1      37.396  33.041  31.821  1.00  0.00    -0.333 N 
ATOM      7  C   UNL A   1      37.971  31.977  32.491  1.00  0.00     0.087 A 
ATOM      8  C   UNL A   1      37.043  30.973  32.606  1.00  0.00     0.020 A 
ATOM      9  C   UNL A   1      35.858  31.449  32.014  1.00  0.00     0.035 A 
BRANCH   6  10
ATOM     10  C   UNL A   1      38.090  34.321  31.678  1.00  0.00     0.222 C 
BRANCH  10  11
ATOM     11  C   UNL A   1      39.600  34.326  31.791  1.00  0.00     0.239 C 
ATOM     12  O   UNL A   1      40.130  34.552  32.883  1.00  0.00    -0.273 OA
ATOM     13  N   UNL A   1      40.335  33.982  30.676  1.00  0.00    -0.354 N 
ATOM     14  H   UNL A   1      39.886  33.576  29.899  1.00  0.00     0.163 HD
BRANCH  13  15
ATOM     15  C   UNL A   1      41.767  34.215  30.642  1.00  0.00     0.119 C 
BRANCH  15  16
ATOM     16  C   UNL A   1      42.275  35.114  29.522  1.00  0.00     0.008 C 
ATOM     17  C   UNL A   1      43.256  34.352  28.627  1.00  0.00     0.005 C 
ATOM     18  C   UNL A   1      41.229  35.592  28.525  1.00  0.00     0.005 C 
ATOM     19  C   UNL A   1      43.337  35.181  27.355  1.00  0.00     0.000 C 
ATOM     20  C   UNL A   1      42.033  35.973  27.285  1.00  0.00     0.000 C 
ENDBRANCH  15  16
ENDBRANCH  13  15
ENDBRANCH  10  11
ENDBRANCH   6  10
ENDBRANCH   3   5
ENDBRANCH   2   3
ENDBRANCH   1   2
BRANCH   1  21
ATOM     21  C   UNL A   1      34.676  31.537  28.451  1.00  0.00     0.275 C 
BRANCH  21  22
ATOM     22  O   UNL A   1      35.575  31.090  27.426  1.00  0.00    -0.458 OA
BRANCH  22  23
ATOM     23  C   UNL A   1      35.967  29.812  27.594  1.00  0.00     0.338 C 
ATOM     24  O   UNL A   1      35.315  28.805  27.369  1.00  0.00    -0.246 OA
BRANCH  23  25
ATOM     25  C   UNL A   1      37.220  29.662  28.313  1.00  0.00     0.060 A 
ATOM     26  C   UNL A   1      38.382  29.880  27.559  1.00  0.00     0.016 A 
ATOM     27  C   UNL A   1      37.226  28.941  29.510  1.00  0.00     0.016 A 
ATOM     28  C   UNL A   1      39.555  29.282  27.959  1.00  0.00     0.010 A 
ATOM     29  C   UNL A   1      38.402  28.327  29.901  1.00  0.00     0.010 A 
ATOM     30  C   UNL A   1      39.545  28.478  29.104  1.00  0.00    -0.014 A 
BRANCH  30  31
ATOM     31  C   UNL A   1      40.821  27.884  29.518  1.00  0.00     0.031 A 
ATOM     32  C   UNL A   1      41.111  26.601  28.732  1.00  0.00     0.074 A 
ATOM     33  C   UNL A   1      41.458  28.514  30.550  1.00  0.00     0.049 A 
ATOM     34  N   UNL A   1      41.883  25.604  29.030  1.00  0.00    -0.248 NA
ATOM     35  C   UNL A   1      40.379  26.350  27.455  1.00  0.00     0.031 C 
ATOM     36  C   UNL A   1      40.988  29.759  31.208  1.00  0.00     0.029 A 
ATOM     37  N   UNL A   1      42.602  28.249  31.265  1.00  0.00    -0.354 N 
ATOM     38  C   UNL A   1      41.860  24.708  27.941  1.00  0.00     0.074 A 
ATOM     39  C   UNL A   1      40.859  25.178  27.036  1.00  0.00     0.031 C 
ATOM     40  C   UNL A   1      41.783  30.085  32.251  1.00  0.00     0.029 A 
ATOM     41  C   UNL A   1      42.851  29.112  32.362  1.00  0.00     0.049 A 
ATOM     42  H   UNL A   1      43.208  27.508  31.032  1.00  0.00     0.167 HD
ATOM     43  C   UNL A   1      42.728  23.669  27.802  1.00  0.00     0.031 A 
ATOM     44  C   UNL A   1      43.826  29.020  33.316  1.00  0.00     0.031 A 
ATOM     45  C   UNL A   1      43.578  23.567  28.939  1.00  0.00     0.049 A 
ATOM     46  C   UNL A   1      44.673  27.885  32.912  1.00  0.00     0.074 A 
ATOM     47  C   UNL A   1      43.378  23.074  30.201  1.00  0.00     0.029 A 
ATOM     48  N   UNL A   1      44.727  24.321  28.934  1.00  0.00    -0.354 N 
ATOM     49  N   UNL A   1      45.483  27.882  31.898  1.00  0.00    -0.248 NA
ATOM     50  C   UNL A   1      44.558  26.619  33.645  1.00  0.00     0.031 C 
ATOM     51  C   UNL A   1      44.165  23.908  31.024  1.00  0.00     0.029 A 
ATOM     52  C   UNL A   1      44.904  24.782  30.219  1.00  0.00     0.049 A 
ATOM     53  H   UNL A   1      45.311  24.498  28.161  1.00  0.00     0.167 HD
ATOM     54  C   UNL A   1      45.663  26.542  31.656  1.00  0.00     0.074 A 
ATOM     55  C   UNL A   1      45.349  25.860  32.893  1.00  0.00     0.031 C 
ATOM     56  C   UNL A   1      45.564  26.060  30.392  1.00  0.00     0.031 A 
BRANCH  43  57
ATOM     57  C   UNL A   1      43.006  22.772  26.633  1.00  0.00    -0.014 A 
ATOM     58  C   UNL A   1      42.564  21.430  26.732  1.00  0.00     0.010 A 
ATOM     59  C   UNL A   1      43.919  23.086  25.615  1.00  0.00     0.010 A 
ATOM     60  C   UNL A   1      43.104  20.419  25.938  1.00  0.00     0.020 A 
ATOM     61  C   UNL A   1      44.445  22.076  24.789  1.00  0.00     0.020 A 
ATOM     62  C   UNL A   1      44.074  20.744  24.995  1.00  0.00     0.054 A 
BRANCH  62  63
ATOM     63  S   UNL A   1      44.897  19.387  24.118  1.00  0.00     0.124 S 
ATOM     64  O   UNL A   1      46.308  19.677  24.361  1.00  0.00    -0.237 OA
ATOM     65  O   UNL A   1      44.376  18.205  24.802  1.00  0.00    -0.237 OA
ATOM     66  O   UNL A   1      44.450  19.547  22.738  1.00  0.00    -0.744 OA
ENDBRANCH  62  63
ENDBRANCH  43  57
BRANCH  44  67
ATOM     67  C   UNL A   1      44.153  29.650  34.650  1.00  0.00    -0.014 A 
ATOM     68  C   UNL A   1      45.151  30.602  34.894  1.00  0.00     0.010 A 
ATOM     69  C   UNL A   1      43.284  29.373  35.744  1.00  0.00     0.010 A 
ATOM     70  C   UNL A   1      45.179  31.339  36.103  1.00  0.00     0.020 A 
ATOM     71  C   UNL A   1      43.268  30.127  36.920  1.00  0.00     0.020 A 
ATOM     72  C   UNL A   1      44.203  31.133  37.084  1.00  0.00     0.054 A 
BRANCH  72  73
ATOM     73  S   UNL A   1      44.046  32.261  38.498  1.00  0.00     0.124 S 
ATOM     74  O   UNL A   1      43.606  33.499  37.864  1.00  0.00    -0.237 OA
ATOM     75  O   UNL A   1      43.056  31.594  39.339  1.00  0.00    -0.237 OA
ATOM     76  O   UNL A   1      45.398  32.291  39.057  1.00  0.00    -0.744 OA
ENDBRANCH  72  73
ENDBRANCH  44  67
BRANCH  56  77
ATOM     77  C   UNL A   1      45.747  27.099  29.289  1.00  0.00    -0.014 A 
ATOM     78  C   UNL A   1      47.016  27.648  29.031  1.00  0.00     0.010 A 
ATOM     79  C   UNL A   1      44.664  27.619  28.554  1.00  0.00     0.010 A 
ATOM     80  C   UNL A   1      47.191  28.667  28.080  1.00  0.00     0.020 A 
ATOM     81  C   UNL A   1      44.824  28.634  27.598  1.00  0.00     0.020 A 
ATOM     82  C   UNL A   1      46.095  29.154  27.365  1.00  0.00     0.054 A 
BRANCH  82  83
ATOM     83  S   UNL A   1      46.349  30.476  26.146  1.00  0.00     0.124 S 
ATOM     84  O   UNL A   1      47.597  31.091  26.589  1.00  0.00    -0.237 OA
ATOM     85  O   UNL A   1      46.430  29.732  24.890  1.00  0.00    -0.237 OA
ATOM     86  O   UNL A   1      45.164  31.321  26.288  1.00  0.00    -0.744 OA
ENDBRANCH  82  83
ENDBRANCH  56  77
ENDBRANCH  30  31
ENDBRANCH  23  25
ENDBRANCH  22  23
ENDBRANCH  21  22
ENDBRANCH   1  21
TORSDOF 18
ENDMDL
