MODEL 1
REMARK VINA RESULT:     -11.0      0.000      0.000
REMARK SMILES O=C(CCCC(=O)OCCOC(=O)c1ccc(-c2c3nc(c(-c4ccc(S(=O)(=O)[O-])cc4)c4ccc([nH]4)c(-c4ccc(S(=O)(=O)[O-])cc4)c4nc(c(-c5ccc(S(=O)(=O)[O-])cc5)c5ccc2[nH]5)C=C4)C=C3)cc1)Nc1nc2n(n1)[C@@H](c1ccc(Cl)cc1)C[C@@H](c1ccc(Cl)cc1)N2
REMARK SMILES IDX 9 1 8 2 6 3 7 4 5 5 4 6 3 7 2 8 1 9 74 10 75 12 76 13 79 14
REMARK SMILES IDX 77 15 78 16 97 17 80 18 89 19 88 21 81 22 82 23 87 24 83 25
REMARK SMILES IDX 86 26 84 27 85 28 90 29 91 30 96 31 92 32 95 33 93 34 94 35
REMARK SMILES IDX 10 36 11 37 12 38 13 39 14 40 15 41 73 42 16 43 72 44 17 45
REMARK SMILES IDX 18 46 19 47 66 48 20 49 71 50 65 51 67 52 21 53 70 54 64 55
REMARK SMILES IDX 63 56 22 58 52 59 33 60 51 61 34 62 37 63 50 64 68 65 35 66
REMARK SMILES IDX 36 67 49 69 69 70 38 71 23 72 24 73 32 74 25 75 31 76 26 77
REMARK SMILES IDX 27 78 28 79 29 80 30 81 53 82 54 83 62 84 55 85 61 86 56 87
REMARK SMILES IDX 57 88 58 89 59 90 60 91 39 92 40 93 48 94 41 95 47 96 42 97
REMARK SMILES IDX 43 98 44 99 45 100 46 101
REMARK H PARENT 74 11 97 20 67 57 37 68
REMARK Flexibility Score: inf
ROOT
ATOM      1  C   UNL A   1      36.083  22.485  24.922  1.00  0.00     0.274 C 
ENDROOT
BRANCH   1   2
ATOM      2  O   UNL A   1      34.726  22.238  25.344  1.00  0.00    -0.462 OA
BRANCH   2   3
ATOM      3  C   UNL A   1      34.255  20.973  25.240  1.00  0.00     0.305 C 
ATOM      4  O   UNL A   1      34.894  20.032  24.792  1.00  0.00    -0.252 OA
BRANCH   3   5
ATOM      5  C   UNL A   1      32.803  20.843  25.666  1.00  0.00     0.123 C 
BRANCH   5   6
ATOM      6  C   UNL A   1      31.773  21.758  25.000  1.00  0.00     0.022 C 
BRANCH   6   7
ATOM      7  C   UNL A   1      30.801  22.517  25.905  1.00  0.00     0.101 C 
BRANCH   7   8
ATOM      8  C   UNL A   1      31.047  24.007  25.970  1.00  0.00     0.226 C 
ATOM      9  O   UNL A   1      30.199  24.761  26.446  1.00  0.00    -0.275 OA
ATOM     10  N   UNL A   1      32.286  24.395  25.514  1.00  0.00    -0.293 N 
ATOM     11  H   UNL A   1      32.974  23.723  25.306  1.00  0.00     0.173 HD
BRANCH  10  12
ATOM     12  C   UNL A   1      32.548  25.721  25.356  1.00  0.00     0.250 A 
ATOM     13  N   UNL A   1      32.413  26.287  24.120  1.00  0.00    -0.176 NA
ATOM     14  N   UNL A   1      32.710  26.572  26.374  1.00  0.00    -0.130 NA
ATOM     15  C   UNL A   1      32.281  27.549  24.408  1.00  0.00     0.224 A 
ATOM     16  N   UNL A   1      32.529  27.748  25.738  1.00  0.00    -0.222 N 
ATOM     17  N   UNL A   1      31.682  28.504  23.672  1.00  0.00    -0.347 N 
ATOM     18  C   UNL A   1      32.199  28.986  26.432  1.00  0.00     0.144 C 
ATOM     19  C   UNL A   1      30.644  29.236  24.398  1.00  0.00     0.115 C 
ATOM     20  H   UNL A   1      31.920  28.693  22.736  1.00  0.00     0.164 HD
ATOM     21  C   UNL A   1      31.350  29.963  25.567  1.00  0.00     0.062 C 
BRANCH  18  22
ATOM     22  C   UNL A   1      33.468  29.637  26.963  1.00  0.00    -0.023 A 
ATOM     23  C   UNL A   1      34.665  28.906  27.029  1.00  0.00     0.007 A 
ATOM     24  C   UNL A   1      33.478  30.983  27.373  1.00  0.00     0.007 A 
ATOM     25  C   UNL A   1      35.835  29.499  27.509  1.00  0.00     0.021 A 
ATOM     26  C   UNL A   1      34.647  31.575  27.855  1.00  0.00     0.021 A 
ATOM     27  C   UNL A   1      35.820  30.829  27.924  1.00  0.00     0.041 A 
ATOM     28  Cl  UNL A   1      37.260  31.554  28.526  1.00  0.00    -0.084 Cl
ENDBRANCH  18  22
BRANCH  19  29
ATOM     29  C   UNL A   1      29.769  30.120  23.513  1.00  0.00    -0.025 A 
ATOM     30  C   UNL A   1      29.639  29.806  22.145  1.00  0.00     0.007 A 
ATOM     31  C   UNL A   1      29.212  31.335  23.950  1.00  0.00     0.007 A 
ATOM     32  C   UNL A   1      28.969  30.656  21.260  1.00  0.00     0.021 A 
ATOM     33  C   UNL A   1      28.543  32.190  23.065  1.00  0.00     0.021 A 
ATOM     34  C   UNL A   1      28.426  31.848  21.724  1.00  0.00     0.041 A 
ATOM     35  Cl  UNL A   1      27.635  32.912  20.629  1.00  0.00    -0.084 Cl
ENDBRANCH  19  29
ENDBRANCH  10  12
ENDBRANCH   7   8
ENDBRANCH   6   7
ENDBRANCH   5   6
ENDBRANCH   3   5
ENDBRANCH   2   3
ENDBRANCH   1   2
BRANCH   1  36
ATOM     36  C   UNL A   1      36.902  23.138  26.040  1.00  0.00     0.275 C 
BRANCH  36  37
ATOM     37  O   UNL A   1      38.236  23.440  25.597  1.00  0.00    -0.458 OA
BRANCH  37  38
ATOM     38  C   UNL A   1      39.222  22.963  26.386  1.00  0.00     0.338 C 
ATOM     39  O   UNL A   1      39.565  21.792  26.517  1.00  0.00    -0.246 OA
BRANCH  38  40
ATOM     40  C   UNL A   1      39.975  24.082  26.958  1.00  0.00     0.060 A 
ATOM     41  C   UNL A   1      39.924  25.305  26.290  1.00  0.00     0.016 A 
ATOM     42  C   UNL A   1      40.774  23.923  28.090  1.00  0.00     0.016 A 
ATOM     43  C   UNL A   1      40.681  26.380  26.734  1.00  0.00     0.010 A 
ATOM     44  C   UNL A   1      41.527  25.010  28.547  1.00  0.00     0.010 A 
ATOM     45  C   UNL A   1      41.492  26.240  27.864  1.00  0.00    -0.014 A 
BRANCH  45  46
ATOM     46  C   UNL A   1      42.336  27.380  28.289  1.00  0.00     0.031 A 
ATOM     47  C   UNL A   1      41.712  28.538  29.011  1.00  0.00     0.074 A 
ATOM     48  C   UNL A   1      43.663  27.344  28.068  1.00  0.00     0.049 A 
ATOM     49  N   UNL A   1      42.260  29.660  29.396  1.00  0.00    -0.248 NA
ATOM     50  C   UNL A   1      40.283  28.418  29.344  1.00  0.00     0.031 C 
ATOM     51  C   UNL A   1      44.386  26.237  27.439  1.00  0.00     0.029 A 
ATOM     52  N   UNL A   1      44.641  28.260  28.358  1.00  0.00    -0.354 N 
ATOM     53  C   UNL A   1      41.239  30.395  29.985  1.00  0.00     0.074 A 
ATOM     54  C   UNL A   1      40.037  29.595  29.903  1.00  0.00     0.031 C 
ATOM     55  C   UNL A   1      45.696  26.534  27.403  1.00  0.00     0.029 A 
ATOM     56  C   UNL A   1      45.894  27.872  27.951  1.00  0.00     0.049 A 
ATOM     57  H   UNL A   1      44.462  29.114  28.816  1.00  0.00     0.167 HD
ATOM     58  C   UNL A   1      41.302  31.629  30.541  1.00  0.00     0.031 A 
ATOM     59  C   UNL A   1      47.067  28.533  27.986  1.00  0.00     0.031 A 
ATOM     60  C   UNL A   1      42.506  32.413  30.623  1.00  0.00     0.049 A 
ATOM     61  C   UNL A   1      47.099  29.924  28.554  1.00  0.00     0.074 A 
ATOM     62  C   UNL A   1      42.676  33.678  31.159  1.00  0.00     0.029 A 
ATOM     63  N   UNL A   1      43.747  32.003  30.159  1.00  0.00    -0.354 N 
ATOM     64  N   UNL A   1      46.119  30.621  29.076  1.00  0.00    -0.248 NA
ATOM     65  C   UNL A   1      48.392  30.619  28.531  1.00  0.00     0.031 C 
ATOM     66  C   UNL A   1      44.013  34.049  30.981  1.00  0.00     0.029 A 
ATOM     67  C   UNL A   1      44.686  32.996  30.379  1.00  0.00     0.049 A 
ATOM     68  H   UNL A   1      43.933  31.134  29.736  1.00  0.00     0.167 HD
ATOM     69  C   UNL A   1      46.679  31.835  29.457  1.00  0.00     0.074 A 
ATOM     70  C   UNL A   1      48.087  31.769  29.120  1.00  0.00     0.031 C 
ATOM     71  C   UNL A   1      46.082  32.908  30.031  1.00  0.00     0.031 A 
BRANCH  58  72
ATOM     72  C   UNL A   1      40.016  32.223  31.051  1.00  0.00    -0.014 A 
ATOM     73  C   UNL A   1      39.374  31.711  32.191  1.00  0.00     0.010 A 
ATOM     74  C   UNL A   1      39.448  33.321  30.379  1.00  0.00     0.010 A 
ATOM     75  C   UNL A   1      38.164  32.260  32.626  1.00  0.00     0.020 A 
ATOM     76  C   UNL A   1      38.252  33.887  30.824  1.00  0.00     0.020 A 
ATOM     77  C   UNL A   1      37.607  33.340  31.934  1.00  0.00     0.054 A 
BRANCH  77  78
ATOM     78  S   UNL A   1      36.036  34.036  32.518  1.00  0.00     0.124 S 
ATOM     79  O   UNL A   1      35.523  32.957  33.359  1.00  0.00    -0.237 OA
ATOM     80  O   UNL A   1      36.460  35.239  33.230  1.00  0.00    -0.237 OA
ATOM     81  O   UNL A   1      35.285  34.277  31.287  1.00  0.00    -0.744 OA
ENDBRANCH  77  78
ENDBRANCH  58  72
BRANCH  59  82
ATOM     82  C   UNL A   1      48.290  27.897  27.428  1.00  0.00    -0.014 A 
ATOM     83  C   UNL A   1      48.584  27.987  26.057  1.00  0.00     0.010 A 
ATOM     84  C   UNL A   1      49.187  27.223  28.279  1.00  0.00     0.010 A 
ATOM     85  C   UNL A   1      49.750  27.409  25.546  1.00  0.00     0.020 A 
ATOM     86  C   UNL A   1      50.365  26.667  27.776  1.00  0.00     0.020 A 
ATOM     87  C   UNL A   1      50.636  26.754  26.408  1.00  0.00     0.054 A 
BRANCH  87  88
ATOM     88  S   UNL A   1      52.175  26.070  25.737  1.00  0.00     0.124 S 
ATOM     89  O   UNL A   1      52.001  24.640  25.976  1.00  0.00    -0.237 OA
ATOM     90  O   UNL A   1      52.127  26.488  24.338  1.00  0.00    -0.237 OA
ATOM     91  O   UNL A   1      53.213  26.718  26.537  1.00  0.00    -0.744 OA
ENDBRANCH  87  88
ENDBRANCH  59  82
BRANCH  71  92
ATOM     92  C   UNL A   1      46.957  34.087  30.352  1.00  0.00    -0.014 A 
ATOM     93  C   UNL A   1      47.589  34.201  31.602  1.00  0.00     0.010 A 
ATOM     94  C   UNL A   1      47.188  35.068  29.371  1.00  0.00     0.010 A 
ATOM     95  C   UNL A   1      48.417  35.293  31.876  1.00  0.00     0.020 A 
ATOM     96  C   UNL A   1      48.033  36.148  29.634  1.00  0.00     0.020 A 
ATOM     97  C   UNL A   1      48.632  36.261  30.890  1.00  0.00     0.054 A 
BRANCH  97  98
ATOM     98  S   UNL A   1      49.745  37.647  31.251  1.00  0.00     0.124 S 
ATOM     99  O   UNL A   1      50.411  37.192  32.469  1.00  0.00    -0.237 OA
ATOM    100  O   UNL A   1      50.585  37.705  30.058  1.00  0.00    -0.237 OA
ATOM    101  O   UNL A   1      48.839  38.781  31.422  1.00  0.00    -0.744 OA
ENDBRANCH  97  98
ENDBRANCH  71  92
ENDBRANCH  45  46
ENDBRANCH  38  40
ENDBRANCH  37  38
ENDBRANCH  36  37
ENDBRANCH   1  36
TORSDOF 20
ENDMDL
MODEL 2
REMARK VINA RESULT:     -10.7      4.966      6.914
REMARK SMILES O=C(CCCC(=O)OCCOC(=O)c1ccc(-c2c3nc(c(-c4ccc(S(=O)(=O)[O-])cc4)c4ccc([nH]4)c(-c4ccc(S(=O)(=O)[O-])cc4)c4nc(c(-c5ccc(S(=O)(=O)[O-])cc5)c5ccc2[nH]5)C=C4)C=C3)cc1)Nc1nc2n(n1)[C@@H](c1ccc(Cl)cc1)C[C@@H](c1ccc(Cl)cc1)N2
REMARK SMILES IDX 9 1 8 2 6 3 7 4 5 5 4 6 3 7 2 8 1 9 74 10 75 12 76 13 79 14
REMARK SMILES IDX 77 15 78 16 97 17 80 18 89 19 88 21 81 22 82 23 87 24 83 25
REMARK SMILES IDX 86 26 84 27 85 28 90 29 91 30 96 31 92 32 95 33 93 34 94 35
REMARK SMILES IDX 10 36 11 37 12 38 13 39 14 40 15 41 73 42 16 43 72 44 17 45
REMARK SMILES IDX 18 46 19 47 66 48 20 49 71 50 65 51 67 52 21 53 70 54 64 55
REMARK SMILES IDX 63 56 22 58 52 59 33 60 51 61 34 62 37 63 50 64 68 65 35 66
REMARK SMILES IDX 36 67 49 69 69 70 38 71 23 72 24 73 32 74 25 75 31 76 26 77
REMARK SMILES IDX 27 78 28 79 29 80 30 81 53 82 54 83 62 84 55 85 61 86 56 87
REMARK SMILES IDX 57 88 58 89 59 90 60 91 39 92 40 93 48 94 41 95 47 96 42 97
REMARK SMILES IDX 43 98 44 99 45 100 46 101
REMARK H PARENT 74 11 97 20 67 57 37 68
REMARK Flexibility Score: inf
ROOT
ATOM      1  C   UNL A   1      37.149  22.003  24.802  1.00  0.00     0.274 C 
ENDROOT
BRANCH   1   2
ATOM      2  O   UNL A   1      35.906  21.271  24.842  1.00  0.00    -0.462 OA
BRANCH   2   3
ATOM      3  C   UNL A   1      34.800  21.885  24.361  1.00  0.00     0.305 C 
ATOM      4  O   UNL A   1      34.811  22.914  23.701  1.00  0.00    -0.252 OA
BRANCH   3   5
ATOM      5  C   UNL A   1      33.510  21.207  24.790  1.00  0.00     0.123 C 
BRANCH   5   6
ATOM      6  C   UNL A   1      32.222  22.032  24.769  1.00  0.00     0.022 C 
BRANCH   6   7
ATOM      7  C   UNL A   1      31.746  22.648  26.085  1.00  0.00     0.101 C 
BRANCH   7   8
ATOM      8  C   UNL A   1      31.848  24.156  26.139  1.00  0.00     0.226 C 
ATOM      9  O   UNL A   1      30.932  24.828  26.609  1.00  0.00    -0.275 OA
ATOM     10  N   UNL A   1      33.045  24.656  25.681  1.00  0.00    -0.293 N 
ATOM     11  H   UNL A   1      33.794  24.051  25.478  1.00  0.00     0.173 HD
BRANCH  10  12
ATOM     12  C   UNL A   1      33.180  26.000  25.512  1.00  0.00     0.250 A 
ATOM     13  N   UNL A   1      33.002  26.539  24.270  1.00  0.00    -0.176 NA
ATOM     14  N   UNL A   1      33.251  26.871  26.524  1.00  0.00    -0.130 NA
ATOM     15  C   UNL A   1      32.747  27.785  24.545  1.00  0.00     0.224 A 
ATOM     16  N   UNL A   1      32.963  28.019  25.875  1.00  0.00    -0.222 N 
ATOM     17  N   UNL A   1      32.065  28.672  23.796  1.00  0.00    -0.347 N 
ATOM     18  C   UNL A   1      32.509  29.225  26.556  1.00  0.00     0.144 C 
ATOM     19  C   UNL A   1      30.956  29.307  24.507  1.00  0.00     0.115 C 
ATOM     20  H   UNL A   1      32.293  28.875  22.860  1.00  0.00     0.164 HD
ATOM     21  C   UNL A   1      31.578  30.108  25.675  1.00  0.00     0.062 C 
BRANCH  18  22
ATOM     22  C   UNL A   1      33.705  30.000  27.091  1.00  0.00    -0.023 A 
ATOM     23  C   UNL A   1      33.551  31.324  27.531  1.00  0.00     0.007 A 
ATOM     24  C   UNL A   1      34.976  29.404  27.180  1.00  0.00     0.007 A 
ATOM     25  C   UNL A   1      34.643  32.039  28.030  1.00  0.00     0.021 A 
ATOM     26  C   UNL A   1      36.068  30.120  27.676  1.00  0.00     0.021 A 
ATOM     27  C   UNL A   1      35.897  31.435  28.096  1.00  0.00     0.041 A 
ATOM     28  Cl  UNL A   1      37.242  32.322  28.700  1.00  0.00    -0.084 Cl
ENDBRANCH  18  22
BRANCH  19  29
ATOM     29  C   UNL A   1      30.008  30.095  23.607  1.00  0.00    -0.025 A 
ATOM     30  C   UNL A   1      29.838  29.691  22.268  1.00  0.00     0.007 A 
ATOM     31  C   UNL A   1      29.413  31.311  23.992  1.00  0.00     0.007 A 
ATOM     32  C   UNL A   1      29.097  30.454  21.361  1.00  0.00     0.021 A 
ATOM     33  C   UNL A   1      28.672  32.079  23.085  1.00  0.00     0.021 A 
ATOM     34  C   UNL A   1      28.519  31.649  21.774  1.00  0.00     0.041 A 
ATOM     35  Cl  UNL A   1      27.638  32.606  20.649  1.00  0.00    -0.084 Cl
ENDBRANCH  19  29
ENDBRANCH  10  12
ENDBRANCH   7   8
ENDBRANCH   6   7
ENDBRANCH   5   6
ENDBRANCH   3   5
ENDBRANCH   2   3
ENDBRANCH   1   2
BRANCH   1  36
ATOM     36  C   UNL A   1      38.279  21.215  25.470  1.00  0.00     0.275 C 
BRANCH  36  37
ATOM     37  O   UNL A   1      39.142  22.083  26.224  1.00  0.00    -0.458 OA
BRANCH  37  38
ATOM     38  C   UNL A   1      40.315  21.533  26.606  1.00  0.00     0.338 C 
ATOM     39  O   UNL A   1      40.740  20.419  26.315  1.00  0.00    -0.246 OA
BRANCH  38  40
ATOM     40  C   UNL A   1      41.124  22.539  27.299  1.00  0.00     0.060 A 
ATOM     41  C   UNL A   1      42.496  22.308  27.398  1.00  0.00     0.016 A 
ATOM     42  C   UNL A   1      40.545  23.654  27.904  1.00  0.00     0.016 A 
ATOM     43  C   UNL A   1      43.304  23.180  28.113  1.00  0.00     0.010 A 
ATOM     44  C   UNL A   1      41.361  24.541  28.614  1.00  0.00     0.010 A 
ATOM     45  C   UNL A   1      42.743  24.302  28.731  1.00  0.00    -0.014 A 
BRANCH  45  46
ATOM     46  C   UNL A   1      43.611  25.188  29.538  1.00  0.00     0.031 A 
ATOM     47  C   UNL A   1      44.215  24.676  30.813  1.00  0.00     0.074 A 
ATOM     48  C   UNL A   1      43.891  26.428  29.097  1.00  0.00     0.049 A 
ATOM     49  N   UNL A   1      44.935  25.314  31.698  1.00  0.00    -0.248 NA
ATOM     50  C   UNL A   1      43.978  23.260  31.136  1.00  0.00     0.031 C 
ATOM     51  C   UNL A   1      43.417  27.003  27.836  1.00  0.00     0.029 A 
ATOM     52  N   UNL A   1      44.652  27.422  29.654  1.00  0.00    -0.354 N 
ATOM     53  C   UNL A   1      45.209  24.390  32.699  1.00  0.00     0.074 A 
ATOM     54  C   UNL A   1      44.573  23.148  32.316  1.00  0.00     0.031 C 
ATOM     55  C   UNL A   1      43.909  28.247  27.710  1.00  0.00     0.029 A 
ATOM     56  C   UNL A   1      44.682  28.574  28.904  1.00  0.00     0.049 A 
ATOM     57  H   UNL A   1      45.132  27.321  30.507  1.00  0.00     0.167 HD
ATOM     58  C   UNL A   1      45.924  24.567  33.835  1.00  0.00     0.031 A 
ATOM     59  C   UNL A   1      45.244  29.770  29.165  1.00  0.00     0.031 A 
ATOM     60  C   UNL A   1      46.558  25.806  34.202  1.00  0.00     0.049 A 
ATOM     61  C   UNL A   1      45.982  29.959  30.460  1.00  0.00     0.074 A 
ATOM     62  C   UNL A   1      47.298  26.093  35.335  1.00  0.00     0.029 A 
ATOM     63  N   UNL A   1      46.528  26.963  33.438  1.00  0.00    -0.354 N 
ATOM     64  N   UNL A   1      46.203  29.087  31.415  1.00  0.00    -0.248 NA
ATOM     65  C   UNL A   1      46.539  31.293  30.718  1.00  0.00     0.031 C 
ATOM     66  C   UNL A   1      47.682  27.437  35.275  1.00  0.00     0.029 A 
ATOM     67  C   UNL A   1      47.222  27.973  34.082  1.00  0.00     0.049 A 
ATOM     68  H   UNL A   1      46.080  27.053  32.566  1.00  0.00     0.167 HD
ATOM     69  C   UNL A   1      46.937  29.762  32.382  1.00  0.00     0.074 A 
ATOM     70  C   UNL A   1      47.136  31.111  31.889  1.00  0.00     0.031 C 
ATOM     71  C   UNL A   1      47.402  29.309  33.572  1.00  0.00     0.031 A 
BRANCH  58  72
ATOM     72  C   UNL A   1      46.006  23.404  34.787  1.00  0.00    -0.014 A 
ATOM     73  C   UNL A   1      45.211  23.346  35.944  1.00  0.00     0.010 A 
ATOM     74  C   UNL A   1      46.890  22.345  34.509  1.00  0.00     0.010 A 
ATOM     75  C   UNL A   1      45.330  22.270  36.829  1.00  0.00     0.020 A 
ATOM     76  C   UNL A   1      46.995  21.257  35.378  1.00  0.00     0.020 A 
ATOM     77  C   UNL A   1      46.228  21.236  36.544  1.00  0.00     0.054 A 
BRANCH  77  78
ATOM     78  S   UNL A   1      46.363  19.849  37.706  1.00  0.00     0.124 S 
ATOM     79  O   UNL A   1      45.429  18.883  37.131  1.00  0.00    -0.237 OA
ATOM     80  O   UNL A   1      47.775  19.487  37.615  1.00  0.00    -0.237 OA
ATOM     81  O   UNL A   1      45.953  20.427  38.984  1.00  0.00    -0.744 OA
ENDBRANCH  77  78
ENDBRANCH  58  72
BRANCH  59  82
ATOM     82  C   UNL A   1      45.088  30.887  28.195  1.00  0.00    -0.014 A 
ATOM     83  C   UNL A   1      45.937  30.993  27.080  1.00  0.00     0.010 A 
ATOM     84  C   UNL A   1      44.062  31.835  28.368  1.00  0.00     0.010 A 
ATOM     85  C   UNL A   1      45.766  32.031  26.159  1.00  0.00     0.020 A 
ATOM     86  C   UNL A   1      43.873  32.859  27.436  1.00  0.00     0.020 A 
ATOM     87  C   UNL A   1      44.733  32.956  26.341  1.00  0.00     0.054 A 
BRANCH  87  88
ATOM     88  S   UNL A   1      44.486  34.256  25.100  1.00  0.00     0.124 S 
ATOM     89  O   UNL A   1      44.488  33.491  23.856  1.00  0.00    -0.237 OA
ATOM     90  O   UNL A   1      43.200  34.829  25.490  1.00  0.00    -0.237 OA
ATOM     91  O   UNL A   1      45.636  35.137  25.296  1.00  0.00    -0.744 OA
ENDBRANCH  87  88
ENDBRANCH  59  82
BRANCH  71  92
ATOM     92  C   UNL A   1      48.193  30.275  34.410  1.00  0.00    -0.014 A 
ATOM     93  C   UNL A   1      49.584  30.399  34.254  1.00  0.00     0.010 A 
ATOM     94  C   UNL A   1      47.526  31.103  35.330  1.00  0.00     0.010 A 
ATOM     95  C   UNL A   1      50.300  31.317  35.025  1.00  0.00     0.020 A 
ATOM     96  C   UNL A   1      48.235  32.037  36.087  1.00  0.00     0.020 A 
ATOM     97  C   UNL A   1      49.621  32.130  35.939  1.00  0.00     0.054 A 
BRANCH  97  98
ATOM     98  S   UNL A   1      50.564  33.346  36.899  1.00  0.00     0.124 S 
ATOM     99  O   UNL A   1      50.894  32.590  38.105  1.00  0.00    -0.237 OA
ATOM    100  O   UNL A   1      51.689  33.651  36.019  1.00  0.00    -0.237 OA
ATOM    101  O   UNL A   1      49.617  34.443  37.091  1.00  0.00    -0.744 OA
ENDBRANCH  97  98
ENDBRANCH  71  92
ENDBRANCH  45  46
ENDBRANCH  38  40
ENDBRANCH  37  38
ENDBRANCH  36  37
ENDBRANCH   1  36
TORSDOF 20
ENDMDL
MODEL 3
REMARK VINA RESULT:     -10.5      5.545     10.195
REMARK SMILES O=C(CCCC(=O)OCCOC(=O)c1ccc(-c2c3nc(c(-c4ccc(S(=O)(=O)[O-])cc4)c4ccc([nH]4)c(-c4ccc(S(=O)(=O)[O-])cc4)c4nc(c(-c5ccc(S(=O)(=O)[O-])cc5)c5ccc2[nH]5)C=C4)C=C3)cc1)Nc1nc2n(n1)[C@@H](c1ccc(Cl)cc1)C[C@@H](c1ccc(Cl)cc1)N2
REMARK SMILES IDX 9 1 8 2 6 3 7 4 5 5 4 6 3 7 2 8 1 9 74 10 75 12 76 13 79 14
REMARK SMILES IDX 77 15 78 16 97 17 80 18 89 19 88 21 81 22 82 23 87 24 83 25
REMARK SMILES IDX 86 26 84 27 85 28 90 29 91 30 96 31 92 32 95 33 93 34 94 35
REMARK SMILES IDX 10 36 11 37 12 38 13 39 14 40 15 41 73 42 16 43 72 44 17 45
REMARK SMILES IDX 18 46 19 47 66 48 20 49 71 50 65 51 67 52 21 53 70 54 64 55
REMARK SMILES IDX 63 56 22 58 52 59 33 60 51 61 34 62 37 63 50 64 68 65 35 66
REMARK SMILES IDX 36 67 49 69 69 70 38 71 23 72 24 73 32 74 25 75 31 76 26 77
REMARK SMILES IDX 27 78 28 79 29 80 30 81 53 82 54 83 62 84 55 85 61 86 56 87
REMARK SMILES IDX 57 88 58 89 59 90 60 91 39 92 40 93 48 94 41 95 47 96 42 97
REMARK SMILES IDX 43 98 44 99 45 100 46 101
REMARK H PARENT 74 11 97 20 67 57 37 68
REMARK Flexibility Score: inf
ROOT
ATOM      1  C   UNL A   1      35.411  31.758  30.174  1.00  0.00     0.274 C 
ENDROOT
BRANCH   1   2
ATOM      2  O   UNL A   1      35.449  33.041  29.518  1.00  0.00    -0.462 OA
BRANCH   2   3
ATOM      3  C   UNL A   1      34.417  33.361  28.702  1.00  0.00     0.305 C 
ATOM      4  O   UNL A   1      33.901  32.591  27.905  1.00  0.00    -0.252 OA
BRANCH   3   5
ATOM      5  C   UNL A   1      34.002  34.818  28.813  1.00  0.00     0.123 C 
BRANCH   5   6
ATOM      6  C   UNL A   1      32.908  35.179  29.821  1.00  0.00     0.022 C 
BRANCH   6   7
ATOM      7  C   UNL A   1      33.331  35.863  31.121  1.00  0.00     0.101 C 
BRANCH   7   8
ATOM      8  C   UNL A   1      34.072  34.964  32.084  1.00  0.00     0.226 C 
ATOM      9  O   UNL A   1      33.457  34.185  32.811  1.00  0.00    -0.275 OA
ATOM     10  N   UNL A   1      35.442  35.070  32.015  1.00  0.00    -0.293 N 
ATOM     11  H   UNL A   1      35.866  35.589  31.294  1.00  0.00     0.173 HD
BRANCH  10  12
ATOM     12  C   UNL A   1      36.204  34.448  32.956  1.00  0.00     0.250 A 
ATOM     13  N   UNL A   1      36.250  33.083  32.984  1.00  0.00    -0.176 NA
ATOM     14  N   UNL A   1      37.100  35.080  33.720  1.00  0.00    -0.130 NA
ATOM     15  C   UNL A   1      37.354  32.859  33.635  1.00  0.00     0.224 A 
ATOM     16  N   UNL A   1      37.836  34.032  34.146  1.00  0.00    -0.222 N 
ATOM     17  N   UNL A   1      38.134  31.763  33.582  1.00  0.00    -0.347 N 
ATOM     18  C   UNL A   1      39.184  34.172  34.683  1.00  0.00     0.144 C 
ATOM     19  C   UNL A   1      39.531  32.055  33.263  1.00  0.00     0.115 C 
ATOM     20  H   UNL A   1      37.796  30.852  33.744  1.00  0.00     0.164 HD
ATOM     21  C   UNL A   1      40.077  32.924  34.421  1.00  0.00     0.062 C 
BRANCH  18  22
ATOM     22  C   UNL A   1      39.118  34.537  36.159  1.00  0.00    -0.023 A 
ATOM     23  C   UNL A   1      39.714  35.721  36.623  1.00  0.00     0.007 A 
ATOM     24  C   UNL A   1      38.444  33.716  37.082  1.00  0.00     0.007 A 
ATOM     25  C   UNL A   1      39.652  36.066  37.975  1.00  0.00     0.021 A 
ATOM     26  C   UNL A   1      38.385  34.060  38.434  1.00  0.00     0.021 A 
ATOM     27  C   UNL A   1      38.992  35.232  38.875  1.00  0.00     0.041 A 
ATOM     28  Cl  UNL A   1      38.927  35.653  40.542  1.00  0.00    -0.084 Cl
ENDBRANCH  18  22
BRANCH  19  29
ATOM     29  C   UNL A   1      40.364  30.822  32.925  1.00  0.00    -0.025 A 
ATOM     30  C   UNL A   1      39.932  29.557  33.372  1.00  0.00     0.007 A 
ATOM     31  C   UNL A   1      41.636  30.892  32.327  1.00  0.00     0.007 A 
ATOM     32  C   UNL A   1      40.722  28.415  33.214  1.00  0.00     0.021 A 
ATOM     33  C   UNL A   1      42.432  29.750  32.171  1.00  0.00     0.021 A 
ATOM     34  C   UNL A   1      41.973  28.518  32.617  1.00  0.00     0.041 A 
ATOM     35  Cl  UNL A   1      42.962  27.120  32.457  1.00  0.00    -0.084 Cl
ENDBRANCH  19  29
ENDBRANCH  10  12
ENDBRANCH   7   8
ENDBRANCH   6   7
ENDBRANCH   5   6
ENDBRANCH   3   5
ENDBRANCH   2   3
ENDBRANCH   1   2
BRANCH   1  36
ATOM     36  C   UNL A   1      36.783  31.077  30.141  1.00  0.00     0.275 C 
BRANCH  36  37
ATOM     37  O   UNL A   1      36.651  29.652  29.991  1.00  0.00    -0.458 OA
BRANCH  37  38
ATOM     38  C   UNL A   1      36.953  29.177  28.764  1.00  0.00     0.338 C 
ATOM     39  O   UNL A   1      36.174  28.961  27.841  1.00  0.00    -0.246 OA
BRANCH  38  40
ATOM     40  C   UNL A   1      38.409  29.110  28.610  1.00  0.00     0.060 A 
ATOM     41  C   UNL A   1      38.945  29.468  27.373  1.00  0.00     0.016 A 
ATOM     42  C   UNL A   1      39.232  28.640  29.633  1.00  0.00     0.016 A 
ATOM     43  C   UNL A   1      40.307  29.348  27.137  1.00  0.00     0.010 A 
ATOM     44  C   UNL A   1      40.608  28.531  29.400  1.00  0.00     0.010 A 
ATOM     45  C   UNL A   1      41.149  28.874  28.147  1.00  0.00    -0.014 A 
BRANCH  45  46
ATOM     46  C   UNL A   1      42.590  28.697  27.858  1.00  0.00     0.031 A 
ATOM     47  C   UNL A   1      43.548  29.818  28.141  1.00  0.00     0.074 A 
ATOM     48  C   UNL A   1      43.036  27.516  27.392  1.00  0.00     0.049 A 
ATOM     49  N   UNL A   1      44.828  29.891  27.888  1.00  0.00    -0.248 NA
ATOM     50  C   UNL A   1      42.991  31.014  28.793  1.00  0.00     0.031 C 
ATOM     51  C   UNL A   1      42.204  26.335  27.149  1.00  0.00     0.029 A 
ATOM     52  N   UNL A   1      44.300  27.112  27.050  1.00  0.00    -0.354 N 
ATOM     53  C   UNL A   1      45.225  31.151  28.317  1.00  0.00     0.074 A 
ATOM     54  C   UNL A   1      44.050  31.811  28.842  1.00  0.00     0.031 C 
ATOM     55  C   UNL A   1      42.985  25.334  26.709  1.00  0.00     0.029 A 
ATOM     56  C   UNL A   1      44.355  25.820  26.584  1.00  0.00     0.049 A 
ATOM     57  H   UNL A   1      45.093  27.690  27.131  1.00  0.00     0.167 HD
ATOM     58  C   UNL A   1      46.460  31.705  28.272  1.00  0.00     0.031 A 
ATOM     59  C   UNL A   1      45.388  25.117  26.083  1.00  0.00     0.031 A 
ATOM     60  C   UNL A   1      47.623  31.035  27.754  1.00  0.00     0.049 A 
ATOM     61  C   UNL A   1      46.736  25.774  25.989  1.00  0.00     0.074 A 
ATOM     62  C   UNL A   1      48.920  31.510  27.655  1.00  0.00     0.029 A 
ATOM     63  N   UNL A   1      47.630  29.742  27.250  1.00  0.00    -0.354 N 
ATOM     64  N   UNL A   1      47.091  26.979  26.366  1.00  0.00    -0.248 NA
ATOM     65  C   UNL A   1      47.820  24.981  25.396  1.00  0.00     0.031 C 
ATOM     66  C   UNL A   1      49.702  30.518  27.053  1.00  0.00     0.029 A 
ATOM     67  C   UNL A   1      48.903  29.408  26.821  1.00  0.00     0.049 A 
ATOM     68  H   UNL A   1      46.845  29.150  27.203  1.00  0.00     0.167 HD
ATOM     69  C   UNL A   1      48.444  27.085  26.068  1.00  0.00     0.074 A 
ATOM     70  C   UNL A   1      48.847  25.816  25.495  1.00  0.00     0.031 C 
ATOM     71  C   UNL A   1      49.278  28.139  26.250  1.00  0.00     0.031 A 
BRANCH  58  72
ATOM     72  C   UNL A   1      46.597  33.126  28.749  1.00  0.00    -0.014 A 
ATOM     73  C   UNL A   1      46.920  33.423  30.084  1.00  0.00     0.010 A 
ATOM     74  C   UNL A   1      46.409  34.181  27.838  1.00  0.00     0.010 A 
ATOM     75  C   UNL A   1      47.010  34.752  30.509  1.00  0.00     0.020 A 
ATOM     76  C   UNL A   1      46.520  35.510  28.253  1.00  0.00     0.020 A 
ATOM     77  C   UNL A   1      46.801  35.787  29.592  1.00  0.00     0.054 A 
BRANCH  77  78
ATOM     78  S   UNL A   1      46.925  37.504  30.166  1.00  0.00     0.124 S 
ATOM     79  O   UNL A   1      46.160  38.218  29.146  1.00  0.00    -0.237 OA
ATOM     80  O   UNL A   1      46.306  37.448  31.488  1.00  0.00    -0.237 OA
ATOM     81  O   UNL A   1      48.362  37.767  30.165  1.00  0.00    -0.744 OA
ENDBRANCH  77  78
ENDBRANCH  58  72
BRANCH  59  82
ATOM     82  C   UNL A   1      45.170  23.729  25.595  1.00  0.00    -0.014 A 
ATOM     83  C   UNL A   1      44.783  23.487  24.266  1.00  0.00     0.010 A 
ATOM     84  C   UNL A   1      45.381  22.636  26.456  1.00  0.00     0.010 A 
ATOM     85  C   UNL A   1      44.605  22.178  23.809  1.00  0.00     0.020 A 
ATOM     86  C   UNL A   1      45.229  21.325  25.996  1.00  0.00     0.020 A 
ATOM     87  C   UNL A   1      44.832  21.104  24.676  1.00  0.00     0.054 A 
BRANCH  87  88
ATOM     88  S   UNL A   1      44.662  19.412  24.046  1.00  0.00     0.124 S 
ATOM     89  O   UNL A   1      43.526  18.915  24.815  1.00  0.00    -0.237 OA
ATOM     90  O   UNL A   1      44.417  19.625  22.621  1.00  0.00    -0.237 OA
ATOM     91  O   UNL A   1      45.951  18.799  24.363  1.00  0.00    -0.744 OA
ENDBRANCH  87  88
ENDBRANCH  59  82
BRANCH  71  92
ATOM     92  C   UNL A   1      50.714  27.952  25.847  1.00  0.00    -0.014 A 
ATOM     93  C   UNL A   1      51.720  27.770  26.811  1.00  0.00     0.010 A 
ATOM     94  C   UNL A   1      51.051  27.909  24.482  1.00  0.00     0.010 A 
ATOM     95  C   UNL A   1      53.046  27.576  26.417  1.00  0.00     0.020 A 
ATOM     96  C   UNL A   1      52.373  27.693  24.085  1.00  0.00     0.020 A 
ATOM     97  C   UNL A   1      53.364  27.540  25.056  1.00  0.00     0.054 A 
BRANCH  97  98
ATOM     98  S   UNL A   1      55.086  27.243  24.566  1.00  0.00     0.124 S 
ATOM     99  O   UNL A   1      54.922  26.517  23.309  1.00  0.00    -0.237 OA
ATOM    100  O   UNL A   1      55.625  28.596  24.446  1.00  0.00    -0.237 OA
ATOM    101  O   UNL A   1      55.630  26.460  25.673  1.00  0.00    -0.744 OA
ENDBRANCH  97  98
ENDBRANCH  71  92
ENDBRANCH  45  46
ENDBRANCH  38  40
ENDBRANCH  37  38
ENDBRANCH  36  37
ENDBRANCH   1  36
TORSDOF 20
ENDMDL
