MODEL 1
REMARK VINA RESULT:     -10.0      0.000      0.000
REMARK SMILES C#Cc1cc(Cl)cc2c1O[C@H](C(F)(F)F)C(C(=O)OCCOC(=O)c1ccc(-c3c4nc(c(-c5ccc(S(=O)(=O)[O-])cc5)c5ccc([nH]5)c(-c5ccc(S(=O)(=O)[O-])cc5)c5nc(c(-c6ccc(S(=O)(=O)[O-])cc6)c6ccc3[nH]6)C=C5)C=C4)cc1)=C2
REMARK SMILES IDX 21 1 20 2 19 3 17 4 18 5 16 6 3 7 4 8 9 9 5 10 8 11 10 12
REMARK SMILES IDX 6 13 7 14 85 15 11 16 2 17 1 18 12 19 13 20 14 21 15 22
REMARK SMILES IDX 22 23 23 24 24 25 25 26 26 27 84 28 27 29 83 30 28 31 29 32
REMARK SMILES IDX 30 33 77 34 31 35 82 36 76 37 78 38 32 39 81 40 75 41 74 42
REMARK SMILES IDX 33 44 63 45 44 46 62 47 45 48 48 49 61 50 79 51 46 52 47 53
REMARK SMILES IDX 60 55 80 56 49 57 34 58 35 59 43 60 36 61 42 62 37 63 38 64
REMARK SMILES IDX 39 65 40 66 41 67 64 68 65 69 73 70 66 71 72 72 67 73 68 74
REMARK SMILES IDX 69 75 70 76 71 77 50 78 51 79 59 80 52 81 58 82 53 83 54 84
REMARK SMILES IDX 55 85 56 86 57 87
REMARK H PARENT 78 43 48 54
REMARK Flexibility Score: inf
ROOT
ATOM      1  C   UNL A   1      33.437  33.590  28.265  1.00  0.00     0.275 C 
ENDROOT
BRANCH   1   2
ATOM      2  C   UNL A   1      34.036  34.804  28.977  1.00  0.00     0.275 C 
BRANCH   2   3
ATOM      3  O   UNL A   1      33.946  34.676  30.414  1.00  0.00    -0.459 OA
BRANCH   3   4
ATOM      4  C   UNL A   1      34.631  33.639  30.948  1.00  0.00     0.338 C 
ATOM      5  O   UNL A   1      34.281  32.470  30.960  1.00  0.00    -0.246 OA
BRANCH   4   6
ATOM      6  C   UNL A   1      35.904  34.095  31.541  1.00  0.00     0.087 C 
ATOM      7  C   UNL A   1      39.582  34.858  33.393  1.00  0.00     0.068 A 
ATOM      8  C   UNL A   1      40.767  34.578  32.700  1.00  0.00     0.041 A 
ATOM      9  C   UNL A   1      38.338  34.669  32.773  1.00  0.00     0.143 A 
ATOM     10  C   UNL A   1      40.712  34.128  31.384  1.00  0.00     0.043 A 
ATOM     11  C   UNL A   1      38.300  34.210  31.456  1.00  0.00     0.020 A 
ATOM     12  O   UNL A   1      37.202  34.960  33.484  1.00  0.00    -0.474 OA
ATOM     13  Cl  UNL A   1      42.166  33.772  30.538  1.00  0.00    -0.084 Cl
ATOM     14  C   UNL A   1      39.485  33.949  30.755  1.00  0.00     0.032 A 
ATOM     15  C   UNL A   1      37.023  33.951  30.826  1.00  0.00     0.027 C 
ATOM     16  C   UNL A   1      35.907  34.541  32.970  1.00  0.00     0.316 C 
BRANCH   7  17
ATOM     17  C   UNL A   1      39.668  35.317  34.746  1.00  0.00    -0.067 C 
ATOM     18  C   UNL A   1      39.748  35.704  35.882  1.00  0.00     0.010 C 
ENDBRANCH   7  17
BRANCH  16  19
ATOM     19  C   UNL A   1      35.330  33.453  33.890  1.00  0.00     0.430 C 
ATOM     20  F   UNL A   1      35.793  32.225  33.554  1.00  0.00    -0.167 F 
ATOM     21  F   UNL A   1      35.684  33.653  35.184  1.00  0.00    -0.167 F 
ATOM     22  F   UNL A   1      33.979  33.406  33.843  1.00  0.00    -0.167 F 
ENDBRANCH  16  19
ENDBRANCH   4   6
ENDBRANCH   3   4
ENDBRANCH   2   3
ENDBRANCH   1   2
BRANCH   1  23
ATOM     23  O   UNL A   1      34.446  32.871  27.532  1.00  0.00    -0.458 OA
BRANCH  23  24
ATOM     24  C   UNL A   1      34.353  31.526  27.626  1.00  0.00     0.338 C 
ATOM     25  O   UNL A   1      33.390  30.831  27.344  1.00  0.00    -0.246 OA
BRANCH  24  26
ATOM     26  C   UNL A   1      35.643  30.945  28.014  1.00  0.00     0.060 A 
ATOM     27  C   UNL A   1      35.628  29.705  28.637  1.00  0.00     0.016 A 
ATOM     28  C   UNL A   1      36.805  31.708  28.009  1.00  0.00     0.016 A 
ATOM     29  C   UNL A   1      36.693  29.318  29.438  1.00  0.00     0.010 A 
ATOM     30  C   UNL A   1      37.946  31.218  28.658  1.00  0.00     0.010 A 
ATOM     31  C   UNL A   1      37.887  30.045  29.433  1.00  0.00    -0.014 A 
BRANCH  31  32
ATOM     32  C   UNL A   1      39.051  29.575  30.239  1.00  0.00     0.031 A 
ATOM     33  C   UNL A   1      40.052  28.610  29.650  1.00  0.00     0.074 A 
ATOM     34  C   UNL A   1      39.227  30.033  31.499  1.00  0.00     0.049 A 
ATOM     35  N   UNL A   1      41.017  27.958  30.246  1.00  0.00    -0.248 NA
ATOM     36  C   UNL A   1      39.947  28.326  28.207  1.00  0.00     0.031 C 
ATOM     37  C   UNL A   1      38.379  31.021  32.177  1.00  0.00     0.029 A 
ATOM     38  N   UNL A   1      40.190  29.745  32.436  1.00  0.00    -0.354 N 
ATOM     39  C   UNL A   1      41.601  27.158  29.269  1.00  0.00     0.074 A 
ATOM     40  C   UNL A   1      40.867  27.385  28.044  1.00  0.00     0.031 C 
ATOM     41  C   UNL A   1      38.891  31.300  33.381  1.00  0.00     0.029 A 
ATOM     42  C   UNL A   1      40.026  30.423  33.622  1.00  0.00     0.049 A 
ATOM     43  H   UNL A   1      40.927  29.113  32.274  1.00  0.00     0.167 HD
ATOM     44  C   UNL A   1      42.657  26.318  29.383  1.00  0.00     0.031 A 
ATOM     45  C   UNL A   1      40.673  30.320  34.799  1.00  0.00     0.031 A 
ATOM     46  C   UNL A   1      43.402  26.127  30.600  1.00  0.00     0.049 A 
ATOM     47  C   UNL A   1      41.775  29.309  34.925  1.00  0.00     0.074 A 
ATOM     48  C   UNL A   1      44.487  25.296  30.822  1.00  0.00     0.029 A 
ATOM     49  N   UNL A   1      43.154  26.789  31.795  1.00  0.00    -0.354 N 
ATOM     50  N   UNL A   1      42.277  28.522  34.004  1.00  0.00    -0.248 NA
ATOM     51  C   UNL A   1      42.388  29.159  36.251  1.00  0.00     0.031 C 
ATOM     52  C   UNL A   1      44.853  25.407  32.165  1.00  0.00     0.029 A 
ATOM     53  C   UNL A   1      44.048  26.362  32.762  1.00  0.00     0.049 A 
ATOM     54  H   UNL A   1      42.449  27.461  31.933  1.00  0.00     0.167 HD
ATOM     55  C   UNL A   1      43.284  27.801  34.633  1.00  0.00     0.074 A 
ATOM     56  C   UNL A   1      43.334  28.263  36.005  1.00  0.00     0.031 C 
ATOM     57  C   UNL A   1      44.089  26.839  34.122  1.00  0.00     0.031 A 
BRANCH  44  58
ATOM     58  C   UNL A   1      43.071  25.518  28.173  1.00  0.00    -0.014 A 
ATOM     59  C   UNL A   1      44.014  26.016  27.256  1.00  0.00     0.010 A 
ATOM     60  C   UNL A   1      42.584  24.208  28.007  1.00  0.00     0.010 A 
ATOM     61  C   UNL A   1      44.448  25.225  26.189  1.00  0.00     0.020 A 
ATOM     62  C   UNL A   1      43.039  23.402  26.958  1.00  0.00     0.020 A 
ATOM     63  C   UNL A   1      43.965  23.920  26.050  1.00  0.00     0.054 A 
BRANCH  63  64
ATOM     64  S   UNL A   1      44.596  22.901  24.690  1.00  0.00     0.124 S 
ATOM     65  O   UNL A   1      45.094  21.724  25.399  1.00  0.00    -0.237 OA
ATOM     66  O   UNL A   1      43.403  22.685  23.875  1.00  0.00    -0.237 OA
ATOM     67  O   UNL A   1      45.626  23.735  24.075  1.00  0.00    -0.744 OA
ENDBRANCH  63  64
ENDBRANCH  44  58
BRANCH  45  68
ATOM     68  C   UNL A   1      40.260  31.160  35.960  1.00  0.00    -0.014 A 
ATOM     69  C   UNL A   1      41.199  31.967  36.626  1.00  0.00     0.010 A 
ATOM     70  C   UNL A   1      38.925  31.161  36.407  1.00  0.00     0.010 A 
ATOM     71  C   UNL A   1      40.816  32.739  37.726  1.00  0.00     0.020 A 
ATOM     72  C   UNL A   1      38.529  31.963  37.481  1.00  0.00     0.020 A 
ATOM     73  C   UNL A   1      39.482  32.735  38.145  1.00  0.00     0.054 A 
BRANCH  73  74
ATOM     74  S   UNL A   1      39.009  33.764  39.560  1.00  0.00     0.124 S 
ATOM     75  O   UNL A   1      39.225  35.111  39.042  1.00  0.00    -0.237 OA
ATOM     76  O   UNL A   1      37.614  33.383  39.771  1.00  0.00    -0.237 OA
ATOM     77  O   UNL A   1      39.929  33.345  40.614  1.00  0.00    -0.744 OA
ENDBRANCH  73  74
ENDBRANCH  45  68
BRANCH  57  78
ATOM     78  C   UNL A   1      45.122  26.241  35.038  1.00  0.00    -0.014 A 
ATOM     79  C   UNL A   1      46.391  26.828  35.184  1.00  0.00     0.010 A 
ATOM     80  C   UNL A   1      44.789  25.118  35.818  1.00  0.00     0.010 A 
ATOM     81  C   UNL A   1      47.318  26.287  36.077  1.00  0.00     0.020 A 
ATOM     82  C   UNL A   1      45.700  24.596  36.738  1.00  0.00     0.020 A 
ATOM     83  C   UNL A   1      46.964  25.179  36.853  1.00  0.00     0.054 A 
BRANCH  83  84
ATOM     84  S   UNL A   1      48.170  24.535  38.044  1.00  0.00     0.124 S 
ATOM     85  O   UNL A   1      48.758  23.419  37.309  1.00  0.00    -0.237 OA
ATOM     86  O   UNL A   1      49.049  25.682  38.255  1.00  0.00    -0.237 OA
ATOM     87  O   UNL A   1      47.355  24.160  39.197  1.00  0.00    -0.744 OA
ENDBRANCH  83  84
ENDBRANCH  57  78
ENDBRANCH  31  32
ENDBRANCH  24  26
ENDBRANCH  23  24
ENDBRANCH   1  23
TORSDOF 16
ENDMDL
MODEL 2
REMARK VINA RESULT:      -9.9      5.796     11.071
REMARK SMILES C#Cc1cc(Cl)cc2c1O[C@H](C(F)(F)F)C(C(=O)OCCOC(=O)c1ccc(-c3c4nc(c(-c5ccc(S(=O)(=O)[O-])cc5)c5ccc([nH]5)c(-c5ccc(S(=O)(=O)[O-])cc5)c5nc(c(-c6ccc(S(=O)(=O)[O-])cc6)c6ccc3[nH]6)C=C5)C=C4)cc1)=C2
REMARK SMILES IDX 21 1 20 2 19 3 17 4 18 5 16 6 3 7 4 8 9 9 5 10 8 11 10 12
REMARK SMILES IDX 6 13 7 14 85 15 11 16 2 17 1 18 12 19 13 20 14 21 15 22
REMARK SMILES IDX 22 23 23 24 24 25 25 26 26 27 84 28 27 29 83 30 28 31 29 32
REMARK SMILES IDX 30 33 77 34 31 35 82 36 76 37 78 38 32 39 81 40 75 41 74 42
REMARK SMILES IDX 33 44 63 45 44 46 62 47 45 48 48 49 61 50 79 51 46 52 47 53
REMARK SMILES IDX 60 55 80 56 49 57 34 58 35 59 43 60 36 61 42 62 37 63 38 64
REMARK SMILES IDX 39 65 40 66 41 67 64 68 65 69 73 70 66 71 72 72 67 73 68 74
REMARK SMILES IDX 69 75 70 76 71 77 50 78 51 79 59 80 52 81 58 82 53 83 54 84
REMARK SMILES IDX 55 85 56 86 57 87
REMARK H PARENT 78 43 48 54
REMARK Flexibility Score: inf
ROOT
ATOM      1  C   UNL A   1      32.740  28.181  27.220  1.00  0.00     0.275 C 
ENDROOT
BRANCH   1   2
ATOM      2  C   UNL A   1      32.090  28.255  25.837  1.00  0.00     0.275 C 
BRANCH   2   3
ATOM      3  O   UNL A   1      31.978  26.947  25.232  1.00  0.00    -0.459 OA
BRANCH   3   4
ATOM      4  C   UNL A   1      32.989  26.604  24.401  1.00  0.00     0.338 C 
ATOM      5  O   UNL A   1      33.435  27.278  23.487  1.00  0.00    -0.246 OA
BRANCH   4   6
ATOM      6  C   UNL A   1      33.516  25.266  24.734  1.00  0.00     0.087 C 
ATOM      7  C   UNL A   1      35.227  21.467  25.158  1.00  0.00     0.068 A 
ATOM      8  C   UNL A   1      36.580  21.361  25.505  1.00  0.00     0.041 A 
ATOM      9  C   UNL A   1      34.614  22.725  25.070  1.00  0.00     0.143 A 
ATOM     10  C   UNL A   1      37.317  22.509  25.782  1.00  0.00     0.043 A 
ATOM     11  C   UNL A   1      35.369  23.866  25.342  1.00  0.00     0.020 A 
ATOM     12  O   UNL A   1      33.286  22.784  24.732  1.00  0.00    -0.474 OA
ATOM     13  Cl  UNL A   1      38.982  22.381  26.195  1.00  0.00    -0.084 Cl
ATOM     14  C   UNL A   1      36.718  23.762  25.710  1.00  0.00     0.032 A 
ATOM     15  C   UNL A   1      34.767  25.174  25.193  1.00  0.00     0.027 C 
ATOM     16  C   UNL A   1      32.691  24.065  24.386  1.00  0.00     0.316 C 
BRANCH   7  17
ATOM     17  C   UNL A   1      34.494  20.270  24.876  1.00  0.00    -0.067 C 
ATOM     18  C   UNL A   1      33.884  19.262  24.635  1.00  0.00     0.010 C 
ENDBRANCH   7  17
BRANCH  16  19
ATOM     19  C   UNL A   1      32.322  24.062  22.894  1.00  0.00     0.430 C 
ATOM     20  F   UNL A   1      31.242  24.843  22.650  1.00  0.00    -0.167 F 
ATOM     21  F   UNL A   1      33.328  24.554  22.129  1.00  0.00    -0.167 F 
ATOM     22  F   UNL A   1      32.038  22.821  22.439  1.00  0.00    -0.167 F 
ENDBRANCH  16  19
ENDBRANCH   4   6
ENDBRANCH   3   4
ENDBRANCH   2   3
ENDBRANCH   1   2
BRANCH   1  23
ATOM     23  O   UNL A   1      34.130  28.551  27.159  1.00  0.00    -0.458 OA
BRANCH  23  24
ATOM     24  C   UNL A   1      34.404  29.779  27.651  1.00  0.00     0.338 C 
ATOM     25  O   UNL A   1      33.623  30.705  27.802  1.00  0.00    -0.246 OA
BRANCH  24  26
ATOM     26  C   UNL A   1      35.792  29.849  28.122  1.00  0.00     0.060 A 
ATOM     27  C   UNL A   1      36.774  30.142  27.186  1.00  0.00     0.016 A 
ATOM     28  C   UNL A   1      36.147  29.381  29.382  1.00  0.00     0.016 A 
ATOM     29  C   UNL A   1      38.089  29.767  27.420  1.00  0.00     0.010 A 
ATOM     30  C   UNL A   1      37.502  29.189  29.681  1.00  0.00     0.010 A 
ATOM     31  C   UNL A   1      38.487  29.321  28.684  1.00  0.00    -0.014 A 
BRANCH  31  32
ATOM     32  C   UNL A   1      39.919  28.995  28.944  1.00  0.00     0.031 A 
ATOM     33  C   UNL A   1      40.838  30.021  29.564  1.00  0.00     0.074 A 
ATOM     34  C   UNL A   1      40.395  27.765  28.648  1.00  0.00     0.049 A 
ATOM     35  N   UNL A   1      42.139  29.985  29.701  1.00  0.00    -0.248 NA
ATOM     36  C   UNL A   1      40.221  31.255  30.083  1.00  0.00     0.031 C 
ATOM     37  C   UNL A   1      39.607  26.651  28.107  1.00  0.00     0.029 A 
ATOM     38  N   UNL A   1      41.655  27.233  28.771  1.00  0.00    -0.354 N 
ATOM     39  C   UNL A   1      42.499  31.200  30.275  1.00  0.00     0.074 A 
ATOM     40  C   UNL A   1      41.283  31.966  30.439  1.00  0.00     0.031 C 
ATOM     41  C   UNL A   1      40.379  25.561  28.010  1.00  0.00     0.029 A 
ATOM     42  C   UNL A   1      41.745  25.924  28.353  1.00  0.00     0.049 A 
ATOM     43  H   UNL A   1      42.422  27.739  29.126  1.00  0.00     0.167 HD
ATOM     44  C   UNL A   1      43.730  31.633  30.638  1.00  0.00     0.031 A 
ATOM     45  C   UNL A   1      42.810  25.113  28.203  1.00  0.00     0.031 A 
ATOM     46  C   UNL A   1      44.929  30.847  30.502  1.00  0.00     0.049 A 
ATOM     47  C   UNL A   1      44.173  25.654  28.519  1.00  0.00     0.074 A 
ATOM     48  C   UNL A   1      46.226  31.195  30.837  1.00  0.00     0.029 A 
ATOM     49  N   UNL A   1      44.977  29.550  30.010  1.00  0.00    -0.354 N 
ATOM     50  N   UNL A   1      44.499  26.825  29.010  1.00  0.00    -0.248 NA
ATOM     51  C   UNL A   1      45.315  24.771  28.248  1.00  0.00     0.031 C 
ATOM     52  C   UNL A   1      47.065  30.135  30.488  1.00  0.00     0.029 A 
ATOM     53  C   UNL A   1      46.284  29.097  30.007  1.00  0.00     0.049 A 
ATOM     54  H   UNL A   1      44.197  29.031  29.709  1.00  0.00     0.167 HD
ATOM     55  C   UNL A   1      45.883  26.811  29.131  1.00  0.00     0.074 A 
ATOM     56  C   UNL A   1      46.328  25.507  28.685  1.00  0.00     0.031 C 
ATOM     57  C   UNL A   1      46.709  27.791  29.566  1.00  0.00     0.031 A 
BRANCH  44  58
ATOM     58  C   UNL A   1      43.863  33.025  31.202  1.00  0.00    -0.014 A 
ATOM     59  C   UNL A   1      43.877  33.253  32.589  1.00  0.00     0.010 A 
ATOM     60  C   UNL A   1      44.077  34.110  30.330  1.00  0.00     0.010 A 
ATOM     61  C   UNL A   1      44.087  34.541  33.092  1.00  0.00     0.020 A 
ATOM     62  C   UNL A   1      44.318  35.394  30.830  1.00  0.00     0.020 A 
ATOM     63  C   UNL A   1      44.315  35.602  32.210  1.00  0.00     0.054 A 
BRANCH  63  64
ATOM     64  S   UNL A   1      44.645  37.247  32.899  1.00  0.00     0.124 S 
ATOM     65  O   UNL A   1      43.925  37.194  34.169  1.00  0.00    -0.237 OA
ATOM     66  O   UNL A   1      46.101  37.261  33.002  1.00  0.00    -0.237 OA
ATOM     67  O   UNL A   1      44.084  38.161  31.906  1.00  0.00    -0.744 OA
ENDBRANCH  63  64
ENDBRANCH  44  58
BRANCH  45  68
ATOM     68  C   UNL A   1      42.631  23.727  27.682  1.00  0.00    -0.014 A 
ATOM     69  C   UNL A   1      42.780  23.457  26.311  1.00  0.00     0.010 A 
ATOM     70  C   UNL A   1      42.316  22.667  28.554  1.00  0.00     0.010 A 
ATOM     71  C   UNL A   1      42.594  22.161  25.820  1.00  0.00     0.020 A 
ATOM     72  C   UNL A   1      42.169  21.363  28.073  1.00  0.00     0.020 A 
ATOM     73  C   UNL A   1      42.293  21.122  26.705  1.00  0.00     0.054 A 
BRANCH  73  74
ATOM     74  S   UNL A   1      42.081  19.446  26.043  1.00  0.00     0.124 S 
ATOM     75  O   UNL A   1      42.589  18.623  27.135  1.00  0.00    -0.237 OA
ATOM     76  O   UNL A   1      40.638  19.381  25.817  1.00  0.00    -0.237 OA
ATOM     77  O   UNL A   1      42.895  19.450  24.831  1.00  0.00    -0.744 OA
ENDBRANCH  73  74
ENDBRANCH  45  68
BRANCH  57  78
ATOM     78  C   UNL A   1      48.182  27.485  29.618  1.00  0.00    -0.014 A 
ATOM     79  C   UNL A   1      49.036  27.844  28.561  1.00  0.00     0.010 A 
ATOM     80  C   UNL A   1      48.727  26.897  30.775  1.00  0.00     0.010 A 
ATOM     81  C   UNL A   1      50.407  27.598  28.650  1.00  0.00     0.020 A 
ATOM     82  C   UNL A   1      50.102  26.681  30.882  1.00  0.00     0.020 A 
ATOM     83  C   UNL A   1      50.932  27.024  29.812  1.00  0.00     0.054 A 
BRANCH  83  84
ATOM     84  S   UNL A   1      52.724  26.769  29.919  1.00  0.00     0.124 S 
ATOM     85  O   UNL A   1      53.029  26.201  28.609  1.00  0.00    -0.237 OA
ATOM     86  O   UNL A   1      53.223  28.122  30.149  1.00  0.00    -0.237 OA
ATOM     87  O   UNL A   1      52.879  25.852  31.046  1.00  0.00    -0.744 OA
ENDBRANCH  83  84
ENDBRANCH  57  78
ENDBRANCH  31  32
ENDBRANCH  24  26
ENDBRANCH  23  24
ENDBRANCH   1  23
TORSDOF 16
ENDMDL
MODEL 3
REMARK VINA RESULT:      -9.5      4.411      6.848
REMARK SMILES C#Cc1cc(Cl)cc2c1O[C@H](C(F)(F)F)C(C(=O)OCCOC(=O)c1ccc(-c3c4nc(c(-c5ccc(S(=O)(=O)[O-])cc5)c5ccc([nH]5)c(-c5ccc(S(=O)(=O)[O-])cc5)c5nc(c(-c6ccc(S(=O)(=O)[O-])cc6)c6ccc3[nH]6)C=C5)C=C4)cc1)=C2
REMARK SMILES IDX 21 1 20 2 19 3 17 4 18 5 16 6 3 7 4 8 9 9 5 10 8 11 10 12
REMARK SMILES IDX 6 13 7 14 85 15 11 16 2 17 1 18 12 19 13 20 14 21 15 22
REMARK SMILES IDX 22 23 23 24 24 25 25 26 26 27 84 28 27 29 83 30 28 31 29 32
REMARK SMILES IDX 30 33 77 34 31 35 82 36 76 37 78 38 32 39 81 40 75 41 74 42
REMARK SMILES IDX 33 44 63 45 44 46 62 47 45 48 48 49 61 50 79 51 46 52 47 53
REMARK SMILES IDX 60 55 80 56 49 57 34 58 35 59 43 60 36 61 42 62 37 63 38 64
REMARK SMILES IDX 39 65 40 66 41 67 64 68 65 69 73 70 66 71 72 72 67 73 68 74
REMARK SMILES IDX 69 75 70 76 71 77 50 78 51 79 59 80 52 81 58 82 53 83 54 84
REMARK SMILES IDX 55 85 56 86 57 87
REMARK H PARENT 78 43 48 54
REMARK Flexibility Score: inf
ROOT
ATOM      1  C   UNL A   1      32.121  30.440  26.366  1.00  0.00     0.275 C 
ENDROOT
BRANCH   1   2
ATOM      2  C   UNL A   1      31.957  29.237  25.436  1.00  0.00     0.275 C 
BRANCH   2   3
ATOM      3  O   UNL A   1      32.640  28.071  25.949  1.00  0.00    -0.459 OA
BRANCH   3   4
ATOM      4  C   UNL A   1      31.839  27.101  26.446  1.00  0.00     0.338 C 
ATOM      5  O   UNL A   1      30.853  27.265  27.146  1.00  0.00    -0.246 OA
BRANCH   4   6
ATOM      6  C   UNL A   1      32.308  25.764  26.032  1.00  0.00     0.087 C 
ATOM      7  C   UNL A   1      33.749  22.206  24.356  1.00  0.00     0.068 A 
ATOM      8  C   UNL A   1      35.130  21.976  24.326  1.00  0.00     0.041 A 
ATOM      9  C   UNL A   1      33.237  23.361  24.966  1.00  0.00     0.143 A 
ATOM     10  C   UNL A   1      36.000  22.886  24.920  1.00  0.00     0.043 A 
ATOM     11  C   UNL A   1      34.122  24.267  25.550  1.00  0.00     0.020 A 
ATOM     12  O   UNL A   1      31.878  23.546  24.979  1.00  0.00    -0.474 OA
ATOM     13  Cl  UNL A   1      37.696  22.610  24.871  1.00  0.00    -0.084 Cl
ATOM     14  C   UNL A   1      35.503  24.028  25.539  1.00  0.00     0.032 A 
ATOM     15  C   UNL A   1      33.613  25.493  26.126  1.00  0.00     0.027 C 
ATOM     16  C   UNL A   1      31.335  24.837  25.371  1.00  0.00     0.316 C 
BRANCH   7  17
ATOM     17  C   UNL A   1      32.879  21.254  23.735  1.00  0.00    -0.067 C 
ATOM     18  C   UNL A   1      32.154  20.451  23.210  1.00  0.00     0.010 C 
ENDBRANCH   7  17
BRANCH  16  19
ATOM     19  C   UNL A   1      30.683  25.501  24.147  1.00  0.00     0.430 C 
ATOM     20  F   UNL A   1      31.534  26.364  23.540  1.00  0.00    -0.167 F 
ATOM     21  F   UNL A   1      30.335  24.586  23.209  1.00  0.00    -0.167 F 
ATOM     22  F   UNL A   1      29.566  26.192  24.473  1.00  0.00    -0.167 F 
ENDBRANCH  16  19
ENDBRANCH   4   6
ENDBRANCH   3   4
ENDBRANCH   2   3
ENDBRANCH   1   2
BRANCH   1  23
ATOM     23  O   UNL A   1      33.170  30.213  27.325  1.00  0.00    -0.458 OA
BRANCH  23  24
ATOM     24  C   UNL A   1      33.911  31.305  27.614  1.00  0.00     0.338 C 
ATOM     25  O   UNL A   1      33.520  32.458  27.710  1.00  0.00    -0.246 OA
BRANCH  24  26
ATOM     26  C   UNL A   1      35.291  30.925  27.932  1.00  0.00     0.060 A 
ATOM     27  C   UNL A   1      35.517  29.626  28.365  1.00  0.00     0.016 A 
ATOM     28  C   UNL A   1      36.290  31.884  28.057  1.00  0.00     0.016 A 
ATOM     29  C   UNL A   1      36.645  29.331  29.116  1.00  0.00     0.010 A 
ATOM     30  C   UNL A   1      37.510  31.526  28.645  1.00  0.00     0.010 A 
ATOM     31  C   UNL A   1      37.682  30.261  29.238  1.00  0.00    -0.014 A 
BRANCH  31  32
ATOM     32  C   UNL A   1      38.923  29.903  29.984  1.00  0.00     0.031 A 
ATOM     33  C   UNL A   1      39.839  28.818  29.471  1.00  0.00     0.074 A 
ATOM     34  C   UNL A   1      39.245  30.570  31.114  1.00  0.00     0.049 A 
ATOM     35  N   UNL A   1      40.858  28.250  30.065  1.00  0.00    -0.248 NA
ATOM     36  C   UNL A   1      39.570  28.288  28.122  1.00  0.00     0.031 C 
ATOM     37  C   UNL A   1      38.490  31.687  31.693  1.00  0.00     0.029 A 
ATOM     38  N   UNL A   1      40.304  30.420  31.978  1.00  0.00    -0.354 N 
ATOM     39  C   UNL A   1      41.318  27.273  29.189  1.00  0.00     0.074 A 
ATOM     40  C   UNL A   1      40.454  27.304  28.030  1.00  0.00     0.031 C 
ATOM     41  C   UNL A   1      39.138  32.158  32.766  1.00  0.00     0.029 A 
ATOM     42  C   UNL A   1      40.282  31.301  33.035  1.00  0.00     0.049 A 
ATOM     43  H   UNL A   1      41.010  29.746  31.853  1.00  0.00     0.167 HD
ATOM     44  C   UNL A   1      42.370  26.432  29.336  1.00  0.00     0.031 A 
ATOM     45  C   UNL A   1      41.056  31.386  34.134  1.00  0.00     0.031 A 
ATOM     46  C   UNL A   1      43.245  26.435  30.480  1.00  0.00     0.049 A 
ATOM     47  C   UNL A   1      42.152  30.378  34.318  1.00  0.00     0.074 A 
ATOM     48  C   UNL A   1      44.337  25.622  30.727  1.00  0.00     0.029 A 
ATOM     49  N   UNL A   1      43.141  27.304  31.557  1.00  0.00    -0.354 N 
ATOM     50  N   UNL A   1      42.538  29.426  33.503  1.00  0.00    -0.248 NA
ATOM     51  C   UNL A   1      42.908  30.444  35.575  1.00  0.00     0.031 C 
ATOM     52  C   UNL A   1      44.853  25.955  31.982  1.00  0.00     0.029 A 
ATOM     53  C   UNL A   1      44.132  27.026  32.483  1.00  0.00     0.049 A 
ATOM     54  H   UNL A   1      42.463  28.012  31.649  1.00  0.00     0.167 HD
ATOM     55  C   UNL A   1      43.601  28.795  34.138  1.00  0.00     0.074 A 
ATOM     56  C   UNL A   1      43.810  29.489  35.392  1.00  0.00     0.031 C 
ATOM     57  C   UNL A   1      44.331  27.733  33.723  1.00  0.00     0.031 A 
BRANCH  44  58
ATOM     58  C   UNL A   1      42.636  25.419  28.251  1.00  0.00    -0.014 A 
ATOM     59  C   UNL A   1      43.544  25.685  27.211  1.00  0.00     0.010 A 
ATOM     60  C   UNL A   1      42.042  24.145  28.329  1.00  0.00     0.010 A 
ATOM     61  C   UNL A   1      43.841  24.701  26.263  1.00  0.00     0.020 A 
ATOM     62  C   UNL A   1      42.360  23.148  27.401  1.00  0.00     0.020 A 
ATOM     63  C   UNL A   1      43.254  23.436  26.368  1.00  0.00     0.054 A 
BRANCH  63  64
ATOM     64  S   UNL A   1      43.709  22.165  25.157  1.00  0.00     0.124 S 
ATOM     65  O   UNL A   1      45.060  21.809  25.585  1.00  0.00    -0.237 OA
ATOM     66  O   UNL A   1      42.691  21.141  25.376  1.00  0.00    -0.237 OA
ATOM     67  O   UNL A   1      43.627  22.859  23.874  1.00  0.00    -0.744 OA
ENDBRANCH  63  64
ENDBRANCH  44  58
BRANCH  45  68
ATOM     68  C   UNL A   1      40.787  32.430  35.165  1.00  0.00    -0.014 A 
ATOM     69  C   UNL A   1      41.472  33.656  35.133  1.00  0.00     0.010 A 
ATOM     70  C   UNL A   1      39.840  32.205  36.184  1.00  0.00     0.010 A 
ATOM     71  C   UNL A   1      41.233  34.627  36.110  1.00  0.00     0.020 A 
ATOM     72  C   UNL A   1      39.569  33.188  37.139  1.00  0.00     0.020 A 
ATOM     73  C   UNL A   1      40.280  34.388  37.105  1.00  0.00     0.054 A 
BRANCH  73  74
ATOM     74  S   UNL A   1      39.974  35.675  38.346  1.00  0.00     0.124 S 
ATOM     75  O   UNL A   1      39.653  36.829  37.514  1.00  0.00    -0.237 OA
ATOM     76  O   UNL A   1      38.860  35.113  39.109  1.00  0.00    -0.237 OA
ATOM     77  O   UNL A   1      41.238  35.760  39.073  1.00  0.00    -0.744 OA
ENDBRANCH  73  74
ENDBRANCH  45  68
BRANCH  57  78
ATOM     78  C   UNL A   1      45.454  27.272  34.613  1.00  0.00    -0.014 A 
ATOM     79  C   UNL A   1      46.736  27.840  34.519  1.00  0.00     0.010 A 
ATOM     80  C   UNL A   1      45.198  26.310  35.608  1.00  0.00     0.010 A 
ATOM     81  C   UNL A   1      47.750  27.435  35.388  1.00  0.00     0.020 A 
ATOM     82  C   UNL A   1      46.200  25.928  36.502  1.00  0.00     0.020 A 
ATOM     83  C   UNL A   1      47.474  26.487  36.379  1.00  0.00     0.054 A 
BRANCH  83  84
ATOM     84  S   UNL A   1      48.798  26.024  37.528  1.00  0.00     0.124 S 
ATOM     85  O   UNL A   1      48.100  26.018  38.810  1.00  0.00    -0.237 OA
ATOM     86  O   UNL A   1      49.206  24.715  37.028  1.00  0.00    -0.237 OA
ATOM     87  O   UNL A   1      49.788  27.086  37.364  1.00  0.00    -0.744 OA
ENDBRANCH  83  84
ENDBRANCH  57  78
ENDBRANCH  31  32
ENDBRANCH  24  26
ENDBRANCH  23  24
ENDBRANCH   1  23
TORSDOF 16
ENDMDL
