MODEL 1
REMARK VINA RESULT:     -10.2      0.000      0.000
REMARK SMILES Cc1ccc(C(N)=O)c(NCc2ccc(C(=O)OCCOC(=O)c3ccc(-c4c5nc(c(-c6ccc(S(=O)(=O)[O-])cc6)c6ccc([nH]6)c(-c6ccc(S(=O)(=O)[O-])cc6)c6nc(c(-c7ccc(S(=O)(=O)[O-])cc7)c7ccc4[nH]7)C=C6)C=C5)cc3)o2)n1
REMARK SMILES IDX 19 1 18 2 16 3 17 4 15 5 12 6 13 7 84 8 14 9 11 10 10 11
REMARK SMILES IDX 9 13 1 14 2 15 3 16 85 17 4 18 5 19 6 20 7 21 8 22 20 25
REMARK SMILES IDX 21 26 22 27 23 28 24 29 25 30 83 31 26 32 82 33 27 34 28 35
REMARK SMILES IDX 29 36 76 37 30 38 81 39 75 40 77 41 31 42 80 43 74 44 73 45
REMARK SMILES IDX 32 47 62 48 43 49 61 50 44 51 47 52 60 53 78 54 45 55 46 56
REMARK SMILES IDX 59 58 79 59 48 60 33 61 34 62 42 63 35 64 41 65 36 66 37 67
REMARK SMILES IDX 38 68 39 69 40 70 63 71 64 72 72 73 65 74 71 75 66 76 67 77
REMARK SMILES IDX 68 78 69 79 70 80 49 81 50 82 58 83 51 84 57 85 52 86 53 87
REMARK SMILES IDX 54 88 55 89 56 90
REMARK H PARENT 10 12 7 23 7 24 77 46 47 57
REMARK Flexibility Score: inf
ROOT
ATOM      1  C   UNL A   1      33.812  34.098  28.149  1.00  0.00     0.275 C 
ENDROOT
BRANCH   1   2
ATOM      2  O   UNL A   1      33.580  34.494  29.514  1.00  0.00    -0.456 OA
BRANCH   2   3
ATOM      3  C   UNL A   1      32.948  35.698  29.674  1.00  0.00     0.374 C 
ATOM      4  O   UNL A   1      32.151  36.167  28.876  1.00  0.00    -0.242 OA
BRANCH   3   5
ATOM      5  C   UNL A   1      33.288  36.270  30.958  1.00  0.00     0.211 A 
ATOM      6  C   UNL A   1      34.056  36.123  33.026  1.00  0.00     0.124 A 
ATOM      7  C   UNL A   1      33.927  37.469  32.753  1.00  0.00     0.048 A 
ATOM      8  O   UNL A   1      33.602  35.398  31.967  1.00  0.00    -0.452 OA
ATOM      9  C   UNL A   1      33.448  37.564  31.420  1.00  0.00     0.058 A 
BRANCH   6  10
ATOM     10  C   UNL A   1      34.624  35.326  34.155  1.00  0.00     0.190 C 
BRANCH  10  11
ATOM     11  N   UNL A   1      34.600  33.880  33.960  1.00  0.00    -0.362 N 
ATOM     12  H   UNL A   1      33.747  33.415  33.796  1.00  0.00     0.162 HD
BRANCH  11  13
ATOM     13  C   UNL A   1      35.792  33.166  34.007  1.00  0.00     0.139 A 
ATOM     14  C   UNL A   1      38.099  32.225  36.720  1.00  0.00     0.067 C 
ATOM     15  C   UNL A   1      37.526  32.323  35.340  1.00  0.00     0.040 A 
ATOM     16  C   UNL A   1      38.080  31.631  34.278  1.00  0.00     0.024 A 
ATOM     17  N   UNL A   1      36.419  33.090  35.204  1.00  0.00    -0.236 NA
ATOM     18  C   UNL A   1      37.472  31.740  33.033  1.00  0.00     0.019 A 
ATOM     19  C   UNL A   1      36.315  32.518  32.879  1.00  0.00     0.081 A 
BRANCH  19  20
ATOM     20  C   UNL A   1      35.739  32.600  31.507  1.00  0.00     0.252 C 
ATOM     21  N   UNL A   1      34.408  32.345  31.346  1.00  0.00    -0.365 N 
ATOM     22  O   UNL A   1      36.426  32.925  30.544  1.00  0.00    -0.269 OA
ATOM     23  H   UNL A   1      33.859  32.085  32.121  1.00  0.00     0.159 HD
ATOM     24  H   UNL A   1      33.996  32.423  30.456  1.00  0.00     0.159 HD
ENDBRANCH  19  20
ENDBRANCH  11  13
ENDBRANCH  10  11
ENDBRANCH   6  10
ENDBRANCH   3   5
ENDBRANCH   2   3
ENDBRANCH   1   2
BRANCH   1  25
ATOM     25  C   UNL A   1      33.315  32.672  27.879  1.00  0.00     0.275 C 
BRANCH  25  26
ATOM     26  O   UNL A   1      34.102  31.677  28.561  1.00  0.00    -0.458 OA
BRANCH  26  27
ATOM     27  C   UNL A   1      34.390  30.569  27.834  1.00  0.00     0.338 C 
ATOM     28  O   UNL A   1      33.684  30.052  26.984  1.00  0.00    -0.246 OA
BRANCH  27  29
ATOM     29  C   UNL A   1      35.768  30.125  28.113  1.00  0.00     0.060 A 
ATOM     30  C   UNL A   1      36.040  29.628  29.390  1.00  0.00     0.016 A 
ATOM     31  C   UNL A   1      36.794  30.250  27.176  1.00  0.00     0.016 A 
ATOM     32  C   UNL A   1      37.334  29.250  29.739  1.00  0.00     0.010 A 
ATOM     33  C   UNL A   1      38.098  29.876  27.527  1.00  0.00     0.010 A 
ATOM     34  C   UNL A   1      38.376  29.381  28.815  1.00  0.00    -0.014 A 
BRANCH  34  35
ATOM     35  C   UNL A   1      39.758  29.036  29.227  1.00  0.00     0.031 A 
ATOM     36  C   UNL A   1      40.570  30.012  30.031  1.00  0.00     0.074 A 
ATOM     37  C   UNL A   1      40.266  27.826  28.922  1.00  0.00     0.049 A 
ATOM     38  N   UNL A   1      41.794  29.897  30.478  1.00  0.00    -0.248 NA
ATOM     39  C   UNL A   1      39.917  31.283  30.382  1.00  0.00     0.031 C 
ATOM     40  C   UNL A   1      39.560  26.774  28.189  1.00  0.00     0.029 A 
ATOM     41  N   UNL A   1      41.493  27.276  29.198  1.00  0.00    -0.354 N 
ATOM     42  C   UNL A   1      42.065  31.082  31.151  1.00  0.00     0.074 A 
ATOM     43  C   UNL A   1      40.883  31.910  31.039  1.00  0.00     0.031 C 
ATOM     44  C   UNL A   1      40.363  25.702  28.080  1.00  0.00     0.029 A 
ATOM     45  C   UNL A   1      41.651  26.005  28.699  1.00  0.00     0.049 A 
ATOM     46  H   UNL A   1      42.193  27.747  29.705  1.00  0.00     0.167 HD
ATOM     47  C   UNL A   1      43.195  31.446  31.803  1.00  0.00     0.031 A 
ATOM     48  C   UNL A   1      42.719  25.183  28.720  1.00  0.00     0.031 A 
ATOM     49  C   UNL A   1      44.372  30.625  31.907  1.00  0.00     0.049 A 
ATOM     50  C   UNL A   1      43.983  25.636  29.398  1.00  0.00     0.074 A 
ATOM     51  C   UNL A   1      45.565  30.907  32.550  1.00  0.00     0.029 A 
ATOM     52  N   UNL A   1      44.509  29.362  31.350  1.00  0.00    -0.354 N 
ATOM     53  N   UNL A   1      44.221  26.759  30.031  1.00  0.00    -0.248 NA
ATOM     54  C   UNL A   1      45.124  24.709  29.363  1.00  0.00     0.031 C 
ATOM     55  C   UNL A   1      46.439  29.834  32.344  1.00  0.00     0.029 A 
ATOM     56  C   UNL A   1      45.773  28.861  31.615  1.00  0.00     0.049 A 
ATOM     57  H   UNL A   1      43.810  28.891  30.841  1.00  0.00     0.167 HD
ATOM     58  C   UNL A   1      45.532  26.667  30.486  1.00  0.00     0.074 A 
ATOM     59  C   UNL A   1      46.030  25.372  30.069  1.00  0.00     0.031 C 
ATOM     60  C   UNL A   1      46.256  27.574  31.188  1.00  0.00     0.031 A 
BRANCH  47  61
ATOM     61  C   UNL A   1      43.223  32.817  32.425  1.00  0.00    -0.014 A 
ATOM     62  C   UNL A   1      42.859  33.015  33.767  1.00  0.00     0.010 A 
ATOM     63  C   UNL A   1      43.648  33.917  31.659  1.00  0.00     0.010 A 
ATOM     64  C   UNL A   1      42.881  34.299  34.323  1.00  0.00     0.020 A 
ATOM     65  C   UNL A   1      43.693  35.198  32.216  1.00  0.00     0.020 A 
ATOM     66  C   UNL A   1      43.291  35.383  33.541  1.00  0.00     0.054 A 
BRANCH  66  67
ATOM     67  S   UNL A   1      43.316  37.037  34.286  1.00  0.00     0.124 S 
ATOM     68  O   UNL A   1      42.023  37.081  34.963  1.00  0.00    -0.237 OA
ATOM     69  O   UNL A   1      44.483  36.979  35.162  1.00  0.00    -0.237 OA
ATOM     70  O   UNL A   1      43.448  37.932  33.137  1.00  0.00    -0.744 OA
ENDBRANCH  66  67
ENDBRANCH  47  61
BRANCH  48  71
ATOM     71  C   UNL A   1      42.642  23.854  28.056  1.00  0.00    -0.014 A 
ATOM     72  C   UNL A   1      42.190  22.724  28.759  1.00  0.00     0.010 A 
ATOM     73  C   UNL A   1      43.013  23.718  26.705  1.00  0.00     0.010 A 
ATOM     74  C   UNL A   1      42.121  21.479  28.126  1.00  0.00     0.020 A 
ATOM     75  C   UNL A   1      42.922  22.480  26.063  1.00  0.00     0.020 A 
ATOM     76  C   UNL A   1      42.487  21.366  26.781  1.00  0.00     0.054 A 
BRANCH  76  77
ATOM     77  S   UNL A   1      42.336  19.754  25.961  1.00  0.00     0.124 S 
ATOM     78  O   UNL A   1      43.387  19.828  24.952  1.00  0.00    -0.237 OA
ATOM     79  O   UNL A   1      42.574  18.816  27.056  1.00  0.00    -0.237 OA
ATOM     80  O   UNL A   1      40.968  19.761  25.445  1.00  0.00    -0.744 OA
ENDBRANCH  76  77
ENDBRANCH  48  71
BRANCH  60  81
ATOM     81  C   UNL A   1      47.660  27.188  31.571  1.00  0.00    -0.014 A 
ATOM     82  C   UNL A   1      47.916  26.437  32.732  1.00  0.00     0.010 A 
ATOM     83  C   UNL A   1      48.731  27.539  30.729  1.00  0.00     0.010 A 
ATOM     84  C   UNL A   1      49.223  26.067  33.059  1.00  0.00     0.020 A 
ATOM     85  C   UNL A   1      50.037  27.151  31.041  1.00  0.00     0.020 A 
ATOM     86  C   UNL A   1      50.276  26.430  32.212  1.00  0.00     0.054 A 
BRANCH  86  87
ATOM     87  S   UNL A   1      51.961  25.902  32.634  1.00  0.00     0.124 S 
ATOM     88  O   UNL A   1      52.413  25.302  31.383  1.00  0.00    -0.237 OA
ATOM     89  O   UNL A   1      52.611  27.159  33.000  1.00  0.00    -0.237 OA
ATOM     90  O   UNL A   1      51.762  24.968  33.739  1.00  0.00    -0.744 OA
ENDBRANCH  86  87
ENDBRANCH  60  81
ENDBRANCH  34  35
ENDBRANCH  27  29
ENDBRANCH  26  27
ENDBRANCH  25  26
ENDBRANCH   1  25
TORSDOF 18
ENDMDL
MODEL 2
REMARK VINA RESULT:     -10.0      2.859     12.363
REMARK SMILES Cc1ccc(C(N)=O)c(NCc2ccc(C(=O)OCCOC(=O)c3ccc(-c4c5nc(c(-c6ccc(S(=O)(=O)[O-])cc6)c6ccc([nH]6)c(-c6ccc(S(=O)(=O)[O-])cc6)c6nc(c(-c7ccc(S(=O)(=O)[O-])cc7)c7ccc4[nH]7)C=C6)C=C5)cc3)o2)n1
REMARK SMILES IDX 19 1 18 2 16 3 17 4 15 5 12 6 13 7 84 8 14 9 11 10 10 11
REMARK SMILES IDX 9 13 1 14 2 15 3 16 85 17 4 18 5 19 6 20 7 21 8 22 20 25
REMARK SMILES IDX 21 26 22 27 23 28 24 29 25 30 83 31 26 32 82 33 27 34 28 35
REMARK SMILES IDX 29 36 76 37 30 38 81 39 75 40 77 41 31 42 80 43 74 44 73 45
REMARK SMILES IDX 32 47 62 48 43 49 61 50 44 51 47 52 60 53 78 54 45 55 46 56
REMARK SMILES IDX 59 58 79 59 48 60 33 61 34 62 42 63 35 64 41 65 36 66 37 67
REMARK SMILES IDX 38 68 39 69 40 70 63 71 64 72 72 73 65 74 71 75 66 76 67 77
REMARK SMILES IDX 68 78 69 79 70 80 49 81 50 82 58 83 51 84 57 85 52 86 53 87
REMARK SMILES IDX 54 88 55 89 56 90
REMARK H PARENT 10 12 7 23 7 24 77 46 47 57
REMARK Flexibility Score: inf
ROOT
ATOM      1  C   UNL A   1      40.877  19.820  26.660  1.00  0.00     0.275 C 
ENDROOT
BRANCH   1   2
ATOM      2  O   UNL A   1      42.264  20.050  26.349  1.00  0.00    -0.456 OA
BRANCH   2   3
ATOM      3  C   UNL A   1      42.941  18.966  25.857  1.00  0.00     0.374 C 
ATOM      4  O   UNL A   1      42.480  17.837  25.799  1.00  0.00    -0.242 OA
BRANCH   3   5
ATOM      5  C   UNL A   1      44.224  19.378  25.333  1.00  0.00     0.211 A 
ATOM      6  C   UNL A   1      45.605  20.891  24.499  1.00  0.00     0.124 A 
ATOM      7  C   UNL A   1      46.370  19.776  24.779  1.00  0.00     0.048 A 
ATOM      8  O   UNL A   1      44.297  20.624  24.767  1.00  0.00    -0.452 OA
ATOM      9  C   UNL A   1      45.486  18.811  25.330  1.00  0.00     0.058 A 
BRANCH   6  10
ATOM     10  C   UNL A   1      45.899  22.284  24.049  1.00  0.00     0.190 C 
BRANCH  10  11
ATOM     11  N   UNL A   1      45.238  23.331  24.821  1.00  0.00    -0.362 N 
ATOM     12  H   UNL A   1      44.422  23.763  24.477  1.00  0.00     0.162 HD
BRANCH  11  13
ATOM     13  C   UNL A   1      45.770  23.713  26.048  1.00  0.00     0.139 A 
ATOM     14  C   UNL A   1      48.935  25.293  27.077  1.00  0.00     0.067 C 
ATOM     15  C   UNL A   1      47.569  24.689  27.190  1.00  0.00     0.040 A 
ATOM     16  C   UNL A   1      46.886  24.672  28.394  1.00  0.00     0.024 A 
ATOM     17  N   UNL A   1      47.033  24.202  26.047  1.00  0.00    -0.236 NA
ATOM     18  C   UNL A   1      45.607  24.128  28.415  1.00  0.00     0.019 A 
ATOM     19  C   UNL A   1      45.030  23.634  27.236  1.00  0.00     0.081 A 
BRANCH  19  20
ATOM     20  C   UNL A   1      43.665  23.049  27.351  1.00  0.00     0.252 C 
ATOM     21  N   UNL A   1      43.412  22.189  28.381  1.00  0.00    -0.365 N 
ATOM     22  O   UNL A   1      42.771  23.353  26.568  1.00  0.00    -0.269 OA
ATOM     23  H   UNL A   1      44.131  21.946  29.008  1.00  0.00     0.159 HD
ATOM     24  H   UNL A   1      42.510  21.813  28.498  1.00  0.00     0.159 HD
ENDBRANCH  19  20
ENDBRANCH  11  13
ENDBRANCH  10  11
ENDBRANCH   6  10
ENDBRANCH   3   5
ENDBRANCH   2   3
ENDBRANCH   1   2
BRANCH   1  25
ATOM     25  C   UNL A   1      39.966  20.862  25.998  1.00  0.00     0.275 C 
BRANCH  25  26
ATOM     26  O   UNL A   1      39.586  21.914  26.905  1.00  0.00    -0.458 OA
BRANCH  26  27
ATOM     27  C   UNL A   1      38.875  22.927  26.351  1.00  0.00     0.338 C 
ATOM     28  O   UNL A   1      37.997  22.825  25.510  1.00  0.00    -0.246 OA
BRANCH  27  29
ATOM     29  C   UNL A   1      39.215  24.203  27.008  1.00  0.00     0.060 A 
ATOM     30  C   UNL A   1      39.936  25.140  26.264  1.00  0.00     0.016 A 
ATOM     31  C   UNL A   1      38.900  24.458  28.344  1.00  0.00     0.016 A 
ATOM     32  C   UNL A   1      40.343  26.338  26.845  1.00  0.00     0.010 A 
ATOM     33  C   UNL A   1      39.314  25.661  28.931  1.00  0.00     0.010 A 
ATOM     34  C   UNL A   1      40.045  26.605  28.185  1.00  0.00    -0.014 A 
BRANCH  34  35
ATOM     35  C   UNL A   1      40.545  27.857  28.804  1.00  0.00     0.031 A 
ATOM     36  C   UNL A   1      41.975  27.955  29.254  1.00  0.00     0.074 A 
ATOM     37  C   UNL A   1      39.728  28.922  28.916  1.00  0.00     0.049 A 
ATOM     38  N   UNL A   1      42.595  28.958  29.821  1.00  0.00    -0.248 NA
ATOM     39  C   UNL A   1      42.821  26.771  29.033  1.00  0.00     0.031 C 
ATOM     40  C   UNL A   1      38.333  28.966  28.472  1.00  0.00     0.029 A 
ATOM     41  N   UNL A   1      39.955  30.174  29.431  1.00  0.00    -0.354 N 
ATOM     42  C   UNL A   1      43.898  28.525  30.037  1.00  0.00     0.074 A 
ATOM     43  C   UNL A   1      43.975  27.163  29.556  1.00  0.00     0.031 C 
ATOM     44  C   UNL A   1      37.832  30.187  28.727  1.00  0.00     0.029 A 
ATOM     45  C   UNL A   1      38.854  30.995  29.387  1.00  0.00     0.049 A 
ATOM     46  H   UNL A   1      40.824  30.455  29.798  1.00  0.00     0.167 HD
ATOM     47  C   UNL A   1      44.935  29.202  30.586  1.00  0.00     0.031 A 
ATOM     48  C   UNL A   1      38.681  32.252  29.843  1.00  0.00     0.031 A 
ATOM     49  C   UNL A   1      44.855  30.554  31.072  1.00  0.00     0.049 A 
ATOM     50  C   UNL A   1      39.832  32.960  30.505  1.00  0.00     0.074 A 
ATOM     51  C   UNL A   1      45.854  31.326  31.642  1.00  0.00     0.029 A 
ATOM     52  N   UNL A   1      43.710  31.338  31.050  1.00  0.00    -0.354 N 
ATOM     53  N   UNL A   1      41.058  32.536  30.699  1.00  0.00    -0.248 NA
ATOM     54  C   UNL A   1      39.575  34.316  31.009  1.00  0.00     0.031 C 
ATOM     55  C   UNL A   1      45.302  32.559  32.005  1.00  0.00     0.029 A 
ATOM     56  C   UNL A   1      43.972  32.575  31.616  1.00  0.00     0.049 A 
ATOM     57  H   UNL A   1      42.841  31.056  30.685  1.00  0.00     0.167 HD
ATOM     58  C   UNL A   1      41.723  33.580  31.331  1.00  0.00     0.074 A 
ATOM     59  C   UNL A   1      40.768  34.660  31.473  1.00  0.00     0.031 C 
ATOM     60  C   UNL A   1      43.010  33.638  31.755  1.00  0.00     0.031 A 
BRANCH  47  61
ATOM     61  C   UNL A   1      46.242  28.469  30.726  1.00  0.00    -0.014 A 
ATOM     62  C   UNL A   1      46.528  27.701  31.868  1.00  0.00     0.010 A 
ATOM     63  C   UNL A   1      47.186  28.528  29.684  1.00  0.00     0.010 A 
ATOM     64  C   UNL A   1      47.753  27.037  31.984  1.00  0.00     0.020 A 
ATOM     65  C   UNL A   1      48.402  27.847  29.786  1.00  0.00     0.020 A 
ATOM     66  C   UNL A   1      48.686  27.120  30.945  1.00  0.00     0.054 A 
BRANCH  66  67
ATOM     67  S   UNL A   1      50.265  26.245  31.116  1.00  0.00     0.124 S 
ATOM     68  O   UNL A   1      50.288  25.945  32.545  1.00  0.00    -0.237 OA
ATOM     69  O   UNL A   1      50.093  25.093  30.235  1.00  0.00    -0.237 OA
ATOM     70  O   UNL A   1      51.254  27.224  30.669  1.00  0.00    -0.744 OA
ENDBRANCH  66  67
ENDBRANCH  47  61
BRANCH  48  71
ATOM     71  C   UNL A   1      37.354  32.910  29.709  1.00  0.00    -0.014 A 
ATOM     72  C   UNL A   1      36.476  32.987  30.804  1.00  0.00     0.010 A 
ATOM     73  C   UNL A   1      36.968  33.476  28.480  1.00  0.00     0.010 A 
ATOM     74  C   UNL A   1      35.231  33.607  30.669  1.00  0.00     0.020 A 
ATOM     75  C   UNL A   1      35.734  34.119  28.349  1.00  0.00     0.020 A 
ATOM     76  C   UNL A   1      34.869  34.171  29.442  1.00  0.00     0.054 A 
BRANCH  76  77
ATOM     77  S   UNL A   1      33.273  35.023  29.302  1.00  0.00     0.124 S 
ATOM     78  O   UNL A   1      32.618  34.269  28.239  1.00  0.00    -0.237 OA
ATOM     79  O   UNL A   1      32.705  34.858  30.638  1.00  0.00    -0.237 OA
ATOM     80  O   UNL A   1      33.647  36.394  28.960  1.00  0.00    -0.744 OA
ENDBRANCH  76  77
ENDBRANCH  48  71
BRANCH  60  81
ATOM     81  C   UNL A   1      43.470  34.922  32.392  1.00  0.00    -0.014 A 
ATOM     82  C   UNL A   1      43.595  35.036  33.789  1.00  0.00     0.010 A 
ATOM     83  C   UNL A   1      43.830  36.011  31.579  1.00  0.00     0.010 A 
ATOM     84  C   UNL A   1      44.046  36.228  34.361  1.00  0.00     0.020 A 
ATOM     85  C   UNL A   1      44.304  37.197  32.147  1.00  0.00     0.020 A 
ATOM     86  C   UNL A   1      44.395  37.303  33.536  1.00  0.00     0.054 A 
BRANCH  86  87
ATOM     87  S   UNL A   1      45.019  38.826  34.299  1.00  0.00     0.124 S 
ATOM     88  O   UNL A   1      43.783  39.513  34.662  1.00  0.00    -0.237 OA
ATOM     89  O   UNL A   1      45.812  38.325  35.420  1.00  0.00    -0.237 OA
ATOM     90  O   UNL A   1      45.792  39.455  33.231  1.00  0.00    -0.744 OA
ENDBRANCH  86  87
ENDBRANCH  60  81
ENDBRANCH  34  35
ENDBRANCH  27  29
ENDBRANCH  26  27
ENDBRANCH  25  26
ENDBRANCH   1  25
TORSDOF 18
ENDMDL
MODEL 3
REMARK VINA RESULT:      -9.6      4.305      6.506
REMARK SMILES Cc1ccc(C(N)=O)c(NCc2ccc(C(=O)OCCOC(=O)c3ccc(-c4c5nc(c(-c6ccc(S(=O)(=O)[O-])cc6)c6ccc([nH]6)c(-c6ccc(S(=O)(=O)[O-])cc6)c6nc(c(-c7ccc(S(=O)(=O)[O-])cc7)c7ccc4[nH]7)C=C6)C=C5)cc3)o2)n1
REMARK SMILES IDX 19 1 18 2 16 3 17 4 15 5 12 6 13 7 84 8 14 9 11 10 10 11
REMARK SMILES IDX 9 13 1 14 2 15 3 16 85 17 4 18 5 19 6 20 7 21 8 22 20 25
REMARK SMILES IDX 21 26 22 27 23 28 24 29 25 30 83 31 26 32 82 33 27 34 28 35
REMARK SMILES IDX 29 36 76 37 30 38 81 39 75 40 77 41 31 42 80 43 74 44 73 45
REMARK SMILES IDX 32 47 62 48 43 49 61 50 44 51 47 52 60 53 78 54 45 55 46 56
REMARK SMILES IDX 59 58 79 59 48 60 33 61 34 62 42 63 35 64 41 65 36 66 37 67
REMARK SMILES IDX 38 68 39 69 40 70 63 71 64 72 72 73 65 74 71 75 66 76 67 77
REMARK SMILES IDX 68 78 69 79 70 80 49 81 50 82 58 83 51 84 57 85 52 86 53 87
REMARK SMILES IDX 54 88 55 89 56 90
REMARK H PARENT 10 12 7 23 7 24 77 46 47 57
REMARK Flexibility Score: inf
ROOT
ATOM      1  C   UNL A   1      34.440  33.492  30.649  1.00  0.00     0.275 C 
ENDROOT
BRANCH   1   2
ATOM      2  O   UNL A   1      34.768  33.447  29.248  1.00  0.00    -0.456 OA
BRANCH   2   3
ATOM      3  C   UNL A   1      33.714  33.211  28.407  1.00  0.00     0.374 C 
ATOM      4  O   UNL A   1      32.880  34.049  28.099  1.00  0.00    -0.242 OA
BRANCH   3   5
ATOM      5  C   UNL A   1      33.797  31.871  27.870  1.00  0.00     0.211 A 
ATOM      6  C   UNL A   1      33.085  30.241  26.555  1.00  0.00     0.124 A 
ATOM      7  C   UNL A   1      34.306  29.835  27.054  1.00  0.00     0.048 A 
ATOM      8  O   UNL A   1      32.744  31.440  27.105  1.00  0.00    -0.452 OA
ATOM      9  C   UNL A   1      34.770  30.889  27.885  1.00  0.00     0.058 A 
BRANCH   6  10
ATOM     10  C   UNL A   1      32.131  29.704  25.538  1.00  0.00     0.190 C 
BRANCH  10  11
ATOM     11  N   UNL A   1      32.720  29.420  24.234  1.00  0.00    -0.362 N 
ATOM     12  H   UNL A   1      33.222  30.117  23.752  1.00  0.00     0.162 HD
BRANCH  11  13
ATOM     13  C   UNL A   1      32.567  28.154  23.678  1.00  0.00     0.139 A 
ATOM     14  C   UNL A   1      34.252  24.919  24.191  1.00  0.00     0.067 C 
ATOM     15  C   UNL A   1      33.287  25.924  23.642  1.00  0.00     0.040 A 
ATOM     16  C   UNL A   1      32.267  25.551  22.783  1.00  0.00     0.024 A 
ATOM     17  N   UNL A   1      33.446  27.200  24.064  1.00  0.00    -0.236 NA
ATOM     18  C   UNL A   1      31.387  26.532  22.344  1.00  0.00     0.019 A 
ATOM     19  C   UNL A   1      31.528  27.856  22.784  1.00  0.00     0.081 A 
BRANCH  19  20
ATOM     20  C   UNL A   1      30.556  28.850  22.247  1.00  0.00     0.252 C 
ATOM     21  N   UNL A   1      31.043  29.980  21.656  1.00  0.00    -0.365 N 
ATOM     22  O   UNL A   1      29.347  28.651  22.295  1.00  0.00    -0.269 OA
ATOM     23  H   UNL A   1      32.014  30.137  21.619  1.00  0.00     0.159 HD
ATOM     24  H   UNL A   1      30.423  30.637  21.266  1.00  0.00     0.159 HD
ENDBRANCH  19  20
ENDBRANCH  11  13
ENDBRANCH  10  11
ENDBRANCH   6  10
ENDBRANCH   3   5
ENDBRANCH   2   3
ENDBRANCH   1   2
BRANCH   1  25
ATOM     25  C   UNL A   1      35.559  32.900  31.515  1.00  0.00     0.275 C 
BRANCH  25  26
ATOM     26  O   UNL A   1      36.532  32.178  30.737  1.00  0.00    -0.458 OA
BRANCH  26  27
ATOM     27  C   UNL A   1      36.760  30.902  31.133  1.00  0.00     0.338 C 
ATOM     28  O   UNL A   1      36.015  30.203  31.801  1.00  0.00    -0.246 OA
BRANCH  27  29
ATOM     29  C   UNL A   1      38.005  30.398  30.526  1.00  0.00     0.060 A 
ATOM     30  C   UNL A   1      38.986  29.899  31.385  1.00  0.00     0.016 A 
ATOM     31  C   UNL A   1      38.245  30.469  29.152  1.00  0.00     0.016 A 
ATOM     32  C   UNL A   1      40.210  29.466  30.882  1.00  0.00     0.010 A 
ATOM     33  C   UNL A   1      39.479  30.039  28.646  1.00  0.00     0.010 A 
ATOM     34  C   UNL A   1      40.471  29.542  29.510  1.00  0.00    -0.014 A 
BRANCH  34  35
ATOM     35  C   UNL A   1      41.805  29.137  29.002  1.00  0.00     0.031 A 
ATOM     36  C   UNL A   1      42.931  30.133  28.967  1.00  0.00     0.074 A 
ATOM     37  C   UNL A   1      42.018  27.864  28.619  1.00  0.00     0.049 A 
ATOM     38  N   UNL A   1      44.161  29.973  28.554  1.00  0.00    -0.248 NA
ATOM     39  C   UNL A   1      42.633  31.484  29.469  1.00  0.00     0.031 C 
ATOM     40  C   UNL A   1      41.019  26.794  28.652  1.00  0.00     0.029 A 
ATOM     41  N   UNL A   1      43.148  27.253  28.133  1.00  0.00    -0.354 N 
ATOM     42  C   UNL A   1      44.784  31.202  28.731  1.00  0.00     0.074 A 
ATOM     43  C   UNL A   1      43.790  32.103  29.274  1.00  0.00     0.031 C 
ATOM     44  C   UNL A   1      41.584  25.656  28.213  1.00  0.00     0.029 A 
ATOM     45  C   UNL A   1      42.968  25.924  27.832  1.00  0.00     0.049 A 
ATOM     46  H   UNL A   1      44.005  27.723  28.013  1.00  0.00     0.167 HD
ATOM     47  C   UNL A   1      46.066  31.549  28.466  1.00  0.00     0.031 A 
ATOM     48  C   UNL A   1      43.816  25.028  27.290  1.00  0.00     0.031 A 
ATOM     49  C   UNL A   1      47.051  30.654  27.918  1.00  0.00     0.049 A 
ATOM     50  C   UNL A   1      45.218  25.454  26.947  1.00  0.00     0.074 A 
ATOM     51  C   UNL A   1      48.378  30.912  27.618  1.00  0.00     0.029 A 
ATOM     52  N   UNL A   1      46.818  29.328  27.584  1.00  0.00    -0.354 N 
ATOM     53  N   UNL A   1      45.790  26.621  27.123  1.00  0.00    -0.248 NA
ATOM     54  C   UNL A   1      46.088  24.442  26.332  1.00  0.00     0.031 C 
ATOM     55  C   UNL A   1      48.934  29.756  27.060  1.00  0.00     0.029 A 
ATOM     56  C   UNL A   1      47.969  28.762  27.059  1.00  0.00     0.049 A 
ATOM     57  H   UNL A   1      45.961  28.858  27.702  1.00  0.00     0.167 HD
ATOM     58  C   UNL A   1      47.092  26.477  26.658  1.00  0.00     0.074 A 
ATOM     59  C   UNL A   1      47.227  25.107  26.207  1.00  0.00     0.031 C 
ATOM     60  C   UNL A   1      48.087  27.399  26.610  1.00  0.00     0.031 A 
BRANCH  47  61
ATOM     61  C   UNL A   1      46.466  32.975  28.730  1.00  0.00    -0.014 A 
ATOM     62  C   UNL A   1      46.312  33.969  27.749  1.00  0.00     0.010 A 
ATOM     63  C   UNL A   1      46.976  33.330  29.992  1.00  0.00     0.010 A 
ATOM     64  C   UNL A   1      46.701  35.287  28.010  1.00  0.00     0.020 A 
ATOM     65  C   UNL A   1      47.344  34.651  30.266  1.00  0.00     0.020 A 
ATOM     66  C   UNL A   1      47.221  35.617  29.265  1.00  0.00     0.054 A 
BRANCH  66  67
ATOM     67  S   UNL A   1      47.712  37.334  29.582  1.00  0.00     0.124 S 
ATOM     68  O   UNL A   1      49.168  37.247  29.517  1.00  0.00    -0.237 OA
ATOM     69  O   UNL A   1      47.075  38.060  28.487  1.00  0.00    -0.237 OA
ATOM     70  O   UNL A   1      47.164  37.611  30.909  1.00  0.00    -0.744 OA
ENDBRANCH  66  67
ENDBRANCH  47  61
BRANCH  48  71
ATOM     71  C   UNL A   1      43.351  23.642  27.018  1.00  0.00    -0.014 A 
ATOM     72  C   UNL A   1      43.060  23.226  25.707  1.00  0.00     0.010 A 
ATOM     73  C   UNL A   1      43.207  22.724  28.075  1.00  0.00     0.010 A 
ATOM     74  C   UNL A   1      42.624  21.921  25.459  1.00  0.00     0.020 A 
ATOM     75  C   UNL A   1      42.795  21.412  27.829  1.00  0.00     0.020 A 
ATOM     76  C   UNL A   1      42.495  21.022  26.523  1.00  0.00     0.054 A 
BRANCH  76  77
ATOM     77  S   UNL A   1      41.983  19.316  26.175  1.00  0.00     0.124 S 
ATOM     78  O   UNL A   1      42.773  18.997  24.991  1.00  0.00    -0.237 OA
ATOM     79  O   UNL A   1      42.364  18.613  27.398  1.00  0.00    -0.237 OA
ATOM     80  O   UNL A   1      40.542  19.431  25.957  1.00  0.00    -0.744 OA
ENDBRANCH  76  77
ENDBRANCH  48  71
BRANCH  60  81
ATOM     81  C   UNL A   1      49.419  26.949  26.071  1.00  0.00    -0.014 A 
ATOM     82  C   UNL A   1      49.767  27.162  24.726  1.00  0.00     0.010 A 
ATOM     83  C   UNL A   1      50.352  26.352  26.937  1.00  0.00     0.010 A 
ATOM     84  C   UNL A   1      51.018  26.760  24.249  1.00  0.00     0.020 A 
ATOM     85  C   UNL A   1      51.612  25.969  26.469  1.00  0.00     0.020 A 
ATOM     86  C   UNL A   1      51.931  26.163  25.124  1.00  0.00     0.054 A 
BRANCH  86  87
ATOM     87  S   UNL A   1      53.566  25.687  24.494  1.00  0.00     0.124 S 
ATOM     88  O   UNL A   1      53.470  26.065  23.087  1.00  0.00    -0.237 OA
ATOM     89  O   UNL A   1      54.472  26.499  25.303  1.00  0.00    -0.237 OA
ATOM     90  O   UNL A   1      53.629  24.251  24.751  1.00  0.00    -0.744 OA
ENDBRANCH  86  87
ENDBRANCH  60  81
ENDBRANCH  34  35
ENDBRANCH  27  29
ENDBRANCH  26  27
ENDBRANCH  25  26
ENDBRANCH   1  25
TORSDOF 18
ENDMDL
