MODEL 1
REMARK VINA RESULT:     -10.0      0.000      0.000
REMARK SMILES CC(C)CSc1cc2c(cc1Cl)C=C(C(=O)OCCOC(=O)c1ccc(-c3c4nc(c(-c5ccc(S(=O)(=O)[O-])cc5)c5ccc([nH]5)c(-c5ccc(S(=O)(=O)[O-])cc5)c5nc(c(-c6ccc(S(=O)(=O)[O-])cc6)c6ccc3[nH]6)C=C5)C=C4)cc1)[C@H](C(F)(F)F)O2
REMARK SMILES IDX 18 1 17 2 15 3 16 4 14 5 6 6 7 7 11 8 8 9 10 10 12 11 9 12
REMARK SMILES IDX 88 13 13 14 83 15 5 16 4 17 2 18 1 19 3 20 84 21 85 22 86 23
REMARK SMILES IDX 87 24 19 25 20 26 21 27 22 28 23 29 24 30 82 31 25 32 81 33
REMARK SMILES IDX 26 34 27 35 28 36 75 37 29 38 80 39 74 40 76 41 30 42 79 43
REMARK SMILES IDX 73 44 72 45 31 47 61 48 42 49 60 50 43 51 46 52 59 53 77 54
REMARK SMILES IDX 44 55 45 56 58 58 78 59 47 60 32 61 33 62 41 63 34 64 40 65
REMARK SMILES IDX 35 66 36 67 37 68 38 69 39 70 62 71 63 72 71 73 64 74 70 75
REMARK SMILES IDX 65 76 66 77 67 78 68 79 69 80 48 81 49 82 57 83 50 84 56 85
REMARK SMILES IDX 51 86 52 87 53 88 54 89 55 90
REMARK H PARENT 76 46 46 57
REMARK Flexibility Score: inf
ROOT
ATOM      1  C   UNL A   1      33.538  33.731  27.986  1.00  0.00     0.275 C 
ENDROOT
BRANCH   1   2
ATOM      2  O   UNL A   1      34.352  34.055  29.134  1.00  0.00    -0.459 OA
BRANCH   2   3
ATOM      3  C   UNL A   1      33.708  34.648  30.166  1.00  0.00     0.338 C 
ATOM      4  O   UNL A   1      32.554  35.032  30.165  1.00  0.00    -0.246 OA
BRANCH   3   5
ATOM      5  C   UNL A   1      34.581  34.719  31.357  1.00  0.00     0.087 C 
ATOM      6  C   UNL A   1      38.497  34.284  34.492  1.00  0.00     0.030 A 
ATOM      7  C   UNL A   1      37.102  34.336  34.663  1.00  0.00     0.063 A 
ATOM      8  C   UNL A   1      39.019  34.355  33.187  1.00  0.00     0.055 A 
ATOM      9  C   UNL A   1      36.250  34.475  33.567  1.00  0.00     0.129 A 
ATOM     10  C   UNL A   1      38.162  34.455  32.089  1.00  0.00     0.033 A 
ATOM     11  Cl  UNL A   1      40.717  34.326  32.853  1.00  0.00    -0.083 Cl
ATOM     12  C   UNL A   1      36.780  34.492  32.283  1.00  0.00     0.019 A 
ATOM     13  O   UNL A   1      34.906  34.528  33.819  1.00  0.00    -0.475 OA
ATOM     14  C   UNL A   1      35.879  34.462  31.150  1.00  0.00     0.027 C 
ATOM     15  C   UNL A   1      34.016  34.948  32.733  1.00  0.00     0.316 C 
BRANCH   6  16
ATOM     16  S   UNL A   1      39.568  34.071  35.914  1.00  0.00    -0.124 SA
BRANCH  16  17
ATOM     17  C   UNL A   1      39.409  32.290  36.280  1.00  0.00     0.078 C 
BRANCH  17  18
ATOM     18  C   UNL A   1      39.717  31.339  35.110  1.00  0.00    -0.007 C 
ATOM     19  C   UNL A   1      40.672  30.202  35.475  1.00  0.00     0.008 C 
ATOM     20  C   UNL A   1      38.398  30.739  34.610  1.00  0.00     0.008 C 
ENDBRANCH  17  18
ENDBRANCH  16  17
ENDBRANCH   6  16
BRANCH  15  21
ATOM     21  C   UNL A   1      33.490  36.372  32.999  1.00  0.00     0.430 C 
ATOM     22  F   UNL A   1      32.134  36.416  32.943  1.00  0.00    -0.167 F 
ATOM     23  F   UNL A   1      33.854  36.849  34.206  1.00  0.00    -0.167 F 
ATOM     24  F   UNL A   1      33.928  37.241  32.054  1.00  0.00    -0.167 F 
ENDBRANCH  15  21
ENDBRANCH   3   5
ENDBRANCH   2   3
ENDBRANCH   1   2
BRANCH   1  25
ATOM     25  C   UNL A   1      33.278  32.227  27.895  1.00  0.00     0.275 C 
BRANCH  25  26
ATOM     26  O   UNL A   1      34.426  31.548  27.354  1.00  0.00    -0.458 OA
BRANCH  26  27
ATOM     27  C   UNL A   1      34.554  30.248  27.704  1.00  0.00     0.338 C 
ATOM     28  O   UNL A   1      33.731  29.358  27.567  1.00  0.00    -0.246 OA
BRANCH  27  29
ATOM     29  C   UNL A   1      35.912  30.012  28.213  1.00  0.00     0.060 A 
ATOM     30  C   UNL A   1      36.134  29.474  29.477  1.00  0.00     0.016 A 
ATOM     31  C   UNL A   1      36.978  30.210  27.342  1.00  0.00     0.016 A 
ATOM     32  C   UNL A   1      37.443  29.154  29.859  1.00  0.00     0.010 A 
ATOM     33  C   UNL A   1      38.263  29.798  27.683  1.00  0.00     0.010 A 
ATOM     34  C   UNL A   1      38.520  29.279  28.956  1.00  0.00    -0.014 A 
BRANCH  34  35
ATOM     35  C   UNL A   1      39.899  28.844  29.326  1.00  0.00     0.031 A 
ATOM     36  C   UNL A   1      40.787  29.708  30.190  1.00  0.00     0.074 A 
ATOM     37  C   UNL A   1      40.378  27.676  28.847  1.00  0.00     0.049 A 
ATOM     38  N   UNL A   1      41.999  29.464  30.625  1.00  0.00    -0.248 NA
ATOM     39  C   UNL A   1      40.269  31.026  30.595  1.00  0.00     0.031 C 
ATOM     40  C   UNL A   1      39.663  26.788  27.928  1.00  0.00     0.029 A 
ATOM     41  N   UNL A   1      41.566  27.023  29.079  1.00  0.00    -0.354 N 
ATOM     42  C   UNL A   1      42.388  30.596  31.334  1.00  0.00     0.074 A 
ATOM     43  C   UNL A   1      41.312  31.555  31.218  1.00  0.00     0.031 C 
ATOM     44  C   UNL A   1      40.386  25.673  27.743  1.00  0.00     0.029 A 
ATOM     45  C   UNL A   1      41.636  25.782  28.489  1.00  0.00     0.049 A 
ATOM     46  H   UNL A   1      42.295  27.407  29.617  1.00  0.00     0.167 HD
ATOM     47  C   UNL A   1      43.518  30.807  32.050  1.00  0.00     0.031 A 
ATOM     48  C   UNL A   1      42.582  24.822  28.556  1.00  0.00     0.031 A 
ATOM     49  C   UNL A   1      44.564  29.832  32.207  1.00  0.00     0.049 A 
ATOM     50  C   UNL A   1      43.803  25.051  29.401  1.00  0.00     0.074 A 
ATOM     51  C   UNL A   1      45.712  29.925  32.975  1.00  0.00     0.029 A 
ATOM     52  N   UNL A   1      44.586  28.584  31.601  1.00  0.00    -0.354 N 
ATOM     53  N   UNL A   1      44.115  26.101  30.122  1.00  0.00    -0.248 NA
ATOM     54  C   UNL A   1      44.794  23.966  29.456  1.00  0.00     0.031 C 
ATOM     55  C   UNL A   1      46.451  28.752  32.800  1.00  0.00     0.029 A 
ATOM     56  C   UNL A   1      45.734  27.903  31.971  1.00  0.00     0.049 A 
ATOM     57  H   UNL A   1      43.891  28.236  31.000  1.00  0.00     0.167 HD
ATOM     58  C   UNL A   1      45.332  25.799  30.724  1.00  0.00     0.074 A 
ATOM     59  C   UNL A   1      45.690  24.461  30.302  1.00  0.00     0.031 C 
ATOM     60  C   UNL A   1      46.082  26.570  31.548  1.00  0.00     0.031 A 
BRANCH  47  61
ATOM     61  C   UNL A   1      43.673  32.122  32.773  1.00  0.00    -0.014 A 
ATOM     62  C   UNL A   1      44.283  33.216  32.131  1.00  0.00     0.010 A 
ATOM     63  C   UNL A   1      43.317  32.241  34.129  1.00  0.00     0.010 A 
ATOM     64  C   UNL A   1      44.553  34.394  32.834  1.00  0.00     0.020 A 
ATOM     65  C   UNL A   1      43.558  33.427  34.828  1.00  0.00     0.020 A 
ATOM     66  C   UNL A   1      44.195  34.489  34.182  1.00  0.00     0.054 A 
BRANCH  66  67
ATOM     67  S   UNL A   1      44.561  36.017  35.087  1.00  0.00     0.124 S 
ATOM     68  O   UNL A   1      44.903  35.516  36.415  1.00  0.00    -0.237 OA
ATOM     69  O   UNL A   1      45.667  36.588  34.322  1.00  0.00    -0.237 OA
ATOM     70  O   UNL A   1      43.310  36.769  35.005  1.00  0.00    -0.744 OA
ENDBRANCH  66  67
ENDBRANCH  47  61
BRANCH  48  71
ATOM     71  C   UNL A   1      42.347  23.527  27.860  1.00  0.00    -0.014 A 
ATOM     72  C   UNL A   1      41.643  22.485  28.493  1.00  0.00     0.010 A 
ATOM     73  C   UNL A   1      42.922  23.293  26.597  1.00  0.00     0.010 A 
ATOM     74  C   UNL A   1      41.571  21.219  27.905  1.00  0.00     0.020 A 
ATOM     75  C   UNL A   1      42.827  22.035  25.994  1.00  0.00     0.020 A 
ATOM     76  C   UNL A   1      42.180  20.997  26.667  1.00  0.00     0.054 A 
BRANCH  76  77
ATOM     77  S   UNL A   1      42.136  19.329  25.955  1.00  0.00     0.124 S 
ATOM     78  O   UNL A   1      40.712  19.160  25.677  1.00  0.00    -0.237 OA
ATOM     79  O   UNL A   1      42.995  19.457  24.781  1.00  0.00    -0.237 OA
ATOM     80  O   UNL A   1      42.668  18.488  27.023  1.00  0.00    -0.744 OA
ENDBRANCH  76  77
ENDBRANCH  48  71
BRANCH  60  81
ATOM     81  C   UNL A   1      47.381  26.011  32.064  1.00  0.00    -0.014 A 
ATOM     82  C   UNL A   1      48.527  26.047  31.248  1.00  0.00     0.010 A 
ATOM     83  C   UNL A   1      47.427  25.312  33.283  1.00  0.00     0.010 A 
ATOM     84  C   UNL A   1      49.684  25.358  31.620  1.00  0.00     0.020 A 
ATOM     85  C   UNL A   1      48.590  24.642  33.670  1.00  0.00     0.020 A 
ATOM     86  C   UNL A   1      49.702  24.646  32.823  1.00  0.00     0.054 A 
BRANCH  86  87
ATOM     87  S   UNL A   1      51.192  23.710  33.264  1.00  0.00     0.124 S 
ATOM     88  O   UNL A   1      50.950  22.424  32.618  1.00  0.00    -0.237 OA
ATOM     89  O   UNL A   1      52.263  24.515  32.682  1.00  0.00    -0.237 OA
ATOM     90  O   UNL A   1      51.164  23.691  34.725  1.00  0.00    -0.744 OA
ENDBRANCH  86  87
ENDBRANCH  60  81
ENDBRANCH  34  35
ENDBRANCH  27  29
ENDBRANCH  26  27
ENDBRANCH  25  26
ENDBRANCH   1  25
TORSDOF 18
ENDMDL
MODEL 2
REMARK VINA RESULT:      -9.7      4.427      7.597
REMARK SMILES CC(C)CSc1cc2c(cc1Cl)C=C(C(=O)OCCOC(=O)c1ccc(-c3c4nc(c(-c5ccc(S(=O)(=O)[O-])cc5)c5ccc([nH]5)c(-c5ccc(S(=O)(=O)[O-])cc5)c5nc(c(-c6ccc(S(=O)(=O)[O-])cc6)c6ccc3[nH]6)C=C5)C=C4)cc1)[C@H](C(F)(F)F)O2
REMARK SMILES IDX 18 1 17 2 15 3 16 4 14 5 6 6 7 7 11 8 8 9 10 10 12 11 9 12
REMARK SMILES IDX 88 13 13 14 83 15 5 16 4 17 2 18 1 19 3 20 84 21 85 22 86 23
REMARK SMILES IDX 87 24 19 25 20 26 21 27 22 28 23 29 24 30 82 31 25 32 81 33
REMARK SMILES IDX 26 34 27 35 28 36 75 37 29 38 80 39 74 40 76 41 30 42 79 43
REMARK SMILES IDX 73 44 72 45 31 47 61 48 42 49 60 50 43 51 46 52 59 53 77 54
REMARK SMILES IDX 44 55 45 56 58 58 78 59 47 60 32 61 33 62 41 63 34 64 40 65
REMARK SMILES IDX 35 66 36 67 37 68 38 69 39 70 62 71 63 72 71 73 64 74 70 75
REMARK SMILES IDX 65 76 66 77 67 78 68 79 69 80 48 81 49 82 57 83 50 84 56 85
REMARK SMILES IDX 51 86 52 87 53 88 54 89 55 90
REMARK H PARENT 76 46 46 57
REMARK Flexibility Score: inf
ROOT
ATOM      1  C   UNL A   1      33.674  28.531  25.139  1.00  0.00     0.275 C 
ENDROOT
BRANCH   1   2
ATOM      2  O   UNL A   1      32.686  27.528  24.818  1.00  0.00    -0.459 OA
BRANCH   2   3
ATOM      3  C   UNL A   1      32.250  26.775  25.853  1.00  0.00     0.338 C 
ATOM      4  O   UNL A   1      31.535  27.152  26.763  1.00  0.00    -0.246 OA
BRANCH   3   5
ATOM      5  C   UNL A   1      32.707  25.376  25.712  1.00  0.00     0.087 C 
ATOM      6  C   UNL A   1      35.575  21.282  25.108  1.00  0.00     0.030 A 
ATOM      7  C   UNL A   1      34.239  21.598  24.807  1.00  0.00     0.063 A 
ATOM      8  C   UNL A   1      36.382  22.266  25.711  1.00  0.00     0.055 A 
ATOM      9  C   UNL A   1      33.712  22.853  25.115  1.00  0.00     0.129 A 
ATOM     10  C   UNL A   1      35.863  23.533  25.983  1.00  0.00     0.033 A 
ATOM     11  Cl  UNL A   1      38.033  21.986  26.152  1.00  0.00    -0.083 Cl
ATOM     12  C   UNL A   1      34.537  23.829  25.663  1.00  0.00     0.019 A 
ATOM     13  O   UNL A   1      32.401  23.079  24.798  1.00  0.00    -0.475 OA
ATOM     14  C   UNL A   1      34.026  25.174  25.817  1.00  0.00     0.027 C 
ATOM     15  C   UNL A   1      31.751  24.270  25.353  1.00  0.00     0.316 C 
BRANCH   6  16
ATOM     16  S   UNL A   1      36.237  19.674  24.672  1.00  0.00    -0.124 SA
BRANCH  16  17
ATOM     17  C   UNL A   1      34.734  18.672  24.411  1.00  0.00     0.078 C 
BRANCH  17  18
ATOM     18  C   UNL A   1      34.962  17.159  24.247  1.00  0.00    -0.007 C 
ATOM     19  C   UNL A   1      34.580  16.341  25.482  1.00  0.00     0.008 C 
ATOM     20  C   UNL A   1      34.136  16.668  23.052  1.00  0.00     0.008 C 
ENDBRANCH  17  18
ENDBRANCH  16  17
ENDBRANCH   6  16
BRANCH  15  21
ATOM     21  C   UNL A   1      30.765  23.865  26.467  1.00  0.00     0.430 C 
ATOM     22  F   UNL A   1      31.387  23.787  27.672  1.00  0.00    -0.167 F 
ATOM     23  F   UNL A   1      29.740  24.730  26.602  1.00  0.00    -0.167 F 
ATOM     24  F   UNL A   1      30.246  22.632  26.239  1.00  0.00    -0.167 F 
ENDBRANCH  15  21
ENDBRANCH   3   5
ENDBRANCH   2   3
ENDBRANCH   1   2
BRANCH   1  25
ATOM     25  C   UNL A   1      33.054  29.698  25.908  1.00  0.00     0.275 C 
BRANCH  25  26
ATOM     26  O   UNL A   1      33.496  29.692  27.278  1.00  0.00    -0.458 OA
BRANCH  26  27
ATOM     27  C   UNL A   1      34.367  30.670  27.615  1.00  0.00     0.338 C 
ATOM     28  O   UNL A   1      34.131  31.859  27.748  1.00  0.00    -0.246 OA
BRANCH  27  29
ATOM     29  C   UNL A   1      35.679  30.077  27.904  1.00  0.00     0.060 A 
ATOM     30  C   UNL A   1      36.730  30.154  26.996  1.00  0.00     0.016 A 
ATOM     31  C   UNL A   1      35.891  29.551  29.174  1.00  0.00     0.016 A 
ATOM     32  C   UNL A   1      37.994  29.682  27.377  1.00  0.00     0.010 A 
ATOM     33  C   UNL A   1      37.167  29.177  29.587  1.00  0.00     0.010 A 
ATOM     34  C   UNL A   1      38.237  29.219  28.687  1.00  0.00    -0.014 A 
BRANCH  34  35
ATOM     35  C   UNL A   1      39.604  28.810  29.125  1.00  0.00     0.031 A 
ATOM     36  C   UNL A   1      40.434  29.694  30.026  1.00  0.00     0.074 A 
ATOM     37  C   UNL A   1      40.125  27.648  28.677  1.00  0.00     0.049 A 
ATOM     38  N   UNL A   1      41.628  29.473  30.520  1.00  0.00    -0.248 NA
ATOM     39  C   UNL A   1      39.874  31.005  30.398  1.00  0.00     0.031 C 
ATOM     40  C   UNL A   1      39.471  26.742  27.730  1.00  0.00     0.029 A 
ATOM     41  N   UNL A   1      41.311  27.017  28.970  1.00  0.00    -0.354 N 
ATOM     42  C   UNL A   1      41.962  30.616  31.240  1.00  0.00     0.074 A 
ATOM     43  C   UNL A   1      40.877  31.554  31.066  1.00  0.00     0.031 C 
ATOM     44  C   UNL A   1      40.221  25.639  27.587  1.00  0.00     0.029 A 
ATOM     45  C   UNL A   1      41.431  25.774  28.392  1.00  0.00     0.049 A 
ATOM     46  H   UNL A   1      42.007  27.416  29.540  1.00  0.00     0.167 HD
ATOM     47  C   UNL A   1      43.053  30.850  32.008  1.00  0.00     0.031 A 
ATOM     48  C   UNL A   1      42.389  24.831  28.510  1.00  0.00     0.031 A 
ATOM     49  C   UNL A   1      44.107  29.894  32.221  1.00  0.00     0.049 A 
ATOM     50  C   UNL A   1      43.564  25.085  29.412  1.00  0.00     0.074 A 
ATOM     51  C   UNL A   1      45.215  30.011  33.043  1.00  0.00     0.029 A 
ATOM     52  N   UNL A   1      44.180  28.644  31.625  1.00  0.00    -0.354 N 
ATOM     53  N   UNL A   1      43.823  26.145  30.140  1.00  0.00    -0.248 NA
ATOM     54  C   UNL A   1      44.569  24.018  29.520  1.00  0.00     0.031 C 
ATOM     55  C   UNL A   1      45.981  28.850  32.911  1.00  0.00     0.029 A 
ATOM     56  C   UNL A   1      45.320  27.985  32.053  1.00  0.00     0.049 A 
ATOM     57  H   UNL A   1      43.520  28.280  30.993  1.00  0.00     0.167 HD
ATOM     58  C   UNL A   1      45.014  25.868  30.802  1.00  0.00     0.074 A 
ATOM     59  C   UNL A   1      45.415  24.534  30.405  1.00  0.00     0.031 C 
ATOM     60  C   UNL A   1      45.710  26.656  31.656  1.00  0.00     0.031 A 
BRANCH  47  61
ATOM     61  C   UNL A   1      43.150  32.171  32.730  1.00  0.00    -0.014 A 
ATOM     62  C   UNL A   1      42.597  32.317  34.016  1.00  0.00     0.010 A 
ATOM     63  C   UNL A   1      43.687  33.301  32.088  1.00  0.00     0.010 A 
ATOM     64  C   UNL A   1      42.562  33.570  34.638  1.00  0.00     0.020 A 
ATOM     65  C   UNL A   1      43.681  34.549  32.717  1.00  0.00     0.020 A 
ATOM     66  C   UNL A   1      43.098  34.680  33.979  1.00  0.00     0.054 A 
BRANCH  66  67
ATOM     67  S   UNL A   1      43.035  36.301  34.790  1.00  0.00     0.124 S 
ATOM     68  O   UNL A   1      42.871  37.207  33.657  1.00  0.00    -0.237 OA
ATOM     69  O   UNL A   1      41.878  36.176  35.673  1.00  0.00    -0.237 OA
ATOM     70  O   UNL A   1      44.323  36.388  35.478  1.00  0.00    -0.744 OA
ENDBRANCH  66  67
ENDBRANCH  47  61
BRANCH  48  71
ATOM     71  C   UNL A   1      42.211  23.528  27.811  1.00  0.00    -0.014 A 
ATOM     72  C   UNL A   1      41.353  22.542  28.333  1.00  0.00     0.010 A 
ATOM     73  C   UNL A   1      42.983  23.228  26.674  1.00  0.00     0.010 A 
ATOM     74  C   UNL A   1      41.316  21.264  27.769  1.00  0.00     0.020 A 
ATOM     75  C   UNL A   1      42.928  21.959  26.090  1.00  0.00     0.020 A 
ATOM     76  C   UNL A   1      42.119  20.975  26.662  1.00  0.00     0.054 A 
BRANCH  76  77
ATOM     77  S   UNL A   1      42.111  19.290  25.989  1.00  0.00     0.124 S 
ATOM     78  O   UNL A   1      40.688  19.075  25.737  1.00  0.00    -0.237 OA
ATOM     79  O   UNL A   1      42.948  19.414  24.799  1.00  0.00    -0.237 OA
ATOM     80  O   UNL A   1      42.682  18.488  27.068  1.00  0.00    -0.744 OA
ENDBRANCH  76  77
ENDBRANCH  48  71
BRANCH  60  81
ATOM     81  C   UNL A   1      46.993  26.122  32.238  1.00  0.00    -0.014 A 
ATOM     82  C   UNL A   1      48.198  26.282  31.528  1.00  0.00     0.010 A 
ATOM     83  C   UNL A   1      46.978  25.330  33.398  1.00  0.00     0.010 A 
ATOM     84  C   UNL A   1      49.357  25.623  31.944  1.00  0.00     0.020 A 
ATOM     85  C   UNL A   1      48.142  24.689  33.831  1.00  0.00     0.020 A 
ATOM     86  C   UNL A   1      49.318  24.817  33.086  1.00  0.00     0.054 A 
BRANCH  86  87
ATOM     87  S   UNL A   1      50.817  23.924  33.580  1.00  0.00     0.124 S 
ATOM     88  O   UNL A   1      50.779  22.754  32.709  1.00  0.00    -0.237 OA
ATOM     89  O   UNL A   1      51.876  24.889  33.293  1.00  0.00    -0.237 OA
ATOM     90  O   UNL A   1      50.602  23.654  35.000  1.00  0.00    -0.744 OA
ENDBRANCH  86  87
ENDBRANCH  60  81
ENDBRANCH  34  35
ENDBRANCH  27  29
ENDBRANCH  26  27
ENDBRANCH  25  26
ENDBRANCH   1  25
TORSDOF 18
ENDMDL
MODEL 3
REMARK VINA RESULT:      -9.5      5.679     12.341
REMARK SMILES CC(C)CSc1cc2c(cc1Cl)C=C(C(=O)OCCOC(=O)c1ccc(-c3c4nc(c(-c5ccc(S(=O)(=O)[O-])cc5)c5ccc([nH]5)c(-c5ccc(S(=O)(=O)[O-])cc5)c5nc(c(-c6ccc(S(=O)(=O)[O-])cc6)c6ccc3[nH]6)C=C5)C=C4)cc1)[C@H](C(F)(F)F)O2
REMARK SMILES IDX 18 1 17 2 15 3 16 4 14 5 6 6 7 7 11 8 8 9 10 10 12 11 9 12
REMARK SMILES IDX 88 13 13 14 83 15 5 16 4 17 2 18 1 19 3 20 84 21 85 22 86 23
REMARK SMILES IDX 87 24 19 25 20 26 21 27 22 28 23 29 24 30 82 31 25 32 81 33
REMARK SMILES IDX 26 34 27 35 28 36 75 37 29 38 80 39 74 40 76 41 30 42 79 43
REMARK SMILES IDX 73 44 72 45 31 47 61 48 42 49 60 50 43 51 46 52 59 53 77 54
REMARK SMILES IDX 44 55 45 56 58 58 78 59 47 60 32 61 33 62 41 63 34 64 40 65
REMARK SMILES IDX 35 66 36 67 37 68 38 69 39 70 62 71 63 72 71 73 64 74 70 75
REMARK SMILES IDX 65 76 66 77 67 78 68 79 69 80 48 81 49 82 57 83 50 84 56 85
REMARK SMILES IDX 51 86 52 87 53 88 54 89 55 90
REMARK H PARENT 76 46 46 57
REMARK Flexibility Score: inf
ROOT
ATOM      1  C   UNL A   1      38.943  22.093  26.126  1.00  0.00     0.275 C 
ENDROOT
BRANCH   1   2
ATOM      2  O   UNL A   1      37.731  22.754  25.706  1.00  0.00    -0.459 OA
BRANCH   2   3
ATOM      3  C   UNL A   1      36.704  21.944  25.362  1.00  0.00     0.338 C 
ATOM      4  O   UNL A   1      36.760  20.737  25.220  1.00  0.00    -0.246 OA
BRANCH   3   5
ATOM      5  C   UNL A   1      35.448  22.714  25.237  1.00  0.00     0.087 C 
ATOM      6  C   UNL A   1      32.108  26.363  24.301  1.00  0.00     0.030 A 
ATOM      7  C   UNL A   1      32.167  25.295  25.215  1.00  0.00     0.063 A 
ATOM      8  C   UNL A   1      33.179  26.544  23.406  1.00  0.00     0.055 A 
ATOM      9  C   UNL A   1      33.253  24.419  25.224  1.00  0.00     0.129 A 
ATOM     10  C   UNL A   1      34.282  25.690  23.444  1.00  0.00     0.033 A 
ATOM     11  Cl  UNL A   1      33.208  27.806  22.221  1.00  0.00    -0.083 Cl
ATOM     12  C   UNL A   1      34.324  24.644  24.368  1.00  0.00     0.019 A 
ATOM     13  O   UNL A   1      33.229  23.400  26.137  1.00  0.00    -0.475 OA
ATOM     14  C   UNL A   1      35.516  23.834  24.507  1.00  0.00     0.027 C 
ATOM     15  C   UNL A   1      34.205  22.317  25.988  1.00  0.00     0.316 C 
BRANCH   6  16
ATOM     16  S   UNL A   1      30.717  27.494  24.332  1.00  0.00    -0.124 SA
BRANCH  16  17
ATOM     17  C   UNL A   1      31.393  28.947  25.206  1.00  0.00     0.078 C 
BRANCH  17  18
ATOM     18  C   UNL A   1      32.398  28.640  26.330  1.00  0.00    -0.007 C 
ATOM     19  C   UNL A   1      33.421  29.753  26.563  1.00  0.00     0.008 C 
ATOM     20  C   UNL A   1      31.618  28.404  27.629  1.00  0.00     0.008 C 
ENDBRANCH  17  18
ENDBRANCH  16  17
ENDBRANCH   6  16
BRANCH  15  21
ATOM     21  C   UNL A   1      33.507  21.042  25.476  1.00  0.00     0.430 C 
ATOM     22  F   UNL A   1      32.177  21.247  25.291  1.00  0.00    -0.167 F 
ATOM     23  F   UNL A   1      34.009  20.602  24.305  1.00  0.00    -0.167 F 
ATOM     24  F   UNL A   1      33.603  20.033  26.379  1.00  0.00    -0.167 F 
ENDBRANCH  15  21
ENDBRANCH   3   5
ENDBRANCH   2   3
ENDBRANCH   1   2
BRANCH   1  25
ATOM     25  C   UNL A   1      39.898  23.065  26.819  1.00  0.00     0.275 C 
BRANCH  25  26
ATOM     26  O   UNL A   1      39.201  24.260  27.216  1.00  0.00    -0.458 OA
BRANCH  26  27
ATOM     27  C   UNL A   1      39.844  25.422  26.962  1.00  0.00     0.338 C 
ATOM     28  O   UNL A   1      40.412  25.747  25.933  1.00  0.00    -0.246 OA
BRANCH  27  29
ATOM     29  C   UNL A   1      39.688  26.327  28.109  1.00  0.00     0.060 A 
ATOM     30  C   UNL A   1      38.915  25.980  29.212  1.00  0.00     0.016 A 
ATOM     31  C   UNL A   1      40.448  27.492  28.128  1.00  0.00     0.016 A 
ATOM     32  C   UNL A   1      38.904  26.827  30.329  1.00  0.00     0.010 A 
ATOM     33  C   UNL A   1      40.516  28.280  29.274  1.00  0.00     0.010 A 
ATOM     34  C   UNL A   1      39.730  27.969  30.388  1.00  0.00    -0.014 A 
BRANCH  34  35
ATOM     35  C   UNL A   1      39.796  28.817  31.615  1.00  0.00     0.031 A 
ATOM     36  C   UNL A   1      40.910  28.651  32.622  1.00  0.00     0.074 A 
ATOM     37  C   UNL A   1      38.822  29.722  31.850  1.00  0.00     0.049 A 
ATOM     38  N   UNL A   1      41.128  29.325  33.724  1.00  0.00    -0.248 NA
ATOM     39  C   UNL A   1      41.887  27.574  32.385  1.00  0.00     0.031 C 
ATOM     40  C   UNL A   1      37.640  29.923  31.009  1.00  0.00     0.029 A 
ATOM     41  N   UNL A   1      38.677  30.655  32.850  1.00  0.00    -0.354 N 
ATOM     42  C   UNL A   1      42.247  28.746  34.313  1.00  0.00     0.074 A 
ATOM     43  C   UNL A   1      42.626  27.626  33.483  1.00  0.00     0.031 C 
ATOM     44  C   UNL A   1      36.939  30.967  31.478  1.00  0.00     0.029 A 
ATOM     45  C   UNL A   1      37.592  31.483  32.677  1.00  0.00     0.049 A 
ATOM     46  H   UNL A   1      39.292  30.723  33.615  1.00  0.00     0.167 HD
ATOM     47  C   UNL A   1      42.924  29.134  35.420  1.00  0.00     0.031 A 
ATOM     48  C   UNL A   1      37.175  32.555  33.383  1.00  0.00     0.031 A 
ATOM     49  C   UNL A   1      42.575  30.281  36.216  1.00  0.00     0.049 A 
ATOM     50  C   UNL A   1      37.970  33.004  34.576  1.00  0.00     0.074 A 
ATOM     51  C   UNL A   1      43.245  30.798  37.311  1.00  0.00     0.029 A 
ATOM     52  N   UNL A   1      41.476  31.097  35.996  1.00  0.00    -0.354 N 
ATOM     53  N   UNL A   1      39.068  32.485  35.072  1.00  0.00    -0.248 NA
ATOM     54  C   UNL A   1      37.484  34.189  35.299  1.00  0.00     0.031 C 
ATOM     55  C   UNL A   1      42.527  31.900  37.782  1.00  0.00     0.029 A 
ATOM     56  C   UNL A   1      41.443  32.107  36.943  1.00  0.00     0.049 A 
ATOM     57  H   UNL A   1      40.818  30.977  35.275  1.00  0.00     0.167 HD
ATOM     58  C   UNL A   1      39.409  33.285  36.157  1.00  0.00     0.074 A 
ATOM     59  C   UNL A   1      38.416  34.336  36.234  1.00  0.00     0.031 C 
ATOM     60  C   UNL A   1      40.452  33.151  37.011  1.00  0.00     0.031 A 
BRANCH  47  61
ATOM     61  C   UNL A   1      44.150  28.351  35.821  1.00  0.00    -0.014 A 
ATOM     62  C   UNL A   1      44.044  27.292  36.742  1.00  0.00     0.010 A 
ATOM     63  C   UNL A   1      45.426  28.738  35.372  1.00  0.00     0.010 A 
ATOM     64  C   UNL A   1      45.190  26.649  37.222  1.00  0.00     0.020 A 
ATOM     65  C   UNL A   1      46.571  28.079  35.826  1.00  0.00     0.020 A 
ATOM     66  C   UNL A   1      46.448  27.053  36.766  1.00  0.00     0.054 A 
BRANCH  66  67
ATOM     67  S   UNL A   1      47.927  26.220  37.405  1.00  0.00     0.124 S 
ATOM     68  O   UNL A   1      47.938  26.638  38.804  1.00  0.00    -0.237 OA
ATOM     69  O   UNL A   1      47.630  24.809  37.168  1.00  0.00    -0.237 OA
ATOM     70  O   UNL A   1      49.006  26.764  36.582  1.00  0.00    -0.744 OA
ENDBRANCH  66  67
ENDBRANCH  47  61
BRANCH  48  71
ATOM     71  C   UNL A   1      35.986  33.314  32.908  1.00  0.00    -0.014 A 
ATOM     72  C   UNL A   1      36.106  34.278  31.890  1.00  0.00     0.010 A 
ATOM     73  C   UNL A   1      34.744  33.151  33.549  1.00  0.00     0.010 A 
ATOM     74  C   UNL A   1      35.027  35.104  31.564  1.00  0.00     0.020 A 
ATOM     75  C   UNL A   1      33.654  33.957  33.206  1.00  0.00     0.020 A 
ATOM     76  C   UNL A   1      33.812  34.951  32.239  1.00  0.00     0.054 A 
BRANCH  76  77
ATOM     77  S   UNL A   1      32.446  36.080  31.852  1.00  0.00     0.124 S 
ATOM     78  O   UNL A   1      31.314  35.407  32.484  1.00  0.00    -0.237 OA
ATOM     79  O   UNL A   1      32.869  37.327  32.483  1.00  0.00    -0.237 OA
ATOM     80  O   UNL A   1      32.424  36.101  30.391  1.00  0.00    -0.744 OA
ENDBRANCH  76  77
ENDBRANCH  48  71
BRANCH  60  81
ATOM     81  C   UNL A   1      40.598  34.154  38.124  1.00  0.00    -0.014 A 
ATOM     82  C   UNL A   1      40.065  33.865  39.395  1.00  0.00     0.010 A 
ATOM     83  C   UNL A   1      41.115  35.436  37.871  1.00  0.00     0.010 A 
ATOM     84  C   UNL A   1      40.007  34.854  40.380  1.00  0.00     0.020 A 
ATOM     85  C   UNL A   1      41.081  36.420  38.862  1.00  0.00     0.020 A 
ATOM     86  C   UNL A   1      40.502  36.131  40.101  1.00  0.00     0.054 A 
BRANCH  86  87
ATOM     87  S   UNL A   1      40.368  37.419  41.371  1.00  0.00     0.124 S 
ATOM     88  O   UNL A   1      41.699  37.402  41.969  1.00  0.00    -0.237 OA
ATOM     89  O   UNL A   1      40.045  38.611  40.589  1.00  0.00    -0.237 OA
ATOM     90  O   UNL A   1      39.290  36.940  42.233  1.00  0.00    -0.744 OA
ENDBRANCH  86  87
ENDBRANCH  60  81
ENDBRANCH  34  35
ENDBRANCH  27  29
ENDBRANCH  26  27
ENDBRANCH  25  26
ENDBRANCH   1  25
TORSDOF 18
ENDMDL
