MODEL 1
REMARK VINA RESULT:      -8.8      0.000      0.000
REMARK SMILES CC[C@@H](C)[NH2+][C@H](CN=[N+]=[N-])C(=O)OCCOC(=O)c1ccc(-c2c3nc(c(-c4ccc(S(=O)(=O)[O-])cc4)c4ccc([nH]4)c(-c4ccc(S(=O)(=O)[O-])cc4)c4nc(c(-c5ccc(S(=O)(=O)[O-])cc5)c5ccc2[nH]5)C=C4)C=C3)cc1
REMARK SMILES IDX 14 1 13 2 11 3 12 4 6 5 5 6 3 9 4 10 2 11 1 12 7 13 8 14
REMARK SMILES IDX 9 15 10 16 15 17 16 18 17 19 18 20 19 21 20 22 78 23 21 24
REMARK SMILES IDX 77 25 22 26 23 27 24 28 71 29 25 30 76 31 70 32 72 33 26 34
REMARK SMILES IDX 75 35 69 36 68 37 27 39 57 40 38 41 56 42 39 43 42 44 55 45
REMARK SMILES IDX 73 46 40 47 41 48 54 50 74 51 43 52 28 53 29 54 37 55 30 56
REMARK SMILES IDX 36 57 31 58 32 59 33 60 34 61 35 62 58 63 59 64 67 65 60 66
REMARK SMILES IDX 66 67 61 68 62 69 63 70 64 71 65 72 44 73 45 74 53 75 46 76
REMARK SMILES IDX 52 77 47 78 48 79 49 80 50 81 51 82
REMARK H PARENT 5 7 5 8 72 38 42 49
REMARK Flexibility Score: inf
ROOT
ATOM      1  C   UNL A   1      33.122  29.290  25.340  1.00  0.00     0.274 C 
ENDROOT
BRANCH   1   2
ATOM      2  O   UNL A   1      32.426  28.399  24.449  1.00  0.00    -0.458 OA
BRANCH   2   3
ATOM      3  C   UNL A   1      32.608  28.640  23.122  1.00  0.00     0.365 C 
ATOM      4  O   UNL A   1      33.697  28.887  22.609  1.00  0.00    -0.245 OA
BRANCH   3   5
ATOM      5  C   UNL A   1      31.294  28.628  22.310  1.00  0.00     0.299 C 
BRANCH   5   6
ATOM      6  N   UNL A   1      30.678  29.947  22.510  1.00  0.00    -0.332 N 
ATOM      7  H   UNL A   1      31.068  30.330  23.371  1.00  0.00     0.347 HD
ATOM      8  H   UNL A   1      30.890  30.446  21.646  1.00  0.00     0.347 HD
BRANCH   6   9
ATOM      9  C   UNL A   1      29.237  30.050  22.618  1.00  0.00     0.179 C 
ATOM     10  C   UNL A   1      28.618  30.472  21.283  1.00  0.00     0.075 C 
BRANCH   9  11
ATOM     11  C   UNL A   1      28.976  31.099  23.712  1.00  0.00     0.061 C 
ATOM     12  C   UNL A   1      27.539  31.591  23.717  1.00  0.00     0.010 C 
ENDBRANCH   9  11
ENDBRANCH   6   9
ENDBRANCH   5   6
BRANCH   5  13
ATOM     13  C   UNL A   1      30.464  27.336  22.520  1.00  0.00     0.168 C 
BRANCH  13  14
ATOM     14  N   UNL A   1      31.267  26.139  22.199  1.00  0.00    -0.087 NA
ATOM     15  N   UNL A   1      31.469  25.339  23.135  1.00  0.00     0.001 N 
ATOM     16  N   UNL A   1      31.619  24.612  23.996  1.00  0.00    -0.003 NA
ENDBRANCH  13  14
ENDBRANCH   5  13
ENDBRANCH   3   5
ENDBRANCH   2   3
ENDBRANCH   1   2
BRANCH   1  17
ATOM     17  C   UNL A   1      34.041  28.496  26.265  1.00  0.00     0.275 C 
BRANCH  17  18
ATOM     18  O   UNL A   1      33.986  29.043  27.596  1.00  0.00    -0.458 OA
BRANCH  18  19
ATOM     19  C   UNL A   1      34.616  30.228  27.761  1.00  0.00     0.338 C 
ATOM     20  O   UNL A   1      34.153  31.341  27.576  1.00  0.00    -0.246 OA
BRANCH  19  21
ATOM     21  C   UNL A   1      36.011  30.011  28.180  1.00  0.00     0.060 A 
ATOM     22  C   UNL A   1      37.067  30.163  27.280  1.00  0.00     0.016 A 
ATOM     23  C   UNL A   1      36.250  29.516  29.458  1.00  0.00     0.016 A 
ATOM     24  C   UNL A   1      38.349  29.739  27.623  1.00  0.00     0.010 A 
ATOM     25  C   UNL A   1      37.554  29.189  29.837  1.00  0.00     0.010 A 
ATOM     26  C   UNL A   1      38.613  29.267  28.915  1.00  0.00    -0.014 A 
BRANCH  26  27
ATOM     27  C   UNL A   1      39.986  28.863  29.320  1.00  0.00     0.031 A 
ATOM     28  C   UNL A   1      40.890  29.845  30.015  1.00  0.00     0.074 A 
ATOM     29  C   UNL A   1      40.438  27.629  29.014  1.00  0.00     0.049 A 
ATOM     30  N   UNL A   1      42.169  29.750  30.274  1.00  0.00    -0.248 NA
ATOM     31  C   UNL A   1      40.280  31.109  30.461  1.00  0.00     0.031 C 
ATOM     32  C   UNL A   1      39.653  26.570  28.374  1.00  0.00     0.029 A 
ATOM     33  N   UNL A   1      41.676  27.062  29.189  1.00  0.00    -0.354 N 
ATOM     34  C   UNL A   1      42.527  30.954  30.873  1.00  0.00     0.074 A 
ATOM     35  C   UNL A   1      41.334  31.771  30.919  1.00  0.00     0.031 C 
ATOM     36  C   UNL A   1      40.421  25.481  28.225  1.00  0.00     0.029 A 
ATOM     37  C   UNL A   1      41.772  25.788  28.677  1.00  0.00     0.049 A 
ATOM     38  H   UNL A   1      42.422  27.521  29.638  1.00  0.00     0.167 HD
ATOM     39  C   UNL A   1      43.739  31.340  31.341  1.00  0.00     0.031 A 
ATOM     40  C   UNL A   1      42.835  24.972  28.541  1.00  0.00     0.031 A 
ATOM     41  C   UNL A   1      44.918  30.511  31.298  1.00  0.00     0.049 A 
ATOM     42  C   UNL A   1      44.182  25.448  29.007  1.00  0.00     0.074 A 
ATOM     43  C   UNL A   1      46.187  30.798  31.769  1.00  0.00     0.029 A 
ATOM     44  N   UNL A   1      44.974  29.235  30.754  1.00  0.00    -0.354 N 
ATOM     45  N   UNL A   1      44.505  26.589  29.570  1.00  0.00    -0.248 NA
ATOM     46  C   UNL A   1      45.310  24.526  28.820  1.00  0.00     0.031 C 
ATOM     47  C   UNL A   1      47.025  29.725  31.450  1.00  0.00     0.029 A 
ATOM     48  C   UNL A   1      46.262  28.735  30.851  1.00  0.00     0.049 A 
ATOM     49  H   UNL A   1      44.210  28.757  30.359  1.00  0.00     0.167 HD
ATOM     50  C   UNL A   1      45.868  26.509  29.832  1.00  0.00     0.074 A 
ATOM     51  C   UNL A   1      46.304  25.203  29.381  1.00  0.00     0.031 C 
ATOM     52  C   UNL A   1      46.683  27.432  30.397  1.00  0.00     0.031 A 
BRANCH  39  53
ATOM     53  C   UNL A   1      43.867  32.733  31.904  1.00  0.00    -0.014 A 
ATOM     54  C   UNL A   1      43.679  32.996  33.273  1.00  0.00     0.010 A 
ATOM     55  C   UNL A   1      44.229  33.794  31.053  1.00  0.00     0.010 A 
ATOM     56  C   UNL A   1      43.811  34.296  33.771  1.00  0.00     0.020 A 
ATOM     57  C   UNL A   1      44.395  35.089  31.552  1.00  0.00     0.020 A 
ATOM     58  C   UNL A   1      44.167  35.335  32.906  1.00  0.00     0.054 A 
BRANCH  58  59
ATOM     59  S   UNL A   1      44.356  37.006  33.586  1.00  0.00     0.124 S 
ATOM     60  O   UNL A   1      45.790  37.062  33.857  1.00  0.00    -0.237 OA
ATOM     61  O   UNL A   1      43.892  37.852  32.488  1.00  0.00    -0.237 OA
ATOM     62  O   UNL A   1      43.499  37.001  34.769  1.00  0.00    -0.744 OA
ENDBRANCH  58  59
ENDBRANCH  39  53
BRANCH  40  63
ATOM     63  C   UNL A   1      42.668  23.636  27.905  1.00  0.00    -0.014 A 
ATOM     64  C   UNL A   1      43.082  23.418  26.580  1.00  0.00     0.010 A 
ATOM     65  C   UNL A   1      42.108  22.566  28.630  1.00  0.00     0.010 A 
ATOM     66  C   UNL A   1      42.923  22.162  25.986  1.00  0.00     0.020 A 
ATOM     67  C   UNL A   1      41.982  21.300  28.051  1.00  0.00     0.020 A 
ATOM     68  C   UNL A   1      42.379  21.110  26.727  1.00  0.00     0.054 A 
BRANCH  68  69
ATOM     69  S   UNL A   1      42.232  19.479  25.949  1.00  0.00     0.124 S 
ATOM     70  O   UNL A   1      43.165  19.590  24.832  1.00  0.00    -0.237 OA
ATOM     71  O   UNL A   1      42.637  18.579  27.026  1.00  0.00    -0.237 OA
ATOM     72  O   UNL A   1      40.820  19.401  25.580  1.00  0.00    -0.744 OA
ENDBRANCH  68  69
ENDBRANCH  40  63
BRANCH  52  73
ATOM     73  C   UNL A   1      48.125  27.048  30.606  1.00  0.00    -0.014 A 
ATOM     74  C   UNL A   1      49.117  27.369  29.663  1.00  0.00     0.010 A 
ATOM     75  C   UNL A   1      48.498  26.394  31.796  1.00  0.00     0.010 A 
ATOM     76  C   UNL A   1      50.449  27.012  29.889  1.00  0.00     0.020 A 
ATOM     77  C   UNL A   1      49.834  26.067  32.041  1.00  0.00     0.020 A 
ATOM     78  C   UNL A   1      50.799  26.366  31.080  1.00  0.00     0.054 A 
BRANCH  78  79
ATOM     79  S   UNL A   1      52.542  25.956  31.368  1.00  0.00     0.124 S 
ATOM     80  O   UNL A   1      53.103  26.047  30.023  1.00  0.00    -0.237 OA
ATOM     81  O   UNL A   1      52.965  26.999  32.299  1.00  0.00    -0.237 OA
ATOM     82  O   UNL A   1      52.494  24.608  31.931  1.00  0.00    -0.744 OA
ENDBRANCH  78  79
ENDBRANCH  52  73
ENDBRANCH  26  27
ENDBRANCH  19  21
ENDBRANCH  18  19
ENDBRANCH  17  18
ENDBRANCH   1  17
TORSDOF 19
ENDMDL
MODEL 2
REMARK VINA RESULT:      -8.6      3.628      9.735
REMARK SMILES CC[C@@H](C)[NH2+][C@H](CN=[N+]=[N-])C(=O)OCCOC(=O)c1ccc(-c2c3nc(c(-c4ccc(S(=O)(=O)[O-])cc4)c4ccc([nH]4)c(-c4ccc(S(=O)(=O)[O-])cc4)c4nc(c(-c5ccc(S(=O)(=O)[O-])cc5)c5ccc2[nH]5)C=C4)C=C3)cc1
REMARK SMILES IDX 14 1 13 2 11 3 12 4 6 5 5 6 3 9 4 10 2 11 1 12 7 13 8 14
REMARK SMILES IDX 9 15 10 16 15 17 16 18 17 19 18 20 19 21 20 22 78 23 21 24
REMARK SMILES IDX 77 25 22 26 23 27 24 28 71 29 25 30 76 31 70 32 72 33 26 34
REMARK SMILES IDX 75 35 69 36 68 37 27 39 57 40 38 41 56 42 39 43 42 44 55 45
REMARK SMILES IDX 73 46 40 47 41 48 54 50 74 51 43 52 28 53 29 54 37 55 30 56
REMARK SMILES IDX 36 57 31 58 32 59 33 60 34 61 35 62 58 63 59 64 67 65 60 66
REMARK SMILES IDX 66 67 61 68 62 69 63 70 64 71 65 72 44 73 45 74 53 75 46 76
REMARK SMILES IDX 52 77 47 78 48 79 49 80 50 81 51 82
REMARK H PARENT 5 7 5 8 72 38 42 49
REMARK Flexibility Score: inf
ROOT
ATOM      1  C   UNL A   1      36.681  22.690  23.600  1.00  0.00     0.274 C 
ENDROOT
BRANCH   1   2
ATOM      2  O   UNL A   1      35.719  23.665  24.043  1.00  0.00    -0.458 OA
BRANCH   2   3
ATOM      3  C   UNL A   1      34.476  23.548  23.501  1.00  0.00     0.365 C 
ATOM      4  O   UNL A   1      34.200  23.834  22.338  1.00  0.00    -0.245 OA
BRANCH   3   5
ATOM      5  C   UNL A   1      33.411  23.064  24.510  1.00  0.00     0.299 C 
BRANCH   5   6
ATOM      6  N   UNL A   1      33.220  21.631  24.246  1.00  0.00    -0.332 N 
ATOM      7  H   UNL A   1      32.377  21.543  23.678  1.00  0.00     0.347 HD
ATOM      8  H   UNL A   1      34.099  21.346  23.815  1.00  0.00     0.347 HD
BRANCH   6   9
ATOM      9  C   UNL A   1      33.074  20.716  25.360  1.00  0.00     0.179 C 
ATOM     10  C   UNL A   1      33.816  21.236  26.595  1.00  0.00     0.075 C 
BRANCH   9  11
ATOM     11  C   UNL A   1      33.660  19.377  24.879  1.00  0.00     0.061 C 
ATOM     12  C   UNL A   1      32.830  18.741  23.777  1.00  0.00     0.010 C 
ENDBRANCH   9  11
ENDBRANCH   6   9
ENDBRANCH   5   6
BRANCH   5  13
ATOM     13  C   UNL A   1      32.189  24.013  24.600  1.00  0.00     0.168 C 
BRANCH  13  14
ATOM     14  N   UNL A   1      32.000  24.495  25.982  1.00  0.00    -0.087 NA
ATOM     15  N   UNL A   1      31.083  23.960  26.637  1.00  0.00     0.001 N 
ATOM     16  N   UNL A   1      30.259  23.440  27.223  1.00  0.00    -0.003 NA
ENDBRANCH  13  14
ENDBRANCH   5  13
ENDBRANCH   3   5
ENDBRANCH   2   3
ENDBRANCH   1   2
BRANCH   1  17
ATOM     17  C   UNL A   1      37.395  22.073  24.800  1.00  0.00     0.275 C 
BRANCH  17  18
ATOM     18  O   UNL A   1      37.730  23.101  25.752  1.00  0.00    -0.458 OA
BRANCH  18  19
ATOM     19  C   UNL A   1      39.008  23.088  26.192  1.00  0.00     0.338 C 
ATOM     20  O   UNL A   1      39.787  22.150  26.162  1.00  0.00    -0.246 OA
BRANCH  19  21
ATOM     21  C   UNL A   1      39.362  24.393  26.775  1.00  0.00     0.060 A 
ATOM     22  C   UNL A   1      40.119  25.321  26.060  1.00  0.00     0.016 A 
ATOM     23  C   UNL A   1      39.044  24.631  28.109  1.00  0.00     0.016 A 
ATOM     24  C   UNL A   1      40.636  26.447  26.698  1.00  0.00     0.010 A 
ATOM     25  C   UNL A   1      39.475  25.811  28.718  1.00  0.00     0.010 A 
ATOM     26  C   UNL A   1      40.300  26.717  28.031  1.00  0.00    -0.014 A 
BRANCH  26  27
ATOM     27  C   UNL A   1      40.795  27.943  28.713  1.00  0.00     0.031 A 
ATOM     28  C   UNL A   1      42.193  27.989  29.268  1.00  0.00     0.074 A 
ATOM     29  C   UNL A   1      39.968  28.995  28.882  1.00  0.00     0.049 A 
ATOM     30  N   UNL A   1      42.742  28.880  30.054  1.00  0.00    -0.248 NA
ATOM     31  C   UNL A   1      43.088  26.876  28.906  1.00  0.00     0.031 C 
ATOM     32  C   UNL A   1      38.601  29.094  28.363  1.00  0.00     0.029 A 
ATOM     33  N   UNL A   1      40.153  30.180  29.551  1.00  0.00    -0.354 N 
ATOM     34  C   UNL A   1      44.028  28.417  30.315  1.00  0.00     0.074 A 
ATOM     35  C   UNL A   1      44.169  27.155  29.622  1.00  0.00     0.031 C 
ATOM     36  C   UNL A   1      38.078  30.277  28.719  1.00  0.00     0.029 A 
ATOM     37  C   UNL A   1      39.036  30.984  29.560  1.00  0.00     0.049 A 
ATOM     38  H   UNL A   1      41.002  30.430  29.981  1.00  0.00     0.167 HD
ATOM     39  C   UNL A   1      44.998  28.993  31.065  1.00  0.00     0.031 A 
ATOM     40  C   UNL A   1      38.787  32.137  30.210  1.00  0.00     0.031 A 
ATOM     41  C   UNL A   1      44.847  30.256  31.743  1.00  0.00     0.049 A 
ATOM     42  C   UNL A   1      39.856  32.724  31.088  1.00  0.00     0.074 A 
ATOM     43  C   UNL A   1      45.778  30.939  32.506  1.00  0.00     0.029 A 
ATOM     44  N   UNL A   1      43.693  31.027  31.741  1.00  0.00    -0.354 N 
ATOM     45  N   UNL A   1      41.066  32.273  31.327  1.00  0.00    -0.248 NA
ATOM     46  C   UNL A   1      39.528  33.973  31.786  1.00  0.00     0.031 C 
ATOM     47  C   UNL A   1      45.167  32.086  33.020  1.00  0.00     0.029 A 
ATOM     48  C   UNL A   1      43.880  32.162  32.513  1.00  0.00     0.049 A 
ATOM     49  H   UNL A   1      42.864  30.800  31.260  1.00  0.00     0.167 HD
ATOM     50  C   UNL A   1      41.653  33.202  32.178  1.00  0.00     0.074 A 
ATOM     51  C   UNL A   1      40.672  34.245  32.399  1.00  0.00     0.031 C 
ATOM     52  C   UNL A   1      42.893  33.193  32.725  1.00  0.00     0.031 A 
BRANCH  39  53
ATOM     53  C   UNL A   1      46.299  28.247  31.229  1.00  0.00    -0.014 A 
ATOM     54  C   UNL A   1      46.384  27.067  31.990  1.00  0.00     0.010 A 
ATOM     55  C   UNL A   1      47.452  28.713  30.567  1.00  0.00     0.010 A 
ATOM     56  C   UNL A   1      47.601  26.391  32.118  1.00  0.00     0.020 A 
ATOM     57  C   UNL A   1      48.663  28.022  30.666  1.00  0.00     0.020 A 
ATOM     58  C   UNL A   1      48.734  26.874  31.456  1.00  0.00     0.054 A 
BRANCH  58  59
ATOM     59  S   UNL A   1      50.293  25.962  31.621  1.00  0.00     0.124 S 
ATOM     60  O   UNL A   1      50.057  24.802  30.765  1.00  0.00    -0.237 OA
ATOM     61  O   UNL A   1      51.278  26.919  31.122  1.00  0.00    -0.237 OA
ATOM     62  O   UNL A   1      50.379  25.673  33.050  1.00  0.00    -0.744 OA
ENDBRANCH  58  59
ENDBRANCH  39  53
BRANCH  40  63
ATOM     63  C   UNL A   1      37.456  32.793  30.075  1.00  0.00    -0.014 A 
ATOM     64  C   UNL A   1      36.461  32.594  31.047  1.00  0.00     0.010 A 
ATOM     65  C   UNL A   1      37.183  33.634  28.979  1.00  0.00     0.010 A 
ATOM     66  C   UNL A   1      35.212  33.211  30.918  1.00  0.00     0.020 A 
ATOM     67  C   UNL A   1      35.949  34.280  28.867  1.00  0.00     0.020 A 
ATOM     68  C   UNL A   1      34.966  34.054  29.831  1.00  0.00     0.054 A 
BRANCH  68  69
ATOM     69  S   UNL A   1      33.357  34.881  29.715  1.00  0.00     0.124 S 
ATOM     70  O   UNL A   1      32.866  34.783  31.086  1.00  0.00    -0.237 OA
ATOM     71  O   UNL A   1      33.724  36.221  29.267  1.00  0.00    -0.237 OA
ATOM     72  O   UNL A   1      32.630  34.080  28.731  1.00  0.00    -0.744 OA
ENDBRANCH  68  69
ENDBRANCH  40  63
BRANCH  52  73
ATOM     73  C   UNL A   1      43.282  34.371  33.580  1.00  0.00    -0.014 A 
ATOM     74  C   UNL A   1      43.217  34.315  34.984  1.00  0.00     0.010 A 
ATOM     75  C   UNL A   1      43.767  35.540  32.964  1.00  0.00     0.010 A 
ATOM     76  C   UNL A   1      43.597  35.419  35.753  1.00  0.00     0.020 A 
ATOM     77  C   UNL A   1      44.181  36.632  33.730  1.00  0.00     0.020 A 
ATOM     78  C   UNL A   1      44.080  36.570  35.120  1.00  0.00     0.054 A 
BRANCH  78  79
ATOM     79  S   UNL A   1      44.609  37.969  36.144  1.00  0.00     0.124 S 
ATOM     80  O   UNL A   1      44.512  39.086  35.207  1.00  0.00    -0.237 OA
ATOM     81  O   UNL A   1      43.625  37.966  37.223  1.00  0.00    -0.237 OA
ATOM     82  O   UNL A   1      45.968  37.612  36.546  1.00  0.00    -0.744 OA
ENDBRANCH  78  79
ENDBRANCH  52  73
ENDBRANCH  26  27
ENDBRANCH  19  21
ENDBRANCH  18  19
ENDBRANCH  17  18
ENDBRANCH   1  17
TORSDOF 19
ENDMDL
MODEL 3
REMARK VINA RESULT:      -8.5      5.304     10.830
REMARK SMILES CC[C@@H](C)[NH2+][C@H](CN=[N+]=[N-])C(=O)OCCOC(=O)c1ccc(-c2c3nc(c(-c4ccc(S(=O)(=O)[O-])cc4)c4ccc([nH]4)c(-c4ccc(S(=O)(=O)[O-])cc4)c4nc(c(-c5ccc(S(=O)(=O)[O-])cc5)c5ccc2[nH]5)C=C4)C=C3)cc1
REMARK SMILES IDX 14 1 13 2 11 3 12 4 6 5 5 6 3 9 4 10 2 11 1 12 7 13 8 14
REMARK SMILES IDX 9 15 10 16 15 17 16 18 17 19 18 20 19 21 20 22 78 23 21 24
REMARK SMILES IDX 77 25 22 26 23 27 24 28 71 29 25 30 76 31 70 32 72 33 26 34
REMARK SMILES IDX 75 35 69 36 68 37 27 39 57 40 38 41 56 42 39 43 42 44 55 45
REMARK SMILES IDX 73 46 40 47 41 48 54 50 74 51 43 52 28 53 29 54 37 55 30 56
REMARK SMILES IDX 36 57 31 58 32 59 33 60 34 61 35 62 58 63 59 64 67 65 60 66
REMARK SMILES IDX 66 67 61 68 62 69 63 70 64 71 65 72 44 73 45 74 53 75 46 76
REMARK SMILES IDX 52 77 47 78 48 79 49 80 50 81 51 82
REMARK H PARENT 5 7 5 8 72 38 42 49
REMARK Flexibility Score: inf
ROOT
ATOM      1  C   UNL A   1      38.147  22.110  25.319  1.00  0.00     0.274 C 
ENDROOT
BRANCH   1   2
ATOM      2  O   UNL A   1      36.785  22.576  25.323  1.00  0.00    -0.458 OA
BRANCH   2   3
ATOM      3  C   UNL A   1      36.220  22.742  24.096  1.00  0.00     0.365 C 
ATOM      4  O   UNL A   1      36.821  22.591  23.034  1.00  0.00    -0.245 OA
BRANCH   3   5
ATOM      5  C   UNL A   1      34.745  23.196  24.155  1.00  0.00     0.299 C 
BRANCH   5   6
ATOM      6  N   UNL A   1      34.101  22.363  25.180  1.00  0.00    -0.332 N 
ATOM      7  H   UNL A   1      33.426  21.768  24.699  1.00  0.00     0.347 HD
ATOM      8  H   UNL A   1      34.885  21.896  25.637  1.00  0.00     0.347 HD
BRANCH   6   9
ATOM      9  C   UNL A   1      33.398  22.999  26.275  1.00  0.00     0.179 C 
ATOM     10  C   UNL A   1      33.991  22.578  27.623  1.00  0.00     0.075 C 
BRANCH   9  11
ATOM     11  C   UNL A   1      31.932  22.550  26.145  1.00  0.00     0.061 C 
ATOM     12  C   UNL A   1      31.186  23.308  25.060  1.00  0.00     0.010 C 
ENDBRANCH   9  11
ENDBRANCH   6   9
ENDBRANCH   5   6
BRANCH   5  13
ATOM     13  C   UNL A   1      34.102  23.348  22.753  1.00  0.00     0.168 C 
BRANCH  13  14
ATOM     14  N   UNL A   1      33.930  24.773  22.406  1.00  0.00    -0.087 NA
ATOM     15  N   UNL A   1      33.657  25.544  23.348  1.00  0.00     0.001 N 
ATOM     16  N   UNL A   1      33.435  26.232  24.225  1.00  0.00    -0.003 NA
ENDBRANCH  13  14
ENDBRANCH   5  13
ENDBRANCH   3   5
ENDBRANCH   2   3
ENDBRANCH   1   2
BRANCH   1  17
ATOM     17  C   UNL A   1      38.882  22.624  26.554  1.00  0.00     0.275 C 
BRANCH  17  18
ATOM     18  O   UNL A   1      38.790  24.060  26.615  1.00  0.00    -0.458 OA
BRANCH  18  19
ATOM     19  C   UNL A   1      39.965  24.720  26.511  1.00  0.00     0.338 C 
ATOM     20  O   UNL A   1      40.822  24.568  25.656  1.00  0.00    -0.246 OA
BRANCH  19  21
ATOM     21  C   UNL A   1      40.119  25.670  27.626  1.00  0.00     0.060 A 
ATOM     22  C   UNL A   1      39.275  25.623  28.736  1.00  0.00     0.016 A 
ATOM     23  C   UNL A   1      41.034  26.709  27.490  1.00  0.00     0.016 A 
ATOM     24  C   UNL A   1      39.282  26.658  29.669  1.00  0.00     0.010 A 
ATOM     25  C   UNL A   1      41.112  27.691  28.479  1.00  0.00     0.010 A 
ATOM     26  C   UNL A   1      40.218  27.694  29.563  1.00  0.00    -0.014 A 
BRANCH  26  27
ATOM     27  C   UNL A   1      40.281  28.779  30.580  1.00  0.00     0.031 A 
ATOM     28  C   UNL A   1      41.258  28.691  31.722  1.00  0.00     0.074 A 
ATOM     29  C   UNL A   1      39.422  29.816  30.506  1.00  0.00     0.049 A 
ATOM     30  N   UNL A   1      41.336  29.427  32.801  1.00  0.00    -0.248 NA
ATOM     31  C   UNL A   1      42.270  27.622  31.649  1.00  0.00     0.031 C 
ATOM     32  C   UNL A   1      38.449  30.040  29.432  1.00  0.00     0.029 A 
ATOM     33  N   UNL A   1      39.219  30.872  31.360  1.00  0.00    -0.354 N 
ATOM     34  C   UNL A   1      42.373  28.887  33.555  1.00  0.00     0.074 A 
ATOM     35  C   UNL A   1      42.880  27.749  32.820  1.00  0.00     0.031 C 
ATOM     36  C   UNL A   1      37.766  31.166  29.684  1.00  0.00     0.029 A 
ATOM     37  C   UNL A   1      38.189  31.698  30.974  1.00  0.00     0.049 A 
ATOM     38  H   UNL A   1      39.758  31.023  32.170  1.00  0.00     0.167 HD
ATOM     39  C   UNL A   1      42.856  29.304  34.751  1.00  0.00     0.031 A 
ATOM     40  C   UNL A   1      37.613  32.741  31.604  1.00  0.00     0.031 A 
ATOM     41  C   UNL A   1      42.348  30.447  35.468  1.00  0.00     0.049 A 
ATOM     42  C   UNL A   1      38.123  33.144  32.959  1.00  0.00     0.074 A 
ATOM     43  C   UNL A   1      42.785  30.968  36.673  1.00  0.00     0.029 A 
ATOM     44  N   UNL A   1      41.292  31.244  35.049  1.00  0.00    -0.354 N 
ATOM     45  N   UNL A   1      39.103  32.624  33.659  1.00  0.00    -0.248 NA
ATOM     46  C   UNL A   1      37.450  34.276  33.609  1.00  0.00     0.031 C 
ATOM     47  C   UNL A   1      41.952  32.038  37.015  1.00  0.00     0.029 A 
ATOM     48  C   UNL A   1      41.045  32.234  35.986  1.00  0.00     0.049 A 
ATOM     49  H   UNL A   1      40.794  31.124  34.209  1.00  0.00     0.167 HD
ATOM     50  C   UNL A   1      39.184  33.385  34.820  1.00  0.00     0.074 A 
ATOM     51  C   UNL A   1      38.164  34.410  34.718  1.00  0.00     0.031 C 
ATOM     52  C   UNL A   1      40.026  33.249  35.872  1.00  0.00     0.031 A 
BRANCH  39  53
ATOM     53  C   UNL A   1      43.965  28.501  35.382  1.00  0.00    -0.014 A 
ATOM     54  C   UNL A   1      45.320  28.802  35.150  1.00  0.00     0.010 A 
ATOM     55  C   UNL A   1      43.645  27.452  36.265  1.00  0.00     0.010 A 
ATOM     56  C   UNL A   1      46.329  28.047  35.755  1.00  0.00     0.020 A 
ATOM     57  C   UNL A   1      44.650  26.715  36.897  1.00  0.00     0.020 A 
ATOM     58  C   UNL A   1      45.987  27.006  36.624  1.00  0.00     0.054 A 
BRANCH  58  59
ATOM     59  S   UNL A   1      47.318  26.059  37.413  1.00  0.00     0.124 S 
ATOM     60  O   UNL A   1      48.430  27.006  37.369  1.00  0.00    -0.237 OA
ATOM     61  O   UNL A   1      46.775  25.792  38.743  1.00  0.00    -0.237 OA
ATOM     62  O   UNL A   1      47.467  24.886  36.557  1.00  0.00    -0.744 OA
ENDBRANCH  58  59
ENDBRANCH  39  53
BRANCH  40  63
ATOM     63  C   UNL A   1      36.468  33.451  30.969  1.00  0.00    -0.014 A 
ATOM     64  C   UNL A   1      35.281  33.675  31.687  1.00  0.00     0.010 A 
ATOM     65  C   UNL A   1      36.566  33.923  29.646  1.00  0.00     0.010 A 
ATOM     66  C   UNL A   1      34.207  34.341  31.088  1.00  0.00     0.020 A 
ATOM     67  C   UNL A   1      35.509  34.622  29.058  1.00  0.00     0.020 A 
ATOM     68  C   UNL A   1      34.330  34.815  29.779  1.00  0.00     0.054 A 
BRANCH  68  69
ATOM     69  S   UNL A   1      32.941  35.721  29.045  1.00  0.00     0.124 S 
ATOM     70  O   UNL A   1      32.154  36.075  30.222  1.00  0.00    -0.237 OA
ATOM     71  O   UNL A   1      33.611  36.832  28.373  1.00  0.00    -0.237 OA
ATOM     72  O   UNL A   1      32.326  34.741  28.152  1.00  0.00    -0.744 OA
ENDBRANCH  68  69
ENDBRANCH  40  63
BRANCH  52  73
ATOM     73  C   UNL A   1      39.917  34.262  36.983  1.00  0.00    -0.014 A 
ATOM     74  C   UNL A   1      40.638  35.469  36.951  1.00  0.00     0.010 A 
ATOM     75  C   UNL A   1      39.036  34.019  38.053  1.00  0.00     0.010 A 
ATOM     76  C   UNL A   1      40.507  36.397  37.988  1.00  0.00     0.020 A 
ATOM     77  C   UNL A   1      38.877  34.959  39.074  1.00  0.00     0.020 A 
ATOM     78  C   UNL A   1      39.624  36.137  39.042  1.00  0.00     0.054 A 
BRANCH  78  79
ATOM     79  S   UNL A   1      39.438  37.378  40.350  1.00  0.00     0.124 S 
ATOM     80  O   UNL A   1      38.153  37.986  40.013  1.00  0.00    -0.237 OA
ATOM     81  O   UNL A   1      39.451  36.567  41.565  1.00  0.00    -0.237 OA
ATOM     82  O   UNL A   1      40.601  38.246  40.174  1.00  0.00    -0.744 OA
ENDBRANCH  78  79
ENDBRANCH  52  73
ENDBRANCH  26  27
ENDBRANCH  19  21
ENDBRANCH  18  19
ENDBRANCH  17  18
ENDBRANCH   1  17
TORSDOF 19
ENDMDL
