MODEL 1
REMARK VINA RESULT:      -9.9      0.000      0.000
REMARK SMILES O=C(OCCOC(=O)c1coc(-c2csc(-c3ccc(Cl)cn3)n2)c1)c1ccc(-c2c3nc(c(-c4ccc(S(=O)(=O)[O-])cc4)c4ccc([nH]4)c(-c4ccc(S(=O)(=O)[O-])cc4)c4nc(c(-c5ccc(S(=O)(=O)[O-])cc5)c5ccc2[nH]5)C=C4)C=C3)cc1
REMARK SMILES IDX 4 1 3 2 2 3 1 4 26 5 27 6 85 7 28 8 84 9 29 10 30 11 31 12
REMARK SMILES IDX 78 13 32 14 83 15 77 16 79 17 33 18 82 19 76 20 75 21 34 23
REMARK SMILES IDX 64 24 45 25 63 26 46 27 49 28 62 29 80 30 47 31 48 32 61 34
REMARK SMILES IDX 81 35 50 36 35 37 36 38 44 39 37 40 43 41 38 42 39 43 40 44
REMARK SMILES IDX 41 45 42 46 65 47 66 48 74 49 67 50 73 51 68 52 69 53 70 54
REMARK SMILES IDX 71 55 72 56 51 57 52 58 60 59 53 60 59 61 54 62 55 63 56 64
REMARK SMILES IDX 57 65 58 66 5 67 6 68 7 69 8 70 9 71 10 72 25 73 11 74 12 75
REMARK SMILES IDX 13 76 14 77 24 78 15 79 16 80 17 81 18 82 23 83 19 84 22 85
REMARK SMILES IDX 20 86 21 87
REMARK H PARENT 79 22 49 33
REMARK Flexibility Score: inf
ROOT
ATOM      1  C   UNL A   1      33.918  33.290  27.887  1.00  0.00     0.275 C 
ENDROOT
BRANCH   1   2
ATOM      2  O   UNL A   1      34.227  32.098  28.629  1.00  0.00    -0.458 OA
BRANCH   2   3
ATOM      3  C   UNL A   1      34.577  30.864  28.196  1.00  0.00     0.338 C 
ATOM      4  O   UNL A   1      33.728  30.165  27.645  1.00  0.00    -0.246 OA
BRANCH   3   5
ATOM      5  C   UNL A   1      35.905  30.242  28.483  1.00  0.00     0.060 A 
ATOM      6  C   UNL A   1      36.304  29.701  29.707  1.00  0.00     0.016 A 
ATOM      7  C   UNL A   1      36.843  30.265  27.435  1.00  0.00     0.016 A 
ATOM      8  C   UNL A   1      37.577  29.144  29.864  1.00  0.00     0.010 A 
ATOM      9  C   UNL A   1      38.116  29.700  27.584  1.00  0.00     0.010 A 
ATOM     10  C   UNL A   1      38.494  29.149  28.810  1.00  0.00    -0.014 A 
BRANCH  10  11
ATOM     11  C   UNL A   1      39.898  28.759  29.073  1.00  0.00     0.031 A 
ATOM     12  C   UNL A   1      40.763  29.707  29.854  1.00  0.00     0.074 A 
ATOM     13  C   UNL A   1      40.361  27.552  28.701  1.00  0.00     0.049 A 
ATOM     14  N   UNL A   1      41.969  29.529  30.324  1.00  0.00    -0.248 NA
ATOM     15  C   UNL A   1      40.188  31.030  30.150  1.00  0.00     0.031 C 
ATOM     16  C   UNL A   1      39.602  26.546  27.960  1.00  0.00     0.029 A 
ATOM     17  N   UNL A   1      41.579  26.957  28.918  1.00  0.00    -0.354 N 
ATOM     18  C   UNL A   1      42.288  30.707  30.987  1.00  0.00     0.074 A 
ATOM     19  C   UNL A   1      41.176  31.614  30.810  1.00  0.00     0.031 C 
ATOM     20  C   UNL A   1      40.363  25.449  27.802  1.00  0.00     0.029 A 
ATOM     21  C   UNL A   1      41.665  25.678  28.421  1.00  0.00     0.049 A 
ATOM     22  H   UNL A   1      42.321  27.405  29.385  1.00  0.00     0.167 HD
ATOM     23  C   UNL A   1      43.399  31.004  31.701  1.00  0.00     0.031 A 
ATOM     24  C   UNL A   1      42.677  24.789  28.478  1.00  0.00     0.031 A 
ATOM     25  C   UNL A   1      44.512  30.112  31.852  1.00  0.00     0.049 A 
ATOM     26  C   UNL A   1      43.932  25.164  29.223  1.00  0.00     0.074 A 
ATOM     27  C   UNL A   1      45.697  30.314  32.535  1.00  0.00     0.029 A 
ATOM     28  N   UNL A   1      44.577  28.841  31.298  1.00  0.00    -0.354 N 
ATOM     29  N   UNL A   1      44.201  26.270  29.879  1.00  0.00    -0.248 NA
ATOM     30  C   UNL A   1      45.010  24.167  29.255  1.00  0.00     0.031 C 
ATOM     31  C   UNL A   1      46.495  29.177  32.362  1.00  0.00     0.029 A 
ATOM     32  C   UNL A   1      45.787  28.251  31.610  1.00  0.00     0.049 A 
ATOM     33  H   UNL A   1      43.865  28.421  30.764  1.00  0.00     0.167 HD
ATOM     34  C   UNL A   1      45.463  26.084  30.434  1.00  0.00     0.074 A 
ATOM     35  C   UNL A   1      45.902  24.761  30.038  1.00  0.00     0.031 C 
ATOM     36  C   UNL A   1      46.189  26.926  31.210  1.00  0.00     0.031 A 
BRANCH  23  37
ATOM     37  C   UNL A   1      43.450  32.370  32.326  1.00  0.00    -0.014 A 
ATOM     38  C   UNL A   1      42.871  32.611  33.586  1.00  0.00     0.010 A 
ATOM     39  C   UNL A   1      44.023  33.440  31.618  1.00  0.00     0.010 A 
ATOM     40  C   UNL A   1      42.805  33.909  34.097  1.00  0.00     0.020 A 
ATOM     41  C   UNL A   1      43.980  34.737  32.137  1.00  0.00     0.020 A 
ATOM     42  C   UNL A   1      43.344  34.967  33.359  1.00  0.00     0.054 A 
BRANCH  42  43
ATOM     43  S   UNL A   1      43.205  36.652  34.016  1.00  0.00     0.124 S 
ATOM     44  O   UNL A   1      43.379  37.457  32.810  1.00  0.00    -0.237 OA
ATOM     45  O   UNL A   1      41.862  36.666  34.591  1.00  0.00    -0.237 OA
ATOM     46  O   UNL A   1      44.295  36.736  34.985  1.00  0.00    -0.744 OA
ENDBRANCH  42  43
ENDBRANCH  23  37
BRANCH  24  47
ATOM     47  C   UNL A   1      42.537  23.448  27.845  1.00  0.00    -0.014 A 
ATOM     48  C   UNL A   1      42.911  23.244  26.504  1.00  0.00     0.010 A 
ATOM     49  C   UNL A   1      42.028  22.362  28.582  1.00  0.00     0.010 A 
ATOM     50  C   UNL A   1      42.762  21.987  25.908  1.00  0.00     0.020 A 
ATOM     51  C   UNL A   1      41.899  21.099  27.996  1.00  0.00     0.020 A 
ATOM     52  C   UNL A   1      42.257  20.921  26.658  1.00  0.00     0.054 A 
BRANCH  52  53
ATOM     53  S   UNL A   1      42.120  19.287  25.879  1.00  0.00     0.124 S 
ATOM     54  O   UNL A   1      40.694  19.215  25.575  1.00  0.00    -0.237 OA
ATOM     55  O   UNL A   1      43.008  19.413  24.725  1.00  0.00    -0.237 OA
ATOM     56  O   UNL A   1      42.588  18.373  26.918  1.00  0.00    -0.744 OA
ENDBRANCH  52  53
ENDBRANCH  24  47
BRANCH  36  57
ATOM     57  C   UNL A   1      47.510  26.423  31.724  1.00  0.00    -0.014 A 
ATOM     58  C   UNL A   1      48.672  26.487  30.936  1.00  0.00     0.010 A 
ATOM     59  C   UNL A   1      47.595  25.942  33.044  1.00  0.00     0.010 A 
ATOM     60  C   UNL A   1      49.895  26.051  31.452  1.00  0.00     0.020 A 
ATOM     61  C   UNL A   1      48.820  25.528  33.569  1.00  0.00     0.020 A 
ATOM     62  C   UNL A   1      49.961  25.573  32.765  1.00  0.00     0.054 A 
BRANCH  62  63
ATOM     63  S   UNL A   1      51.568  25.064  33.434  1.00  0.00     0.124 S 
ATOM     64  O   UNL A   1      52.196  24.443  32.271  1.00  0.00    -0.237 OA
ATOM     65  O   UNL A   1      52.155  26.331  33.865  1.00  0.00    -0.237 OA
ATOM     66  O   UNL A   1      51.215  24.148  34.516  1.00  0.00    -0.744 OA
ENDBRANCH  62  63
ENDBRANCH  36  57
ENDBRANCH  10  11
ENDBRANCH   3   5
ENDBRANCH   2   3
ENDBRANCH   1   2
BRANCH   1  67
ATOM     67  C   UNL A   1      33.671  34.532  28.745  1.00  0.00     0.275 C 
BRANCH  67  68
ATOM     68  O   UNL A   1      34.358  34.519  30.003  1.00  0.00    -0.458 OA
BRANCH  68  69
ATOM     69  C   UNL A   1      33.639  34.992  31.067  1.00  0.00     0.341 C 
ATOM     70  O   UNL A   1      32.513  35.463  30.991  1.00  0.00    -0.246 OA
BRANCH  69  71
ATOM     71  C   UNL A   1      34.331  34.807  32.322  1.00  0.00     0.098 A 
ATOM     72  C   UNL A   1      34.409  35.717  33.351  1.00  0.00     0.211 A 
ATOM     73  C   UNL A   1      35.083  33.675  32.755  1.00  0.00     0.068 A 
ATOM     74  O   UNL A   1      35.149  35.219  34.375  1.00  0.00    -0.462 OA
ATOM     75  C   UNL A   1      35.638  34.005  33.974  1.00  0.00     0.154 A 
BRANCH  75  76
ATOM     76  C   UNL A   1      36.663  33.228  34.731  1.00  0.00     0.117 A 
ATOM     77  C   UNL A   1      37.205  33.712  35.903  1.00  0.00     0.099 A 
ATOM     78  N   UNL A   1      37.202  32.035  34.268  1.00  0.00    -0.231 NA
ATOM     79  S   UNL A   1      38.409  32.643  36.472  1.00  0.00    -0.120 S 
ATOM     80  C   UNL A   1      38.196  31.669  35.061  1.00  0.00     0.142 A 
BRANCH  80  81
ATOM     81  C   UNL A   1      39.183  30.611  34.819  1.00  0.00     0.099 A 
ATOM     82  C   UNL A   1      39.185  29.908  33.611  1.00  0.00     0.033 A 
ATOM     83  N   UNL A   1      40.139  30.449  35.770  1.00  0.00    -0.252 NA
ATOM     84  C   UNL A   1      40.225  29.015  33.352  1.00  0.00     0.024 A 
ATOM     85  C   UNL A   1      41.127  29.561  35.489  1.00  0.00     0.132 A 
ATOM     86  C   UNL A   1      41.219  28.840  34.306  1.00  0.00     0.059 A 
ATOM     87  Cl  UNL A   1      42.538  27.783  34.019  1.00  0.00    -0.083 Cl
ENDBRANCH  80  81
ENDBRANCH  75  76
ENDBRANCH  69  71
ENDBRANCH  68  69
ENDBRANCH  67  68
ENDBRANCH   1  67
TORSDOF 16
ENDMDL
MODEL 2
REMARK VINA RESULT:      -9.9      5.122     12.593
REMARK SMILES O=C(OCCOC(=O)c1coc(-c2csc(-c3ccc(Cl)cn3)n2)c1)c1ccc(-c2c3nc(c(-c4ccc(S(=O)(=O)[O-])cc4)c4ccc([nH]4)c(-c4ccc(S(=O)(=O)[O-])cc4)c4nc(c(-c5ccc(S(=O)(=O)[O-])cc5)c5ccc2[nH]5)C=C4)C=C3)cc1
REMARK SMILES IDX 4 1 3 2 2 3 1 4 26 5 27 6 85 7 28 8 84 9 29 10 30 11 31 12
REMARK SMILES IDX 78 13 32 14 83 15 77 16 79 17 33 18 82 19 76 20 75 21 34 23
REMARK SMILES IDX 64 24 45 25 63 26 46 27 49 28 62 29 80 30 47 31 48 32 61 34
REMARK SMILES IDX 81 35 50 36 35 37 36 38 44 39 37 40 43 41 38 42 39 43 40 44
REMARK SMILES IDX 41 45 42 46 65 47 66 48 74 49 67 50 73 51 68 52 69 53 70 54
REMARK SMILES IDX 71 55 72 56 51 57 52 58 60 59 53 60 59 61 54 62 55 63 56 64
REMARK SMILES IDX 57 65 58 66 5 67 6 68 7 69 8 70 9 71 10 72 25 73 11 74 12 75
REMARK SMILES IDX 13 76 14 77 24 78 15 79 16 80 17 81 18 82 23 83 19 84 22 85
REMARK SMILES IDX 20 86 21 87
REMARK H PARENT 79 22 49 33
REMARK Flexibility Score: inf
ROOT
ATOM      1  C   UNL A   1      43.265  23.870  25.098  1.00  0.00     0.275 C 
ENDROOT
BRANCH   1   2
ATOM      2  O   UNL A   1      43.092  25.068  25.874  1.00  0.00    -0.458 OA
BRANCH   2   3
ATOM      3  C   UNL A   1      41.984  25.812  26.102  1.00  0.00     0.338 C 
ATOM      4  O   UNL A   1      41.219  26.038  25.166  1.00  0.00    -0.246 OA
BRANCH   3   5
ATOM      5  C   UNL A   1      41.713  26.501  27.399  1.00  0.00     0.060 A 
ATOM      6  C   UNL A   1      40.726  26.146  28.322  1.00  0.00     0.016 A 
ATOM      7  C   UNL A   1      42.491  27.642  27.673  1.00  0.00     0.016 A 
ATOM      8  C   UNL A   1      40.560  26.867  29.508  1.00  0.00     0.010 A 
ATOM      9  C   UNL A   1      42.335  28.361  28.863  1.00  0.00     0.010 A 
ATOM     10  C   UNL A   1      41.354  27.984  29.782  1.00  0.00    -0.014 A 
BRANCH  10  11
ATOM     11  C   UNL A   1      41.006  28.851  30.930  1.00  0.00     0.031 A 
ATOM     12  C   UNL A   1      41.877  28.793  32.152  1.00  0.00     0.074 A 
ATOM     13  C   UNL A   1      39.991  29.731  30.850  1.00  0.00     0.049 A 
ATOM     14  N   UNL A   1      41.858  29.548  33.218  1.00  0.00    -0.248 NA
ATOM     15  C   UNL A   1      42.914  27.747  32.172  1.00  0.00     0.031 C 
ATOM     16  C   UNL A   1      39.096  29.887  29.704  1.00  0.00     0.029 A 
ATOM     17  N   UNL A   1      39.557  30.677  31.744  1.00  0.00    -0.354 N 
ATOM     18  C   UNL A   1      42.889  29.083  34.024  1.00  0.00     0.074 A 
ATOM     19  C   UNL A   1      43.477  27.945  33.353  1.00  0.00     0.031 C 
ATOM     20  C   UNL A   1      38.232  30.887  29.955  1.00  0.00     0.029 A 
ATOM     21  C   UNL A   1      38.505  31.434  31.281  1.00  0.00     0.049 A 
ATOM     22  H   UNL A   1      39.959  30.803  32.633  1.00  0.00     0.167 HD
ATOM     23  C   UNL A   1      43.326  29.571  35.209  1.00  0.00     0.031 A 
ATOM     24  C   UNL A   1      37.853  32.462  31.858  1.00  0.00     0.031 A 
ATOM     25  C   UNL A   1      42.722  30.684  35.884  1.00  0.00     0.049 A 
ATOM     26  C   UNL A   1      38.314  32.949  33.208  1.00  0.00     0.074 A 
ATOM     27  C   UNL A   1      43.069  31.251  37.096  1.00  0.00     0.029 A 
ATOM     28  N   UNL A   1      41.634  31.396  35.400  1.00  0.00    -0.354 N 
ATOM     29  N   UNL A   1      39.319  32.521  33.938  1.00  0.00    -0.248 NA
ATOM     30  C   UNL A   1      37.571  34.067  33.801  1.00  0.00     0.031 C 
ATOM     31  C   UNL A   1      42.163  32.285  37.363  1.00  0.00     0.029 A 
ATOM     32  C   UNL A   1      41.283  32.388  36.296  1.00  0.00     0.049 A 
ATOM     33  H   UNL A   1      41.180  31.220  34.545  1.00  0.00     0.167 HD
ATOM     34  C   UNL A   1      39.351  33.345  35.058  1.00  0.00     0.074 A 
ATOM     35  C   UNL A   1      38.267  34.296  34.908  1.00  0.00     0.031 C 
ATOM     36  C   UNL A   1      40.206  33.327  36.111  1.00  0.00     0.031 A 
BRANCH  23  37
ATOM     37  C   UNL A   1      44.489  28.858  35.840  1.00  0.00    -0.014 A 
ATOM     38  C   UNL A   1      45.812  29.271  35.593  1.00  0.00     0.010 A 
ATOM     39  C   UNL A   1      44.261  27.723  36.636  1.00  0.00     0.010 A 
ATOM     40  C   UNL A   1      46.888  28.522  36.075  1.00  0.00     0.020 A 
ATOM     41  C   UNL A   1      45.336  26.984  37.139  1.00  0.00     0.020 A 
ATOM     42  C   UNL A   1      46.641  27.372  36.830  1.00  0.00     0.054 A 
BRANCH  42  43
ATOM     43  S   UNL A   1      48.051  26.386  37.405  1.00  0.00     0.124 S 
ATOM     44  O   UNL A   1      47.877  25.148  36.648  1.00  0.00    -0.237 OA
ATOM     45  O   UNL A   1      49.198  27.202  37.016  1.00  0.00    -0.237 OA
ATOM     46  O   UNL A   1      47.829  26.273  38.844  1.00  0.00    -0.744 OA
ENDBRANCH  42  43
ENDBRANCH  23  37
BRANCH  24  47
ATOM     47  C   UNL A   1      36.719  33.124  31.154  1.00  0.00    -0.014 A 
ATOM     48  C   UNL A   1      35.525  33.422  31.836  1.00  0.00     0.010 A 
ATOM     49  C   UNL A   1      36.828  33.463  29.793  1.00  0.00     0.010 A 
ATOM     50  C   UNL A   1      34.457  34.029  31.167  1.00  0.00     0.020 A 
ATOM     51  C   UNL A   1      35.770  34.090  29.126  1.00  0.00     0.020 A 
ATOM     52  C   UNL A   1      34.586  34.360  29.816  1.00  0.00     0.054 A 
BRANCH  52  53
ATOM     53  S   UNL A   1      33.205  35.192  28.980  1.00  0.00     0.124 S 
ATOM     54  O   UNL A   1      32.271  35.409  30.080  1.00  0.00    -0.237 OA
ATOM     55  O   UNL A   1      33.841  36.393  28.442  1.00  0.00    -0.237 OA
ATOM     56  O   UNL A   1      32.779  34.220  27.976  1.00  0.00    -0.744 OA
ENDBRANCH  52  53
ENDBRANCH  24  47
BRANCH  36  57
ATOM     57  C   UNL A   1      40.035  34.395  37.156  1.00  0.00    -0.014 A 
ATOM     58  C   UNL A   1      40.590  35.675  36.987  1.00  0.00     0.010 A 
ATOM     59  C   UNL A   1      39.249  34.125  38.291  1.00  0.00     0.010 A 
ATOM     60  C   UNL A   1      40.382  36.663  37.954  1.00  0.00     0.020 A 
ATOM     61  C   UNL A   1      39.021  35.117  39.246  1.00  0.00     0.020 A 
ATOM     62  C   UNL A   1      39.600  36.377  39.078  1.00  0.00     0.054 A 
BRANCH  62  63
ATOM     63  S   UNL A   1      39.297  37.688  40.293  1.00  0.00     0.124 S 
ATOM     64  O   UNL A   1      38.235  38.457  39.650  1.00  0.00    -0.237 OA
ATOM     65  O   UNL A   1      38.898  36.940  41.484  1.00  0.00    -0.237 OA
ATOM     66  O   UNL A   1      40.586  38.367  40.395  1.00  0.00    -0.744 OA
ENDBRANCH  62  63
ENDBRANCH  36  57
ENDBRANCH  10  11
ENDBRANCH   3   5
ENDBRANCH   2   3
ENDBRANCH   1   2
BRANCH   1  67
ATOM     67  C   UNL A   1      43.046  22.569  25.872  1.00  0.00     0.275 C 
BRANCH  67  68
ATOM     68  O   UNL A   1      41.701  22.077  25.820  1.00  0.00    -0.458 OA
BRANCH  68  69
ATOM     69  C   UNL A   1      40.888  22.486  26.842  1.00  0.00     0.341 C 
ATOM     70  O   UNL A   1      41.269  22.721  27.981  1.00  0.00    -0.246 OA
BRANCH  69  71
ATOM     71  C   UNL A   1      39.524  22.685  26.412  1.00  0.00     0.098 A 
ATOM     72  C   UNL A   1      38.800  23.852  26.511  1.00  0.00     0.211 A 
ATOM     73  C   UNL A   1      38.638  21.737  25.819  1.00  0.00     0.068 A 
ATOM     74  O   UNL A   1      37.546  23.680  26.020  1.00  0.00    -0.462 OA
ATOM     75  C   UNL A   1      37.416  22.360  25.680  1.00  0.00     0.154 A 
BRANCH  75  76
ATOM     76  C   UNL A   1      36.124  21.722  25.295  1.00  0.00     0.117 A 
ATOM     77  C   UNL A   1      34.951  22.446  25.264  1.00  0.00     0.099 A 
ATOM     78  N   UNL A   1      35.998  20.363  25.040  1.00  0.00    -0.231 NA
ATOM     79  S   UNL A   1      33.642  21.417  24.881  1.00  0.00    -0.120 S 
ATOM     80  C   UNL A   1      34.717  20.064  24.890  1.00  0.00     0.142 A 
BRANCH  80  81
ATOM     81  C   UNL A   1      34.116  18.727  24.838  1.00  0.00     0.099 A 
ATOM     82  C   UNL A   1      34.868  17.630  24.409  1.00  0.00     0.033 A 
ATOM     83  N   UNL A   1      32.857  18.612  25.335  1.00  0.00    -0.252 NA
ATOM     84  C   UNL A   1      34.317  16.352  24.513  1.00  0.00     0.024 A 
ATOM     85  C   UNL A   1      32.348  17.355  25.407  1.00  0.00     0.132 A 
ATOM     86  C   UNL A   1      33.034  16.210  25.026  1.00  0.00     0.059 A 
ATOM     87  Cl  UNL A   1      32.328  14.658  25.210  1.00  0.00    -0.083 Cl
ENDBRANCH  80  81
ENDBRANCH  75  76
ENDBRANCH  69  71
ENDBRANCH  68  69
ENDBRANCH  67  68
ENDBRANCH   1  67
TORSDOF 16
ENDMDL
MODEL 3
REMARK VINA RESULT:      -9.8      1.253      8.354
REMARK SMILES O=C(OCCOC(=O)c1coc(-c2csc(-c3ccc(Cl)cn3)n2)c1)c1ccc(-c2c3nc(c(-c4ccc(S(=O)(=O)[O-])cc4)c4ccc([nH]4)c(-c4ccc(S(=O)(=O)[O-])cc4)c4nc(c(-c5ccc(S(=O)(=O)[O-])cc5)c5ccc2[nH]5)C=C4)C=C3)cc1
REMARK SMILES IDX 4 1 3 2 2 3 1 4 26 5 27 6 85 7 28 8 84 9 29 10 30 11 31 12
REMARK SMILES IDX 78 13 32 14 83 15 77 16 79 17 33 18 82 19 76 20 75 21 34 23
REMARK SMILES IDX 64 24 45 25 63 26 46 27 49 28 62 29 80 30 47 31 48 32 61 34
REMARK SMILES IDX 81 35 50 36 35 37 36 38 44 39 37 40 43 41 38 42 39 43 40 44
REMARK SMILES IDX 41 45 42 46 65 47 66 48 74 49 67 50 73 51 68 52 69 53 70 54
REMARK SMILES IDX 71 55 72 56 51 57 52 58 60 59 53 60 59 61 54 62 55 63 56 64
REMARK SMILES IDX 57 65 58 66 5 67 6 68 7 69 8 70 9 71 10 72 25 73 11 74 12 75
REMARK SMILES IDX 13 76 14 77 24 78 15 79 16 80 17 81 18 82 23 83 19 84 22 85
REMARK SMILES IDX 20 86 21 87
REMARK H PARENT 79 22 49 33
REMARK Flexibility Score: inf
ROOT
ATOM      1  C   UNL A   1      33.850  32.929  28.327  1.00  0.00     0.275 C 
ENDROOT
BRANCH   1   2
ATOM      2  O   UNL A   1      33.875  31.818  27.412  1.00  0.00    -0.458 OA
BRANCH   2   3
ATOM      3  C   UNL A   1      34.187  30.518  27.624  1.00  0.00     0.338 C 
ATOM      4  O   UNL A   1      33.301  29.672  27.525  1.00  0.00    -0.246 OA
BRANCH   3   5
ATOM      5  C   UNL A   1      35.523  30.068  28.120  1.00  0.00     0.060 A 
ATOM      6  C   UNL A   1      35.819  29.677  29.428  1.00  0.00     0.016 A 
ATOM      7  C   UNL A   1      36.577  30.102  27.189  1.00  0.00     0.016 A 
ATOM      8  C   UNL A   1      37.110  29.275  29.782  1.00  0.00     0.010 A 
ATOM      9  C   UNL A   1      37.870  29.692  27.535  1.00  0.00     0.010 A 
ATOM     10  C   UNL A   1      38.145  29.289  28.844  1.00  0.00    -0.014 A 
BRANCH  10  11
ATOM     11  C   UNL A   1      39.537  29.074  29.302  1.00  0.00     0.031 A 
ATOM     12  C   UNL A   1      40.196  27.765  28.975  1.00  0.00     0.074 A 
ATOM     13  C   UNL A   1      40.222  30.056  29.917  1.00  0.00     0.049 A 
ATOM     14  N   UNL A   1      41.439  27.400  29.145  1.00  0.00    -0.248 NA
ATOM     15  C   UNL A   1      39.341  26.731  28.368  1.00  0.00     0.031 C 
ATOM     16  C   UNL A   1      39.687  31.372  30.263  1.00  0.00     0.029 A 
ATOM     17  N   UNL A   1      41.527  30.104  30.338  1.00  0.00    -0.354 N 
ATOM     18  C   UNL A   1      41.519  26.106  28.648  1.00  0.00     0.074 A 
ATOM     19  C   UNL A   1      40.191  25.726  28.225  1.00  0.00     0.031 C 
ATOM     20  C   UNL A   1      40.662  32.108  30.824  1.00  0.00     0.029 A 
ATOM     21  C   UNL A   1      41.885  31.313  30.887  1.00  0.00     0.049 A 
ATOM     22  H   UNL A   1      42.148  29.345  30.256  1.00  0.00     0.167 HD
ATOM     23  C   UNL A   1      42.607  25.307  28.534  1.00  0.00     0.031 A 
ATOM     24  C   UNL A   1      43.073  31.732  31.368  1.00  0.00     0.031 A 
ATOM     25  C   UNL A   1      43.919  25.677  28.980  1.00  0.00     0.049 A 
ATOM     26  C   UNL A   1      44.257  30.804  31.289  1.00  0.00     0.074 A 
ATOM     27  C   UNL A   1      45.088  24.942  28.932  1.00  0.00     0.029 A 
ATOM     28  N   UNL A   1      44.230  26.895  29.568  1.00  0.00    -0.354 N 
ATOM     29  N   UNL A   1      44.322  29.595  30.779  1.00  0.00    -0.248 NA
ATOM     30  C   UNL A   1      45.528  31.300  31.830  1.00  0.00     0.031 C 
ATOM     31  C   UNL A   1      46.102  25.704  29.527  1.00  0.00     0.029 A 
ATOM     32  C   UNL A   1      45.571  26.929  29.903  1.00  0.00     0.049 A 
ATOM     33  H   UNL A   1      43.591  27.628  29.722  1.00  0.00     0.167 HD
ATOM     34  C   UNL A   1      45.652  29.204  30.902  1.00  0.00     0.074 A 
ATOM     35  C   UNL A   1      46.354  30.304  31.533  1.00  0.00     0.031 C 
ATOM     36  C   UNL A   1      46.242  28.045  30.519  1.00  0.00     0.031 A 
BRANCH  23  37
ATOM     37  C   UNL A   1      42.380  23.949  27.932  1.00  0.00    -0.014 A 
ATOM     38  C   UNL A   1      42.071  22.840  28.743  1.00  0.00     0.010 A 
ATOM     39  C   UNL A   1      42.543  23.763  26.548  1.00  0.00     0.010 A 
ATOM     40  C   UNL A   1      41.996  21.559  28.191  1.00  0.00     0.020 A 
ATOM     41  C   UNL A   1      42.445  22.486  25.989  1.00  0.00     0.020 A 
ATOM     42  C   UNL A   1      42.202  21.389  26.819  1.00  0.00     0.054 A 
BRANCH  42  43
ATOM     43  S   UNL A   1      42.149  19.712  26.129  1.00  0.00     0.124 S 
ATOM     44  O   UNL A   1      40.743  19.591  25.749  1.00  0.00    -0.237 OA
ATOM     45  O   UNL A   1      43.093  19.789  25.017  1.00  0.00    -0.237 OA
ATOM     46  O   UNL A   1      42.569  18.867  27.243  1.00  0.00    -0.744 OA
ENDBRANCH  42  43
ENDBRANCH  23  37
BRANCH  24  47
ATOM     47  C   UNL A   1      43.214  33.104  31.933  1.00  0.00    -0.014 A 
ATOM     48  C   UNL A   1      43.554  34.190  31.105  1.00  0.00     0.010 A 
ATOM     49  C   UNL A   1      43.007  33.333  33.305  1.00  0.00     0.010 A 
ATOM     50  C   UNL A   1      43.702  35.473  31.641  1.00  0.00     0.020 A 
ATOM     51  C   UNL A   1      43.132  34.619  33.842  1.00  0.00     0.020 A 
ATOM     52  C   UNL A   1      43.489  35.681  33.007  1.00  0.00     0.054 A 
BRANCH  52  53
ATOM     53  S   UNL A   1      43.638  37.363  33.673  1.00  0.00     0.124 S 
ATOM     54  O   UNL A   1      44.827  37.253  34.513  1.00  0.00    -0.237 OA
ATOM     55  O   UNL A   1      43.789  38.168  32.464  1.00  0.00    -0.237 OA
ATOM     56  O   UNL A   1      42.379  37.559  34.389  1.00  0.00    -0.744 OA
ENDBRANCH  52  53
ENDBRANCH  24  47
BRANCH  36  57
ATOM     57  C   UNL A   1      47.728  27.927  30.724  1.00  0.00    -0.014 A 
ATOM     58  C   UNL A   1      48.259  27.290  31.857  1.00  0.00     0.010 A 
ATOM     59  C   UNL A   1      48.598  28.406  29.727  1.00  0.00     0.010 A 
ATOM     60  C   UNL A   1      49.643  27.156  32.004  1.00  0.00     0.020 A 
ATOM     61  C   UNL A   1      49.979  28.254  29.860  1.00  0.00     0.020 A 
ATOM     62  C   UNL A   1      50.493  27.641  31.005  1.00  0.00     0.054 A 
BRANCH  62  63
ATOM     63  S   UNL A   1      52.283  27.409  31.187  1.00  0.00     0.124 S 
ATOM     64  O   UNL A   1      52.673  26.998  29.842  1.00  0.00    -0.237 OA
ATOM     65  O   UNL A   1      52.740  28.736  31.597  1.00  0.00    -0.237 OA
ATOM     66  O   UNL A   1      52.394  26.376  32.214  1.00  0.00    -0.744 OA
ENDBRANCH  62  63
ENDBRANCH  36  57
ENDBRANCH  10  11
ENDBRANCH   3   5
ENDBRANCH   2   3
ENDBRANCH   1   2
BRANCH   1  67
ATOM     67  C   UNL A   1      35.219  33.542  28.626  1.00  0.00     0.275 C 
BRANCH  67  68
ATOM     68  O   UNL A   1      35.198  34.546  29.649  1.00  0.00    -0.458 OA
BRANCH  68  69
ATOM     69  C   UNL A   1      34.219  34.399  30.594  1.00  0.00     0.341 C 
ATOM     70  O   UNL A   1      33.049  34.722  30.439  1.00  0.00    -0.246 OA
BRANCH  69  71
ATOM     71  C   UNL A   1      34.702  33.744  31.787  1.00  0.00     0.098 A 
ATOM     72  C   UNL A   1      34.100  33.757  33.025  1.00  0.00     0.211 A 
ATOM     73  C   UNL A   1      35.891  32.972  31.949  1.00  0.00     0.068 A 
ATOM     74  O   UNL A   1      34.834  33.049  33.921  1.00  0.00    -0.462 OA
ATOM     75  C   UNL A   1      35.977  32.644  33.286  1.00  0.00     0.154 A 
BRANCH  75  76
ATOM     76  C   UNL A   1      37.138  32.015  33.981  1.00  0.00     0.117 A 
ATOM     77  C   UNL A   1      37.587  32.490  35.194  1.00  0.00     0.099 A 
ATOM     78  N   UNL A   1      37.892  30.992  33.420  1.00  0.00    -0.231 NA
ATOM     79  S   UNL A   1      38.979  31.627  35.678  1.00  0.00    -0.120 S 
ATOM     80  C   UNL A   1      38.945  30.757  34.186  1.00  0.00     0.142 A 
BRANCH  80  81
ATOM     81  C   UNL A   1      40.114  29.932  33.861  1.00  0.00     0.099 A 
ATOM     82  C   UNL A   1      41.379  30.278  34.343  1.00  0.00     0.033 A 
ATOM     83  N   UNL A   1      39.870  28.781  33.183  1.00  0.00    -0.252 NA
ATOM     84  C   UNL A   1      42.441  29.395  34.144  1.00  0.00     0.024 A 
ATOM     85  C   UNL A   1      40.931  27.954  32.995  1.00  0.00     0.132 A 
ATOM     86  C   UNL A   1      42.213  28.208  33.461  1.00  0.00     0.059 A 
ATOM     87  Cl  UNL A   1      43.477  27.073  33.223  1.00  0.00    -0.083 Cl
ENDBRANCH  80  81
ENDBRANCH  75  76
ENDBRANCH  69  71
ENDBRANCH  68  69
ENDBRANCH  67  68
ENDBRANCH   1  67
TORSDOF 16
ENDMDL
