MODEL 1
REMARK VINA RESULT:     -12.9      0.000      0.000
REMARK SMILES Cc1c(-c2nn(-c3ccccc3)cc2/C=N/O)nnn1-c1ccc(C(=O)OCCOC(=O)c2ccc(-c3c4nc(c(-c5ccc(S(=O)(=O)[O-])cc5)c5ccc([nH]5)c(-c5ccc(S(=O)(=O)[O-])cc5)c5nc(c(-c6ccc(S(=O)(=O)[O-])cc6)c6ccc3[nH]6)C=C5)C=C4)cc2)cc1
REMARK SMILES IDX 28 1 27 2 25 3 26 4 24 5 21 6 22 7 94 8 23 9 93 10 20 11
REMARK SMILES IDX 1 12 2 13 3 14 18 15 19 16 4 17 5 18 14 19 6 20 13 21 15 22
REMARK SMILES IDX 16 23 17 24 7 26 8 27 12 28 9 29 11 30 10 31 29 32 30 33
REMARK SMILES IDX 31 34 32 35 33 36 34 37 92 38 35 39 91 40 36 41 37 42 38 43
REMARK SMILES IDX 85 44 39 45 90 46 84 47 86 48 40 49 89 50 83 51 82 52 41 54
REMARK SMILES IDX 71 55 52 56 70 57 53 58 56 59 69 60 87 61 54 62 55 63 68 65
REMARK SMILES IDX 88 66 57 67 42 68 43 69 51 70 44 71 50 72 45 73 46 74 47 75
REMARK SMILES IDX 48 76 49 77 72 78 73 79 81 80 74 81 80 82 75 83 76 84 77 85
REMARK SMILES IDX 78 86 79 87 58 88 59 89 67 90 60 91 66 92 61 93 62 94 63 95
REMARK SMILES IDX 64 96 65 97
REMARK H PARENT 17 25 86 53 56 64
REMARK Flexibility Score: inf
ROOT
ATOM      1  C   UNL A   1      43.449  19.083  25.662  1.00  0.00     0.275 C 
ENDROOT
BRANCH   1   2
ATOM      2  O   UNL A   1      42.054  19.354  25.445  1.00  0.00    -0.458 OA
BRANCH   2   3
ATOM      3  C   UNL A   1      41.368  19.815  26.523  1.00  0.00     0.338 C 
ATOM      4  O   UNL A   1      41.761  19.829  27.680  1.00  0.00    -0.246 OA
BRANCH   3   5
ATOM      5  C   UNL A   1      40.058  20.375  26.109  1.00  0.00     0.060 A 
ATOM      6  C   UNL A   1      37.719  21.438  25.044  1.00  0.00     0.067 A 
ATOM      7  C   UNL A   1      37.970  20.073  24.899  1.00  0.00     0.029 A 
ATOM      8  C   UNL A   1      38.563  22.245  25.821  1.00  0.00     0.029 A 
ATOM      9  C   UNL A   1      39.162  19.551  25.408  1.00  0.00     0.018 A 
ATOM     10  C   UNL A   1      39.725  21.707  26.369  1.00  0.00     0.018 A 
BRANCH   6  11
ATOM     11  N   UNL A   1      36.680  22.037  24.302  1.00  0.00    -0.217 N 
ATOM     12  C   UNL A   1      34.812  21.771  26.001  1.00  0.00     0.069 C 
ATOM     13  C   UNL A   1      35.351  22.136  24.669  1.00  0.00     0.071 A 
ATOM     14  C   UNL A   1      34.773  22.770  23.590  1.00  0.00     0.137 A 
ATOM     15  N   UNL A   1      35.729  23.123  22.683  1.00  0.00    -0.128 NA
ATOM     16  N   UNL A   1      36.907  22.744  23.171  1.00  0.00    -0.061 NA
BRANCH  14  17
ATOM     17  C   UNL A   1      33.376  23.155  23.430  1.00  0.00     0.124 A 
ATOM     18  N   UNL A   1      33.012  24.436  23.281  1.00  0.00    -0.165 NA
ATOM     19  C   UNL A   1      32.265  22.284  23.501  1.00  0.00     0.044 A 
ATOM     20  N   UNL A   1      31.666  24.416  23.350  1.00  0.00    -0.240 N 
ATOM     21  C   UNL A   1      31.178  23.138  23.498  1.00  0.00     0.125 A 
BRANCH  19  22
ATOM     22  C   UNL A   1      32.180  20.848  23.579  1.00  0.00     0.166 C 
ATOM     23  N   UNL A   1      32.167  20.260  24.728  1.00  0.00    -0.097 NA
BRANCH  23  24
ATOM     24  O   UNL A   1      32.124  18.873  24.540  1.00  0.00    -0.411 OA
ATOM     25  H   UNL A   1      31.372  18.477  24.146  1.00  0.00     0.330 HD
ENDBRANCH  23  24
ENDBRANCH  19  22
BRANCH  20  26
ATOM     26  C   UNL A   1      30.922  25.619  23.300  1.00  0.00     0.065 A 
ATOM     27  C   UNL A   1      31.382  26.671  22.496  1.00  0.00     0.028 A 
ATOM     28  C   UNL A   1      29.750  25.765  24.052  1.00  0.00     0.028 A 
ATOM     29  C   UNL A   1      30.649  27.856  22.421  1.00  0.00     0.002 A 
ATOM     30  C   UNL A   1      29.053  26.974  24.011  1.00  0.00     0.002 A 
ATOM     31  C   UNL A   1      29.494  28.011  23.186  1.00  0.00     0.000 A 
ENDBRANCH  20  26
ENDBRANCH  14  17
ENDBRANCH   6  11
ENDBRANCH   3   5
ENDBRANCH   2   3
ENDBRANCH   1   2
BRANCH   1  32
ATOM     32  C   UNL A   1      44.328  20.149  25.022  1.00  0.00     0.275 C 
BRANCH  32  33
ATOM     33  O   UNL A   1      44.263  21.378  25.740  1.00  0.00    -0.458 OA
BRANCH  33  34
ATOM     34  C   UNL A   1      43.740  22.413  25.043  1.00  0.00     0.338 C 
ATOM     35  O   UNL A   1      43.905  22.669  23.863  1.00  0.00    -0.246 OA
BRANCH  34  36
ATOM     36  C   UNL A   1      43.111  23.348  25.978  1.00  0.00     0.060 A 
ATOM     37  C   UNL A   1      42.471  24.467  25.436  1.00  0.00     0.016 A 
ATOM     38  C   UNL A   1      43.435  23.260  27.339  1.00  0.00     0.016 A 
ATOM     39  C   UNL A   1      42.305  25.579  26.234  1.00  0.00     0.010 A 
ATOM     40  C   UNL A   1      43.289  24.374  28.124  1.00  0.00     0.010 A 
ATOM     41  C   UNL A   1      42.793  25.540  27.542  1.00  0.00    -0.014 A 
BRANCH  41  42
ATOM     42  C   UNL A   1      42.714  26.737  28.350  1.00  0.00     0.031 A 
ATOM     43  C   UNL A   1      43.846  27.669  28.150  1.00  0.00     0.074 A 
ATOM     44  C   UNL A   1      41.608  27.028  29.058  1.00  0.00     0.049 A 
ATOM     45  N   UNL A   1      44.683  28.095  29.034  1.00  0.00    -0.248 NA
ATOM     46  C   UNL A   1      44.175  28.061  26.769  1.00  0.00     0.031 C 
ATOM     47  C   UNL A   1      40.335  26.299  29.075  1.00  0.00     0.029 A 
ATOM     48  N   UNL A   1      41.336  28.139  29.792  1.00  0.00    -0.354 N 
ATOM     49  C   UNL A   1      45.533  28.964  28.359  1.00  0.00     0.074 A 
ATOM     50  C   UNL A   1      45.289  28.768  26.954  1.00  0.00     0.031 C 
ATOM     51  C   UNL A   1      39.370  27.115  29.555  1.00  0.00     0.029 A 
ATOM     52  C   UNL A   1      39.977  28.369  29.974  1.00  0.00     0.049 A 
ATOM     53  H   UNL A   1      42.035  28.726  30.160  1.00  0.00     0.167 HD
ATOM     54  C   UNL A   1      46.209  29.953  29.004  1.00  0.00     0.031 A 
ATOM     55  C   UNL A   1      39.399  29.544  30.333  1.00  0.00     0.031 A 
ATOM     56  C   UNL A   1      46.219  29.754  30.428  1.00  0.00     0.049 A 
ATOM     57  C   UNL A   1      40.461  30.389  30.940  1.00  0.00     0.074 A 
ATOM     58  C   UNL A   1      46.688  28.754  31.257  1.00  0.00     0.029 A 
ATOM     59  N   UNL A   1      45.320  30.483  31.174  1.00  0.00    -0.354 N 
ATOM     60  N   UNL A   1      41.042  30.104  32.073  1.00  0.00    -0.248 NA
ATOM     61  C   UNL A   1      41.212  31.290  30.074  1.00  0.00     0.031 C 
ATOM     62  C   UNL A   1      45.709  28.642  32.285  1.00  0.00     0.029 A 
ATOM     63  C   UNL A   1      44.737  29.620  32.068  1.00  0.00     0.049 A 
ATOM     64  H   UNL A   1      45.130  31.445  31.082  1.00  0.00     0.167 HD
ATOM     65  C   UNL A   1      42.382  30.409  31.875  1.00  0.00     0.074 A 
ATOM     66  C   UNL A   1      42.408  31.237  30.672  1.00  0.00     0.031 C 
ATOM     67  C   UNL A   1      43.368  29.726  32.531  1.00  0.00     0.031 A 
BRANCH  54  68
ATOM     68  C   UNL A   1      46.513  31.285  28.376  1.00  0.00    -0.014 A 
ATOM     69  C   UNL A   1      45.470  32.219  28.223  1.00  0.00     0.010 A 
ATOM     70  C   UNL A   1      47.714  31.540  27.679  1.00  0.00     0.010 A 
ATOM     71  C   UNL A   1      45.599  33.309  27.354  1.00  0.00     0.020 A 
ATOM     72  C   UNL A   1      47.868  32.647  26.847  1.00  0.00     0.020 A 
ATOM     73  C   UNL A   1      46.792  33.503  26.657  1.00  0.00     0.054 A 
BRANCH  73  74
ATOM     74  S   UNL A   1      46.902  34.832  25.436  1.00  0.00     0.124 S 
ATOM     75  O   UNL A   1      45.817  34.487  24.522  1.00  0.00    -0.237 OA
ATOM     76  O   UNL A   1      46.691  36.023  26.253  1.00  0.00    -0.237 OA
ATOM     77  O   UNL A   1      48.251  34.685  24.892  1.00  0.00    -0.744 OA
ENDBRANCH  73  74
ENDBRANCH  54  68
BRANCH  55  78
ATOM     78  C   UNL A   1      38.084  30.074  29.885  1.00  0.00    -0.014 A 
ATOM     79  C   UNL A   1      37.142  30.569  30.806  1.00  0.00     0.010 A 
ATOM     80  C   UNL A   1      37.847  30.328  28.518  1.00  0.00     0.010 A 
ATOM     81  C   UNL A   1      36.042  31.336  30.379  1.00  0.00     0.020 A 
ATOM     82  C   UNL A   1      36.748  31.077  28.082  1.00  0.00     0.020 A 
ATOM     83  C   UNL A   1      35.863  31.601  29.018  1.00  0.00     0.054 A 
BRANCH  83  84
ATOM     84  S   UNL A   1      34.554  32.743  28.484  1.00  0.00     0.124 S 
ATOM     85  O   UNL A   1      33.616  31.850  27.812  1.00  0.00    -0.237 OA
ATOM     86  O   UNL A   1      34.094  33.311  29.748  1.00  0.00    -0.237 OA
ATOM     87  O   UNL A   1      35.253  33.681  27.606  1.00  0.00    -0.744 OA
ENDBRANCH  83  84
ENDBRANCH  55  78
BRANCH  67  88
ATOM     88  C   UNL A   1      42.978  28.800  33.662  1.00  0.00    -0.014 A 
ATOM     89  C   UNL A   1      42.602  29.253  34.942  1.00  0.00     0.010 A 
ATOM     90  C   UNL A   1      42.819  27.435  33.364  1.00  0.00     0.010 A 
ATOM     91  C   UNL A   1      42.111  28.360  35.906  1.00  0.00     0.020 A 
ATOM     92  C   UNL A   1      42.311  26.544  34.312  1.00  0.00     0.020 A 
ATOM     93  C   UNL A   1      41.969  27.009  35.583  1.00  0.00     0.054 A 
BRANCH  93  94
ATOM     94  S   UNL A   1      41.288  25.865  36.817  1.00  0.00     0.124 S 
ATOM     95  O   UNL A   1      42.489  25.259  37.384  1.00  0.00    -0.237 OA
ATOM     96  O   UNL A   1      40.548  26.752  37.712  1.00  0.00    -0.237 OA
ATOM     97  O   UNL A   1      40.452  24.959  36.028  1.00  0.00    -0.744 OA
ENDBRANCH  93  94
ENDBRANCH  67  88
ENDBRANCH  41  42
ENDBRANCH  34  36
ENDBRANCH  33  34
ENDBRANCH  32  33
ENDBRANCH   1  32
TORSDOF 19
ENDMDL
MODEL 2
REMARK VINA RESULT:     -12.5      2.908     10.245
REMARK SMILES Cc1c(-c2nn(-c3ccccc3)cc2/C=N/O)nnn1-c1ccc(C(=O)OCCOC(=O)c2ccc(-c3c4nc(c(-c5ccc(S(=O)(=O)[O-])cc5)c5ccc([nH]5)c(-c5ccc(S(=O)(=O)[O-])cc5)c5nc(c(-c6ccc(S(=O)(=O)[O-])cc6)c6ccc3[nH]6)C=C5)C=C4)cc2)cc1
REMARK SMILES IDX 28 1 27 2 25 3 26 4 24 5 21 6 22 7 94 8 23 9 93 10 20 11
REMARK SMILES IDX 1 12 2 13 3 14 18 15 19 16 4 17 5 18 14 19 6 20 13 21 15 22
REMARK SMILES IDX 16 23 17 24 7 26 8 27 12 28 9 29 11 30 10 31 29 32 30 33
REMARK SMILES IDX 31 34 32 35 33 36 34 37 92 38 35 39 91 40 36 41 37 42 38 43
REMARK SMILES IDX 85 44 39 45 90 46 84 47 86 48 40 49 89 50 83 51 82 52 41 54
REMARK SMILES IDX 71 55 52 56 70 57 53 58 56 59 69 60 87 61 54 62 55 63 68 65
REMARK SMILES IDX 88 66 57 67 42 68 43 69 51 70 44 71 50 72 45 73 46 74 47 75
REMARK SMILES IDX 48 76 49 77 72 78 73 79 81 80 74 81 80 82 75 83 76 84 77 85
REMARK SMILES IDX 78 86 79 87 58 88 59 89 67 90 60 91 66 92 61 93 62 94 63 95
REMARK SMILES IDX 64 96 65 97
REMARK H PARENT 17 25 86 53 56 64
REMARK Flexibility Score: inf
ROOT
ATOM      1  C   UNL A   1      32.932  36.046  30.106  1.00  0.00     0.275 C 
ENDROOT
BRANCH   1   2
ATOM      2  O   UNL A   1      32.639  34.854  29.357  1.00  0.00    -0.458 OA
BRANCH   2   3
ATOM      3  C   UNL A   1      33.548  34.519  28.404  1.00  0.00     0.338 C 
ATOM      4  O   UNL A   1      34.528  35.171  28.075  1.00  0.00    -0.246 OA
BRANCH   3   5
ATOM      5  C   UNL A   1      33.232  33.189  27.826  1.00  0.00     0.060 A 
ATOM      6  C   UNL A   1      32.444  30.659  26.982  1.00  0.00     0.067 A 
ATOM      7  C   UNL A   1      31.625  31.754  26.698  1.00  0.00     0.029 A 
ATOM      8  C   UNL A   1      33.704  30.838  27.570  1.00  0.00     0.029 A 
ATOM      9  C   UNL A   1      32.012  33.017  27.152  1.00  0.00     0.018 A 
ATOM     10  C   UNL A   1      34.105  32.108  27.977  1.00  0.00     0.018 A 
BRANCH   6  11
ATOM     11  N   UNL A   1      31.948  29.353  26.791  1.00  0.00    -0.217 N 
ATOM     12  C   UNL A   1      32.513  29.100  24.328  1.00  0.00     0.069 C 
ATOM     13  C   UNL A   1      31.895  28.653  25.600  1.00  0.00     0.071 A 
ATOM     14  C   UNL A   1      31.303  27.462  25.961  1.00  0.00     0.137 A 
ATOM     15  N   UNL A   1      31.116  27.419  27.312  1.00  0.00    -0.128 NA
ATOM     16  N   UNL A   1      31.595  28.551  27.821  1.00  0.00    -0.061 NA
BRANCH  14  17
ATOM     17  C   UNL A   1      31.010  26.319  25.104  1.00  0.00     0.124 A 
ATOM     18  N   UNL A   1      31.507  25.102  25.359  1.00  0.00    -0.165 NA
ATOM     19  C   UNL A   1      30.275  26.360  23.896  1.00  0.00     0.044 A 
ATOM     20  N   UNL A   1      31.181  24.370  24.275  1.00  0.00    -0.240 N 
ATOM     21  C   UNL A   1      30.450  25.096  23.364  1.00  0.00     0.125 A 
BRANCH  19  22
ATOM     22  C   UNL A   1      29.512  27.414  23.277  1.00  0.00     0.166 C 
ATOM     23  N   UNL A   1      28.256  27.549  23.544  1.00  0.00    -0.097 NA
BRANCH  23  24
ATOM     24  O   UNL A   1      27.733  28.607  22.792  1.00  0.00    -0.411 OA
ATOM     25  H   UNL A   1      27.732  29.476  23.143  1.00  0.00     0.330 HD
ENDBRANCH  23  24
ENDBRANCH  19  22
BRANCH  20  26
ATOM     26  C   UNL A   1      31.608  23.026  24.156  1.00  0.00     0.065 A 
ATOM     27  C   UNL A   1      31.855  22.284  25.320  1.00  0.00     0.028 A 
ATOM     28  C   UNL A   1      31.798  22.445  22.896  1.00  0.00     0.028 A 
ATOM     29  C   UNL A   1      32.258  20.953  25.220  1.00  0.00     0.002 A 
ATOM     30  C   UNL A   1      32.252  21.128  22.807  1.00  0.00     0.002 A 
ATOM     31  C   UNL A   1      32.468  20.379  23.966  1.00  0.00     0.000 A 
ENDBRANCH  20  26
ENDBRANCH  14  17
ENDBRANCH   6  11
ENDBRANCH   3   5
ENDBRANCH   2   3
ENDBRANCH   1   2
BRANCH   1  32
ATOM     32  C   UNL A   1      33.222  35.727  31.566  1.00  0.00     0.275 C 
BRANCH  32  33
ATOM     33  O   UNL A   1      34.458  35.032  31.712  1.00  0.00    -0.458 OA
BRANCH  33  34
ATOM     34  C   UNL A   1      34.336  33.720  32.017  1.00  0.00     0.338 C 
ATOM     35  O   UNL A   1      33.593  33.217  32.841  1.00  0.00    -0.246 OA
BRANCH  34  36
ATOM     36  C   UNL A   1      35.415  32.977  31.363  1.00  0.00     0.060 A 
ATOM     37  C   UNL A   1      35.471  31.597  31.583  1.00  0.00     0.016 A 
ATOM     38  C   UNL A   1      36.494  33.691  30.825  1.00  0.00     0.016 A 
ATOM     39  C   UNL A   1      36.680  30.954  31.417  1.00  0.00     0.010 A 
ATOM     40  C   UNL A   1      37.700  33.054  30.681  1.00  0.00     0.010 A 
ATOM     41  C   UNL A   1      37.794  31.713  31.048  1.00  0.00    -0.014 A 
BRANCH  41  42
ATOM     42  C   UNL A   1      39.084  31.063  30.973  1.00  0.00     0.031 A 
ATOM     43  C   UNL A   1      39.769  30.942  32.279  1.00  0.00     0.074 A 
ATOM     44  C   UNL A   1      39.500  30.470  29.840  1.00  0.00     0.049 A 
ATOM     45  N   UNL A   1      40.922  31.411  32.612  1.00  0.00    -0.248 NA
ATOM     46  C   UNL A   1      39.013  30.347  33.397  1.00  0.00     0.031 C 
ATOM     47  C   UNL A   1      38.752  30.296  28.590  1.00  0.00     0.029 A 
ATOM     48  N   UNL A   1      40.632  29.748  29.624  1.00  0.00    -0.354 N 
ATOM     49  C   UNL A   1      41.127  31.008  33.927  1.00  0.00     0.074 A 
ATOM     50  C   UNL A   1      39.862  30.518  34.409  1.00  0.00     0.031 C 
ATOM     51  C   UNL A   1      39.331  29.311  27.867  1.00  0.00     0.029 A 
ATOM     52  C   UNL A   1      40.538  28.871  28.550  1.00  0.00     0.049 A 
ATOM     53  H   UNL A   1      41.441  29.839  30.176  1.00  0.00     0.167 HD
ATOM     54  C   UNL A   1      42.376  30.884  34.454  1.00  0.00     0.031 A 
ATOM     55  C   UNL A   1      41.333  27.797  28.315  1.00  0.00     0.031 A 
ATOM     56  C   UNL A   1      43.366  31.541  33.645  1.00  0.00     0.049 A 
ATOM     57  C   UNL A   1      42.574  27.984  29.112  1.00  0.00     0.074 A 
ATOM     58  C   UNL A   1      43.561  32.844  33.231  1.00  0.00     0.029 A 
ATOM     59  N   UNL A   1      44.119  30.753  32.803  1.00  0.00    -0.354 N 
ATOM     60  N   UNL A   1      43.443  28.926  28.871  1.00  0.00    -0.248 NA
ATOM     61  C   UNL A   1      42.623  27.434  30.462  1.00  0.00     0.031 C 
ATOM     62  C   UNL A   1      44.028  32.736  31.890  1.00  0.00     0.029 A 
ATOM     63  C   UNL A   1      44.158  31.380  31.583  1.00  0.00     0.049 A 
ATOM     64  H   UNL A   1      44.548  29.897  33.034  1.00  0.00     0.167 HD
ATOM     65  C   UNL A   1      43.827  29.389  30.122  1.00  0.00     0.074 A 
ATOM     66  C   UNL A   1      43.377  28.363  31.060  1.00  0.00     0.031 C 
ATOM     67  C   UNL A   1      44.209  30.689  30.311  1.00  0.00     0.031 A 
BRANCH  54  68
ATOM     68  C   UNL A   1      42.735  29.843  35.478  1.00  0.00    -0.014 A 
ATOM     69  C   UNL A   1      43.778  30.113  36.385  1.00  0.00     0.010 A 
ATOM     70  C   UNL A   1      42.279  28.509  35.398  1.00  0.00     0.010 A 
ATOM     71  C   UNL A   1      44.384  29.083  37.115  1.00  0.00     0.020 A 
ATOM     72  C   UNL A   1      42.845  27.485  36.155  1.00  0.00     0.020 A 
ATOM     73  C   UNL A   1      43.924  27.773  36.979  1.00  0.00     0.054 A 
BRANCH  73  74
ATOM     74  S   UNL A   1      44.799  26.432  37.818  1.00  0.00     0.124 S 
ATOM     75  O   UNL A   1      44.354  25.265  37.061  1.00  0.00    -0.237 OA
ATOM     76  O   UNL A   1      46.197  26.812  37.638  1.00  0.00    -0.237 OA
ATOM     77  O   UNL A   1      44.308  26.511  39.193  1.00  0.00    -0.744 OA
ENDBRANCH  73  74
ENDBRANCH  54  68
BRANCH  55  78
ATOM     78  C   UNL A   1      40.936  26.498  27.709  1.00  0.00    -0.014 A 
ATOM     79  C   UNL A   1      41.668  25.930  26.650  1.00  0.00     0.010 A 
ATOM     80  C   UNL A   1      39.973  25.682  28.339  1.00  0.00     0.010 A 
ATOM     81  C   UNL A   1      41.484  24.585  26.279  1.00  0.00     0.020 A 
ATOM     82  C   UNL A   1      39.772  24.348  27.968  1.00  0.00     0.020 A 
ATOM     83  C   UNL A   1      40.548  23.796  26.955  1.00  0.00     0.054 A 
BRANCH  83  84
ATOM     84  S   UNL A   1      40.443  22.017  26.603  1.00  0.00     0.124 S 
ATOM     85  O   UNL A   1      40.646  21.425  27.921  1.00  0.00    -0.237 OA
ATOM     86  O   UNL A   1      39.099  21.882  26.048  1.00  0.00    -0.237 OA
ATOM     87  O   UNL A   1      41.527  21.790  25.648  1.00  0.00    -0.744 OA
ENDBRANCH  83  84
ENDBRANCH  55  78
BRANCH  67  88
ATOM     88  C   UNL A   1      44.447  31.556  29.094  1.00  0.00    -0.014 A 
ATOM     89  C   UNL A   1      45.508  31.349  28.189  1.00  0.00     0.010 A 
ATOM     90  C   UNL A   1      43.462  32.504  28.764  1.00  0.00     0.010 A 
ATOM     91  C   UNL A   1      45.596  32.092  27.003  1.00  0.00     0.020 A 
ATOM     92  C   UNL A   1      43.533  33.231  27.573  1.00  0.00     0.020 A 
ATOM     93  C   UNL A   1      44.605  33.030  26.703  1.00  0.00     0.054 A 
BRANCH  93  94
ATOM     94  S   UNL A   1      44.696  33.955  25.144  1.00  0.00     0.124 S 
ATOM     95  O   UNL A   1      44.486  32.912  24.145  1.00  0.00    -0.237 OA
ATOM     96  O   UNL A   1      43.613  34.927  25.277  1.00  0.00    -0.237 OA
ATOM     97  O   UNL A   1      46.040  34.534  25.159  1.00  0.00    -0.744 OA
ENDBRANCH  93  94
ENDBRANCH  67  88
ENDBRANCH  41  42
ENDBRANCH  34  36
ENDBRANCH  33  34
ENDBRANCH  32  33
ENDBRANCH   1  32
TORSDOF 19
ENDMDL
MODEL 3
REMARK VINA RESULT:     -12.4      2.339      4.611
REMARK SMILES Cc1c(-c2nn(-c3ccccc3)cc2/C=N/O)nnn1-c1ccc(C(=O)OCCOC(=O)c2ccc(-c3c4nc(c(-c5ccc(S(=O)(=O)[O-])cc5)c5ccc([nH]5)c(-c5ccc(S(=O)(=O)[O-])cc5)c5nc(c(-c6ccc(S(=O)(=O)[O-])cc6)c6ccc3[nH]6)C=C5)C=C4)cc2)cc1
REMARK SMILES IDX 28 1 27 2 25 3 26 4 24 5 21 6 22 7 94 8 23 9 93 10 20 11
REMARK SMILES IDX 1 12 2 13 3 14 18 15 19 16 4 17 5 18 14 19 6 20 13 21 15 22
REMARK SMILES IDX 16 23 17 24 7 26 8 27 12 28 9 29 11 30 10 31 29 32 30 33
REMARK SMILES IDX 31 34 32 35 33 36 34 37 92 38 35 39 91 40 36 41 37 42 38 43
REMARK SMILES IDX 85 44 39 45 90 46 84 47 86 48 40 49 89 50 83 51 82 52 41 54
REMARK SMILES IDX 71 55 52 56 70 57 53 58 56 59 69 60 87 61 54 62 55 63 68 65
REMARK SMILES IDX 88 66 57 67 42 68 43 69 51 70 44 71 50 72 45 73 46 74 47 75
REMARK SMILES IDX 48 76 49 77 72 78 73 79 81 80 74 81 80 82 75 83 76 84 77 85
REMARK SMILES IDX 78 86 79 87 58 88 59 89 67 90 60 91 66 92 61 93 62 94 63 95
REMARK SMILES IDX 64 96 65 97
REMARK H PARENT 17 25 86 53 56 64
REMARK Flexibility Score: inf
ROOT
ATOM      1  C   UNL A   1      36.238  20.990  24.802  1.00  0.00     0.275 C 
ENDROOT
BRANCH   1   2
ATOM      2  O   UNL A   1      35.747  19.650  24.971  1.00  0.00    -0.458 OA
BRANCH   2   3
ATOM      3  C   UNL A   1      34.406  19.490  24.825  1.00  0.00     0.338 C 
ATOM      4  O   UNL A   1      33.833  18.476  24.453  1.00  0.00    -0.246 OA
BRANCH   3   5
ATOM      5  C   UNL A   1      33.685  20.718  25.241  1.00  0.00     0.060 A 
ATOM      6  C   UNL A   1      32.553  23.180  25.868  1.00  0.00     0.067 A 
ATOM      7  C   UNL A   1      32.319  22.628  24.608  1.00  0.00     0.029 A 
ATOM      8  C   UNL A   1      33.240  22.456  26.853  1.00  0.00     0.029 A 
ATOM      9  C   UNL A   1      32.915  21.406  24.288  1.00  0.00     0.018 A 
ATOM     10  C   UNL A   1      33.792  21.215  26.543  1.00  0.00     0.018 A 
BRANCH   6  11
ATOM     11  N   UNL A   1      32.206  24.524  26.114  1.00  0.00    -0.217 N 
ATOM     12  C   UNL A   1      34.078  25.632  24.803  1.00  0.00     0.069 C 
ATOM     13  C   UNL A   1      32.909  25.646  25.715  1.00  0.00     0.071 A 
ATOM     14  C   UNL A   1      32.165  26.685  26.234  1.00  0.00     0.137 A 
ATOM     15  N   UNL A   1      31.027  26.205  26.814  1.00  0.00    -0.128 NA
ATOM     16  N   UNL A   1      31.021  24.884  26.659  1.00  0.00    -0.061 NA
BRANCH  14  17
ATOM     17  C   UNL A   1      32.425  28.114  26.107  1.00  0.00     0.124 A 
ATOM     18  N   UNL A   1      33.361  28.727  26.843  1.00  0.00    -0.165 NA
ATOM     19  C   UNL A   1      31.696  29.017  25.298  1.00  0.00     0.044 A 
ATOM     20  N   UNL A   1      33.184  30.039  26.590  1.00  0.00    -0.240 N 
ATOM     21  C   UNL A   1      32.180  30.256  25.675  1.00  0.00     0.125 A 
BRANCH  19  22
ATOM     22  C   UNL A   1      30.671  28.801  24.309  1.00  0.00     0.166 C 
ATOM     23  N   UNL A   1      30.990  28.643  23.068  1.00  0.00    -0.097 NA
BRANCH  23  24
ATOM     24  O   UNL A   1      29.826  28.495  22.305  1.00  0.00    -0.411 OA
ATOM     25  H   UNL A   1      29.165  29.160  22.324  1.00  0.00     0.330 HD
ENDBRANCH  23  24
ENDBRANCH  19  22
BRANCH  20  26
ATOM     26  C   UNL A   1      33.963  31.014  27.257  1.00  0.00     0.065 A 
ATOM     27  C   UNL A   1      35.279  30.700  27.624  1.00  0.00     0.028 A 
ATOM     28  C   UNL A   1      33.426  32.272  27.560  1.00  0.00     0.028 A 
ATOM     29  C   UNL A   1      36.066  31.658  28.264  1.00  0.00     0.002 A 
ATOM     30  C   UNL A   1      34.206  33.205  28.248  1.00  0.00     0.002 A 
ATOM     31  C   UNL A   1      35.527  32.903  28.586  1.00  0.00     0.000 A 
ENDBRANCH  20  26
ENDBRANCH  14  17
ENDBRANCH   6  11
ENDBRANCH   3   5
ENDBRANCH   2   3
ENDBRANCH   1   2
BRANCH   1  32
ATOM     32  C   UNL A   1      37.735  21.071  25.068  1.00  0.00     0.275 C 
BRANCH  32  33
ATOM     33  O   UNL A   1      38.104  22.348  25.583  1.00  0.00    -0.458 OA
BRANCH  33  34
ATOM     34  C   UNL A   1      39.195  22.341  26.383  1.00  0.00     0.338 C 
ATOM     35  O   UNL A   1      39.642  21.401  27.017  1.00  0.00    -0.246 OA
BRANCH  34  36
ATOM     36  C   UNL A   1      39.656  23.717  26.572  1.00  0.00     0.060 A 
ATOM     37  C   UNL A   1      41.034  23.923  26.697  1.00  0.00     0.016 A 
ATOM     38  C   UNL A   1      38.720  24.698  26.928  1.00  0.00     0.016 A 
ATOM     39  C   UNL A   1      41.472  25.061  27.342  1.00  0.00     0.010 A 
ATOM     40  C   UNL A   1      39.157  25.818  27.587  1.00  0.00     0.010 A 
ATOM     41  C   UNL A   1      40.520  25.948  27.849  1.00  0.00    -0.014 A 
BRANCH  41  42
ATOM     42  C   UNL A   1      40.971  27.089  28.615  1.00  0.00     0.031 A 
ATOM     43  C   UNL A   1      42.156  27.764  28.040  1.00  0.00     0.074 A 
ATOM     44  C   UNL A   1      40.244  27.574  29.638  1.00  0.00     0.049 A 
ATOM     45  N   UNL A   1      43.304  27.952  28.596  1.00  0.00    -0.248 NA
ATOM     46  C   UNL A   1      42.102  28.151  26.619  1.00  0.00     0.031 C 
ATOM     47  C   UNL A   1      38.915  27.136  30.081  1.00  0.00     0.029 A 
ATOM     48  N   UNL A   1      40.474  28.676  30.399  1.00  0.00    -0.354 N 
ATOM     49  C   UNL A   1      44.062  28.653  27.664  1.00  0.00     0.074 A 
ATOM     50  C   UNL A   1      43.343  28.590  26.419  1.00  0.00     0.031 C 
ATOM     51  C   UNL A   1      38.361  28.114  30.833  1.00  0.00     0.029 A 
ATOM     52  C   UNL A   1      39.332  29.183  31.007  1.00  0.00     0.049 A 
ATOM     53  H   UNL A   1      41.366  29.077  30.508  1.00  0.00     0.167 HD
ATOM     54  C   UNL A   1      45.111  29.436  28.036  1.00  0.00     0.031 A 
ATOM     55  C   UNL A   1      39.175  30.433  31.511  1.00  0.00     0.031 A 
ATOM     56  C   UNL A   1      45.533  29.164  29.383  1.00  0.00     0.049 A 
ATOM     57  C   UNL A   1      40.534  30.997  31.724  1.00  0.00     0.074 A 
ATOM     58  C   UNL A   1      46.009  28.044  30.034  1.00  0.00     0.029 A 
ATOM     59  N   UNL A   1      45.105  30.028  30.366  1.00  0.00    -0.354 N 
ATOM     60  N   UNL A   1      41.369  30.533  32.612  1.00  0.00    -0.248 NA
ATOM     61  C   UNL A   1      41.148  31.760  30.643  1.00  0.00     0.031 C 
ATOM     62  C   UNL A   1      45.413  28.090  31.326  1.00  0.00     0.029 A 
ATOM     63  C   UNL A   1      44.664  29.265  31.417  1.00  0.00     0.049 A 
ATOM     64  H   UNL A   1      45.114  31.012  30.322  1.00  0.00     0.167 HD
ATOM     65  C   UNL A   1      42.608  30.552  31.984  1.00  0.00     0.074 A 
ATOM     66  C   UNL A   1      42.429  31.418  30.821  1.00  0.00     0.031 C 
ATOM     67  C   UNL A   1      43.576  29.638  32.298  1.00  0.00     0.031 A 
BRANCH  54  68
ATOM     68  C   UNL A   1      45.484  30.704  27.317  1.00  0.00    -0.014 A 
ATOM     69  C   UNL A   1      46.843  30.965  27.059  1.00  0.00     0.010 A 
ATOM     70  C   UNL A   1      44.577  31.772  27.140  1.00  0.00     0.010 A 
ATOM     71  C   UNL A   1      47.279  32.251  26.718  1.00  0.00     0.020 A 
ATOM     72  C   UNL A   1      44.996  33.044  26.757  1.00  0.00     0.020 A 
ATOM     73  C   UNL A   1      46.352  33.286  26.589  1.00  0.00     0.054 A 
BRANCH  73  74
ATOM     74  S   UNL A   1      46.936  34.970  26.284  1.00  0.00     0.124 S 
ATOM     75  O   UNL A   1      47.705  35.242  27.495  1.00  0.00    -0.237 OA
ATOM     76  O   UNL A   1      47.714  34.811  25.059  1.00  0.00    -0.237 OA
ATOM     77  O   UNL A   1      45.702  35.739  26.139  1.00  0.00    -0.744 OA
ENDBRANCH  73  74
ENDBRANCH  54  68
BRANCH  55  78
ATOM     78  C   UNL A   1      37.937  31.258  31.504  1.00  0.00    -0.014 A 
ATOM     79  C   UNL A   1      36.694  30.716  31.878  1.00  0.00     0.010 A 
ATOM     80  C   UNL A   1      38.017  32.660  31.367  1.00  0.00     0.010 A 
ATOM     81  C   UNL A   1      35.594  31.548  32.161  1.00  0.00     0.020 A 
ATOM     82  C   UNL A   1      36.925  33.495  31.631  1.00  0.00     0.020 A 
ATOM     83  C   UNL A   1      35.724  32.936  32.053  1.00  0.00     0.054 A 
BRANCH  83  84
ATOM     84  S   UNL A   1      34.367  34.016  32.596  1.00  0.00     0.124 S 
ATOM     85  O   UNL A   1      35.056  34.984  33.441  1.00  0.00    -0.237 OA
ATOM     86  O   UNL A   1      33.848  34.532  31.332  1.00  0.00    -0.237 OA
ATOM     87  O   UNL A   1      33.465  33.106  33.303  1.00  0.00    -0.744 OA
ENDBRANCH  83  84
ENDBRANCH  55  78
BRANCH  67  88
ATOM     88  C   UNL A   1      43.373  28.758  33.512  1.00  0.00    -0.014 A 
ATOM     89  C   UNL A   1      43.850  29.087  34.797  1.00  0.00     0.010 A 
ATOM     90  C   UNL A   1      42.524  27.646  33.380  1.00  0.00     0.010 A 
ATOM     91  C   UNL A   1      43.509  28.307  35.912  1.00  0.00     0.020 A 
ATOM     92  C   UNL A   1      42.163  26.878  34.489  1.00  0.00     0.020 A 
ATOM     93  C   UNL A   1      42.667  27.205  35.749  1.00  0.00     0.054 A 
BRANCH  93  94
ATOM     94  S   UNL A   1      42.189  26.227  37.201  1.00  0.00     0.124 S 
ATOM     95  O   UNL A   1      43.218  26.580  38.174  1.00  0.00    -0.237 OA
ATOM     96  O   UNL A   1      40.846  26.719  37.499  1.00  0.00    -0.237 OA
ATOM     97  O   UNL A   1      42.239  24.845  36.723  1.00  0.00    -0.744 OA
ENDBRANCH  93  94
ENDBRANCH  67  88
ENDBRANCH  41  42
ENDBRANCH  34  36
ENDBRANCH  33  34
ENDBRANCH  32  33
ENDBRANCH   1  32
TORSDOF 19
ENDMDL
