MODEL 1
REMARK VINA RESULT:      -9.5      0.000      0.000
REMARK SMILES C[NH2+][C@@]1(C(=O)OCCOC(=O)c2ccc(-c3c4nc(c(-c5ccc(S(=O)(=O)[O-])cc5)c5ccc([nH]5)c(-c5ccc(S(=O)(=O)[O-])cc5)c5nc(c(-c6ccc(S(=O)(=O)[O-])cc6)c6ccc3[nH]6)C=C5)C=C4)cc2)CC[C@@H](OC2CCC2)C1
REMARK SMILES IDX 8 1 7 2 6 3 4 4 5 5 3 6 72 7 80 8 73 9 74 10 2 11 1 12 75 15
REMARK SMILES IDX 76 16 77 17 79 18 78 19 9 20 10 21 11 22 12 23 13 24 71 25
REMARK SMILES IDX 14 26 70 27 15 28 16 29 17 30 64 31 18 32 69 33 63 34 65 35
REMARK SMILES IDX 19 36 68 37 62 38 61 39 20 41 50 42 31 43 49 44 32 45 35 46
REMARK SMILES IDX 48 47 66 48 33 49 34 50 47 52 67 53 36 54 21 55 22 56 30 57
REMARK SMILES IDX 23 58 29 59 24 60 25 61 26 62 27 63 28 64 51 65 52 66 60 67
REMARK SMILES IDX 53 68 59 69 54 70 55 71 56 72 57 73 58 74 37 75 38 76 46 77
REMARK SMILES IDX 39 78 45 79 40 80 41 81 42 82 43 83 44 84
REMARK H PARENT 2 13 2 14 65 40 35 51
REMARK Flexibility Score: inf
ROOT
ATOM      1  C   UNL A   1      37.178  21.802  24.856  1.00  0.00     0.275 C 
ENDROOT
BRANCH   1   2
ATOM      2  C   UNL A   1      36.802  22.752  23.720  1.00  0.00     0.274 C 
BRANCH   2   3
ATOM      3  O   UNL A   1      35.378  22.724  23.495  1.00  0.00    -0.457 OA
BRANCH   3   4
ATOM      4  C   UNL A   1      34.612  23.364  24.427  1.00  0.00     0.368 C 
ATOM      5  O   UNL A   1      34.987  24.364  25.029  1.00  0.00    -0.245 OA
BRANCH   4   6
ATOM      6  C   UNL A   1      33.254  22.627  24.690  1.00  0.00     0.196 C 
ATOM      7  C   UNL A   1      33.107  22.397  26.201  1.00  0.00     0.084 C 
ATOM      8  C   UNL A   1      33.216  21.212  24.062  1.00  0.00     0.113 C 
ATOM      9  C   UNL A   1      33.731  21.034  26.463  1.00  0.00     0.039 C 
ATOM     10  C   UNL A   1      33.457  20.226  25.202  1.00  0.00     0.125 C 
BRANCH   6  11
ATOM     11  N   UNL A   1      32.125  23.396  24.099  1.00  0.00    -0.334 N 
ATOM     12  C   UNL A   1      31.081  23.829  25.018  1.00  0.00     0.331 C 
ATOM     13  H   UNL A   1      32.515  24.229  23.659  1.00  0.00     0.347 HD
ATOM     14  H   UNL A   1      31.667  22.750  23.457  1.00  0.00     0.347 HD
ENDBRANCH   6  11
BRANCH  10  15
ATOM     15  O   UNL A   1      32.522  19.164  25.329  1.00  0.00    -0.375 OA
BRANCH  15  16
ATOM     16  C   UNL A   1      32.505  17.874  24.676  1.00  0.00     0.118 C 
ATOM     17  C   UNL A   1      32.903  17.670  23.207  1.00  0.00     0.032 C 
ATOM     18  C   UNL A   1      33.461  16.739  25.079  1.00  0.00     0.032 C 
ATOM     19  C   UNL A   1      34.016  16.709  23.650  1.00  0.00     0.005 C 
ENDBRANCH  15  16
ENDBRANCH  10  15
ENDBRANCH   4   6
ENDBRANCH   3   4
ENDBRANCH   2   3
ENDBRANCH   1   2
BRANCH   1  20
ATOM     20  O   UNL A   1      37.690  22.558  25.966  1.00  0.00    -0.458 OA
BRANCH  20  21
ATOM     21  C   UNL A   1      38.959  22.283  26.339  1.00  0.00     0.338 C 
ATOM     22  O   UNL A   1      39.547  21.217  26.250  1.00  0.00    -0.246 OA
BRANCH  21  23
ATOM     23  C   UNL A   1      39.573  23.505  26.877  1.00  0.00     0.060 A 
ATOM     24  C   UNL A   1      39.306  24.724  26.257  1.00  0.00     0.016 A 
ATOM     25  C   UNL A   1      40.483  23.439  27.930  1.00  0.00     0.016 A 
ATOM     26  C   UNL A   1      39.970  25.881  26.655  1.00  0.00     0.010 A 
ATOM     27  C   UNL A   1      41.110  24.611  28.369  1.00  0.00     0.010 A 
ATOM     28  C   UNL A   1      40.879  25.839  27.720  1.00  0.00    -0.014 A 
BRANCH  28  29
ATOM     29  C   UNL A   1      41.633  27.058  28.114  1.00  0.00     0.031 A 
ATOM     30  C   UNL A   1      40.903  28.223  28.725  1.00  0.00     0.074 A 
ATOM     31  C   UNL A   1      42.969  27.123  27.946  1.00  0.00     0.049 A 
ATOM     32  N   UNL A   1      41.340  29.429  28.986  1.00  0.00    -0.248 NA
ATOM     33  C   UNL A   1      39.493  28.003  29.087  1.00  0.00     0.031 C 
ATOM     34  C   UNL A   1      43.816  26.046  27.430  1.00  0.00     0.029 A 
ATOM     35  N   UNL A   1      43.851  28.147  28.195  1.00  0.00    -0.354 N 
ATOM     36  C   UNL A   1      40.249  30.125  29.492  1.00  0.00     0.074 A 
ATOM     37  C   UNL A   1      39.131  29.206  29.508  1.00  0.00     0.031 C 
ATOM     38  C   UNL A   1      45.094  26.459  27.420  1.00  0.00     0.029 A 
ATOM     39  C   UNL A   1      45.150  27.849  27.861  1.00  0.00     0.049 A 
ATOM     40  H   UNL A   1      43.578  29.013  28.576  1.00  0.00     0.167 HD
ATOM     41  C   UNL A   1      40.183  31.415  29.901  1.00  0.00     0.031 A 
ATOM     42  C   UNL A   1      46.257  28.618  27.870  1.00  0.00     0.031 A 
ATOM     43  C   UNL A   1      41.299  32.321  29.911  1.00  0.00     0.049 A 
ATOM     44  C   UNL A   1      46.153  30.059  28.285  1.00  0.00     0.074 A 
ATOM     45  C   UNL A   1      41.327  33.652  30.292  1.00  0.00     0.029 A 
ATOM     46  N   UNL A   1      42.591  31.986  29.533  1.00  0.00    -0.354 N 
ATOM     47  N   UNL A   1      45.099  30.721  28.699  1.00  0.00    -0.248 NA
ATOM     48  C   UNL A   1      47.383  30.859  28.220  1.00  0.00     0.031 C 
ATOM     49  C   UNL A   1      42.632  34.129  30.118  1.00  0.00     0.029 A 
ATOM     50  C   UNL A   1      43.422  33.085  29.665  1.00  0.00     0.049 A 
ATOM     51  H   UNL A   1      42.875  31.098  29.219  1.00  0.00     0.167 HD
ATOM     52  C   UNL A   1      45.541  32.016  28.947  1.00  0.00     0.074 A 
ATOM     53  C   UNL A   1      46.960  32.038  28.659  1.00  0.00     0.031 C 
ATOM     54  C   UNL A   1      44.831  33.091  29.371  1.00  0.00     0.031 A 
BRANCH  41  55
ATOM     55  C   UNL A   1      38.836  31.934  30.324  1.00  0.00    -0.014 A 
ATOM     56  C   UNL A   1      37.919  32.444  29.389  1.00  0.00     0.010 A 
ATOM     57  C   UNL A   1      38.480  31.895  31.686  1.00  0.00     0.010 A 
ATOM     58  C   UNL A   1      36.684  32.942  29.812  1.00  0.00     0.020 A 
ATOM     59  C   UNL A   1      37.238  32.373  32.110  1.00  0.00     0.020 A 
ATOM     60  C   UNL A   1      36.355  32.913  31.172  1.00  0.00     0.054 A 
BRANCH  60  61
ATOM     61  S   UNL A   1      34.745  33.562  31.700  1.00  0.00     0.124 S 
ATOM     62  O   UNL A   1      34.057  32.346  32.126  1.00  0.00    -0.237 OA
ATOM     63  O   UNL A   1      35.104  34.488  32.772  1.00  0.00    -0.237 OA
ATOM     64  O   UNL A   1      34.212  34.190  30.493  1.00  0.00    -0.744 OA
ENDBRANCH  60  61
ENDBRANCH  41  55
BRANCH  42  65
ATOM     65  C   UNL A   1      47.557  28.048  27.420  1.00  0.00    -0.014 A 
ATOM     66  C   UNL A   1      48.399  27.385  28.329  1.00  0.00     0.010 A 
ATOM     67  C   UNL A   1      47.949  28.154  26.074  1.00  0.00     0.010 A 
ATOM     68  C   UNL A   1      49.613  26.841  27.899  1.00  0.00     0.020 A 
ATOM     69  C   UNL A   1      49.150  27.590  25.635  1.00  0.00     0.020 A 
ATOM     70  C   UNL A   1      49.980  26.945  26.554  1.00  0.00     0.054 A 
BRANCH  70  71
ATOM     71  S   UNL A   1      51.526  26.173  25.997  1.00  0.00     0.124 S 
ATOM     72  O   UNL A   1      51.400  24.822  26.535  1.00  0.00    -0.237 OA
ATOM     73  O   UNL A   1      51.434  26.285  24.544  1.00  0.00    -0.237 OA
ATOM     74  O   UNL A   1      52.560  27.001  26.614  1.00  0.00    -0.744 OA
ENDBRANCH  70  71
ENDBRANCH  42  65
BRANCH  54  75
ATOM     75  C   UNL A   1      45.585  34.377  29.569  1.00  0.00    -0.014 A 
ATOM     76  C   UNL A   1      45.698  35.315  28.530  1.00  0.00     0.010 A 
ATOM     77  C   UNL A   1      46.145  34.668  30.825  1.00  0.00     0.010 A 
ATOM     78  C   UNL A   1      46.381  36.516  28.736  1.00  0.00     0.020 A 
ATOM     79  C   UNL A   1      46.813  35.877  31.041  1.00  0.00     0.020 A 
ATOM     80  C   UNL A   1      46.938  36.788  29.990  1.00  0.00     0.054 A 
BRANCH  80  81
ATOM     81  S   UNL A   1      47.785  38.372  30.251  1.00  0.00     0.124 S 
ATOM     82  O   UNL A   1      49.085  37.941  30.757  1.00  0.00    -0.237 OA
ATOM     83  O   UNL A   1      47.794  38.960  28.914  1.00  0.00    -0.237 OA
ATOM     84  O   UNL A   1      46.934  39.060  31.220  1.00  0.00    -0.744 OA
ENDBRANCH  80  81
ENDBRANCH  54  75
ENDBRANCH  28  29
ENDBRANCH  21  23
ENDBRANCH  20  21
ENDBRANCH   1  20
TORSDOF 17
ENDMDL
MODEL 2
REMARK VINA RESULT:      -9.5      3.265      8.534
REMARK SMILES C[NH2+][C@@]1(C(=O)OCCOC(=O)c2ccc(-c3c4nc(c(-c5ccc(S(=O)(=O)[O-])cc5)c5ccc([nH]5)c(-c5ccc(S(=O)(=O)[O-])cc5)c5nc(c(-c6ccc(S(=O)(=O)[O-])cc6)c6ccc3[nH]6)C=C5)C=C4)cc2)CC[C@@H](OC2CCC2)C1
REMARK SMILES IDX 8 1 7 2 6 3 4 4 5 5 3 6 72 7 80 8 73 9 74 10 2 11 1 12 75 15
REMARK SMILES IDX 76 16 77 17 79 18 78 19 9 20 10 21 11 22 12 23 13 24 71 25
REMARK SMILES IDX 14 26 70 27 15 28 16 29 17 30 64 31 18 32 69 33 63 34 65 35
REMARK SMILES IDX 19 36 68 37 62 38 61 39 20 41 50 42 31 43 49 44 32 45 35 46
REMARK SMILES IDX 48 47 66 48 33 49 34 50 47 52 67 53 36 54 21 55 22 56 30 57
REMARK SMILES IDX 23 58 29 59 24 60 25 61 26 62 27 63 28 64 51 65 52 66 60 67
REMARK SMILES IDX 53 68 59 69 54 70 55 71 56 72 57 73 58 74 37 75 38 76 46 77
REMARK SMILES IDX 39 78 45 79 40 80 41 81 42 82 43 83 44 84
REMARK H PARENT 2 13 2 14 65 40 35 51
REMARK Flexibility Score: inf
ROOT
ATOM      1  C   UNL A   1      34.260  30.128  27.440  1.00  0.00     0.275 C 
ENDROOT
BRANCH   1   2
ATOM      2  C   UNL A   1      33.670  29.043  26.540  1.00  0.00     0.274 C 
BRANCH   2   3
ATOM      3  O   UNL A   1      33.427  29.566  25.219  1.00  0.00    -0.457 OA
BRANCH   3   4
ATOM      4  C   UNL A   1      32.120  29.604  24.821  1.00  0.00     0.368 C 
ATOM      5  O   UNL A   1      31.269  30.284  25.383  1.00  0.00    -0.245 OA
BRANCH   4   6
ATOM      6  C   UNL A   1      31.830  28.622  23.633  1.00  0.00     0.196 C 
ATOM      7  C   UNL A   1      30.671  27.699  24.034  1.00  0.00     0.084 C 
ATOM      8  C   UNL A   1      33.020  27.673  23.346  1.00  0.00     0.113 C 
ATOM      9  C   UNL A   1      31.325  26.490  24.683  1.00  0.00     0.039 C 
ATOM     10  C   UNL A   1      32.655  26.325  23.960  1.00  0.00     0.125 C 
BRANCH   6  11
ATOM     11  N   UNL A   1      31.571  29.387  22.384  1.00  0.00    -0.334 N 
ATOM     12  C   UNL A   1      30.178  29.700  22.090  1.00  0.00     0.331 C 
ATOM     13  H   UNL A   1      32.079  30.268  22.448  1.00  0.00     0.347 HD
ATOM     14  H   UNL A   1      31.874  28.774  21.626  1.00  0.00     0.347 HD
ENDBRANCH   6  11
BRANCH  10  15
ATOM     15  O   UNL A   1      32.771  25.190  23.112  1.00  0.00    -0.375 OA
BRANCH  15  16
ATOM     16  C   UNL A   1      32.371  23.822  23.353  1.00  0.00     0.118 C 
ATOM     17  C   UNL A   1      33.053  22.617  22.688  1.00  0.00     0.032 C 
ATOM     18  C   UNL A   1      32.543  23.146  24.723  1.00  0.00     0.032 C 
ATOM     19  C   UNL A   1      33.425  22.072  24.075  1.00  0.00     0.005 C 
ENDBRANCH  15  16
ENDBRANCH  10  15
ENDBRANCH   4   6
ENDBRANCH   3   4
ENDBRANCH   2   3
ENDBRANCH   1   2
BRANCH   1  20
ATOM     20  O   UNL A   1      35.162  29.530  28.385  1.00  0.00    -0.458 OA
BRANCH  20  21
ATOM     21  C   UNL A   1      36.096  30.350  28.918  1.00  0.00     0.338 C 
ATOM     22  O   UNL A   1      35.911  31.394  29.523  1.00  0.00    -0.246 OA
BRANCH  21  23
ATOM     23  C   UNL A   1      37.428  29.778  28.675  1.00  0.00     0.060 A 
ATOM     24  C   UNL A   1      38.156  29.281  29.753  1.00  0.00     0.016 A 
ATOM     25  C   UNL A   1      37.997  29.817  27.404  1.00  0.00     0.016 A 
ATOM     26  C   UNL A   1      39.470  28.853  29.583  1.00  0.00     0.010 A 
ATOM     27  C   UNL A   1      39.298  29.337  27.220  1.00  0.00     0.010 A 
ATOM     28  C   UNL A   1      40.057  28.872  28.312  1.00  0.00    -0.014 A 
BRANCH  28  29
ATOM     29  C   UNL A   1      41.477  28.471  28.132  1.00  0.00     0.031 A 
ATOM     30  C   UNL A   1      42.565  29.503  28.253  1.00  0.00     0.074 A 
ATOM     31  C   UNL A   1      41.801  27.188  27.877  1.00  0.00     0.049 A 
ATOM     32  N   UNL A   1      43.840  29.399  27.973  1.00  0.00    -0.248 NA
ATOM     33  C   UNL A   1      42.166  30.829  28.751  1.00  0.00     0.031 C 
ATOM     34  C   UNL A   1      40.858  26.071  27.800  1.00  0.00     0.029 A 
ATOM     35  N   UNL A   1      43.023  26.607  27.637  1.00  0.00    -0.354 N 
ATOM     36  C   UNL A   1      44.383  30.655  28.211  1.00  0.00     0.074 A 
ATOM     37  C   UNL A   1      43.302  31.505  28.663  1.00  0.00     0.031 C 
ATOM     38  C   UNL A   1      41.537  24.939  27.552  1.00  0.00     0.029 A 
ATOM     39  C   UNL A   1      42.951  25.258  27.382  1.00  0.00     0.049 A 
ATOM     40  H   UNL A   1      43.870  27.110  27.646  1.00  0.00     0.167 HD
ATOM     41  C   UNL A   1      45.665  31.066  28.060  1.00  0.00     0.031 A 
ATOM     42  C   UNL A   1      43.907  24.383  27.014  1.00  0.00     0.031 A 
ATOM     43  C   UNL A   1      46.745  30.216  27.636  1.00  0.00     0.049 A 
ATOM     44  C   UNL A   1      45.315  24.869  26.810  1.00  0.00     0.074 A 
ATOM     45  C   UNL A   1      48.075  30.544  27.439  1.00  0.00     0.029 A 
ATOM     46  N   UNL A   1      46.621  28.863  27.358  1.00  0.00    -0.354 N 
ATOM     47  N   UNL A   1      45.801  26.076  26.975  1.00  0.00    -0.248 NA
ATOM     48  C   UNL A   1      46.300  23.878  26.355  1.00  0.00     0.031 C 
ATOM     49  C   UNL A   1      48.751  29.394  27.012  1.00  0.00     0.029 A 
ATOM     50  C   UNL A   1      47.848  28.343  26.983  1.00  0.00     0.049 A 
ATOM     51  H   UNL A   1      45.785  28.348  27.418  1.00  0.00     0.167 HD
ATOM     52  C   UNL A   1      47.149  25.989  26.647  1.00  0.00     0.074 A 
ATOM     53  C   UNL A   1      47.407  24.607  26.297  1.00  0.00     0.031 C 
ATOM     54  C   UNL A   1      48.087  26.967  26.634  1.00  0.00     0.031 A 
BRANCH  41  55
ATOM     55  C   UNL A   1      45.955  32.521  28.309  1.00  0.00    -0.014 A 
ATOM     56  C   UNL A   1      46.363  32.982  29.572  1.00  0.00     0.010 A 
ATOM     57  C   UNL A   1      45.831  33.439  27.249  1.00  0.00     0.010 A 
ATOM     58  C   UNL A   1      46.603  34.343  29.783  1.00  0.00     0.020 A 
ATOM     59  C   UNL A   1      46.090  34.797  27.450  1.00  0.00     0.020 A 
ATOM     60  C   UNL A   1      46.455  35.243  28.722  1.00  0.00     0.054 A 
BRANCH  60  61
ATOM     61  S   UNL A   1      46.774  37.005  29.015  1.00  0.00     0.124 S 
ATOM     62  O   UNL A   1      45.589  37.626  28.431  1.00  0.00    -0.237 OA
ATOM     63  O   UNL A   1      46.870  37.081  30.471  1.00  0.00    -0.237 OA
ATOM     64  O   UNL A   1      48.024  37.254  28.299  1.00  0.00    -0.744 OA
ENDBRANCH  60  61
ENDBRANCH  41  55
BRANCH  42  65
ATOM     65  C   UNL A   1      43.550  22.959  26.765  1.00  0.00    -0.014 A 
ATOM     66  C   UNL A   1      43.890  22.338  25.552  1.00  0.00     0.010 A 
ATOM     67  C   UNL A   1      42.882  22.213  27.753  1.00  0.00     0.010 A 
ATOM     68  C   UNL A   1      43.563  20.998  25.328  1.00  0.00     0.020 A 
ATOM     69  C   UNL A   1      42.575  20.867  27.543  1.00  0.00     0.020 A 
ATOM     70  C   UNL A   1      42.909  20.269  26.326  1.00  0.00     0.054 A 
BRANCH  70  71
ATOM     71  S   UNL A   1      42.555  18.511  26.049  1.00  0.00     0.124 S 
ATOM     72  O   UNL A   1      41.126  18.534  25.751  1.00  0.00    -0.237 OA
ATOM     73  O   UNL A   1      43.429  18.181  24.926  1.00  0.00    -0.237 OA
ATOM     74  O   UNL A   1      42.923  17.887  27.318  1.00  0.00    -0.744 OA
ENDBRANCH  70  71
ENDBRANCH  42  65
BRANCH  54  75
ATOM     75  C   UNL A   1      49.486  26.573  26.247  1.00  0.00    -0.014 A 
ATOM     76  C   UNL A   1      49.943  26.734  24.928  1.00  0.00     0.010 A 
ATOM     77  C   UNL A   1      50.366  26.082  27.227  1.00  0.00     0.010 A 
ATOM     78  C   UNL A   1      51.253  26.386  24.589  1.00  0.00     0.020 A 
ATOM     79  C   UNL A   1      51.683  25.750  26.895  1.00  0.00     0.020 A 
ATOM     80  C   UNL A   1      52.113  25.892  25.575  1.00  0.00     0.054 A 
BRANCH  80  81
ATOM     81  S   UNL A   1      53.824  25.485  25.124  1.00  0.00     0.124 S 
ATOM     82  O   UNL A   1      53.758  24.036  24.961  1.00  0.00    -0.237 OA
ATOM     83  O   UNL A   1      54.026  26.247  23.893  1.00  0.00    -0.237 OA
ATOM     84  O   UNL A   1      54.601  25.950  26.271  1.00  0.00    -0.744 OA
ENDBRANCH  80  81
ENDBRANCH  54  75
ENDBRANCH  28  29
ENDBRANCH  21  23
ENDBRANCH  20  21
ENDBRANCH   1  20
TORSDOF 17
ENDMDL
MODEL 3
REMARK VINA RESULT:      -9.5      5.591     10.110
REMARK SMILES C[NH2+][C@@]1(C(=O)OCCOC(=O)c2ccc(-c3c4nc(c(-c5ccc(S(=O)(=O)[O-])cc5)c5ccc([nH]5)c(-c5ccc(S(=O)(=O)[O-])cc5)c5nc(c(-c6ccc(S(=O)(=O)[O-])cc6)c6ccc3[nH]6)C=C5)C=C4)cc2)CC[C@@H](OC2CCC2)C1
REMARK SMILES IDX 8 1 7 2 6 3 4 4 5 5 3 6 72 7 80 8 73 9 74 10 2 11 1 12 75 15
REMARK SMILES IDX 76 16 77 17 79 18 78 19 9 20 10 21 11 22 12 23 13 24 71 25
REMARK SMILES IDX 14 26 70 27 15 28 16 29 17 30 64 31 18 32 69 33 63 34 65 35
REMARK SMILES IDX 19 36 68 37 62 38 61 39 20 41 50 42 31 43 49 44 32 45 35 46
REMARK SMILES IDX 48 47 66 48 33 49 34 50 47 52 67 53 36 54 21 55 22 56 30 57
REMARK SMILES IDX 23 58 29 59 24 60 25 61 26 62 27 63 28 64 51 65 52 66 60 67
REMARK SMILES IDX 53 68 59 69 54 70 55 71 56 72 57 73 58 74 37 75 38 76 46 77
REMARK SMILES IDX 39 78 45 79 40 80 41 81 42 82 43 83 44 84
REMARK H PARENT 2 13 2 14 65 40 35 51
REMARK Flexibility Score: inf
ROOT
ATOM      1  C   UNL A   1      39.713  22.395  26.195  1.00  0.00     0.275 C 
ENDROOT
BRANCH   1   2
ATOM      2  C   UNL A   1      38.313  22.843  25.781  1.00  0.00     0.274 C 
BRANCH   2   3
ATOM      3  O   UNL A   1      37.321  21.939  26.309  1.00  0.00    -0.457 OA
BRANCH   3   4
ATOM      4  C   UNL A   1      36.594  21.241  25.386  1.00  0.00     0.368 C 
ATOM      5  O   UNL A   1      37.104  20.485  24.566  1.00  0.00    -0.245 OA
BRANCH   4   6
ATOM      6  C   UNL A   1      35.067  21.587  25.446  1.00  0.00     0.196 C 
ATOM      7  C   UNL A   1      34.658  22.231  24.114  1.00  0.00     0.084 C 
ATOM      8  C   UNL A   1      34.742  22.651  26.524  1.00  0.00     0.113 C 
ATOM      9  C   UNL A   1      34.856  23.726  24.312  1.00  0.00     0.039 C 
ATOM     10  C   UNL A   1      34.553  23.972  25.784  1.00  0.00     0.125 C 
BRANCH   6  11
ATOM     11  N   UNL A   1      34.275  20.372  25.780  1.00  0.00    -0.334 N 
ATOM     12  C   UNL A   1      33.466  19.807  24.708  1.00  0.00     0.331 C 
ATOM     13  H   UNL A   1      34.928  19.652  26.088  1.00  0.00     0.347 HD
ATOM     14  H   UNL A   1      33.607  20.673  26.491  1.00  0.00     0.347 HD
ENDBRANCH   6  11
BRANCH  10  15
ATOM     15  O   UNL A   1      33.361  24.693  26.067  1.00  0.00    -0.375 OA
BRANCH  15  16
ATOM     16  C   UNL A   1      31.984  24.287  25.903  1.00  0.00     0.118 C 
ATOM     17  C   UNL A   1      31.501  23.395  24.751  1.00  0.00     0.032 C 
ATOM     18  C   UNL A   1      31.280  23.353  26.902  1.00  0.00     0.032 C 
ATOM     19  C   UNL A   1      31.010  22.356  25.769  1.00  0.00     0.005 C 
ENDBRANCH  15  16
ENDBRANCH  10  15
ENDBRANCH   4   6
ENDBRANCH   3   4
ENDBRANCH   2   3
ENDBRANCH   1   2
BRANCH   1  20
ATOM     20  O   UNL A   1      40.194  23.239  27.254  1.00  0.00    -0.458 OA
BRANCH  20  21
ATOM     21  C   UNL A   1      41.056  24.216  26.894  1.00  0.00     0.338 C 
ATOM     22  O   UNL A   1      41.859  24.197  25.974  1.00  0.00    -0.246 OA
BRANCH  21  23
ATOM     23  C   UNL A   1      40.877  25.366  27.791  1.00  0.00     0.060 A 
ATOM     24  C   UNL A   1      41.925  26.271  27.944  1.00  0.00     0.016 A 
ATOM     25  C   UNL A   1      39.717  25.502  28.550  1.00  0.00     0.016 A 
ATOM     26  C   UNL A   1      41.842  27.297  28.882  1.00  0.00     0.010 A 
ATOM     27  C   UNL A   1      39.609  26.565  29.454  1.00  0.00     0.010 A 
ATOM     28  C   UNL A   1      40.680  27.459  29.646  1.00  0.00    -0.014 A 
BRANCH  28  29
ATOM     29  C   UNL A   1      40.606  28.516  30.689  1.00  0.00     0.031 A 
ATOM     30  C   UNL A   1      41.572  28.496  31.842  1.00  0.00     0.074 A 
ATOM     31  C   UNL A   1      39.692  29.503  30.602  1.00  0.00     0.049 A 
ATOM     32  N   UNL A   1      41.573  29.220  32.933  1.00  0.00    -0.248 NA
ATOM     33  C   UNL A   1      42.680  27.531  31.760  1.00  0.00     0.031 C 
ATOM     34  C   UNL A   1      38.738  29.687  29.507  1.00  0.00     0.029 A 
ATOM     35  N   UNL A   1      39.418  30.543  31.457  1.00  0.00    -0.354 N 
ATOM     36  C   UNL A   1      42.647  28.765  33.688  1.00  0.00     0.074 A 
ATOM     37  C   UNL A   1      43.278  27.705  32.929  1.00  0.00     0.031 C 
ATOM     38  C   UNL A   1      38.001  30.782  29.745  1.00  0.00     0.029 A 
ATOM     39  C   UNL A   1      38.377  31.339  31.041  1.00  0.00     0.049 A 
ATOM     40  H   UNL A   1      39.919  30.703  32.290  1.00  0.00     0.167 HD
ATOM     41  C   UNL A   1      43.066  29.185  34.906  1.00  0.00     0.031 A 
ATOM     42  C   UNL A   1      37.767  32.375  31.650  1.00  0.00     0.031 A 
ATOM     43  C   UNL A   1      42.456  30.255  35.648  1.00  0.00     0.049 A 
ATOM     44  C   UNL A   1      38.220  32.797  33.020  1.00  0.00     0.074 A 
ATOM     45  C   UNL A   1      42.800  30.744  36.897  1.00  0.00     0.029 A 
ATOM     46  N   UNL A   1      41.383  31.013  35.203  1.00  0.00    -0.354 N 
ATOM     47  N   UNL A   1      39.195  32.312  33.750  1.00  0.00    -0.248 NA
ATOM     48  C   UNL A   1      37.478  33.896  33.655  1.00  0.00     0.031 C 
ATOM     49  C   UNL A   1      41.914  31.780  37.220  1.00  0.00     0.029 A 
ATOM     50  C   UNL A   1      41.047  31.960  36.154  1.00  0.00     0.049 A 
ATOM     51  H   UNL A   1      40.929  30.895  34.338  1.00  0.00     0.167 HD
ATOM     52  C   UNL A   1      39.187  33.049  34.929  1.00  0.00     0.074 A 
ATOM     53  C   UNL A   1      38.126  34.027  34.805  1.00  0.00     0.031 C 
ATOM     54  C   UNL A   1      39.986  32.923  36.017  1.00  0.00     0.031 A 
BRANCH  41  55
ATOM     55  C   UNL A   1      44.215  28.444  35.532  1.00  0.00    -0.014 A 
ATOM     56  C   UNL A   1      45.545  28.857  35.344  1.00  0.00     0.010 A 
ATOM     57  C   UNL A   1      43.952  27.320  36.338  1.00  0.00     0.010 A 
ATOM     58  C   UNL A   1      46.596  28.136  35.917  1.00  0.00     0.020 A 
ATOM     59  C   UNL A   1      44.999  26.608  36.929  1.00  0.00     0.020 A 
ATOM     60  C   UNL A   1      46.316  27.010  36.698  1.00  0.00     0.054 A 
BRANCH  60  61
ATOM     61  S   UNL A   1      47.695  26.090  37.437  1.00  0.00     0.124 S 
ATOM     62  O   UNL A   1      48.851  26.744  36.833  1.00  0.00    -0.237 OA
ATOM     63  O   UNL A   1      47.515  26.329  38.868  1.00  0.00    -0.237 OA
ATOM     64  O   UNL A   1      47.462  24.713  37.007  1.00  0.00    -0.744 OA
ENDBRANCH  60  61
ENDBRANCH  41  55
BRANCH  42  65
ATOM     65  C   UNL A   1      36.623  33.054  30.984  1.00  0.00    -0.014 A 
ATOM     66  C   UNL A   1      35.315  32.895  31.471  1.00  0.00     0.010 A 
ATOM     67  C   UNL A   1      36.842  33.879  29.865  1.00  0.00     0.010 A 
ATOM     68  C   UNL A   1      34.245  33.546  30.849  1.00  0.00     0.020 A 
ATOM     69  C   UNL A   1      35.779  34.549  29.255  1.00  0.00     0.020 A 
ATOM     70  C   UNL A   1      34.484  34.371  29.746  1.00  0.00     0.054 A 
BRANCH  70  71
ATOM     71  S   UNL A   1      33.095  35.263  28.992  1.00  0.00     0.124 S 
ATOM     72  O   UNL A   1      32.240  35.522  30.146  1.00  0.00    -0.237 OA
ATOM     73  O   UNL A   1      33.745  36.436  28.411  1.00  0.00    -0.237 OA
ATOM     74  O   UNL A   1      32.566  34.309  28.020  1.00  0.00    -0.744 OA
ENDBRANCH  70  71
ENDBRANCH  42  65
BRANCH  54  75
ATOM     75  C   UNL A   1      39.755  33.881  37.153  1.00  0.00    -0.014 A 
ATOM     76  C   UNL A   1      38.986  33.507  38.268  1.00  0.00     0.010 A 
ATOM     77  C   UNL A   1      40.355  35.152  37.125  1.00  0.00     0.010 A 
ATOM     78  C   UNL A   1      38.800  34.399  39.327  1.00  0.00     0.020 A 
ATOM     79  C   UNL A   1      40.187  36.040  38.190  1.00  0.00     0.020 A 
ATOM     80  C   UNL A   1      39.398  35.662  39.279  1.00  0.00     0.054 A 
BRANCH  80  81
ATOM     81  S   UNL A   1      39.181  36.791  40.684  1.00  0.00     0.124 S 
ATOM     82  O   UNL A   1      40.560  37.027  41.099  1.00  0.00    -0.237 OA
ATOM     83  O   UNL A   1      38.502  37.935  40.079  1.00  0.00    -0.237 OA
ATOM     84  O   UNL A   1      38.369  36.019  41.623  1.00  0.00    -0.744 OA
ENDBRANCH  80  81
ENDBRANCH  54  75
ENDBRANCH  28  29
ENDBRANCH  21  23
ENDBRANCH  20  21
ENDBRANCH   1  20
TORSDOF 17
ENDMDL
