MODEL 1
REMARK VINA RESULT:     -12.2      0.000      0.000
REMARK SMILES COc1cc(OC)c(-c2cc(C(=O)OCCOC(=O)c3ccc(-c4c5nc(c(-c6ccc(S(=O)(=O)[O-])cc6)c6ccc([nH]6)c(-c6ccc(S(=O)(=O)[O-])cc6)c6nc(c(-c7ccc(S(=O)(=O)[O-])cc7)c7ccc4[nH]7)C=C6)C=C5)cc3)c3c(-c4ccc(Cl)cc4)[nH]nc3n2)cc1OC
REMARK SMILES IDX 16 1 15 2 14 3 12 4 13 5 11 6 9 7 10 8 92 9 91 10 80 11
REMARK SMILES IDX 90 12 81 13 89 14 8 16 3 17 4 18 94 19 5 20 93 21 2 22 1 23
REMARK SMILES IDX 95 24 96 25 6 26 7 27 82 28 83 29 88 30 84 31 87 32 85 33
REMARK SMILES IDX 86 34 17 35 18 36 19 37 20 38 21 39 79 40 22 41 78 42 23 43
REMARK SMILES IDX 24 44 25 45 72 46 26 47 77 48 71 49 73 50 27 51 76 52 70 53
REMARK SMILES IDX 69 54 28 56 58 57 39 58 57 59 40 60 43 61 56 62 74 63 41 64
REMARK SMILES IDX 42 65 55 67 75 68 44 69 29 70 30 71 38 72 31 73 37 74 32 75
REMARK SMILES IDX 33 76 34 77 35 78 36 79 59 80 60 81 68 82 61 83 67 84 62 85
REMARK SMILES IDX 63 86 64 87 65 88 66 89 45 90 46 91 54 92 47 93 53 94 48 95
REMARK SMILES IDX 49 96 50 97 51 98 52 99
REMARK H PARENT 89 15 73 55 43 66
REMARK Flexibility Score: inf
ROOT
ATOM      1  C   UNL A   1      33.070  30.054  27.006  1.00  0.00     0.275 C 
ENDROOT
BRANCH   1   2
ATOM      2  C   UNL A   1      32.576  29.732  25.604  1.00  0.00     0.275 C 
BRANCH   2   3
ATOM      3  O   UNL A   1      32.663  28.313  25.423  1.00  0.00    -0.458 OA
BRANCH   3   4
ATOM      4  C   UNL A   1      33.320  27.852  24.330  1.00  0.00     0.339 C 
ATOM      5  O   UNL A   1      33.959  28.524  23.543  1.00  0.00    -0.246 OA
BRANCH   4   6
ATOM      6  C   UNL A   1      33.107  26.399  24.250  1.00  0.00     0.075 A 
ATOM      7  C   UNL A   1      34.002  24.106  24.615  1.00  0.00     0.078 A 
ATOM      8  C   UNL A   1      34.163  25.512  24.526  1.00  0.00     0.045 A 
ATOM      9  N   UNL A   1      32.828  23.446  24.439  1.00  0.00    -0.226 NA
ATOM     10  C   UNL A   1      31.798  24.263  24.089  1.00  0.00     0.182 A 
ATOM     11  C   UNL A   1      31.923  25.698  23.989  1.00  0.00     0.061 A 
ATOM     12  N   UNL A   1      30.564  23.859  23.799  1.00  0.00    -0.154 NA
ATOM     13  C   UNL A   1      30.683  26.144  23.548  1.00  0.00     0.075 A 
ATOM     14  N   UNL A   1      29.937  24.987  23.440  1.00  0.00    -0.275 N 
ATOM     15  H   UNL A   1      29.006  24.991  23.120  1.00  0.00     0.190 HD
BRANCH   7  16
ATOM     16  C   UNL A   1      35.181  23.307  25.016  1.00  0.00     0.046 A 
ATOM     17  C   UNL A   1      37.675  22.089  25.644  1.00  0.00     0.164 A 
ATOM     18  C   UNL A   1      36.585  21.327  25.193  1.00  0.00     0.097 A 
ATOM     19  C   UNL A   1      37.530  23.460  25.816  1.00  0.00     0.161 A 
ATOM     20  C   UNL A   1      35.350  21.921  24.860  1.00  0.00     0.132 A 
ATOM     21  C   UNL A   1      36.286  24.034  25.529  1.00  0.00     0.064 A 
BRANCH  17  22
ATOM     22  O   UNL A   1      38.892  21.473  25.754  1.00  0.00    -0.493 OA
ATOM     23  C   UNL A   1      38.842  20.100  25.372  1.00  0.00     0.278 C 
ENDBRANCH  17  22
BRANCH  19  24
ATOM     24  O   UNL A   1      38.453  24.395  26.190  1.00  0.00    -0.493 OA
ATOM     25  C   UNL A   1      39.046  24.301  27.472  1.00  0.00     0.278 C 
ENDBRANCH  19  24
BRANCH  20  26
ATOM     26  O   UNL A   1      34.427  21.008  24.423  1.00  0.00    -0.496 OA
ATOM     27  C   UNL A   1      33.791  20.192  25.402  1.00  0.00     0.278 C 
ENDBRANCH  20  26
ENDBRANCH   7  16
BRANCH  13  28
ATOM     28  C   UNL A   1      30.113  27.416  23.093  1.00  0.00     0.000 A 
ATOM     29  C   UNL A   1      30.880  28.356  22.389  1.00  0.00     0.012 A 
ATOM     30  C   UNL A   1      28.799  27.759  23.417  1.00  0.00     0.012 A 
ATOM     31  C   UNL A   1      30.332  29.591  22.011  1.00  0.00     0.021 A 
ATOM     32  C   UNL A   1      28.240  28.978  23.026  1.00  0.00     0.021 A 
ATOM     33  C   UNL A   1      29.011  29.894  22.327  1.00  0.00     0.041 A 
ATOM     34  Cl  UNL A   1      28.327  31.400  21.858  1.00  0.00    -0.084 Cl
ENDBRANCH  13  28
ENDBRANCH   4   6
ENDBRANCH   3   4
ENDBRANCH   2   3
ENDBRANCH   1   2
BRANCH   1  35
ATOM     35  O   UNL A   1      34.484  30.220  26.984  1.00  0.00    -0.458 OA
BRANCH  35  36
ATOM     36  C   UNL A   1      35.019  31.328  27.558  1.00  0.00     0.338 C 
ATOM     37  O   UNL A   1      34.630  32.466  27.477  1.00  0.00    -0.246 OA
BRANCH  36  38
ATOM     38  C   UNL A   1      36.205  30.863  28.315  1.00  0.00     0.060 A 
ATOM     39  C   UNL A   1      37.134  31.791  28.797  1.00  0.00     0.016 A 
ATOM     40  C   UNL A   1      36.392  29.483  28.512  1.00  0.00     0.016 A 
ATOM     41  C   UNL A   1      38.312  31.321  29.362  1.00  0.00     0.010 A 
ATOM     42  C   UNL A   1      37.529  29.020  29.121  1.00  0.00     0.010 A 
ATOM     43  C   UNL A   1      38.517  29.940  29.450  1.00  0.00    -0.014 A 
BRANCH  43  44
ATOM     44  C   UNL A   1      39.844  29.417  29.696  1.00  0.00     0.031 A 
ATOM     45  C   UNL A   1      40.204  29.077  31.088  1.00  0.00     0.074 A 
ATOM     46  C   UNL A   1      40.626  29.092  28.647  1.00  0.00     0.049 A 
ATOM     47  N   UNL A   1      41.102  29.643  31.822  1.00  0.00    -0.248 NA
ATOM     48  C   UNL A   1      39.437  28.033  31.778  1.00  0.00     0.031 C 
ATOM     49  C   UNL A   1      40.270  29.058  27.221  1.00  0.00     0.029 A 
ATOM     50  N   UNL A   1      41.884  28.592  28.658  1.00  0.00    -0.354 N 
ATOM     51  C   UNL A   1      41.148  28.923  33.011  1.00  0.00     0.074 A 
ATOM     52  C   UNL A   1      40.015  28.031  32.982  1.00  0.00     0.031 C 
ATOM     53  C   UNL A   1      41.200  28.349  26.546  1.00  0.00     0.029 A 
ATOM     54  C   UNL A   1      42.284  28.031  27.457  1.00  0.00     0.049 A 
ATOM     55  H   UNL A   1      42.465  28.626  29.452  1.00  0.00     0.167 HD
ATOM     56  C   UNL A   1      42.222  28.989  33.848  1.00  0.00     0.031 A 
ATOM     57  C   UNL A   1      43.408  27.304  27.246  1.00  0.00     0.031 A 
ATOM     58  C   UNL A   1      43.117  30.056  33.483  1.00  0.00     0.049 A 
ATOM     59  C   UNL A   1      44.356  27.649  28.336  1.00  0.00     0.074 A 
ATOM     60  C   UNL A   1      43.011  31.430  33.414  1.00  0.00     0.029 A 
ATOM     61  N   UNL A   1      44.222  29.721  32.732  1.00  0.00    -0.354 N 
ATOM     62  N   UNL A   1      44.868  28.841  28.483  1.00  0.00    -0.248 NA
ATOM     63  C   UNL A   1      44.372  26.819  29.532  1.00  0.00     0.031 C 
ATOM     64  C   UNL A   1      43.750  31.796  32.251  1.00  0.00     0.029 A 
ATOM     65  C   UNL A   1      44.313  30.635  31.713  1.00  0.00     0.049 A 
ATOM     66  H   UNL A   1      44.833  28.966  32.896  1.00  0.00     0.167 HD
ATOM     67  C   UNL A   1      44.877  29.065  29.854  1.00  0.00     0.074 A 
ATOM     68  C   UNL A   1      44.666  27.747  30.450  1.00  0.00     0.031 C 
ATOM     69  C   UNL A   1      44.773  30.326  30.373  1.00  0.00     0.031 A 
BRANCH  56  70
ATOM     70  C   UNL A   1      42.650  27.896  34.793  1.00  0.00    -0.014 A 
ATOM     71  C   UNL A   1      42.989  28.242  36.118  1.00  0.00     0.010 A 
ATOM     72  C   UNL A   1      42.992  26.600  34.361  1.00  0.00     0.010 A 
ATOM     73  C   UNL A   1      43.712  27.365  36.938  1.00  0.00     0.020 A 
ATOM     74  C   UNL A   1      43.675  25.702  35.185  1.00  0.00     0.020 A 
ATOM     75  C   UNL A   1      44.070  26.108  36.454  1.00  0.00     0.054 A 
BRANCH  75  76
ATOM     76  S   UNL A   1      45.134  25.044  37.461  1.00  0.00     0.124 S 
ATOM     77  O   UNL A   1      44.859  23.727  36.894  1.00  0.00    -0.237 OA
ATOM     78  O   UNL A   1      46.462  25.586  37.191  1.00  0.00    -0.237 OA
ATOM     79  O   UNL A   1      44.642  25.257  38.820  1.00  0.00    -0.744 OA
ENDBRANCH  75  76
ENDBRANCH  56  70
BRANCH  57  80
ATOM     80  C   UNL A   1      43.535  26.121  26.364  1.00  0.00    -0.014 A 
ATOM     81  C   UNL A   1      44.679  25.914  25.577  1.00  0.00     0.010 A 
ATOM     82  C   UNL A   1      42.622  25.051  26.491  1.00  0.00     0.010 A 
ATOM     83  C   UNL A   1      44.927  24.665  24.980  1.00  0.00     0.020 A 
ATOM     84  C   UNL A   1      42.857  23.808  25.894  1.00  0.00     0.020 A 
ATOM     85  C   UNL A   1      44.022  23.614  25.160  1.00  0.00     0.054 A 
BRANCH  85  86
ATOM     86  S   UNL A   1      44.436  21.957  24.538  1.00  0.00     0.124 S 
ATOM     87  O   UNL A   1      43.378  21.135  25.114  1.00  0.00    -0.237 OA
ATOM     88  O   UNL A   1      44.380  22.140  23.090  1.00  0.00    -0.237 OA
ATOM     89  O   UNL A   1      45.774  21.712  25.076  1.00  0.00    -0.744 OA
ENDBRANCH  85  86
ENDBRANCH  57  80
BRANCH  69  90
ATOM     90  C   UNL A   1      44.877  31.505  29.426  1.00  0.00    -0.014 A 
ATOM     91  C   UNL A   1      43.760  32.072  28.780  1.00  0.00     0.010 A 
ATOM     92  C   UNL A   1      46.109  32.178  29.343  1.00  0.00     0.010 A 
ATOM     93  C   UNL A   1      43.876  33.272  28.061  1.00  0.00     0.020 A 
ATOM     94  C   UNL A   1      46.227  33.382  28.642  1.00  0.00     0.020 A 
ATOM     95  C   UNL A   1      45.112  33.922  28.000  1.00  0.00     0.054 A 
BRANCH  95  96
ATOM     96  S   UNL A   1      45.239  35.511  27.133  1.00  0.00     0.124 S 
ATOM     97  O   UNL A   1      44.451  36.400  27.983  1.00  0.00    -0.237 OA
ATOM     98  O   UNL A   1      46.679  35.764  27.124  1.00  0.00    -0.237 OA
ATOM     99  O   UNL A   1      44.661  35.238  25.817  1.00  0.00    -0.744 OA
ENDBRANCH  95  96
ENDBRANCH  69  90
ENDBRANCH  43  44
ENDBRANCH  36  38
ENDBRANCH  35  36
ENDBRANCH   1  35
TORSDOF 19
ENDMDL
MODEL 2
REMARK VINA RESULT:     -11.8      1.454      2.257
REMARK SMILES COc1cc(OC)c(-c2cc(C(=O)OCCOC(=O)c3ccc(-c4c5nc(c(-c6ccc(S(=O)(=O)[O-])cc6)c6ccc([nH]6)c(-c6ccc(S(=O)(=O)[O-])cc6)c6nc(c(-c7ccc(S(=O)(=O)[O-])cc7)c7ccc4[nH]7)C=C6)C=C5)cc3)c3c(-c4ccc(Cl)cc4)[nH]nc3n2)cc1OC
REMARK SMILES IDX 16 1 15 2 14 3 12 4 13 5 11 6 9 7 10 8 92 9 91 10 80 11
REMARK SMILES IDX 90 12 81 13 89 14 8 16 3 17 4 18 94 19 5 20 93 21 2 22 1 23
REMARK SMILES IDX 95 24 96 25 6 26 7 27 82 28 83 29 88 30 84 31 87 32 85 33
REMARK SMILES IDX 86 34 17 35 18 36 19 37 20 38 21 39 79 40 22 41 78 42 23 43
REMARK SMILES IDX 24 44 25 45 72 46 26 47 77 48 71 49 73 50 27 51 76 52 70 53
REMARK SMILES IDX 69 54 28 56 58 57 39 58 57 59 40 60 43 61 56 62 74 63 41 64
REMARK SMILES IDX 42 65 55 67 75 68 44 69 29 70 30 71 38 72 31 73 37 74 32 75
REMARK SMILES IDX 33 76 34 77 35 78 36 79 59 80 60 81 68 82 61 83 67 84 62 85
REMARK SMILES IDX 63 86 64 87 65 88 66 89 45 90 46 91 54 92 47 93 53 94 48 95
REMARK SMILES IDX 49 96 50 97 51 98 52 99
REMARK H PARENT 89 15 73 55 43 66
REMARK Flexibility Score: inf
ROOT
ATOM      1  C   UNL A   1      32.968  30.218  27.040  1.00  0.00     0.275 C 
ENDROOT
BRANCH   1   2
ATOM      2  C   UNL A   1      33.016  29.912  25.551  1.00  0.00     0.275 C 
BRANCH   2   3
ATOM      3  O   UNL A   1      31.667  29.831  25.075  1.00  0.00    -0.458 OA
BRANCH   3   4
ATOM      4  C   UNL A   1      31.453  29.238  23.874  1.00  0.00     0.339 C 
ATOM      5  O   UNL A   1      31.707  29.715  22.785  1.00  0.00    -0.246 OA
BRANCH   4   6
ATOM      6  C   UNL A   1      30.838  27.925  24.119  1.00  0.00     0.075 A 
ATOM      7  C   UNL A   1      31.080  25.601  24.976  1.00  0.00     0.078 A 
ATOM      8  C   UNL A   1      31.620  26.850  24.578  1.00  0.00     0.045 A 
ATOM      9  N   UNL A   1      29.760  25.285  24.956  1.00  0.00    -0.226 NA
ATOM     10  C   UNL A   1      28.977  26.270  24.441  1.00  0.00     0.182 A 
ATOM     11  C   UNL A   1      29.490  27.555  24.026  1.00  0.00     0.061 A 
ATOM     12  N   UNL A   1      27.661  26.187  24.255  1.00  0.00    -0.154 NA
ATOM     13  C   UNL A   1      28.396  28.235  23.505  1.00  0.00     0.075 A 
ATOM     14  N   UNL A   1      27.351  27.346  23.659  1.00  0.00    -0.275 N 
ATOM     15  H   UNL A   1      26.438  27.550  23.352  1.00  0.00     0.190 HD
BRANCH   7  16
ATOM     16  C   UNL A   1      32.014  24.600  25.537  1.00  0.00     0.046 A 
ATOM     17  C   UNL A   1      33.935  22.615  26.222  1.00  0.00     0.164 A 
ATOM     18  C   UNL A   1      32.711  22.710  26.902  1.00  0.00     0.097 A 
ATOM     19  C   UNL A   1      34.231  23.524  25.213  1.00  0.00     0.161 A 
ATOM     20  C   UNL A   1      31.742  23.677  26.560  1.00  0.00     0.132 A 
ATOM     21  C   UNL A   1      33.285  24.510  24.912  1.00  0.00     0.064 A 
BRANCH  17  22
ATOM     22  O   UNL A   1      34.733  21.533  26.475  1.00  0.00    -0.493 OA
ATOM     23  C   UNL A   1      34.429  20.425  25.630  1.00  0.00     0.278 C 
ENDBRANCH  17  22
BRANCH  19  24
ATOM     24  O   UNL A   1      35.322  23.592  24.393  1.00  0.00    -0.493 OA
ATOM     25  C   UNL A   1      35.166  23.299  23.016  1.00  0.00     0.278 C 
ENDBRANCH  19  24
BRANCH  20  26
ATOM     26  O   UNL A   1      30.613  23.587  27.330  1.00  0.00    -0.496 OA
ATOM     27  C   UNL A   1      29.678  22.559  27.013  1.00  0.00     0.278 C 
ENDBRANCH  20  26
ENDBRANCH   7  16
BRANCH  13  28
ATOM     28  C   UNL A   1      28.174  29.492  22.783  1.00  0.00     0.000 A 
ATOM     29  C   UNL A   1      28.351  29.586  21.394  1.00  0.00     0.012 A 
ATOM     30  C   UNL A   1      27.849  30.659  23.478  1.00  0.00     0.012 A 
ATOM     31  C   UNL A   1      28.188  30.811  20.731  1.00  0.00     0.021 A 
ATOM     32  C   UNL A   1      27.664  31.878  22.822  1.00  0.00     0.021 A 
ATOM     33  C   UNL A   1      27.840  31.951  21.448  1.00  0.00     0.041 A 
ATOM     34  Cl  UNL A   1      27.626  33.455  20.642  1.00  0.00    -0.084 Cl
ENDBRANCH  13  28
ENDBRANCH   4   6
ENDBRANCH   3   4
ENDBRANCH   2   3
ENDBRANCH   1   2
BRANCH   1  35
ATOM     35  O   UNL A   1      34.276  30.105  27.591  1.00  0.00    -0.458 OA
BRANCH  35  36
ATOM     36  C   UNL A   1      34.989  31.239  27.811  1.00  0.00     0.338 C 
ATOM     37  O   UNL A   1      34.712  32.365  27.483  1.00  0.00    -0.246 OA
BRANCH  36  38
ATOM     38  C   UNL A   1      36.208  30.818  28.542  1.00  0.00     0.060 A 
ATOM     39  C   UNL A   1      37.200  31.756  28.846  1.00  0.00     0.016 A 
ATOM     40  C   UNL A   1      36.360  29.465  28.896  1.00  0.00     0.016 A 
ATOM     41  C   UNL A   1      38.396  31.308  29.388  1.00  0.00     0.010 A 
ATOM     42  C   UNL A   1      37.519  29.031  29.483  1.00  0.00     0.010 A 
ATOM     43  C   UNL A   1      38.558  29.940  29.632  1.00  0.00    -0.014 A 
BRANCH  43  44
ATOM     44  C   UNL A   1      39.880  29.394  29.855  1.00  0.00     0.031 A 
ATOM     45  C   UNL A   1      40.301  29.155  31.251  1.00  0.00     0.074 A 
ATOM     46  C   UNL A   1      40.597  28.960  28.800  1.00  0.00     0.049 A 
ATOM     47  N   UNL A   1      41.252  29.747  31.892  1.00  0.00    -0.248 NA
ATOM     48  C   UNL A   1      39.540  28.196  32.061  1.00  0.00     0.031 C 
ATOM     49  C   UNL A   1      40.168  28.823  27.400  1.00  0.00     0.029 A 
ATOM     50  N   UNL A   1      41.839  28.420  28.791  1.00  0.00    -0.354 N 
ATOM     51  C   UNL A   1      41.337  29.124  33.133  1.00  0.00     0.074 A 
ATOM     52  C   UNL A   1      40.178  28.271  33.231  1.00  0.00     0.031 C 
ATOM     53  C   UNL A   1      41.041  28.031  26.741  1.00  0.00     0.029 A 
ATOM     54  C   UNL A   1      42.161  27.751  27.621  1.00  0.00     0.049 A 
ATOM     55  H   UNL A   1      42.461  28.497  29.550  1.00  0.00     0.167 HD
ATOM     56  C   UNL A   1      42.454  29.220  33.908  1.00  0.00     0.031 A 
ATOM     57  C   UNL A   1      43.250  26.972  27.416  1.00  0.00     0.031 A 
ATOM     58  C   UNL A   1      43.360  30.224  33.413  1.00  0.00     0.049 A 
ATOM     59  C   UNL A   1      44.262  27.371  28.427  1.00  0.00     0.074 A 
ATOM     60  C   UNL A   1      43.292  31.591  33.238  1.00  0.00     0.029 A 
ATOM     61  N   UNL A   1      44.415  29.792  32.640  1.00  0.00    -0.354 N 
ATOM     62  N   UNL A   1      44.816  28.553  28.451  1.00  0.00    -0.248 NA
ATOM     63  C   UNL A   1      44.315  26.639  29.685  1.00  0.00     0.031 C 
ATOM     64  C   UNL A   1      43.982  31.837  32.014  1.00  0.00     0.029 A 
ATOM     65  C   UNL A   1      44.481  30.618  31.546  1.00  0.00     0.049 A 
ATOM     66  H   UNL A   1      45.011  29.034  32.836  1.00  0.00     0.167 HD
ATOM     67  C   UNL A   1      44.902  28.886  29.797  1.00  0.00     0.074 A 
ATOM     68  C   UNL A   1      44.682  27.627  30.509  1.00  0.00     0.031 C 
ATOM     69  C   UNL A   1      44.863  30.187  30.215  1.00  0.00     0.031 A 
BRANCH  56  70
ATOM     70  C   UNL A   1      42.897  28.194  34.918  1.00  0.00    -0.014 A 
ATOM     71  C   UNL A   1      43.547  28.633  36.090  1.00  0.00     0.010 A 
ATOM     72  C   UNL A   1      42.946  26.814  34.637  1.00  0.00     0.010 A 
ATOM     73  C   UNL A   1      44.283  27.750  36.891  1.00  0.00     0.020 A 
ATOM     74  C   UNL A   1      43.640  25.918  35.453  1.00  0.00     0.020 A 
ATOM     75  C   UNL A   1      44.342  26.400  36.551  1.00  0.00     0.054 A 
BRANCH  75  76
ATOM     76  S   UNL A   1      45.417  25.295  37.501  1.00  0.00     0.124 S 
ATOM     77  O   UNL A   1      44.701  25.202  38.770  1.00  0.00    -0.237 OA
ATOM     78  O   UNL A   1      45.421  24.085  36.685  1.00  0.00    -0.237 OA
ATOM     79  O   UNL A   1      46.688  26.015  37.549  1.00  0.00    -0.744 OA
ENDBRANCH  75  76
ENDBRANCH  56  70
BRANCH  57  80
ATOM     80  C   UNL A   1      43.297  25.718  26.629  1.00  0.00    -0.014 A 
ATOM     81  C   UNL A   1      44.071  25.614  25.462  1.00  0.00     0.010 A 
ATOM     82  C   UNL A   1      42.768  24.528  27.175  1.00  0.00     0.010 A 
ATOM     83  C   UNL A   1      44.349  24.359  24.892  1.00  0.00     0.020 A 
ATOM     84  C   UNL A   1      43.033  23.276  26.610  1.00  0.00     0.020 A 
ATOM     85  C   UNL A   1      43.843  23.196  25.482  1.00  0.00     0.054 A 
BRANCH  85  86
ATOM     86  S   UNL A   1      44.353  21.572  24.845  1.00  0.00     0.124 S 
ATOM     87  O   UNL A   1      43.207  20.733  25.181  1.00  0.00    -0.237 OA
ATOM     88  O   UNL A   1      44.548  21.838  23.423  1.00  0.00    -0.237 OA
ATOM     89  O   UNL A   1      45.577  21.279  25.591  1.00  0.00    -0.744 OA
ENDBRANCH  85  86
ENDBRANCH  57  80
BRANCH  69  90
ATOM     90  C   UNL A   1      44.953  31.282  29.171  1.00  0.00    -0.014 A 
ATOM     91  C   UNL A   1      46.177  31.823  28.729  1.00  0.00     0.010 A 
ATOM     92  C   UNL A   1      43.780  31.632  28.479  1.00  0.00     0.010 A 
ATOM     93  C   UNL A   1      46.224  32.699  27.634  1.00  0.00     0.020 A 
ATOM     94  C   UNL A   1      43.822  32.492  27.378  1.00  0.00     0.020 A 
ATOM     95  C   UNL A   1      45.043  33.026  26.962  1.00  0.00     0.054 A 
BRANCH  95  96
ATOM     96  S   UNL A   1      45.119  34.098  25.500  1.00  0.00     0.124 S 
ATOM     97  O   UNL A   1      44.528  33.260  24.460  1.00  0.00    -0.237 OA
ATOM     98  O   UNL A   1      44.322  35.256  25.902  1.00  0.00    -0.237 OA
ATOM     99  O   UNL A   1      46.548  34.369  25.339  1.00  0.00    -0.744 OA
ENDBRANCH  95  96
ENDBRANCH  69  90
ENDBRANCH  43  44
ENDBRANCH  36  38
ENDBRANCH  35  36
ENDBRANCH   1  35
TORSDOF 19
ENDMDL
MODEL 3
REMARK VINA RESULT:     -11.2      5.424     12.190
REMARK SMILES COc1cc(OC)c(-c2cc(C(=O)OCCOC(=O)c3ccc(-c4c5nc(c(-c6ccc(S(=O)(=O)[O-])cc6)c6ccc([nH]6)c(-c6ccc(S(=O)(=O)[O-])cc6)c6nc(c(-c7ccc(S(=O)(=O)[O-])cc7)c7ccc4[nH]7)C=C6)C=C5)cc3)c3c(-c4ccc(Cl)cc4)[nH]nc3n2)cc1OC
REMARK SMILES IDX 16 1 15 2 14 3 12 4 13 5 11 6 9 7 10 8 92 9 91 10 80 11
REMARK SMILES IDX 90 12 81 13 89 14 8 16 3 17 4 18 94 19 5 20 93 21 2 22 1 23
REMARK SMILES IDX 95 24 96 25 6 26 7 27 82 28 83 29 88 30 84 31 87 32 85 33
REMARK SMILES IDX 86 34 17 35 18 36 19 37 20 38 21 39 79 40 22 41 78 42 23 43
REMARK SMILES IDX 24 44 25 45 72 46 26 47 77 48 71 49 73 50 27 51 76 52 70 53
REMARK SMILES IDX 69 54 28 56 58 57 39 58 57 59 40 60 43 61 56 62 74 63 41 64
REMARK SMILES IDX 42 65 55 67 75 68 44 69 29 70 30 71 38 72 31 73 37 74 32 75
REMARK SMILES IDX 33 76 34 77 35 78 36 79 59 80 60 81 68 82 61 83 67 84 62 85
REMARK SMILES IDX 63 86 64 87 65 88 66 89 45 90 46 91 54 92 47 93 53 94 48 95
REMARK SMILES IDX 49 96 50 97 51 98 52 99
REMARK H PARENT 89 15 73 55 43 66
REMARK Flexibility Score: inf
ROOT
ATOM      1  C   UNL A   1      44.681  23.012  24.949  1.00  0.00     0.275 C 
ENDROOT
BRANCH   1   2
ATOM      2  C   UNL A   1      45.213  22.939  26.372  1.00  0.00     0.275 C 
BRANCH   2   3
ATOM      3  O   UNL A   1      45.527  24.273  26.792  1.00  0.00    -0.458 OA
BRANCH   3   4
ATOM      4  C   UNL A   1      46.834  24.629  26.846  1.00  0.00     0.339 C 
ATOM      5  O   UNL A   1      47.715  24.232  26.109  1.00  0.00    -0.246 OA
BRANCH   4   6
ATOM      6  C   UNL A   1      47.004  25.566  27.968  1.00  0.00     0.075 A 
ATOM      7  C   UNL A   1      46.664  26.059  30.383  1.00  0.00     0.078 A 
ATOM      8  C   UNL A   1      46.426  25.286  29.219  1.00  0.00     0.045 A 
ATOM      9  N   UNL A   1      47.462  27.157  30.435  1.00  0.00    -0.226 NA
ATOM     10  C   UNL A   1      47.976  27.509  29.227  1.00  0.00     0.182 A 
ATOM     11  C   UNL A   1      47.756  26.747  28.020  1.00  0.00     0.061 A 
ATOM     12  N   UNL A   1      48.734  28.579  28.997  1.00  0.00    -0.154 NA
ATOM     13  C   UNL A   1      48.384  27.468  27.011  1.00  0.00     0.075 A 
ATOM     14  N   UNL A   1      48.924  28.554  27.671  1.00  0.00    -0.275 N 
ATOM     15  H   UNL A   1      49.417  29.263  27.199  1.00  0.00     0.190 HD
BRANCH   7  16
ATOM     16  C   UNL A   1      46.071  25.584  31.653  1.00  0.00     0.046 A 
ATOM     17  C   UNL A   1      45.320  24.589  34.211  1.00  0.00     0.164 A 
ATOM     18  C   UNL A   1      44.522  24.363  33.078  1.00  0.00     0.097 A 
ATOM     19  C   UNL A   1      46.485  25.336  34.091  1.00  0.00     0.161 A 
ATOM     20  C   UNL A   1      44.892  24.835  31.801  1.00  0.00     0.132 A 
ATOM     21  C   UNL A   1      46.821  25.841  32.829  1.00  0.00     0.064 A 
BRANCH  17  22
ATOM     22  O   UNL A   1      44.999  23.933  35.367  1.00  0.00    -0.493 OA
ATOM     23  C   UNL A   1      43.982  22.953  35.172  1.00  0.00     0.278 C 
ENDBRANCH  17  22
BRANCH  19  24
ATOM     24  O   UNL A   1      47.430  25.636  35.031  1.00  0.00    -0.493 OA
ATOM     25  C   UNL A   1      47.138  26.616  36.010  1.00  0.00     0.278 C 
ENDBRANCH  19  24
BRANCH  20  26
ATOM     26  O   UNL A   1      43.989  24.492  30.830  1.00  0.00    -0.496 OA
ATOM     27  C   UNL A   1      43.844  23.108  30.523  1.00  0.00     0.278 C 
ENDBRANCH  20  26
ENDBRANCH   7  16
BRANCH  13  28
ATOM     28  C   UNL A   1      48.461  27.400  25.549  1.00  0.00     0.000 A 
ATOM     29  C   UNL A   1      49.647  27.042  24.890  1.00  0.00     0.012 A 
ATOM     30  C   UNL A   1      47.365  27.764  24.764  1.00  0.00     0.012 A 
ATOM     31  C   UNL A   1      49.716  27.035  23.489  1.00  0.00     0.021 A 
ATOM     32  C   UNL A   1      47.420  27.741  23.369  1.00  0.00     0.021 A 
ATOM     33  C   UNL A   1      48.599  27.381  22.734  1.00  0.00     0.041 A 
ATOM     34  Cl  UNL A   1      48.671  27.365  21.016  1.00  0.00    -0.084 Cl
ENDBRANCH  13  28
ENDBRANCH   4   6
ENDBRANCH   3   4
ENDBRANCH   2   3
ENDBRANCH   1   2
BRANCH   1  35
ATOM     35  O   UNL A   1      43.477  23.774  24.930  1.00  0.00    -0.458 OA
BRANCH  35  36
ATOM     36  C   UNL A   1      42.430  23.354  25.685  1.00  0.00     0.338 C 
ATOM     37  O   UNL A   1      41.982  22.239  25.777  1.00  0.00    -0.246 OA
BRANCH  36  38
ATOM     38  C   UNL A   1      41.924  24.559  26.384  1.00  0.00     0.060 A 
ATOM     39  C   UNL A   1      41.288  25.572  25.659  1.00  0.00     0.016 A 
ATOM     40  C   UNL A   1      42.119  24.676  27.772  1.00  0.00     0.016 A 
ATOM     41  C   UNL A   1      40.967  26.755  26.311  1.00  0.00     0.010 A 
ATOM     42  C   UNL A   1      41.750  25.821  28.427  1.00  0.00     0.010 A 
ATOM     43  C   UNL A   1      41.268  26.882  27.670  1.00  0.00    -0.014 A 
BRANCH  43  44
ATOM     44  C   UNL A   1      41.280  28.189  28.293  1.00  0.00     0.031 A 
ATOM     45  C   UNL A   1      42.390  29.104  27.954  1.00  0.00     0.074 A 
ATOM     46  C   UNL A   1      40.206  28.588  29.003  1.00  0.00     0.049 A 
ATOM     47  N   UNL A   1      43.309  29.542  28.746  1.00  0.00    -0.248 NA
ATOM     48  C   UNL A   1      42.545  29.536  26.560  1.00  0.00     0.031 C 
ATOM     49  C   UNL A   1      38.903  27.920  29.136  1.00  0.00     0.029 A 
ATOM     50  N   UNL A   1      40.016  29.759  29.656  1.00  0.00    -0.354 N 
ATOM     51  C   UNL A   1      44.067  30.445  28.007  1.00  0.00     0.074 A 
ATOM     52  C   UNL A   1      43.635  30.302  26.639  1.00  0.00     0.031 C 
ATOM     53  C   UNL A   1      37.999  28.799  29.623  1.00  0.00     0.029 A 
ATOM     54  C   UNL A   1      38.696  30.019  29.985  1.00  0.00     0.049 A 
ATOM     55  H   UNL A   1      40.754  30.371  29.880  1.00  0.00     0.167 HD
ATOM     56  C   UNL A   1      44.864  31.373  28.609  1.00  0.00     0.031 A 
ATOM     57  C   UNL A   1      38.205  31.185  30.470  1.00  0.00     0.031 A 
ATOM     58  C   UNL A   1      45.013  31.113  30.018  1.00  0.00     0.049 A 
ATOM     59  C   UNL A   1      39.350  31.921  31.065  1.00  0.00     0.074 A 
ATOM     60  C   UNL A   1      45.549  30.082  30.763  1.00  0.00     0.029 A 
ATOM     61  N   UNL A   1      44.208  31.827  30.877  1.00  0.00    -0.354 N 
ATOM     62  N   UNL A   1      40.010  31.489  32.106  1.00  0.00    -0.248 NA
ATOM     63  C   UNL A   1      40.065  32.883  30.237  1.00  0.00     0.031 C 
ATOM     64  C   UNL A   1      44.673  29.945  31.879  1.00  0.00     0.029 A 
ATOM     65  C   UNL A   1      43.690  30.935  31.783  1.00  0.00     0.049 A 
ATOM     66  H   UNL A   1      44.035  32.796  30.848  1.00  0.00     0.167 HD
ATOM     67  C   UNL A   1      41.341  31.782  31.838  1.00  0.00     0.074 A 
ATOM     68  C   UNL A   1      41.300  32.735  30.731  1.00  0.00     0.031 C 
ATOM     69  C   UNL A   1      42.356  31.018  32.346  1.00  0.00     0.031 A 
BRANCH  56  70
ATOM     70  C   UNL A   1      45.245  32.703  28.013  1.00  0.00    -0.014 A 
ATOM     71  C   UNL A   1      46.577  33.147  28.144  1.00  0.00     0.010 A 
ATOM     72  C   UNL A   1      44.294  33.646  27.576  1.00  0.00     0.010 A 
ATOM     73  C   UNL A   1      46.923  34.489  27.933  1.00  0.00     0.020 A 
ATOM     74  C   UNL A   1      44.637  34.976  27.320  1.00  0.00     0.020 A 
ATOM     75  C   UNL A   1      45.941  35.399  27.543  1.00  0.00     0.054 A 
BRANCH  75  76
ATOM     76  S   UNL A   1      46.363  37.155  27.422  1.00  0.00     0.124 S 
ATOM     77  O   UNL A   1      45.074  37.748  27.080  1.00  0.00    -0.237 OA
ATOM     78  O   UNL A   1      46.861  37.450  28.763  1.00  0.00    -0.237 OA
ATOM     79  O   UNL A   1      47.371  37.192  26.365  1.00  0.00    -0.744 OA
ENDBRANCH  75  76
ENDBRANCH  56  70
BRANCH  57  80
ATOM     80  C   UNL A   1      36.898  31.795  30.134  1.00  0.00    -0.014 A 
ATOM     81  C   UNL A   1      36.053  32.312  31.129  1.00  0.00     0.010 A 
ATOM     82  C   UNL A   1      36.591  32.097  28.789  1.00  0.00     0.010 A 
ATOM     83  C   UNL A   1      34.971  33.145  30.794  1.00  0.00     0.020 A 
ATOM     84  C   UNL A   1      35.511  32.917  28.446  1.00  0.00     0.020 A 
ATOM     85  C   UNL A   1      34.719  33.457  29.454  1.00  0.00     0.054 A 
BRANCH  85  86
ATOM     86  S   UNL A   1      33.432  34.673  29.043  1.00  0.00     0.124 S 
ATOM     87  O   UNL A   1      32.806  34.912  30.339  1.00  0.00    -0.237 OA
ATOM     88  O   UNL A   1      34.209  35.784  28.500  1.00  0.00    -0.237 OA
ATOM     89  O   UNL A   1      32.595  33.972  28.069  1.00  0.00    -0.744 OA
ENDBRANCH  85  86
ENDBRANCH  57  80
BRANCH  69  90
ATOM     90  C   UNL A   1      42.019  29.977  33.394  1.00  0.00    -0.014 A 
ATOM     91  C   UNL A   1      41.625  28.663  33.073  1.00  0.00     0.010 A 
ATOM     92  C   UNL A   1      42.300  30.280  34.738  1.00  0.00     0.010 A 
ATOM     93  C   UNL A   1      41.503  27.683  34.070  1.00  0.00     0.020 A 
ATOM     94  C   UNL A   1      42.195  29.305  35.735  1.00  0.00     0.020 A 
ATOM     95  C   UNL A   1      41.793  28.011  35.398  1.00  0.00     0.054 A 
BRANCH  95  96
ATOM     96  S   UNL A   1      41.708  26.722  36.672  1.00  0.00     0.124 S 
ATOM     97  O   UNL A   1      40.486  27.069  37.393  1.00  0.00    -0.237 OA
ATOM     98  O   UNL A   1      41.645  25.490  35.887  1.00  0.00    -0.237 OA
ATOM     99  O   UNL A   1      42.946  26.899  37.430  1.00  0.00    -0.744 OA
ENDBRANCH  95  96
ENDBRANCH  69  90
ENDBRANCH  43  44
ENDBRANCH  36  38
ENDBRANCH  35  36
ENDBRANCH   1  35
TORSDOF 19
ENDMDL
