MODEL 1
REMARK VINA RESULT:     -10.0      0.000      0.000
REMARK SMILES C[C@@H](C(=O)OCCOC(=O)c1ccc(-c2c3nc(c(-c4ccc(S(=O)(=O)[O-])cc4)c4ccc([nH]4)c(-c4ccc(S(=O)(=O)[O-])cc4)c4nc(c(-c5ccc(S(=O)(=O)[O-])cc5)c5ccc2[nH]5)C=C4)C=C3)cc1)c1ccc(-c2ccccc2)c(F)c1
REMARK SMILES IDX 7 1 6 2 5 3 3 4 4 5 2 6 1 7 71 8 72 9 83 10 73 11 81 12
REMARK SMILES IDX 74 13 82 14 75 15 76 16 80 17 77 18 79 19 78 20 8 21 9 22
REMARK SMILES IDX 10 23 11 24 12 25 70 26 13 27 69 28 14 29 15 30 16 31 63 32
REMARK SMILES IDX 17 33 68 34 62 35 64 36 18 37 67 38 61 39 60 40 19 42 49 43
REMARK SMILES IDX 30 44 48 45 31 46 34 47 47 48 65 49 32 50 33 51 46 53 66 54
REMARK SMILES IDX 35 55 20 56 21 57 29 58 22 59 28 60 23 61 24 62 25 63 26 64
REMARK SMILES IDX 27 65 50 66 51 67 59 68 52 69 58 70 53 71 54 72 55 73 56 74
REMARK SMILES IDX 57 75 36 76 37 77 45 78 38 79 44 80 39 81 40 82 41 83 42 84
REMARK SMILES IDX 43 85
REMARK H PARENT 64 41 34 52
REMARK Flexibility Score: inf
ROOT
ATOM      1  C   UNL A   1      33.324  33.047  27.897  1.00  0.00     0.275 C 
ENDROOT
BRANCH   1   2
ATOM      2  C   UNL A   1      33.567  34.466  28.401  1.00  0.00     0.274 C 
BRANCH   2   3
ATOM      3  O   UNL A   1      32.662  34.770  29.483  1.00  0.00    -0.462 OA
BRANCH   3   4
ATOM      4  C   UNL A   1      32.996  35.817  30.289  1.00  0.00     0.313 C 
ATOM      5  O   UNL A   1      33.347  36.914  29.869  1.00  0.00    -0.252 OA
BRANCH   4   6
ATOM      6  C   UNL A   1      32.952  35.452  31.781  1.00  0.00     0.126 C 
ATOM      7  C   UNL A   1      32.572  36.642  32.674  1.00  0.00     0.025 C 
BRANCH   6   8
ATOM      8  C   UNL A   1      34.220  34.729  32.234  1.00  0.00    -0.031 A 
ATOM      9  C   UNL A   1      34.649  34.847  33.566  1.00  0.00     0.005 A 
ATOM     10  C   UNL A   1      34.979  33.912  31.385  1.00  0.00     0.044 A 
ATOM     11  C   UNL A   1      35.783  34.162  34.033  1.00  0.00     0.012 A 
ATOM     12  C   UNL A   1      36.112  33.237  31.858  1.00  0.00     0.131 A 
ATOM     13  C   UNL A   1      36.539  33.330  33.190  1.00  0.00     0.017 A 
ATOM     14  F   UNL A   1      36.759  32.446  30.987  1.00  0.00    -0.206 F 
BRANCH  13  15
ATOM     15  C   UNL A   1      37.692  32.556  33.705  1.00  0.00    -0.015 A 
ATOM     16  C   UNL A   1      38.819  33.200  34.250  1.00  0.00     0.009 A 
ATOM     17  C   UNL A   1      37.696  31.149  33.703  1.00  0.00     0.009 A 
ATOM     18  C   UNL A   1      39.891  32.474  34.778  1.00  0.00     0.001 A 
ATOM     19  C   UNL A   1      38.765  30.422  34.238  1.00  0.00     0.001 A 
ATOM     20  C   UNL A   1      39.861  31.085  34.780  1.00  0.00     0.000 A 
ENDBRANCH  13  15
ENDBRANCH   6   8
ENDBRANCH   4   6
ENDBRANCH   3   4
ENDBRANCH   2   3
ENDBRANCH   1   2
BRANCH   1  21
ATOM     21  O   UNL A   1      34.336  32.176  28.431  1.00  0.00    -0.458 OA
BRANCH  21  22
ATOM     22  C   UNL A   1      34.277  30.885  28.032  1.00  0.00     0.338 C 
ATOM     23  O   UNL A   1      33.318  30.293  27.569  1.00  0.00    -0.246 OA
BRANCH  22  24
ATOM     24  C   UNL A   1      35.595  30.260  28.238  1.00  0.00     0.060 A 
ATOM     25  C   UNL A   1      35.893  29.676  29.466  1.00  0.00     0.016 A 
ATOM     26  C   UNL A   1      36.571  30.348  27.246  1.00  0.00     0.016 A 
ATOM     27  C   UNL A   1      37.194  29.260  29.734  1.00  0.00     0.010 A 
ATOM     28  C   UNL A   1      37.857  29.851  27.493  1.00  0.00     0.010 A 
ATOM     29  C   UNL A   1      38.197  29.342  28.758  1.00  0.00    -0.014 A 
BRANCH  29  30
ATOM     30  C   UNL A   1      39.601  28.961  29.091  1.00  0.00     0.031 A 
ATOM     31  C   UNL A   1      40.438  29.843  29.986  1.00  0.00     0.074 A 
ATOM     32  C   UNL A   1      40.124  27.800  28.641  1.00  0.00     0.049 A 
ATOM     33  N   UNL A   1      41.714  29.760  30.271  1.00  0.00    -0.248 NA
ATOM     34  C   UNL A   1      39.758  30.984  30.623  1.00  0.00     0.031 C 
ATOM     35  C   UNL A   1      39.421  26.810  27.824  1.00  0.00     0.029 A 
ATOM     36  N   UNL A   1      41.357  27.232  28.854  1.00  0.00    -0.354 N 
ATOM     37  C   UNL A   1      42.005  30.881  31.042  1.00  0.00     0.074 A 
ATOM     38  C   UNL A   1      40.771  31.619  31.197  1.00  0.00     0.031 C 
ATOM     39  C   UNL A   1      40.189  25.717  27.700  1.00  0.00     0.029 A 
ATOM     40  C   UNL A   1      41.476  25.961  28.344  1.00  0.00     0.049 A 
ATOM     41  H   UNL A   1      42.088  27.694  29.327  1.00  0.00     0.167 HD
ATOM     42  C   UNL A   1      43.197  31.269  31.557  1.00  0.00     0.031 A 
ATOM     43  C   UNL A   1      42.500  25.088  28.392  1.00  0.00     0.031 A 
ATOM     44  C   UNL A   1      44.405  30.490  31.476  1.00  0.00     0.049 A 
ATOM     45  C   UNL A   1      43.798  25.509  29.022  1.00  0.00     0.074 A 
ATOM     46  C   UNL A   1      45.670  30.809  31.941  1.00  0.00     0.029 A 
ATOM     47  N   UNL A   1      44.488  29.220  30.929  1.00  0.00    -0.354 N 
ATOM     48  N   UNL A   1      44.084  26.623  29.649  1.00  0.00    -0.248 NA
ATOM     49  C   UNL A   1      44.920  24.565  28.917  1.00  0.00     0.031 C 
ATOM     50  C   UNL A   1      46.524  29.738  31.654  1.00  0.00     0.029 A 
ATOM     51  C   UNL A   1      45.782  28.741  31.043  1.00  0.00     0.049 A 
ATOM     52  H   UNL A   1      43.737  28.730  30.521  1.00  0.00     0.167 HD
ATOM     53  C   UNL A   1      45.427  26.524  29.994  1.00  0.00     0.074 A 
ATOM     54  C   UNL A   1      45.881  25.222  29.552  1.00  0.00     0.031 C 
ATOM     55  C   UNL A   1      46.219  27.444  30.598  1.00  0.00     0.031 A 
BRANCH  42  56
ATOM     56  C   UNL A   1      43.270  32.629  32.194  1.00  0.00    -0.014 A 
ATOM     57  C   UNL A   1      43.148  32.810  33.582  1.00  0.00     0.010 A 
ATOM     58  C   UNL A   1      43.504  33.751  31.375  1.00  0.00     0.010 A 
ATOM     59  C   UNL A   1      43.223  34.093  34.135  1.00  0.00     0.020 A 
ATOM     60  C   UNL A   1      43.601  35.031  31.926  1.00  0.00     0.020 A 
ATOM     61  C   UNL A   1      43.442  35.196  33.303  1.00  0.00     0.054 A 
BRANCH  61  62
ATOM     62  S   UNL A   1      43.555  36.850  34.041  1.00  0.00     0.124 S 
ATOM     63  O   UNL A   1      42.332  36.907  34.838  1.00  0.00    -0.237 OA
ATOM     64  O   UNL A   1      44.798  36.781  34.805  1.00  0.00    -0.237 OA
ATOM     65  O   UNL A   1      43.588  37.743  32.885  1.00  0.00    -0.744 OA
ENDBRANCH  61  62
ENDBRANCH  42  56
BRANCH  43  66
ATOM     66  C   UNL A   1      42.341  23.721  27.826  1.00  0.00    -0.014 A 
ATOM     67  C   UNL A   1      42.893  23.414  26.570  1.00  0.00     0.010 A 
ATOM     68  C   UNL A   1      41.661  22.719  28.539  1.00  0.00     0.010 A 
ATOM     69  C   UNL A   1      42.766  22.128  26.036  1.00  0.00     0.020 A 
ATOM     70  C   UNL A   1      41.556  21.425  28.021  1.00  0.00     0.020 A 
ATOM     71  C   UNL A   1      42.100  21.140  26.767  1.00  0.00     0.054 A 
BRANCH  71  72
ATOM     72  S   UNL A   1      42.010  19.455  26.101  1.00  0.00     0.124 S 
ATOM     73  O   UNL A   1      40.577  19.296  25.873  1.00  0.00    -0.237 OA
ATOM     74  O   UNL A   1      42.836  19.537  24.899  1.00  0.00    -0.237 OA
ATOM     75  O   UNL A   1      42.571  18.639  27.176  1.00  0.00    -0.744 OA
ENDBRANCH  71  72
ENDBRANCH  43  66
BRANCH  55  76
ATOM     76  C   UNL A   1      47.663  27.077  30.806  1.00  0.00    -0.014 A 
ATOM     77  C   UNL A   1      48.629  27.401  29.837  1.00  0.00     0.010 A 
ATOM     78  C   UNL A   1      48.065  26.449  31.998  1.00  0.00     0.010 A 
ATOM     79  C   UNL A   1      49.972  27.079  30.045  1.00  0.00     0.020 A 
ATOM     80  C   UNL A   1      49.410  26.142  32.217  1.00  0.00     0.020 A 
ATOM     81  C   UNL A   1      50.354  26.447  31.232  1.00  0.00     0.054 A 
BRANCH  81  82
ATOM     82  S   UNL A   1      52.109  26.073  31.499  1.00  0.00     0.124 S 
ATOM     83  O   UNL A   1      52.646  26.152  30.144  1.00  0.00    -0.237 OA
ATOM     84  O   UNL A   1      52.533  27.137  32.406  1.00  0.00    -0.237 OA
ATOM     85  O   UNL A   1      52.090  24.735  32.087  1.00  0.00    -0.744 OA
ENDBRANCH  81  82
ENDBRANCH  55  76
ENDBRANCH  29  30
ENDBRANCH  22  24
ENDBRANCH  21  22
ENDBRANCH   1  21
TORSDOF 16
ENDMDL
MODEL 2
REMARK VINA RESULT:      -9.9      1.558      2.847
REMARK SMILES C[C@@H](C(=O)OCCOC(=O)c1ccc(-c2c3nc(c(-c4ccc(S(=O)(=O)[O-])cc4)c4ccc([nH]4)c(-c4ccc(S(=O)(=O)[O-])cc4)c4nc(c(-c5ccc(S(=O)(=O)[O-])cc5)c5ccc2[nH]5)C=C4)C=C3)cc1)c1ccc(-c2ccccc2)c(F)c1
REMARK SMILES IDX 7 1 6 2 5 3 3 4 4 5 2 6 1 7 71 8 72 9 83 10 73 11 81 12
REMARK SMILES IDX 74 13 82 14 75 15 76 16 80 17 77 18 79 19 78 20 8 21 9 22
REMARK SMILES IDX 10 23 11 24 12 25 70 26 13 27 69 28 14 29 15 30 16 31 63 32
REMARK SMILES IDX 17 33 68 34 62 35 64 36 18 37 67 38 61 39 60 40 19 42 49 43
REMARK SMILES IDX 30 44 48 45 31 46 34 47 47 48 65 49 32 50 33 51 46 53 66 54
REMARK SMILES IDX 35 55 20 56 21 57 29 58 22 59 28 60 23 61 24 62 25 63 26 64
REMARK SMILES IDX 27 65 50 66 51 67 59 68 52 69 58 70 53 71 54 72 55 73 56 74
REMARK SMILES IDX 57 75 36 76 37 77 45 78 38 79 44 80 39 81 40 82 41 83 42 84
REMARK SMILES IDX 43 85
REMARK H PARENT 64 41 34 52
REMARK Flexibility Score: inf
ROOT
ATOM      1  C   UNL A   1      34.203  33.255  28.017  1.00  0.00     0.275 C 
ENDROOT
BRANCH   1   2
ATOM      2  C   UNL A   1      33.645  34.263  29.017  1.00  0.00     0.274 C 
BRANCH   2   3
ATOM      3  O   UNL A   1      34.642  34.584  30.008  1.00  0.00    -0.462 OA
BRANCH   3   4
ATOM      4  C   UNL A   1      34.452  34.079  31.260  1.00  0.00     0.313 C 
ATOM      5  O   UNL A   1      33.559  34.448  32.014  1.00  0.00    -0.252 OA
BRANCH   4   6
ATOM      6  C   UNL A   1      35.523  33.049  31.651  1.00  0.00     0.126 C 
ATOM      7  C   UNL A   1      35.502  32.706  33.147  1.00  0.00     0.025 C 
BRANCH   6   8
ATOM      8  C   UNL A   1      36.909  33.434  31.132  1.00  0.00    -0.031 A 
ATOM      9  C   UNL A   1      37.220  33.241  29.775  1.00  0.00     0.005 A 
ATOM     10  C   UNL A   1      37.896  34.010  31.942  1.00  0.00     0.044 A 
ATOM     11  C   UNL A   1      38.465  33.624  29.249  1.00  0.00     0.012 A 
ATOM     12  C   UNL A   1      39.137  34.384  31.409  1.00  0.00     0.131 A 
ATOM     13  C   UNL A   1      39.454  34.215  30.053  1.00  0.00     0.017 A 
ATOM     14  F   UNL A   1      40.011  34.963  32.247  1.00  0.00    -0.206 F 
BRANCH  13  15
ATOM     15  C   UNL A   1      40.737  34.680  29.479  1.00  0.00    -0.015 A 
ATOM     16  C   UNL A   1      41.956  34.065  29.822  1.00  0.00     0.009 A 
ATOM     17  C   UNL A   1      40.790  35.730  28.544  1.00  0.00     0.009 A 
ATOM     18  C   UNL A   1      43.166  34.471  29.248  1.00  0.00     0.001 A 
ATOM     19  C   UNL A   1      41.998  36.132  27.965  1.00  0.00     0.001 A 
ATOM     20  C   UNL A   1      43.186  35.498  28.314  1.00  0.00     0.000 A 
ENDBRANCH  13  15
ENDBRANCH   6   8
ENDBRANCH   4   6
ENDBRANCH   3   4
ENDBRANCH   2   3
ENDBRANCH   1   2
BRANCH   1  21
ATOM     21  O   UNL A   1      34.270  31.961  28.637  1.00  0.00    -0.458 OA
BRANCH  21  22
ATOM     22  C   UNL A   1      34.453  30.912  27.803  1.00  0.00     0.338 C 
ATOM     23  O   UNL A   1      33.724  30.546  26.898  1.00  0.00    -0.246 OA
BRANCH  22  24
ATOM     24  C   UNL A   1      35.718  30.242  28.147  1.00  0.00     0.060 A 
ATOM     25  C   UNL A   1      35.884  29.703  29.421  1.00  0.00     0.016 A 
ATOM     26  C   UNL A   1      36.777  30.241  27.239  1.00  0.00     0.016 A 
ATOM     27  C   UNL A   1      37.137  29.244  29.816  1.00  0.00     0.010 A 
ATOM     28  C   UNL A   1      38.013  29.702  27.617  1.00  0.00     0.010 A 
ATOM     29  C   UNL A   1      38.222  29.237  28.927  1.00  0.00    -0.014 A 
BRANCH  29  30
ATOM     30  C   UNL A   1      39.574  28.812  29.395  1.00  0.00     0.031 A 
ATOM     31  C   UNL A   1      40.294  29.603  30.462  1.00  0.00     0.074 A 
ATOM     32  C   UNL A   1      40.148  27.690  28.912  1.00  0.00     0.049 A 
ATOM     33  N   UNL A   1      41.525  29.480  30.892  1.00  0.00    -0.248 NA
ATOM     34  C   UNL A   1      39.541  30.691  31.109  1.00  0.00     0.031 C 
ATOM     35  C   UNL A   1      39.550  26.783  27.930  1.00  0.00     0.029 A 
ATOM     36  N   UNL A   1      41.345  27.091  29.224  1.00  0.00    -0.354 N 
ATOM     37  C   UNL A   1      41.719  30.526  31.790  1.00  0.00     0.074 A 
ATOM     38  C   UNL A   1      40.475  31.261  31.857  1.00  0.00     0.031 C 
ATOM     39  C   UNL A   1      40.327  25.697  27.805  1.00  0.00     0.029 A 
ATOM     40  C   UNL A   1      41.524  25.868  28.622  1.00  0.00     0.049 A 
ATOM     41  H   UNL A   1      42.011  27.501  29.822  1.00  0.00     0.167 HD
ATOM     42  C   UNL A   1      42.838  30.852  32.480  1.00  0.00     0.031 A 
ATOM     43  C   UNL A   1      42.534  24.982  28.717  1.00  0.00     0.031 A 
ATOM     44  C   UNL A   1      44.046  30.070  32.480  1.00  0.00     0.049 A 
ATOM     45  C   UNL A   1      43.744  25.332  29.537  1.00  0.00     0.074 A 
ATOM     46  C   UNL A   1      45.245  30.332  33.124  1.00  0.00     0.029 A 
ATOM     47  N   UNL A   1      44.196  28.851  31.837  1.00  0.00    -0.354 N 
ATOM     48  N   UNL A   1      43.952  26.382  30.292  1.00  0.00    -0.248 NA
ATOM     49  C   UNL A   1      44.871  24.388  29.488  1.00  0.00     0.031 C 
ATOM     50  C   UNL A   1      46.127  29.280  32.850  1.00  0.00     0.029 A 
ATOM     51  C   UNL A   1      45.466  28.349  32.067  1.00  0.00     0.049 A 
ATOM     52  H   UNL A   1      43.501  28.409  31.298  1.00  0.00     0.167 HD
ATOM     53  C   UNL A   1      45.242  26.238  30.789  1.00  0.00     0.074 A 
ATOM     54  C   UNL A   1      45.746  24.975  30.292  1.00  0.00     0.031 C 
ATOM     55  C   UNL A   1      45.954  27.092  31.565  1.00  0.00     0.031 A 
BRANCH  42  56
ATOM     56  C   UNL A   1      42.833  32.150  33.240  1.00  0.00    -0.014 A 
ATOM     57  C   UNL A   1      43.533  33.281  32.789  1.00  0.00     0.010 A 
ATOM     58  C   UNL A   1      42.073  32.242  34.422  1.00  0.00     0.010 A 
ATOM     59  C   UNL A   1      43.502  34.471  33.525  1.00  0.00     0.020 A 
ATOM     60  C   UNL A   1      42.022  33.434  35.149  1.00  0.00     0.020 A 
ATOM     61  C   UNL A   1      42.752  34.537  34.704  1.00  0.00     0.054 A 
BRANCH  61  62
ATOM     62  S   UNL A   1      42.708  36.094  35.636  1.00  0.00     0.124 S 
ATOM     63  O   UNL A   1      43.749  36.872  34.969  1.00  0.00    -0.237 OA
ATOM     64  O   UNL A   1      41.342  36.563  35.423  1.00  0.00    -0.237 OA
ATOM     65  O   UNL A   1      43.017  35.687  37.005  1.00  0.00    -0.744 OA
ENDBRANCH  61  62
ENDBRANCH  42  56
BRANCH  43  66
ATOM     66  C   UNL A   1      42.446  23.673  28.017  1.00  0.00    -0.014 A 
ATOM     67  C   UNL A   1      43.044  23.511  26.755  1.00  0.00     0.010 A 
ATOM     68  C   UNL A   1      41.786  22.581  28.608  1.00  0.00     0.010 A 
ATOM     69  C   UNL A   1      42.983  22.279  26.095  1.00  0.00     0.020 A 
ATOM     70  C   UNL A   1      41.747  21.341  27.964  1.00  0.00     0.020 A 
ATOM     71  C   UNL A   1      42.337  21.201  26.706  1.00  0.00     0.054 A 
BRANCH  71  72
ATOM     72  S   UNL A   1      42.333  19.587  25.878  1.00  0.00     0.124 S 
ATOM     73  O   UNL A   1      42.661  18.683  26.976  1.00  0.00    -0.237 OA
ATOM     74  O   UNL A   1      40.969  19.490  25.365  1.00  0.00    -0.237 OA
ATOM     75  O   UNL A   1      43.364  19.733  24.853  1.00  0.00    -0.744 OA
ENDBRANCH  71  72
ENDBRANCH  43  66
BRANCH  55  76
ATOM     76  C   UNL A   1      47.360  26.691  31.916  1.00  0.00    -0.014 A 
ATOM     77  C   UNL A   1      47.615  25.890  33.043  1.00  0.00     0.010 A 
ATOM     78  C   UNL A   1      48.428  27.074  31.086  1.00  0.00     0.010 A 
ATOM     79  C   UNL A   1      48.921  25.501  33.351  1.00  0.00     0.020 A 
ATOM     80  C   UNL A   1      49.733  26.672  31.382  1.00  0.00     0.020 A 
ATOM     81  C   UNL A   1      49.973  25.898  32.521  1.00  0.00     0.054 A 
BRANCH  81  82
ATOM     82  S   UNL A   1      51.655  25.350  32.918  1.00  0.00     0.124 S 
ATOM     83  O   UNL A   1      52.034  26.277  33.980  1.00  0.00    -0.237 OA
ATOM     84  O   UNL A   1      51.456  23.964  33.334  1.00  0.00    -0.237 OA
ATOM     85  O   UNL A   1      52.378  25.515  31.658  1.00  0.00    -0.744 OA
ENDBRANCH  81  82
ENDBRANCH  55  76
ENDBRANCH  29  30
ENDBRANCH  22  24
ENDBRANCH  21  22
ENDBRANCH   1  21
TORSDOF 16
ENDMDL
MODEL 3
REMARK VINA RESULT:      -9.9      2.856     11.242
REMARK SMILES C[C@@H](C(=O)OCCOC(=O)c1ccc(-c2c3nc(c(-c4ccc(S(=O)(=O)[O-])cc4)c4ccc([nH]4)c(-c4ccc(S(=O)(=O)[O-])cc4)c4nc(c(-c5ccc(S(=O)(=O)[O-])cc5)c5ccc2[nH]5)C=C4)C=C3)cc1)c1ccc(-c2ccccc2)c(F)c1
REMARK SMILES IDX 7 1 6 2 5 3 3 4 4 5 2 6 1 7 71 8 72 9 83 10 73 11 81 12
REMARK SMILES IDX 74 13 82 14 75 15 76 16 80 17 77 18 79 19 78 20 8 21 9 22
REMARK SMILES IDX 10 23 11 24 12 25 70 26 13 27 69 28 14 29 15 30 16 31 63 32
REMARK SMILES IDX 17 33 68 34 62 35 64 36 18 37 67 38 61 39 60 40 19 42 49 43
REMARK SMILES IDX 30 44 48 45 31 46 34 47 47 48 65 49 32 50 33 51 46 53 66 54
REMARK SMILES IDX 35 55 20 56 21 57 29 58 22 59 28 60 23 61 24 62 25 63 26 64
REMARK SMILES IDX 27 65 50 66 51 67 59 68 52 69 58 70 53 71 54 72 55 73 56 74
REMARK SMILES IDX 57 75 36 76 37 77 45 78 38 79 44 80 39 81 40 82 41 83 42 84
REMARK SMILES IDX 43 85
REMARK H PARENT 64 41 34 52
REMARK Flexibility Score: inf
ROOT
ATOM      1  C   UNL A   1      40.446  20.910  26.640  1.00  0.00     0.275 C 
ENDROOT
BRANCH   1   2
ATOM      2  C   UNL A   1      41.892  20.453  26.480  1.00  0.00     0.274 C 
BRANCH   2   3
ATOM      3  O   UNL A   1      42.509  21.135  25.370  1.00  0.00    -0.462 OA
BRANCH   3   4
ATOM      4  C   UNL A   1      43.791  21.565  25.545  1.00  0.00     0.313 C 
ATOM      5  O   UNL A   1      44.758  20.814  25.606  1.00  0.00    -0.252 OA
BRANCH   4   6
ATOM      6  C   UNL A   1      43.884  23.088  25.730  1.00  0.00     0.126 C 
ATOM      7  C   UNL A   1      44.960  23.730  24.844  1.00  0.00     0.025 C 
BRANCH   6   8
ATOM      8  C   UNL A   1      43.989  23.483  27.203  1.00  0.00    -0.031 A 
ATOM      9  C   UNL A   1      42.874  23.329  28.045  1.00  0.00     0.005 A 
ATOM     10  C   UNL A   1      45.167  23.972  27.782  1.00  0.00     0.044 A 
ATOM     11  C   UNL A   1      42.942  23.637  29.413  1.00  0.00     0.012 A 
ATOM     12  C   UNL A   1      45.225  24.281  29.147  1.00  0.00     0.131 A 
ATOM     13  C   UNL A   1      44.126  24.114  30.002  1.00  0.00     0.017 A 
ATOM     14  F   UNL A   1      46.404  24.707  29.627  1.00  0.00    -0.206 F 
BRANCH  13  15
ATOM     15  C   UNL A   1      44.212  24.371  31.458  1.00  0.00    -0.015 A 
ATOM     16  C   UNL A   1      44.298  25.681  31.964  1.00  0.00     0.009 A 
ATOM     17  C   UNL A   1      44.178  23.322  32.396  1.00  0.00     0.009 A 
ATOM     18  C   UNL A   1      44.334  25.932  33.340  1.00  0.00     0.001 A 
ATOM     19  C   UNL A   1      44.207  23.572  33.772  1.00  0.00     0.001 A 
ATOM     20  C   UNL A   1      44.281  24.878  34.244  1.00  0.00     0.000 A 
ENDBRANCH  13  15
ENDBRANCH   6   8
ENDBRANCH   4   6
ENDBRANCH   3   4
ENDBRANCH   2   3
ENDBRANCH   1   2
BRANCH   1  21
ATOM     21  O   UNL A   1      40.308  22.237  26.106  1.00  0.00    -0.458 OA
BRANCH  21  22
ATOM     22  C   UNL A   1      39.118  22.843  26.323  1.00  0.00     0.338 C 
ATOM     23  O   UNL A   1      38.006  22.389  26.120  1.00  0.00    -0.246 OA
BRANCH  22  24
ATOM     24  C   UNL A   1      39.359  24.188  26.871  1.00  0.00     0.060 A 
ATOM     25  C   UNL A   1      40.000  25.144  26.087  1.00  0.00     0.016 A 
ATOM     26  C   UNL A   1      39.041  24.467  28.201  1.00  0.00     0.016 A 
ATOM     27  C   UNL A   1      40.403  26.347  26.659  1.00  0.00     0.010 A 
ATOM     28  C   UNL A   1      39.377  25.712  28.746  1.00  0.00     0.010 A 
ATOM     29  C   UNL A   1      40.104  26.652  27.995  1.00  0.00    -0.014 A 
BRANCH  29  30
ATOM     30  C   UNL A   1      40.612  27.914  28.609  1.00  0.00     0.031 A 
ATOM     31  C   UNL A   1      42.094  28.115  28.819  1.00  0.00     0.074 A 
ATOM     32  C   UNL A   1      39.762  28.910  28.936  1.00  0.00     0.049 A 
ATOM     33  N   UNL A   1      42.715  29.071  29.464  1.00  0.00    -0.248 NA
ATOM     34  C   UNL A   1      42.994  27.096  28.253  1.00  0.00     0.031 C 
ATOM     35  C   UNL A   1      38.313  28.894  28.732  1.00  0.00     0.029 A 
ATOM     36  N   UNL A   1      40.005  30.156  29.462  1.00  0.00    -0.354 N 
ATOM     37  C   UNL A   1      44.062  28.720  29.459  1.00  0.00     0.074 A 
ATOM     38  C   UNL A   1      44.171  27.476  28.729  1.00  0.00     0.031 C 
ATOM     39  C   UNL A   1      37.815  30.106  29.023  1.00  0.00     0.029 A 
ATOM     40  C   UNL A   1      38.889  30.957  29.524  1.00  0.00     0.049 A 
ATOM     41  H   UNL A   1      40.895  30.448  29.767  1.00  0.00     0.167 HD
ATOM     42  C   UNL A   1      45.108  29.368  30.025  1.00  0.00     0.031 A 
ATOM     43  C   UNL A   1      38.744  32.232  29.935  1.00  0.00     0.031 A 
ATOM     44  C   UNL A   1      45.012  30.649  30.674  1.00  0.00     0.049 A 
ATOM     45  C   UNL A   1      39.929  32.960  30.505  1.00  0.00     0.074 A 
ATOM     46  C   UNL A   1      46.008  31.375  31.305  1.00  0.00     0.029 A 
ATOM     47  N   UNL A   1      43.858  31.415  30.738  1.00  0.00    -0.354 N 
ATOM     48  N   UNL A   1      41.174  32.564  30.591  1.00  0.00    -0.248 NA
ATOM     49  C   UNL A   1      39.676  34.296  31.064  1.00  0.00     0.031 C 
ATOM     50  C   UNL A   1      45.450  32.571  31.770  1.00  0.00     0.029 A 
ATOM     51  C   UNL A   1      44.117  32.604  31.398  1.00  0.00     0.049 A 
ATOM     52  H   UNL A   1      42.984  31.152  30.368  1.00  0.00     0.167 HD
ATOM     53  C   UNL A   1      41.851  33.593  31.236  1.00  0.00     0.074 A 
ATOM     54  C   UNL A   1      40.888  34.648  31.471  1.00  0.00     0.031 C 
ATOM     55  C   UNL A   1      43.148  33.644  31.625  1.00  0.00     0.031 A 
BRANCH  42  56
ATOM     56  C   UNL A   1      46.439  28.668  30.032  1.00  0.00    -0.014 A 
ATOM     57  C   UNL A   1      46.844  27.844  31.095  1.00  0.00     0.010 A 
ATOM     58  C   UNL A   1      47.290  28.816  28.919  1.00  0.00     0.010 A 
ATOM     59  C   UNL A   1      48.090  27.210  31.061  1.00  0.00     0.020 A 
ATOM     60  C   UNL A   1      48.526  28.168  28.872  1.00  0.00     0.020 A 
ATOM     61  C   UNL A   1      48.926  27.381  29.953  1.00  0.00     0.054 A 
BRANCH  61  62
ATOM     62  S   UNL A   1      50.532  26.535  29.919  1.00  0.00     0.124 S 
ATOM     63  O   UNL A   1      50.179  25.246  29.332  1.00  0.00    -0.237 OA
ATOM     64  O   UNL A   1      51.342  27.409  29.075  1.00  0.00    -0.237 OA
ATOM     65  O   UNL A   1      50.929  26.491  31.325  1.00  0.00    -0.744 OA
ENDBRANCH  61  62
ENDBRANCH  42  56
BRANCH  43  66
ATOM     66  C   UNL A   1      37.423  32.906  29.820  1.00  0.00    -0.014 A 
ATOM     67  C   UNL A   1      37.054  33.525  28.613  1.00  0.00     0.010 A 
ATOM     68  C   UNL A   1      36.523  32.918  30.900  1.00  0.00     0.010 A 
ATOM     69  C   UNL A   1      35.808  34.146  28.487  1.00  0.00     0.020 A 
ATOM     70  C   UNL A   1      35.265  33.514  30.769  1.00  0.00     0.020 A 
ATOM     71  C   UNL A   1      34.919  34.134  29.566  1.00  0.00     0.054 A 
BRANCH  71  72
ATOM     72  S   UNL A   1      33.274  34.872  29.368  1.00  0.00     0.124 S 
ATOM     73  O   UNL A   1      32.798  34.925  30.746  1.00  0.00    -0.237 OA
ATOM     74  O   UNL A   1      33.571  36.163  28.751  1.00  0.00    -0.237 OA
ATOM     75  O   UNL A   1      32.583  33.922  28.499  1.00  0.00    -0.744 OA
ENDBRANCH  71  72
ENDBRANCH  43  66
BRANCH  55  76
ATOM     76  C   UNL A   1      43.599  34.880  32.354  1.00  0.00    -0.014 A 
ATOM     77  C   UNL A   1      43.500  34.958  33.755  1.00  0.00     0.010 A 
ATOM     78  C   UNL A   1      44.171  35.948  31.642  1.00  0.00     0.010 A 
ATOM     79  C   UNL A   1      43.942  36.099  34.430  1.00  0.00     0.020 A 
ATOM     80  C   UNL A   1      44.630  37.083  32.317  1.00  0.00     0.020 A 
ATOM     81  C   UNL A   1      44.500  37.156  33.706  1.00  0.00     0.054 A 
BRANCH  81  82
ATOM     82  S   UNL A   1      45.102  38.611  34.606  1.00  0.00     0.124 S 
ATOM     83  O   UNL A   1      45.634  38.013  35.828  1.00  0.00    -0.237 OA
ATOM     84  O   UNL A   1      46.099  39.168  33.694  1.00  0.00    -0.237 OA
ATOM     85  O   UNL A   1      43.904  39.429  34.782  1.00  0.00    -0.744 OA
ENDBRANCH  81  82
ENDBRANCH  55  76
ENDBRANCH  29  30
ENDBRANCH  22  24
ENDBRANCH  21  22
ENDBRANCH   1  21
TORSDOF 16
ENDMDL
