MODEL 1
REMARK VINA RESULT:     -10.2      0.000      0.000
REMARK SMILES CCCCCCNC(=O)Oc1cccc(-c2ccc([C@@H](C)C(=O)OCCOC(=O)c3ccc(-c4c5nc(c(-c6ccc(S(=O)(=O)[O-])cc6)c6ccc([nH]6)c(-c6ccc(S(=O)(=O)[O-])cc6)c6nc(c(-c7ccc(S(=O)(=O)[O-])cc7)c7ccc4[nH]7)C=C6)C=C5)cc3)cc2C)c1
REMARK SMILES IDX 20 1 21 2 19 3 16 4 17 5 91 6 18 7 90 8 92 9 15 10 11 11
REMARK SMILES IDX 12 12 93 13 13 14 14 15 10 16 8 17 7 18 9 20 6 21 5 22 4 23
REMARK SMILES IDX 3 24 2 25 1 26 22 27 23 28 24 29 25 30 26 31 27 32 28 33
REMARK SMILES IDX 29 34 30 35 31 36 89 37 32 38 88 39 33 40 34 41 35 42 82 43
REMARK SMILES IDX 36 44 87 45 81 46 83 47 37 48 86 49 80 50 79 51 38 53 68 54
REMARK SMILES IDX 49 55 67 56 50 57 53 58 66 59 84 60 51 61 52 62 65 64 85 65
REMARK SMILES IDX 54 66 39 67 40 68 48 69 41 70 47 71 42 72 43 73 44 74 45 75
REMARK SMILES IDX 46 76 69 77 70 78 78 79 71 80 77 81 72 82 73 83 74 84 75 85
REMARK SMILES IDX 76 86 55 87 56 88 64 89 57 90 63 91 58 92 59 93 60 94 61 95
REMARK SMILES IDX 62 96
REMARK H PARENT 7 19 83 52 53 63
REMARK Flexibility Score: inf
ROOT
ATOM      1  C   UNL A   1      41.946  20.943  26.932  1.00  0.00     0.126 C 
ATOM      2  C   UNL A   1      41.945  19.561  27.581  1.00  0.00     0.025 C 
ENDROOT
BRANCH   1   3
ATOM      3  C   UNL A   1      40.575  21.339  26.406  1.00  0.00    -0.034 A 
ATOM      4  C   UNL A   1      38.014  22.145  25.452  1.00  0.00    -0.015 A 
ATOM      5  C   UNL A   1      38.534  20.865  25.181  1.00  0.00     0.009 A 
ATOM      6  C   UNL A   1      38.793  23.025  26.233  1.00  0.00    -0.043 A 
ATOM      7  C   UNL A   1      39.785  20.463  25.658  1.00  0.00     0.005 A 
ATOM      8  C   UNL A   1      40.066  22.618  26.679  1.00  0.00     0.008 A 
ATOM      9  C   UNL A   1      38.345  24.421  26.588  1.00  0.00     0.045 C 
BRANCH   4  10
ATOM     10  C   UNL A   1      36.676  22.492  24.935  1.00  0.00    -0.014 A 
ATOM     11  C   UNL A   1      34.261  22.551  25.143  1.00  0.00     0.133 A 
ATOM     12  C   UNL A   1      34.137  23.099  23.869  1.00  0.00     0.047 A 
ATOM     13  C   UNL A   1      35.512  22.249  25.684  1.00  0.00     0.056 A 
ATOM     14  C   UNL A   1      35.282  23.368  23.127  1.00  0.00     0.004 A 
ATOM     15  C   UNL A   1      36.540  23.061  23.655  1.00  0.00     0.009 A 
BRANCH  11  16
ATOM     16  O   UNL A   1      33.067  22.180  25.786  1.00  0.00    -0.410 OA
BRANCH  16  17
ATOM     17  C   UNL A   1      33.126  21.335  26.884  1.00  0.00     0.412 C 
ATOM     18  N   UNL A   1      33.121  20.010  26.540  1.00  0.00    -0.321 N 
ATOM     19  H   UNL A   1      33.176  19.364  27.280  1.00  0.00     0.167 HD
ATOM     20  O   UNL A   1      33.152  21.682  28.059  1.00  0.00    -0.224 OA
BRANCH  18  21
ATOM     21  C   UNL A   1      33.044  19.458  25.201  1.00  0.00     0.119 C 
BRANCH  21  22
ATOM     22  C   UNL A   1      34.398  18.963  24.694  1.00  0.00     0.021 C 
BRANCH  22  23
ATOM     23  C   UNL A   1      34.353  17.659  23.887  1.00  0.00     0.002 C 
BRANCH  23  24
ATOM     24  C   UNL A   1      33.098  16.800  24.079  1.00  0.00    -0.000 C 
BRANCH  24  25
ATOM     25  C   UNL A   1      33.285  15.535  24.920  1.00  0.00    -0.003 C 
ATOM     26  C   UNL A   1      32.237  15.377  26.011  1.00  0.00     0.004 C 
ENDBRANCH  24  25
ENDBRANCH  23  24
ENDBRANCH  22  23
ENDBRANCH  21  22
ENDBRANCH  18  21
ENDBRANCH  16  17
ENDBRANCH  11  16
ENDBRANCH   4  10
ENDBRANCH   1   3
BRANCH   1  27
ATOM     27  C   UNL A   1      43.103  21.051  25.945  1.00  0.00     0.313 C 
ATOM     28  O   UNL A   1      43.818  20.090  25.675  1.00  0.00    -0.252 OA
BRANCH  27  29
ATOM     29  O   UNL A   1      43.228  22.277  25.375  1.00  0.00    -0.462 OA
BRANCH  29  30
ATOM     30  C   UNL A   1      44.558  22.818  25.279  1.00  0.00     0.274 C 
BRANCH  30  31
ATOM     31  C   UNL A   1      44.621  24.219  25.887  1.00  0.00     0.275 C 
BRANCH  31  32
ATOM     32  O   UNL A   1      43.374  24.559  26.520  1.00  0.00    -0.458 OA
BRANCH  32  33
ATOM     33  C   UNL A   1      42.803  25.708  26.094  1.00  0.00     0.338 C 
ATOM     34  O   UNL A   1      42.594  26.060  24.948  1.00  0.00    -0.246 OA
BRANCH  33  35
ATOM     35  C   UNL A   1      42.372  26.484  27.264  1.00  0.00     0.060 A 
ATOM     36  C   UNL A   1      42.945  27.738  27.485  1.00  0.00     0.016 A 
ATOM     37  C   UNL A   1      41.461  25.945  28.172  1.00  0.00     0.016 A 
ATOM     38  C   UNL A   1      42.615  28.463  28.626  1.00  0.00     0.010 A 
ATOM     39  C   UNL A   1      41.117  26.682  29.308  1.00  0.00     0.010 A 
ATOM     40  C   UNL A   1      41.698  27.941  29.547  1.00  0.00    -0.014 A 
BRANCH  40  41
ATOM     41  C   UNL A   1      41.355  28.701  30.771  1.00  0.00     0.031 A 
ATOM     42  C   UNL A   1      40.189  29.646  30.767  1.00  0.00     0.074 A 
ATOM     43  C   UNL A   1      42.100  28.544  31.883  1.00  0.00     0.049 A 
ATOM     44  N   UNL A   1      39.793  30.471  31.699  1.00  0.00    -0.248 NA
ATOM     45  C   UNL A   1      39.358  29.663  29.552  1.00  0.00     0.031 C 
ATOM     46  C   UNL A   1      43.224  27.617  32.025  1.00  0.00     0.029 A 
ATOM     47  N   UNL A   1      42.022  29.165  33.103  1.00  0.00    -0.354 N 
ATOM     48  C   UNL A   1      38.688  31.131  31.176  1.00  0.00     0.074 A 
ATOM     49  C   UNL A   1      38.478  30.612  29.842  1.00  0.00     0.031 C 
ATOM     50  C   UNL A   1      43.724  27.722  33.266  1.00  0.00     0.029 A 
ATOM     51  C   UNL A   1      42.996  28.764  33.986  1.00  0.00     0.049 A 
ATOM     52  H   UNL A   1      41.334  29.834  33.326  1.00  0.00     0.167 HD
ATOM     53  C   UNL A   1      37.922  32.087  31.756  1.00  0.00     0.031 A 
ATOM     54  C   UNL A   1      43.291  29.209  35.223  1.00  0.00     0.031 A 
ATOM     55  C   UNL A   1      38.135  32.594  33.086  1.00  0.00     0.049 A 
ATOM     56  C   UNL A   1      42.481  30.330  35.810  1.00  0.00     0.074 A 
ATOM     57  C   UNL A   1      37.395  33.537  33.777  1.00  0.00     0.029 A 
ATOM     58  N   UNL A   1      39.173  32.209  33.923  1.00  0.00    -0.354 N 
ATOM     59  N   UNL A   1      41.435  30.940  35.307  1.00  0.00    -0.248 NA
ATOM     60  C   UNL A   1      42.903  30.836  37.124  1.00  0.00     0.031 C 
ATOM     61  C   UNL A   1      38.016  33.760  35.011  1.00  0.00     0.029 A 
ATOM     62  C   UNL A   1      39.115  32.922  35.107  1.00  0.00     0.049 A 
ATOM     63  H   UNL A   1      39.850  31.527  33.706  1.00  0.00     0.167 HD
ATOM     64  C   UNL A   1      41.067  31.896  36.245  1.00  0.00     0.074 A 
ATOM     65  C   UNL A   1      41.992  31.773  37.354  1.00  0.00     0.031 C 
ATOM     66  C   UNL A   1      40.054  32.796  36.194  1.00  0.00     0.031 A 
BRANCH  53  67
ATOM     67  C   UNL A   1      36.813  32.681  30.932  1.00  0.00    -0.014 A 
ATOM     68  C   UNL A   1      35.486  32.232  31.053  1.00  0.00     0.010 A 
ATOM     69  C   UNL A   1      37.105  33.723  30.032  1.00  0.00     0.010 A 
ATOM     70  C   UNL A   1      34.479  32.784  30.257  1.00  0.00     0.020 A 
ATOM     71  C   UNL A   1      36.096  34.293  29.250  1.00  0.00     0.020 A 
ATOM     72  C   UNL A   1      34.792  33.805  29.354  1.00  0.00     0.054 A 
BRANCH  72  73
ATOM     73  S   UNL A   1      33.468  34.505  28.330  1.00  0.00     0.124 S 
ATOM     74  O   UNL A   1      32.636  35.173  29.330  1.00  0.00    -0.237 OA
ATOM     75  O   UNL A   1      34.193  35.391  27.424  1.00  0.00    -0.237 OA
ATOM     76  O   UNL A   1      32.862  33.334  27.700  1.00  0.00    -0.744 OA
ENDBRANCH  72  73
ENDBRANCH  53  67
BRANCH  54  77
ATOM     77  C   UNL A   1      44.432  28.613  35.970  1.00  0.00    -0.014 A 
ATOM     78  C   UNL A   1      45.651  29.304  36.075  1.00  0.00     0.010 A 
ATOM     79  C   UNL A   1      44.295  27.363  36.601  1.00  0.00     0.010 A 
ATOM     80  C   UNL A   1      46.715  28.754  36.797  1.00  0.00     0.020 A 
ATOM     81  C   UNL A   1      45.348  26.822  37.344  1.00  0.00     0.020 A 
ATOM     82  C   UNL A   1      46.555  27.517  37.430  1.00  0.00     0.054 A 
BRANCH  82  83
ATOM     83  S   UNL A   1      47.924  26.854  38.419  1.00  0.00     0.124 S 
ATOM     84  O   UNL A   1      47.292  25.726  39.095  1.00  0.00    -0.237 OA
ATOM     85  O   UNL A   1      48.913  26.509  37.400  1.00  0.00    -0.237 OA
ATOM     86  O   UNL A   1      48.296  27.974  39.281  1.00  0.00    -0.744 OA
ENDBRANCH  82  83
ENDBRANCH  54  77
BRANCH  66  87
ATOM     87  C   UNL A   1      39.889  33.715  37.371  1.00  0.00    -0.014 A 
ATOM     88  C   UNL A   1      40.504  34.979  37.390  1.00  0.00     0.010 A 
ATOM     89  C   UNL A   1      39.057  33.338  38.441  1.00  0.00     0.010 A 
ATOM     90  C   UNL A   1      40.303  35.845  38.468  1.00  0.00     0.020 A 
ATOM     91  C   UNL A   1      38.837  34.209  39.511  1.00  0.00     0.020 A 
ATOM     92  C   UNL A   1      39.470  35.455  39.522  1.00  0.00     0.054 A 
BRANCH  92  93
ATOM     93  S   UNL A   1      39.174  36.619  40.882  1.00  0.00     0.124 S 
ATOM     94  O   UNL A   1      38.287  35.851  41.751  1.00  0.00    -0.237 OA
ATOM     95  O   UNL A   1      40.519  36.851  41.405  1.00  0.00    -0.237 OA
ATOM     96  O   UNL A   1      38.562  37.770  40.224  1.00  0.00    -0.744 OA
ENDBRANCH  92  93
ENDBRANCH  66  87
ENDBRANCH  40  41
ENDBRANCH  33  35
ENDBRANCH  32  33
ENDBRANCH  31  32
ENDBRANCH  30  31
ENDBRANCH  29  30
ENDBRANCH  27  29
ENDBRANCH   1  27
TORSDOF 23
ENDMDL
MODEL 2
REMARK VINA RESULT:     -10.1      1.603      3.104
REMARK SMILES CCCCCCNC(=O)Oc1cccc(-c2ccc([C@@H](C)C(=O)OCCOC(=O)c3ccc(-c4c5nc(c(-c6ccc(S(=O)(=O)[O-])cc6)c6ccc([nH]6)c(-c6ccc(S(=O)(=O)[O-])cc6)c6nc(c(-c7ccc(S(=O)(=O)[O-])cc7)c7ccc4[nH]7)C=C6)C=C5)cc3)cc2C)c1
REMARK SMILES IDX 20 1 21 2 19 3 16 4 17 5 91 6 18 7 90 8 92 9 15 10 11 11
REMARK SMILES IDX 12 12 93 13 13 14 14 15 10 16 8 17 7 18 9 20 6 21 5 22 4 23
REMARK SMILES IDX 3 24 2 25 1 26 22 27 23 28 24 29 25 30 26 31 27 32 28 33
REMARK SMILES IDX 29 34 30 35 31 36 89 37 32 38 88 39 33 40 34 41 35 42 82 43
REMARK SMILES IDX 36 44 87 45 81 46 83 47 37 48 86 49 80 50 79 51 38 53 68 54
REMARK SMILES IDX 49 55 67 56 50 57 53 58 66 59 84 60 51 61 52 62 65 64 85 65
REMARK SMILES IDX 54 66 39 67 40 68 48 69 41 70 47 71 42 72 43 73 44 74 45 75
REMARK SMILES IDX 46 76 69 77 70 78 78 79 71 80 77 81 72 82 73 83 74 84 75 85
REMARK SMILES IDX 76 86 55 87 56 88 64 89 57 90 63 91 58 92 59 93 60 94 61 95
REMARK SMILES IDX 62 96
REMARK H PARENT 7 19 83 52 53 63
REMARK Flexibility Score: inf
ROOT
ATOM      1  C   UNL A   1      41.811  20.976  26.852  1.00  0.00     0.126 C 
ATOM      2  C   UNL A   1      41.825  19.647  27.604  1.00  0.00     0.025 C 
ENDROOT
BRANCH   1   3
ATOM      3  C   UNL A   1      40.413  21.376  26.405  1.00  0.00    -0.034 A 
ATOM      4  C   UNL A   1      37.805  22.190  25.597  1.00  0.00    -0.015 A 
ATOM      5  C   UNL A   1      38.291  20.897  25.328  1.00  0.00     0.009 A 
ATOM      6  C   UNL A   1      38.643  23.081  26.302  1.00  0.00    -0.043 A 
ATOM      7  C   UNL A   1      39.566  20.491  25.734  1.00  0.00     0.005 A 
ATOM      8  C   UNL A   1      39.938  22.669  26.676  1.00  0.00     0.008 A 
ATOM      9  C   UNL A   1      38.236  24.490  26.648  1.00  0.00     0.045 C 
BRANCH   4  10
ATOM     10  C   UNL A   1      36.440  22.541  25.159  1.00  0.00    -0.014 A 
ATOM     11  C   UNL A   1      34.070  22.822  25.589  1.00  0.00     0.133 A 
ATOM     12  C   UNL A   1      33.838  23.141  24.253  1.00  0.00     0.047 A 
ATOM     13  C   UNL A   1      35.355  22.526  26.050  1.00  0.00     0.056 A 
ATOM     14  C   UNL A   1      34.908  23.185  23.365  1.00  0.00     0.004 A 
ATOM     15  C   UNL A   1      36.196  22.882  23.815  1.00  0.00     0.009 A 
BRANCH  11  16
ATOM     16  O   UNL A   1      32.935  22.665  26.403  1.00  0.00    -0.410 OA
BRANCH  16  17
ATOM     17  C   UNL A   1      31.692  22.515  25.806  1.00  0.00     0.412 C 
ATOM     18  N   UNL A   1      30.921  23.643  25.887  1.00  0.00    -0.321 N 
ATOM     19  H   UNL A   1      30.032  23.599  25.466  1.00  0.00     0.167 HD
ATOM     20  O   UNL A   1      31.267  21.496  25.273  1.00  0.00    -0.224 OA
BRANCH  18  21
ATOM     21  C   UNL A   1      31.275  24.896  26.526  1.00  0.00     0.119 C 
BRANCH  21  22
ATOM     22  C   UNL A   1      30.798  26.111  25.733  1.00  0.00     0.021 C 
BRANCH  22  23
ATOM     23  C   UNL A   1      31.835  27.229  25.569  1.00  0.00     0.002 C 
BRANCH  23  24
ATOM     24  C   UNL A   1      32.401  27.808  26.870  1.00  0.00    -0.000 C 
BRANCH  24  25
ATOM     25  C   UNL A   1      32.001  29.252  27.181  1.00  0.00    -0.003 C 
ATOM     26  C   UNL A   1      31.745  30.088  25.937  1.00  0.00     0.004 C 
ENDBRANCH  24  25
ENDBRANCH  23  24
ENDBRANCH  22  23
ENDBRANCH  21  22
ENDBRANCH  18  21
ENDBRANCH  16  17
ENDBRANCH  11  16
ENDBRANCH   4  10
ENDBRANCH   1   3
BRANCH   1  27
ATOM     27  C   UNL A   1      42.887  20.971  25.772  1.00  0.00     0.313 C 
ATOM     28  O   UNL A   1      43.514  19.955  25.485  1.00  0.00    -0.252 OA
BRANCH  27  29
ATOM     29  O   UNL A   1      43.044  22.165  25.145  1.00  0.00    -0.462 OA
BRANCH  29  30
ATOM     30  C   UNL A   1      44.381  22.694  25.076  1.00  0.00     0.274 C 
BRANCH  30  31
ATOM     31  C   UNL A   1      44.448  24.088  25.698  1.00  0.00     0.275 C 
BRANCH  31  32
ATOM     32  O   UNL A   1      43.187  24.444  26.293  1.00  0.00    -0.458 OA
BRANCH  32  33
ATOM     33  C   UNL A   1      42.678  25.634  25.899  1.00  0.00     0.338 C 
ATOM     34  O   UNL A   1      42.485  26.026  24.764  1.00  0.00    -0.246 OA
BRANCH  33  35
ATOM     35  C   UNL A   1      42.293  26.401  27.090  1.00  0.00     0.060 A 
ATOM     36  C   UNL A   1      42.906  27.633  27.321  1.00  0.00     0.016 A 
ATOM     37  C   UNL A   1      41.385  25.871  28.008  1.00  0.00     0.016 A 
ATOM     38  C   UNL A   1      42.619  28.347  28.481  1.00  0.00     0.010 A 
ATOM     39  C   UNL A   1      41.084  26.598  29.163  1.00  0.00     0.010 A 
ATOM     40  C   UNL A   1      41.706  27.835  29.411  1.00  0.00    -0.014 A 
BRANCH  40  41
ATOM     41  C   UNL A   1      41.410  28.583  30.655  1.00  0.00     0.031 A 
ATOM     42  C   UNL A   1      40.264  29.552  30.694  1.00  0.00     0.074 A 
ATOM     43  C   UNL A   1      42.178  28.393  31.746  1.00  0.00     0.049 A 
ATOM     44  N   UNL A   1      39.909  30.370  31.649  1.00  0.00    -0.248 NA
ATOM     45  C   UNL A   1      39.404  29.605  29.500  1.00  0.00     0.031 C 
ATOM     46  C   UNL A   1      43.285  27.441  31.845  1.00  0.00     0.029 A 
ATOM     47  N   UNL A   1      42.143  28.996  32.977  1.00  0.00    -0.354 N 
ATOM     48  C   UNL A   1      38.805  31.061  31.163  1.00  0.00     0.074 A 
ATOM     49  C   UNL A   1      38.551  30.568  29.827  1.00  0.00     0.031 C 
ATOM     50  C   UNL A   1      43.818  27.516  33.075  1.00  0.00     0.029 A 
ATOM     51  C   UNL A   1      43.130  28.561  33.829  1.00  0.00     0.049 A 
ATOM     52  H   UNL A   1      41.475  29.676  33.227  1.00  0.00     0.167 HD
ATOM     53  C   UNL A   1      38.074  32.023  31.777  1.00  0.00     0.031 A 
ATOM     54  C   UNL A   1      43.465  28.980  35.064  1.00  0.00     0.031 A 
ATOM     55  C   UNL A   1      38.331  32.505  33.109  1.00  0.00     0.049 A 
ATOM     56  C   UNL A   1      42.693  30.108  35.689  1.00  0.00     0.074 A 
ATOM     57  C   UNL A   1      37.628  33.452  33.832  1.00  0.00     0.029 A 
ATOM     58  N   UNL A   1      39.380  32.085  33.913  1.00  0.00    -0.354 N 
ATOM     59  N   UNL A   1      41.648  30.748  35.221  1.00  0.00    -0.248 NA
ATOM     60  C   UNL A   1      43.158  30.585  36.999  1.00  0.00     0.031 C 
ATOM     61  C   UNL A   1      38.283  33.643  35.054  1.00  0.00     0.029 A 
ATOM     62  C   UNL A   1      39.366  32.781  35.109  1.00  0.00     0.049 A 
ATOM     63  H   UNL A   1      40.037  31.394  33.669  1.00  0.00     0.167 HD
ATOM     64  C   UNL A   1      41.323  31.697  36.182  1.00  0.00     0.074 A 
ATOM     65  C   UNL A   1      42.273  31.537  37.266  1.00  0.00     0.031 C 
ATOM     66  C   UNL A   1      40.329  32.618  36.170  1.00  0.00     0.031 A 
BRANCH  53  67
ATOM     67  C   UNL A   1      36.958  32.654  30.989  1.00  0.00    -0.014 A 
ATOM     68  C   UNL A   1      37.192  33.733  30.120  1.00  0.00     0.010 A 
ATOM     69  C   UNL A   1      35.654  32.139  31.109  1.00  0.00     0.010 A 
ATOM     70  C   UNL A   1      36.132  34.317  29.419  1.00  0.00     0.020 A 
ATOM     71  C   UNL A   1      34.596  32.705  30.393  1.00  0.00     0.020 A 
ATOM     72  C   UNL A   1      34.840  33.804  29.566  1.00  0.00     0.054 A 
BRANCH  72  73
ATOM     73  S   UNL A   1      33.481  34.579  28.647  1.00  0.00     0.124 S 
ATOM     74  O   UNL A   1      34.165  35.680  27.971  1.00  0.00    -0.237 OA
ATOM     75  O   UNL A   1      33.021  33.499  27.778  1.00  0.00    -0.237 OA
ATOM     76  O   UNL A   1      32.539  34.979  29.690  1.00  0.00    -0.744 OA
ENDBRANCH  72  73
ENDBRANCH  53  67
BRANCH  54  77
ATOM     77  C   UNL A   1      44.610  28.349  35.774  1.00  0.00    -0.014 A 
ATOM     78  C   UNL A   1      44.388  27.347  36.733  1.00  0.00     0.010 A 
ATOM     79  C   UNL A   1      45.931  28.732  35.475  1.00  0.00     0.010 A 
ATOM     80  C   UNL A   1      45.466  26.739  37.383  1.00  0.00     0.020 A 
ATOM     81  C   UNL A   1      47.012  28.109  36.105  1.00  0.00     0.020 A 
ATOM     82  C   UNL A   1      46.772  27.122  37.061  1.00  0.00     0.054 A 
BRANCH  82  83
ATOM     83  S   UNL A   1      48.160  26.271  37.866  1.00  0.00     0.124 S 
ATOM     84  O   UNL A   1      49.155  27.334  37.957  1.00  0.00    -0.237 OA
ATOM     85  O   UNL A   1      47.575  25.840  39.134  1.00  0.00    -0.237 OA
ATOM     86  O   UNL A   1      48.480  25.189  36.938  1.00  0.00    -0.744 OA
ENDBRANCH  82  83
ENDBRANCH  54  77
BRANCH  66  87
ATOM     87  C   UNL A   1      40.212  33.522  37.365  1.00  0.00    -0.014 A 
ATOM     88  C   UNL A   1      40.884  34.757  37.402  1.00  0.00     0.010 A 
ATOM     89  C   UNL A   1      39.372  33.162  38.434  1.00  0.00     0.010 A 
ATOM     90  C   UNL A   1      40.729  35.611  38.498  1.00  0.00     0.020 A 
ATOM     91  C   UNL A   1      39.197  34.023  39.521  1.00  0.00     0.020 A 
ATOM     92  C   UNL A   1      39.885  35.239  39.550  1.00  0.00     0.054 A 
BRANCH  92  93
ATOM     93  S   UNL A   1      39.650  36.389  40.933  1.00  0.00     0.124 S 
ATOM     94  O   UNL A   1      40.954  37.042  41.008  1.00  0.00    -0.237 OA
ATOM     95  O   UNL A   1      38.551  37.233  40.467  1.00  0.00    -0.237 OA
ATOM     96  O   UNL A   1      39.323  35.516  42.057  1.00  0.00    -0.744 OA
ENDBRANCH  92  93
ENDBRANCH  66  87
ENDBRANCH  40  41
ENDBRANCH  33  35
ENDBRANCH  32  33
ENDBRANCH  31  32
ENDBRANCH  30  31
ENDBRANCH  29  30
ENDBRANCH  27  29
ENDBRANCH   1  27
TORSDOF 23
ENDMDL
MODEL 3
REMARK VINA RESULT:      -9.6      2.557      9.259
REMARK SMILES CCCCCCNC(=O)Oc1cccc(-c2ccc([C@@H](C)C(=O)OCCOC(=O)c3ccc(-c4c5nc(c(-c6ccc(S(=O)(=O)[O-])cc6)c6ccc([nH]6)c(-c6ccc(S(=O)(=O)[O-])cc6)c6nc(c(-c7ccc(S(=O)(=O)[O-])cc7)c7ccc4[nH]7)C=C6)C=C5)cc3)cc2C)c1
REMARK SMILES IDX 20 1 21 2 19 3 16 4 17 5 91 6 18 7 90 8 92 9 15 10 11 11
REMARK SMILES IDX 12 12 93 13 13 14 14 15 10 16 8 17 7 18 9 20 6 21 5 22 4 23
REMARK SMILES IDX 3 24 2 25 1 26 22 27 23 28 24 29 25 30 26 31 27 32 28 33
REMARK SMILES IDX 29 34 30 35 31 36 89 37 32 38 88 39 33 40 34 41 35 42 82 43
REMARK SMILES IDX 36 44 87 45 81 46 83 47 37 48 86 49 80 50 79 51 38 53 68 54
REMARK SMILES IDX 49 55 67 56 50 57 53 58 66 59 84 60 51 61 52 62 65 64 85 65
REMARK SMILES IDX 54 66 39 67 40 68 48 69 41 70 47 71 42 72 43 73 44 74 45 75
REMARK SMILES IDX 46 76 69 77 70 78 78 79 71 80 77 81 72 82 73 83 74 84 75 85
REMARK SMILES IDX 76 86 55 87 56 88 64 89 57 90 63 91 58 92 59 93 60 94 61 95
REMARK SMILES IDX 62 96
REMARK H PARENT 7 19 83 52 53 63
REMARK Flexibility Score: inf
ROOT
ATOM      1  C   UNL A   1      31.628  27.916  26.311  1.00  0.00     0.126 C 
ATOM      2  C   UNL A   1      31.322  28.167  27.785  1.00  0.00     0.025 C 
ENDROOT
BRANCH   1   3
ATOM      3  C   UNL A   1      32.463  26.664  26.095  1.00  0.00    -0.034 A 
ATOM      4  C   UNL A   1      33.976  24.279  25.723  1.00  0.00    -0.015 A 
ATOM      5  C   UNL A   1      34.457  25.531  25.300  1.00  0.00     0.009 A 
ATOM      6  C   UNL A   1      32.717  24.232  26.361  1.00  0.00    -0.043 A 
ATOM      7  C   UNL A   1      33.722  26.705  25.493  1.00  0.00     0.005 A 
ATOM      8  C   UNL A   1      31.973  25.418  26.518  1.00  0.00     0.008 A 
ATOM      9  C   UNL A   1      32.096  22.951  26.856  1.00  0.00     0.045 C 
BRANCH   4  10
ATOM     10  C   UNL A   1      34.817  23.085  25.508  1.00  0.00    -0.014 A 
ATOM     11  C   UNL A   1      36.811  21.777  25.946  1.00  0.00     0.133 A 
ATOM     12  C   UNL A   1      36.428  20.827  25.001  1.00  0.00     0.047 A 
ATOM     13  C   UNL A   1      36.020  22.897  26.208  1.00  0.00     0.056 A 
ATOM     14  C   UNL A   1      35.227  20.988  24.319  1.00  0.00     0.004 A 
ATOM     15  C   UNL A   1      34.432  22.110  24.568  1.00  0.00     0.009 A 
BRANCH  11  16
ATOM     16  O   UNL A   1      38.093  21.627  26.501  1.00  0.00    -0.410 OA
BRANCH  16  17
ATOM     17  C   UNL A   1      39.094  22.517  26.137  1.00  0.00     0.412 C 
ATOM     18  N   UNL A   1      40.316  21.917  25.997  1.00  0.00    -0.321 N 
ATOM     19  H   UNL A   1      41.063  22.498  25.725  1.00  0.00     0.167 HD
ATOM     20  O   UNL A   1      38.960  23.723  25.972  1.00  0.00    -0.224 OA
BRANCH  18  21
ATOM     21  C   UNL A   1      40.629  20.516  26.207  1.00  0.00     0.119 C 
BRANCH  21  22
ATOM     22  C   UNL A   1      42.105  20.289  26.529  1.00  0.00     0.021 C 
BRANCH  22  23
ATOM     23  C   UNL A   1      42.688  18.968  26.011  1.00  0.00     0.002 C 
BRANCH  23  24
ATOM     24  C   UNL A   1      43.758  19.094  24.922  1.00  0.00    -0.000 C 
BRANCH  24  25
ATOM     25  C   UNL A   1      45.203  18.891  25.386  1.00  0.00    -0.003 C 
ATOM     26  C   UNL A   1      46.126  20.037  25.000  1.00  0.00     0.004 C 
ENDBRANCH  24  25
ENDBRANCH  23  24
ENDBRANCH  22  23
ENDBRANCH  21  22
ENDBRANCH  18  21
ENDBRANCH  16  17
ENDBRANCH  11  16
ENDBRANCH   4  10
ENDBRANCH   1   3
BRANCH   1  27
ATOM     27  C   UNL A   1      32.151  29.194  25.665  1.00  0.00     0.313 C 
ATOM     28  O   UNL A   1      31.788  29.554  24.549  1.00  0.00    -0.252 OA
BRANCH  27  29
ATOM     29  O   UNL A   1      33.003  29.900  26.453  1.00  0.00    -0.462 OA
BRANCH  29  30
ATOM     30  C   UNL A   1      32.592  31.226  26.832  1.00  0.00     0.274 C 
BRANCH  30  31
ATOM     31  C   UNL A   1      33.658  31.902  27.694  1.00  0.00     0.275 C 
BRANCH  31  32
ATOM     32  O   UNL A   1      33.563  33.334  27.594  1.00  0.00    -0.458 OA
BRANCH  32  33
ATOM     33  C   UNL A   1      33.515  33.995  28.773  1.00  0.00     0.338 C 
ATOM     34  O   UNL A   1      32.623  34.705  29.197  1.00  0.00    -0.246 OA
BRANCH  33  35
ATOM     35  C   UNL A   1      34.714  33.660  29.552  1.00  0.00     0.060 A 
ATOM     36  C   UNL A   1      35.944  34.181  29.147  1.00  0.00     0.016 A 
ATOM     37  C   UNL A   1      34.632  32.780  30.631  1.00  0.00     0.016 A 
ATOM     38  C   UNL A   1      37.108  33.820  29.818  1.00  0.00     0.010 A 
ATOM     39  C   UNL A   1      35.800  32.433  31.316  1.00  0.00     0.010 A 
ATOM     40  C   UNL A   1      37.045  32.943  30.908  1.00  0.00    -0.014 A 
BRANCH  40  41
ATOM     41  C   UNL A   1      38.284  32.542  31.615  1.00  0.00     0.031 A 
ATOM     42  C   UNL A   1      39.186  31.502  31.017  1.00  0.00     0.074 A 
ATOM     43  C   UNL A   1      38.591  33.110  32.797  1.00  0.00     0.049 A 
ATOM     44  N   UNL A   1      40.254  30.946  31.526  1.00  0.00    -0.248 NA
ATOM     45  C   UNL A   1      38.840  31.024  29.668  1.00  0.00     0.031 C 
ATOM     46  C   UNL A   1      37.820  34.169  33.452  1.00  0.00     0.029 A 
ATOM     47  N   UNL A   1      39.632  32.873  33.657  1.00  0.00    -0.354 N 
ATOM     48  C   UNL A   1      40.693  30.030  30.577  1.00  0.00     0.074 A 
ATOM     49  C   UNL A   1      39.772  30.102  29.463  1.00  0.00     0.031 C 
ATOM     50  C   UNL A   1      38.421  34.498  34.606  1.00  0.00     0.029 A 
ATOM     51  C   UNL A   1      39.583  33.634  34.801  1.00  0.00     0.049 A 
ATOM     52  H   UNL A   1      40.346  32.221  33.474  1.00  0.00     0.167 HD
ATOM     53  C   UNL A   1      41.763  29.202  30.634  1.00  0.00     0.031 A 
ATOM     54  C   UNL A   1      40.364  33.614  35.897  1.00  0.00     0.031 A 
ATOM     55  C   UNL A   1      42.677  29.141  31.744  1.00  0.00     0.049 A 
ATOM     56  C   UNL A   1      41.494  32.626  35.974  1.00  0.00     0.074 A 
ATOM     57  C   UNL A   1      43.811  28.360  31.884  1.00  0.00     0.029 A 
ATOM     58  N   UNL A   1      42.554  29.881  32.911  1.00  0.00    -0.354 N 
ATOM     59  N   UNL A   1      41.901  31.770  35.067  1.00  0.00    -0.248 NA
ATOM     60  C   UNL A   1      42.258  32.586  37.229  1.00  0.00     0.031 C 
ATOM     61  C   UNL A   1      44.344  28.589  33.158  1.00  0.00     0.029 A 
ATOM     62  C   UNL A   1      43.569  29.548  33.791  1.00  0.00     0.049 A 
ATOM     63  H   UNL A   1      41.849  30.545  33.087  1.00  0.00     0.167 HD
ATOM     64  C   UNL A   1      42.973  31.096  35.636  1.00  0.00     0.074 A 
ATOM     65  C   UNL A   1      43.163  31.654  36.961  1.00  0.00     0.031 C 
ATOM     66  C   UNL A   1      43.733  30.104  35.111  1.00  0.00     0.031 A 
BRANCH  53  67
ATOM     67  C   UNL A   1      41.972  28.259  29.481  1.00  0.00    -0.014 A 
ATOM     68  C   UNL A   1      41.374  26.987  29.455  1.00  0.00     0.010 A 
ATOM     69  C   UNL A   1      42.768  28.665  28.393  1.00  0.00     0.010 A 
ATOM     70  C   UNL A   1      41.605  26.120  28.383  1.00  0.00     0.020 A 
ATOM     71  C   UNL A   1      42.983  27.810  27.310  1.00  0.00     0.020 A 
ATOM     72  C   UNL A   1      42.415  26.534  27.321  1.00  0.00     0.054 A 
BRANCH  72  73
ATOM     73  S   UNL A   1      42.700  25.391  25.941  1.00  0.00     0.124 S 
ATOM     74  O   UNL A   1      41.720  25.853  24.960  1.00  0.00    -0.237 OA
ATOM     75  O   UNL A   1      44.097  25.642  25.597  1.00  0.00    -0.237 OA
ATOM     76  O   UNL A   1      42.431  24.076  26.518  1.00  0.00    -0.744 OA
ENDBRANCH  72  73
ENDBRANCH  53  67
BRANCH  54  77
ATOM     77  C   UNL A   1      40.078  34.539  37.027  1.00  0.00    -0.014 A 
ATOM     78  C   UNL A   1      39.215  34.149  38.065  1.00  0.00     0.010 A 
ATOM     79  C   UNL A   1      40.686  35.807  37.081  1.00  0.00     0.010 A 
ATOM     80  C   UNL A   1      38.964  35.010  39.138  1.00  0.00     0.020 A 
ATOM     81  C   UNL A   1      40.457  36.661  38.164  1.00  0.00     0.020 A 
ATOM     82  C   UNL A   1      39.590  36.259  39.181  1.00  0.00     0.054 A 
BRANCH  82  83
ATOM     83  S   UNL A   1      39.305  37.334  40.617  1.00  0.00     0.124 S 
ATOM     84  O   UNL A   1      38.907  36.373  41.640  1.00  0.00    -0.237 OA
ATOM     85  O   UNL A   1      40.611  37.959  40.809  1.00  0.00    -0.237 OA
ATOM     86  O   UNL A   1      38.251  38.238  40.161  1.00  0.00    -0.744 OA
ENDBRANCH  82  83
ENDBRANCH  54  77
BRANCH  66  87
ATOM     87  C   UNL A   1      44.843  29.560  35.966  1.00  0.00    -0.014 A 
ATOM     88  C   UNL A   1      44.615  28.489  36.848  1.00  0.00     0.010 A 
ATOM     89  C   UNL A   1      46.143  30.083  35.839  1.00  0.00     0.010 A 
ATOM     90  C   UNL A   1      45.666  27.961  37.602  1.00  0.00     0.020 A 
ATOM     91  C   UNL A   1      47.201  29.543  36.575  1.00  0.00     0.020 A 
ATOM     92  C   UNL A   1      46.953  28.490  37.459  1.00  0.00     0.054 A 
BRANCH  92  93
ATOM     93  S   UNL A   1      48.314  27.747  38.402  1.00  0.00     0.124 S 
ATOM     94  O   UNL A   1      47.676  27.464  39.684  1.00  0.00    -0.237 OA
ATOM     95  O   UNL A   1      48.660  26.576  37.599  1.00  0.00    -0.237 OA
ATOM     96  O   UNL A   1      49.329  28.798  38.428  1.00  0.00    -0.744 OA
ENDBRANCH  92  93
ENDBRANCH  66  87
ENDBRANCH  40  41
ENDBRANCH  33  35
ENDBRANCH  32  33
ENDBRANCH  31  32
ENDBRANCH  30  31
ENDBRANCH  29  30
ENDBRANCH  27  29
ENDBRANCH   1  27
TORSDOF 23
ENDMDL
