MODEL 1
REMARK VINA RESULT:     -12.8      0.000      0.000
REMARK SMILES O=C(OCCOC(=O)c1nn(Cc2ccc(F)cc2)c2c1CN(C(=O)[C@H]1CC1(F)F)CC2)c1ccc(-c2c3nc(c(-c4ccc(S(=O)(=O)[O-])cc4)c4ccc([nH]4)c(-c4ccc(S(=O)(=O)[O-])cc4)c4nc(c(-c5ccc(S(=O)(=O)[O-])cc5)c5ccc2[nH]5)C=C4)C=C3)cc1
REMARK SMILES IDX 4 1 3 2 2 3 1 4 33 5 34 6 92 7 35 8 91 9 36 10 37 11 38 12
REMARK SMILES IDX 85 13 39 14 90 15 84 16 86 17 40 18 89 19 83 20 82 21 41 23
REMARK SMILES IDX 71 24 52 25 70 26 53 27 56 28 69 29 87 30 54 31 55 32 68 34
REMARK SMILES IDX 88 35 57 36 42 37 43 38 51 39 44 40 50 41 45 42 46 43 47 44
REMARK SMILES IDX 48 45 49 46 72 47 73 48 81 49 74 50 80 51 75 52 76 53 77 54
REMARK SMILES IDX 78 55 79 56 58 57 59 58 67 59 60 60 66 61 61 62 62 63 63 64
REMARK SMILES IDX 64 65 65 66 5 67 6 68 7 69 8 70 9 71 10 72 21 73 11 74 20 75
REMARK SMILES IDX 22 76 32 77 23 78 31 79 12 80 13 81 14 82 19 83 15 84 18 85
REMARK SMILES IDX 16 86 17 87 24 88 25 89 26 90 27 91 28 92 29 93 30 94
REMARK H PARENT 86 22 56 33
REMARK Flexibility Score: inf
ROOT
ATOM      1  C   UNL A   1      39.047  20.969  25.567  1.00  0.00     0.275 C 
ENDROOT
BRANCH   1   2
ATOM      2  O   UNL A   1      39.544  21.816  26.621  1.00  0.00    -0.458 OA
BRANCH   2   3
ATOM      3  C   UNL A   1      40.755  22.386  26.478  1.00  0.00     0.338 C 
ATOM      4  O   UNL A   1      41.695  21.919  25.861  1.00  0.00    -0.246 OA
BRANCH   3   5
ATOM      5  C   UNL A   1      40.781  23.697  27.156  1.00  0.00     0.060 A 
ATOM      6  C   UNL A   1      41.859  24.079  27.960  1.00  0.00     0.016 A 
ATOM      7  C   UNL A   1      39.745  24.596  26.900  1.00  0.00     0.016 A 
ATOM      8  C   UNL A   1      41.883  25.347  28.530  1.00  0.00     0.010 A 
ATOM      9  C   UNL A   1      39.799  25.880  27.432  1.00  0.00     0.010 A 
ATOM     10  C   UNL A   1      40.847  26.258  28.280  1.00  0.00    -0.014 A 
BRANCH  10  11
ATOM     11  C   UNL A   1      40.932  27.589  28.896  1.00  0.00     0.031 A 
ATOM     12  C   UNL A   1      42.020  28.499  28.413  1.00  0.00     0.074 A 
ATOM     13  C   UNL A   1      40.055  28.086  29.792  1.00  0.00     0.049 A 
ATOM     14  N   UNL A   1      43.137  28.808  28.990  1.00  0.00    -0.248 NA
ATOM     15  C   UNL A   1      41.882  29.076  27.074  1.00  0.00     0.031 C 
ATOM     16  C   UNL A   1      38.780  27.530  30.253  1.00  0.00     0.029 A 
ATOM     17  N   UNL A   1      40.114  29.286  30.438  1.00  0.00    -0.354 N 
ATOM     18  C   UNL A   1      43.753  29.758  28.170  1.00  0.00     0.074 A 
ATOM     19  C   UNL A   1      43.027  29.743  26.929  1.00  0.00     0.031 C 
ATOM     20  C   UNL A   1      38.087  28.482  30.918  1.00  0.00     0.029 A 
ATOM     21  C   UNL A   1      38.943  29.642  31.088  1.00  0.00     0.049 A 
ATOM     22  H   UNL A   1      40.920  29.851  30.443  1.00  0.00     0.167 HD
ATOM     23  C   UNL A   1      44.673  30.653  28.631  1.00  0.00     0.031 A 
ATOM     24  C   UNL A   1      38.687  30.809  31.724  1.00  0.00     0.031 A 
ATOM     25  C   UNL A   1      45.147  30.309  29.943  1.00  0.00     0.049 A 
ATOM     26  C   UNL A   1      39.989  31.410  32.091  1.00  0.00     0.074 A 
ATOM     27  C   UNL A   1      45.753  29.200  30.499  1.00  0.00     0.029 A 
ATOM     28  N   UNL A   1      44.665  31.044  31.001  1.00  0.00    -0.354 N 
ATOM     29  N   UNL A   1      40.791  30.893  32.979  1.00  0.00    -0.248 NA
ATOM     30  C   UNL A   1      40.598  32.378  31.194  1.00  0.00     0.031 C 
ATOM     31  C   UNL A   1      45.153  29.069  31.785  1.00  0.00     0.029 A 
ATOM     32  C   UNL A   1      44.276  30.144  31.959  1.00  0.00     0.049 A 
ATOM     33  H   UNL A   1      44.611  32.025  31.060  1.00  0.00     0.167 HD
ATOM     34  C   UNL A   1      42.067  31.137  32.498  1.00  0.00     0.074 A 
ATOM     35  C   UNL A   1      41.887  32.149  31.460  1.00  0.00     0.031 C 
ATOM     36  C   UNL A   1      43.111  30.309  32.802  1.00  0.00     0.031 A 
BRANCH  23  37
ATOM     37  C   UNL A   1      44.878  32.041  28.059  1.00  0.00    -0.014 A 
ATOM     38  C   UNL A   1      46.176  32.437  27.676  1.00  0.00     0.010 A 
ATOM     39  C   UNL A   1      43.902  33.056  28.141  1.00  0.00     0.010 A 
ATOM     40  C   UNL A   1      46.499  33.786  27.470  1.00  0.00     0.020 A 
ATOM     41  C   UNL A   1      44.200  34.397  27.888  1.00  0.00     0.020 A 
ATOM     42  C   UNL A   1      45.508  34.760  27.596  1.00  0.00     0.054 A 
BRANCH  42  43
ATOM     43  S   UNL A   1      45.954  36.509  27.461  1.00  0.00     0.124 S 
ATOM     44  O   UNL A   1      46.812  36.687  28.628  1.00  0.00    -0.237 OA
ATOM     45  O   UNL A   1      46.623  36.560  26.165  1.00  0.00    -0.237 OA
ATOM     46  O   UNL A   1      44.663  37.192  27.517  1.00  0.00    -0.744 OA
ENDBRANCH  42  43
ENDBRANCH  23  37
BRANCH  24  47
ATOM     47  C   UNL A   1      37.401  31.531  31.834  1.00  0.00    -0.014 A 
ATOM     48  C   UNL A   1      36.920  31.956  33.084  1.00  0.00     0.010 A 
ATOM     49  C   UNL A   1      36.790  32.055  30.676  1.00  0.00     0.010 A 
ATOM     50  C   UNL A   1      35.917  32.934  33.173  1.00  0.00     0.020 A 
ATOM     51  C   UNL A   1      35.784  33.024  30.757  1.00  0.00     0.020 A 
ATOM     52  C   UNL A   1      35.375  33.481  32.008  1.00  0.00     0.054 A 
BRANCH  52  53
ATOM     53  S   UNL A   1      34.245  34.898  32.133  1.00  0.00     0.124 S 
ATOM     54  O   UNL A   1      35.007  35.830  32.959  1.00  0.00    -0.237 OA
ATOM     55  O   UNL A   1      34.070  35.288  30.736  1.00  0.00    -0.237 OA
ATOM     56  O   UNL A   1      33.055  34.333  32.766  1.00  0.00    -0.744 OA
ENDBRANCH  52  53
ENDBRANCH  24  47
BRANCH  36  57
ATOM     57  C   UNL A   1      42.956  29.317  33.932  1.00  0.00    -0.014 A 
ATOM     58  C   UNL A   1      43.186  29.623  35.288  1.00  0.00     0.010 A 
ATOM     59  C   UNL A   1      42.423  28.054  33.615  1.00  0.00     0.010 A 
ATOM     60  C   UNL A   1      42.931  28.675  36.291  1.00  0.00     0.020 A 
ATOM     61  C   UNL A   1      42.143  27.115  34.610  1.00  0.00     0.020 A 
ATOM     62  C   UNL A   1      42.412  27.424  35.943  1.00  0.00     0.054 A 
BRANCH  62  63
ATOM     63  S   UNL A   1      42.058  26.212  37.245  1.00  0.00     0.124 S 
ATOM     64  O   UNL A   1      43.104  26.489  38.227  1.00  0.00    -0.237 OA
ATOM     65  O   UNL A   1      40.701  26.561  37.655  1.00  0.00    -0.237 OA
ATOM     66  O   UNL A   1      42.178  24.923  36.562  1.00  0.00    -0.744 OA
ENDBRANCH  62  63
ENDBRANCH  36  57
ENDBRANCH  10  11
ENDBRANCH   3   5
ENDBRANCH   2   3
ENDBRANCH   1   2
BRANCH   1  67
ATOM     67  C   UNL A   1      37.679  21.287  24.955  1.00  0.00     0.275 C 
BRANCH  67  68
ATOM     68  O   UNL A   1      37.549  22.693  24.685  1.00  0.00    -0.457 OA
BRANCH  68  69
ATOM     69  C   UNL A   1      36.568  23.361  25.377  1.00  0.00     0.359 C 
ATOM     70  O   UNL A   1      36.710  23.886  26.473  1.00  0.00    -0.244 OA
BRANCH  69  71
ATOM     71  C   UNL A   1      35.288  23.341  24.664  1.00  0.00     0.175 A 
ATOM     72  N   UNL A   1      34.867  24.431  23.986  1.00  0.00    -0.165 NA
ATOM     73  C   UNL A   1      34.365  22.267  24.520  1.00  0.00     0.028 A 
ATOM     74  N   UNL A   1      33.682  24.071  23.447  1.00  0.00    -0.264 N 
ATOM     75  C   UNL A   1      33.305  22.821  23.832  1.00  0.00     0.046 A 
ATOM     76  C   UNL A   1      34.381  20.858  25.022  1.00  0.00     0.159 C 
ATOM     77  C   UNL A   1      32.022  22.132  23.567  1.00  0.00     0.078 C 
ATOM     78  N   UNL A   1      33.105  20.172  24.690  1.00  0.00    -0.337 N 
ATOM     79  C   UNL A   1      31.897  21.003  24.602  1.00  0.00     0.126 C 
BRANCH  74  80
ATOM     80  C   UNL A   1      33.086  24.879  22.388  1.00  0.00     0.180 C 
BRANCH  80  81
ATOM     81  C   UNL A   1      32.452  26.154  22.878  1.00  0.00    -0.026 A 
ATOM     82  C   UNL A   1      31.249  26.112  23.603  1.00  0.00     0.008 A 
ATOM     83  C   UNL A   1      33.079  27.393  22.669  1.00  0.00     0.008 A 
ATOM     84  C   UNL A   1      30.693  27.279  24.122  1.00  0.00     0.039 A 
ATOM     85  C   UNL A   1      32.520  28.561  23.192  1.00  0.00     0.039 A 
ATOM     86  C   UNL A   1      31.337  28.492  23.919  1.00  0.00     0.123 A 
ATOM     87  F   UNL A   1      30.814  29.609  24.440  1.00  0.00    -0.207 F 
ENDBRANCH  80  81
ENDBRANCH  74  80
BRANCH  78  88
ATOM     88  C   UNL A   1      33.057  18.786  24.793  1.00  0.00     0.232 C 
ATOM     89  O   UNL A   1      32.169  18.189  25.388  1.00  0.00    -0.274 OA
BRANCH  88  90
ATOM     90  C   UNL A   1      34.113  18.018  24.094  1.00  0.00     0.154 C 
ATOM     91  C   UNL A   1      34.919  16.962  24.841  1.00  0.00     0.097 C 
ATOM     92  C   UNL A   1      33.923  16.574  23.818  1.00  0.00     0.260 C 
ATOM     93  F   UNL A   1      32.812  15.870  24.214  1.00  0.00    -0.206 F 
ATOM     94  F   UNL A   1      34.370  16.009  22.646  1.00  0.00    -0.206 F 
ENDBRANCH  88  90
ENDBRANCH  78  88
ENDBRANCH  69  71
ENDBRANCH  68  69
ENDBRANCH  67  68
ENDBRANCH   1  67
TORSDOF 18
ENDMDL
MODEL 2
REMARK VINA RESULT:     -12.5      1.245      4.512
REMARK SMILES O=C(OCCOC(=O)c1nn(Cc2ccc(F)cc2)c2c1CN(C(=O)[C@H]1CC1(F)F)CC2)c1ccc(-c2c3nc(c(-c4ccc(S(=O)(=O)[O-])cc4)c4ccc([nH]4)c(-c4ccc(S(=O)(=O)[O-])cc4)c4nc(c(-c5ccc(S(=O)(=O)[O-])cc5)c5ccc2[nH]5)C=C4)C=C3)cc1
REMARK SMILES IDX 4 1 3 2 2 3 1 4 33 5 34 6 92 7 35 8 91 9 36 10 37 11 38 12
REMARK SMILES IDX 85 13 39 14 90 15 84 16 86 17 40 18 89 19 83 20 82 21 41 23
REMARK SMILES IDX 71 24 52 25 70 26 53 27 56 28 69 29 87 30 54 31 55 32 68 34
REMARK SMILES IDX 88 35 57 36 42 37 43 38 51 39 44 40 50 41 45 42 46 43 47 44
REMARK SMILES IDX 48 45 49 46 72 47 73 48 81 49 74 50 80 51 75 52 76 53 77 54
REMARK SMILES IDX 78 55 79 56 58 57 59 58 67 59 60 60 66 61 61 62 62 63 63 64
REMARK SMILES IDX 64 65 65 66 5 67 6 68 7 69 8 70 9 71 10 72 21 73 11 74 20 75
REMARK SMILES IDX 22 76 32 77 23 78 31 79 12 80 13 81 14 82 19 83 15 84 18 85
REMARK SMILES IDX 16 86 17 87 24 88 25 89 26 90 27 91 28 92 29 93 30 94
REMARK H PARENT 86 22 56 33
REMARK Flexibility Score: inf
ROOT
ATOM      1  C   UNL A   1      38.635  20.915  25.506  1.00  0.00     0.275 C 
ENDROOT
BRANCH   1   2
ATOM      2  O   UNL A   1      39.105  21.886  26.460  1.00  0.00    -0.458 OA
BRANCH   2   3
ATOM      3  C   UNL A   1      40.402  22.247  26.432  1.00  0.00     0.338 C 
ATOM      4  O   UNL A   1      41.321  21.575  26.002  1.00  0.00    -0.246 OA
BRANCH   3   5
ATOM      5  C   UNL A   1      40.560  23.612  26.975  1.00  0.00     0.060 A 
ATOM      6  C   UNL A   1      39.648  24.626  26.669  1.00  0.00     0.016 A 
ATOM      7  C   UNL A   1      41.590  23.847  27.887  1.00  0.00     0.016 A 
ATOM      8  C   UNL A   1      39.788  25.881  27.250  1.00  0.00     0.010 A 
ATOM      9  C   UNL A   1      41.694  25.089  28.504  1.00  0.00     0.010 A 
ATOM     10  C   UNL A   1      40.819  26.129  28.166  1.00  0.00    -0.014 A 
BRANCH  10  11
ATOM     11  C   UNL A   1      40.910  27.470  28.761  1.00  0.00     0.031 A 
ATOM     12  C   UNL A   1      42.000  28.369  28.261  1.00  0.00     0.074 A 
ATOM     13  C   UNL A   1      40.037  27.984  29.651  1.00  0.00     0.049 A 
ATOM     14  N   UNL A   1      43.119  28.683  28.832  1.00  0.00    -0.248 NA
ATOM     15  C   UNL A   1      41.862  28.925  26.914  1.00  0.00     0.031 C 
ATOM     16  C   UNL A   1      38.761  27.440  30.123  1.00  0.00     0.029 A 
ATOM     17  N   UNL A   1      40.101  29.193  30.278  1.00  0.00    -0.354 N 
ATOM     18  C   UNL A   1      43.737  29.617  27.996  1.00  0.00     0.074 A 
ATOM     19  C   UNL A   1      43.008  29.586  26.756  1.00  0.00     0.031 C 
ATOM     20  C   UNL A   1      38.073  28.404  30.775  1.00  0.00     0.029 A 
ATOM     21  C   UNL A   1      38.933  29.563  30.925  1.00  0.00     0.049 A 
ATOM     22  H   UNL A   1      40.909  29.755  30.273  1.00  0.00     0.167 HD
ATOM     23  C   UNL A   1      44.661  30.517  28.440  1.00  0.00     0.031 A 
ATOM     24  C   UNL A   1      38.682  30.741  31.543  1.00  0.00     0.031 A 
ATOM     25  C   UNL A   1      45.137  30.191  29.756  1.00  0.00     0.049 A 
ATOM     26  C   UNL A   1      39.987  31.343  31.899  1.00  0.00     0.074 A 
ATOM     27  C   UNL A   1      45.740  29.089  30.329  1.00  0.00     0.029 A 
ATOM     28  N   UNL A   1      44.659  30.944  30.805  1.00  0.00    -0.354 N 
ATOM     29  N   UNL A   1      40.789  30.837  32.793  1.00  0.00    -0.248 NA
ATOM     30  C   UNL A   1      40.598  32.294  30.986  1.00  0.00     0.031 C 
ATOM     31  C   UNL A   1      45.142  28.980  31.618  1.00  0.00     0.029 A 
ATOM     32  C   UNL A   1      44.270  30.060  31.777  1.00  0.00     0.049 A 
ATOM     33  H   UNL A   1      44.609  31.926  30.848  1.00  0.00     0.167 HD
ATOM     34  C   UNL A   1      42.065  31.069  32.305  1.00  0.00     0.074 A 
ATOM     35  C   UNL A   1      41.887  32.065  31.252  1.00  0.00     0.031 C 
ATOM     36  C   UNL A   1      43.106  30.242  32.619  1.00  0.00     0.031 A 
BRANCH  23  37
ATOM     37  C   UNL A   1      44.869  31.894  27.847  1.00  0.00    -0.014 A 
ATOM     38  C   UNL A   1      46.163  32.269  27.428  1.00  0.00     0.010 A 
ATOM     39  C   UNL A   1      43.909  32.923  27.940  1.00  0.00     0.010 A 
ATOM     40  C   UNL A   1      46.498  33.612  27.197  1.00  0.00     0.020 A 
ATOM     41  C   UNL A   1      44.218  34.258  27.663  1.00  0.00     0.020 A 
ATOM     42  C   UNL A   1      45.522  34.599  27.335  1.00  0.00     0.054 A 
BRANCH  42  43
ATOM     43  S   UNL A   1      45.986  36.341  27.168  1.00  0.00     0.124 S 
ATOM     44  O   UNL A   1      44.681  36.988  27.073  1.00  0.00    -0.237 OA
ATOM     45  O   UNL A   1      46.729  36.584  28.401  1.00  0.00    -0.237 OA
ATOM     46  O   UNL A   1      46.790  36.361  25.948  1.00  0.00    -0.744 OA
ENDBRANCH  42  43
ENDBRANCH  23  37
BRANCH  24  47
ATOM     47  C   UNL A   1      37.399  31.469  31.645  1.00  0.00    -0.014 A 
ATOM     48  C   UNL A   1      36.770  31.646  32.889  1.00  0.00     0.010 A 
ATOM     49  C   UNL A   1      36.942  32.239  30.555  1.00  0.00     0.010 A 
ATOM     50  C   UNL A   1      35.772  32.619  33.057  1.00  0.00     0.020 A 
ATOM     51  C   UNL A   1      35.942  33.205  30.713  1.00  0.00     0.020 A 
ATOM     52  C   UNL A   1      35.384  33.410  31.973  1.00  0.00     0.054 A 
BRANCH  52  53
ATOM     53  S   UNL A   1      34.260  34.811  32.252  1.00  0.00     0.124 S 
ATOM     54  O   UNL A   1      35.070  35.699  33.079  1.00  0.00    -0.237 OA
ATOM     55  O   UNL A   1      33.994  35.278  30.893  1.00  0.00    -0.237 OA
ATOM     56  O   UNL A   1      33.115  34.202  32.926  1.00  0.00    -0.744 OA
ENDBRANCH  52  53
ENDBRANCH  24  47
BRANCH  36  57
ATOM     57  C   UNL A   1      42.951  29.268  33.766  1.00  0.00    -0.014 A 
ATOM     58  C   UNL A   1      43.250  29.575  35.108  1.00  0.00     0.010 A 
ATOM     59  C   UNL A   1      42.346  28.030  33.483  1.00  0.00     0.010 A 
ATOM     60  C   UNL A   1      42.990  28.649  36.130  1.00  0.00     0.020 A 
ATOM     61  C   UNL A   1      42.062  27.114  34.499  1.00  0.00     0.020 A 
ATOM     62  C   UNL A   1      42.400  27.421  35.816  1.00  0.00     0.054 A 
BRANCH  62  63
ATOM     63  S   UNL A   1      42.042  26.238  37.144  1.00  0.00     0.124 S 
ATOM     64  O   UNL A   1      42.193  24.951  36.470  1.00  0.00    -0.237 OA
ATOM     65  O   UNL A   1      43.061  26.551  38.142  1.00  0.00    -0.237 OA
ATOM     66  O   UNL A   1      40.674  26.568  37.544  1.00  0.00    -0.744 OA
ENDBRANCH  62  63
ENDBRANCH  36  57
ENDBRANCH  10  11
ENDBRANCH   3   5
ENDBRANCH   2   3
ENDBRANCH   1   2
BRANCH   1  67
ATOM     67  C   UNL A   1      37.187  21.012  25.016  1.00  0.00     0.275 C 
BRANCH  67  68
ATOM     68  O   UNL A   1      36.965  22.237  24.298  1.00  0.00    -0.457 OA
BRANCH  68  69
ATOM     69  C   UNL A   1      36.133  23.153  24.892  1.00  0.00     0.359 C 
ATOM     70  O   UNL A   1      36.406  23.818  25.882  1.00  0.00    -0.244 OA
BRANCH  69  71
ATOM     71  C   UNL A   1      34.831  23.222  24.222  1.00  0.00     0.175 A 
ATOM     72  N   UNL A   1      34.260  22.104  23.723  1.00  0.00    -0.165 NA
ATOM     73  C   UNL A   1      33.984  24.351  24.035  1.00  0.00     0.028 A 
ATOM     74  N   UNL A   1      33.086  22.517  23.198  1.00  0.00    -0.264 N 
ATOM     75  C   UNL A   1      32.938  23.868  23.275  1.00  0.00     0.046 A 
ATOM     76  C   UNL A   1      34.123  25.786  24.435  1.00  0.00     0.159 C 
ATOM     77  C   UNL A   1      31.864  24.704  22.694  1.00  0.00     0.078 C 
ATOM     78  N   UNL A   1      33.001  26.590  23.888  1.00  0.00    -0.337 N 
ATOM     79  C   UNL A   1      32.404  26.142  22.623  1.00  0.00     0.126 C 
BRANCH  74  80
ATOM     80  C   UNL A   1      32.055  21.541  22.857  1.00  0.00     0.180 C 
BRANCH  80  81
ATOM     81  C   UNL A   1      32.303  20.170  23.427  1.00  0.00    -0.026 A 
ATOM     82  C   UNL A   1      32.479  19.069  22.571  1.00  0.00     0.008 A 
ATOM     83  C   UNL A   1      32.417  19.979  24.814  1.00  0.00     0.008 A 
ATOM     84  C   UNL A   1      32.780  17.810  23.087  1.00  0.00     0.039 A 
ATOM     85  C   UNL A   1      32.721  18.717  25.328  1.00  0.00     0.039 A 
ATOM     86  C   UNL A   1      32.906  17.647  24.460  1.00  0.00     0.123 A 
ATOM     87  F   UNL A   1      33.221  16.441  24.952  1.00  0.00    -0.207 F 
ENDBRANCH  80  81
ENDBRANCH  74  80
BRANCH  78  88
ATOM     88  C   UNL A   1      32.789  27.863  24.408  1.00  0.00     0.232 C 
ATOM     89  O   UNL A   1      32.423  28.812  23.727  1.00  0.00    -0.274 OA
BRANCH  88  90
ATOM     90  C   UNL A   1      32.968  28.037  25.868  1.00  0.00     0.154 C 
ATOM     91  C   UNL A   1      33.677  29.269  26.415  1.00  0.00     0.097 C 
ATOM     92  C   UNL A   1      32.218  29.092  26.589  1.00  0.00     0.260 C 
ATOM     93  F   UNL A   1      31.368  29.973  25.966  1.00  0.00    -0.206 F 
ATOM     94  F   UNL A   1      31.729  28.877  27.857  1.00  0.00    -0.206 F 
ENDBRANCH  88  90
ENDBRANCH  78  88
ENDBRANCH  69  71
ENDBRANCH  68  69
ENDBRANCH  67  68
ENDBRANCH   1  67
TORSDOF 18
ENDMDL
MODEL 3
REMARK VINA RESULT:     -12.5      4.913      7.722
REMARK SMILES O=C(OCCOC(=O)c1nn(Cc2ccc(F)cc2)c2c1CN(C(=O)[C@H]1CC1(F)F)CC2)c1ccc(-c2c3nc(c(-c4ccc(S(=O)(=O)[O-])cc4)c4ccc([nH]4)c(-c4ccc(S(=O)(=O)[O-])cc4)c4nc(c(-c5ccc(S(=O)(=O)[O-])cc5)c5ccc2[nH]5)C=C4)C=C3)cc1
REMARK SMILES IDX 4 1 3 2 2 3 1 4 33 5 34 6 92 7 35 8 91 9 36 10 37 11 38 12
REMARK SMILES IDX 85 13 39 14 90 15 84 16 86 17 40 18 89 19 83 20 82 21 41 23
REMARK SMILES IDX 71 24 52 25 70 26 53 27 56 28 69 29 87 30 54 31 55 32 68 34
REMARK SMILES IDX 88 35 57 36 42 37 43 38 51 39 44 40 50 41 45 42 46 43 47 44
REMARK SMILES IDX 48 45 49 46 72 47 73 48 81 49 74 50 80 51 75 52 76 53 77 54
REMARK SMILES IDX 78 55 79 56 58 57 59 58 67 59 60 60 66 61 61 62 62 63 63 64
REMARK SMILES IDX 64 65 65 66 5 67 6 68 7 69 8 70 9 71 10 72 21 73 11 74 20 75
REMARK SMILES IDX 22 76 32 77 23 78 31 79 12 80 13 81 14 82 19 83 15 84 18 85
REMARK SMILES IDX 16 86 17 87 24 88 25 89 26 90 27 91 28 92 29 93 30 94
REMARK H PARENT 86 22 56 33
REMARK Flexibility Score: inf
ROOT
ATOM      1  C   UNL A   1      41.309  20.086  26.180  1.00  0.00     0.275 C 
ENDROOT
BRANCH   1   2
ATOM      2  O   UNL A   1      40.551  20.978  27.020  1.00  0.00    -0.458 OA
BRANCH   2   3
ATOM      3  C   UNL A   1      39.717  21.862  26.440  1.00  0.00     0.338 C 
ATOM      4  O   UNL A   1      38.839  21.596  25.641  1.00  0.00    -0.246 OA
BRANCH   3   5
ATOM      5  C   UNL A   1      39.997  23.224  26.938  1.00  0.00     0.060 A 
ATOM      6  C   UNL A   1      39.120  24.283  26.689  1.00  0.00     0.016 A 
ATOM      7  C   UNL A   1      41.113  23.414  27.754  1.00  0.00     0.016 A 
ATOM      8  C   UNL A   1      39.380  25.538  27.230  1.00  0.00     0.010 A 
ATOM      9  C   UNL A   1      41.340  24.658  28.334  1.00  0.00     0.010 A 
ATOM     10  C   UNL A   1      40.499  25.741  28.050  1.00  0.00    -0.014 A 
BRANCH  10  11
ATOM     11  C   UNL A   1      40.715  27.084  28.607  1.00  0.00     0.031 A 
ATOM     12  C   UNL A   1      41.861  27.877  28.056  1.00  0.00     0.074 A 
ATOM     13  C   UNL A   1      39.911  27.690  29.504  1.00  0.00     0.049 A 
ATOM     14  N   UNL A   1      43.017  28.111  28.590  1.00  0.00    -0.248 NA
ATOM     15  C   UNL A   1      41.733  28.410  26.698  1.00  0.00     0.031 C 
ATOM     16  C   UNL A   1      38.608  27.264  30.022  1.00  0.00     0.029 A 
ATOM     17  N   UNL A   1      40.091  28.904  30.097  1.00  0.00    -0.354 N 
ATOM     18  C   UNL A   1      43.687  28.971  27.714  1.00  0.00     0.074 A 
ATOM     19  C   UNL A   1      42.925  28.969  26.494  1.00  0.00     0.031 C 
ATOM     20  C   UNL A   1      38.020  28.298  30.665  1.00  0.00     0.029 A 
ATOM     21  C   UNL A   1      38.976  29.385  30.763  1.00  0.00     0.049 A 
ATOM     22  H   UNL A   1      40.943  29.397  30.057  1.00  0.00     0.167 HD
ATOM     23  C   UNL A   1      44.694  29.801  28.111  1.00  0.00     0.031 A 
ATOM     24  C   UNL A   1      38.839  30.594  31.356  1.00  0.00     0.031 A 
ATOM     25  C   UNL A   1      45.176  29.470  29.423  1.00  0.00     0.049 A 
ATOM     26  C   UNL A   1      40.198  31.095  31.663  1.00  0.00     0.074 A 
ATOM     27  C   UNL A   1      45.702  28.336  30.010  1.00  0.00     0.029 A 
ATOM     28  N   UNL A   1      44.791  30.285  30.463  1.00  0.00    -0.354 N 
ATOM     29  N   UNL A   1      40.980  30.546  32.549  1.00  0.00    -0.248 NA
ATOM     30  C   UNL A   1      40.860  31.970  30.709  1.00  0.00     0.031 C 
ATOM     31  C   UNL A   1      45.132  28.307  31.316  1.00  0.00     0.029 A 
ATOM     32  C   UNL A   1      44.356  29.460  31.468  1.00  0.00     0.049 A 
ATOM     33  H   UNL A   1      44.822  31.269  30.482  1.00  0.00     0.167 HD
ATOM     34  C   UNL A   1      42.257  30.660  32.024  1.00  0.00     0.074 A 
ATOM     35  C   UNL A   1      42.132  31.642  30.950  1.00  0.00     0.031 C 
ATOM     36  C   UNL A   1      43.235  29.758  32.334  1.00  0.00     0.031 A 
BRANCH  23  37
ATOM     37  C   UNL A   1      44.997  31.142  27.477  1.00  0.00    -0.014 A 
ATOM     38  C   UNL A   1      46.320  31.424  27.075  1.00  0.00     0.010 A 
ATOM     39  C   UNL A   1      44.100  32.229  27.513  1.00  0.00     0.010 A 
ATOM     40  C   UNL A   1      46.741  32.735  26.807  1.00  0.00     0.020 A 
ATOM     41  C   UNL A   1      44.495  33.532  27.198  1.00  0.00     0.020 A 
ATOM     42  C   UNL A   1      45.825  33.783  26.889  1.00  0.00     0.054 A 
BRANCH  42  43
ATOM     43  S   UNL A   1      46.398  35.487  26.674  1.00  0.00     0.124 S 
ATOM     44  O   UNL A   1      47.134  35.395  25.417  1.00  0.00    -0.237 OA
ATOM     45  O   UNL A   1      45.143  36.232  26.623  1.00  0.00    -0.237 OA
ATOM     46  O   UNL A   1      47.210  35.724  27.864  1.00  0.00    -0.744 OA
ENDBRANCH  42  43
ENDBRANCH  23  37
BRANCH  24  47
ATOM     47  C   UNL A   1      37.623  31.428  31.470  1.00  0.00    -0.014 A 
ATOM     48  C   UNL A   1      36.697  31.211  32.505  1.00  0.00     0.010 A 
ATOM     49  C   UNL A   1      37.521  32.625  30.730  1.00  0.00     0.010 A 
ATOM     50  C   UNL A   1      35.754  32.194  32.842  1.00  0.00     0.020 A 
ATOM     51  C   UNL A   1      36.578  33.605  31.055  1.00  0.00     0.020 A 
ATOM     52  C   UNL A   1      35.719  33.396  32.131  1.00  0.00     0.054 A 
BRANCH  52  53
ATOM     53  S   UNL A   1      34.651  34.744  32.717  1.00  0.00     0.124 S 
ATOM     54  O   UNL A   1      33.490  34.021  33.226  1.00  0.00    -0.237 OA
ATOM     55  O   UNL A   1      35.484  35.394  33.725  1.00  0.00    -0.237 OA
ATOM     56  O   UNL A   1      34.411  35.539  31.514  1.00  0.00    -0.744 OA
ENDBRANCH  52  53
ENDBRANCH  24  47
BRANCH  36  57
ATOM     57  C   UNL A   1      43.031  28.829  33.509  1.00  0.00    -0.014 A 
ATOM     58  C   UNL A   1      43.738  28.925  34.724  1.00  0.00     0.010 A 
ATOM     59  C   UNL A   1      41.979  27.899  33.422  1.00  0.00     0.010 A 
ATOM     60  C   UNL A   1      43.426  28.085  35.804  1.00  0.00     0.020 A 
ATOM     61  C   UNL A   1      41.647  27.076  34.501  1.00  0.00     0.020 A 
ATOM     62  C   UNL A   1      42.383  27.162  35.682  1.00  0.00     0.054 A 
BRANCH  62  63
ATOM     63  S   UNL A   1      41.967  26.096  37.090  1.00  0.00     0.124 S 
ATOM     64  O   UNL A   1      42.900  26.551  38.117  1.00  0.00    -0.237 OA
ATOM     65  O   UNL A   1      40.561  26.410  37.332  1.00  0.00    -0.237 OA
ATOM     66  O   UNL A   1      42.213  24.744  36.586  1.00  0.00    -0.744 OA
ENDBRANCH  62  63
ENDBRANCH  36  57
ENDBRANCH  10  11
ENDBRANCH   3   5
ENDBRANCH   2   3
ENDBRANCH   1   2
BRANCH   1  67
ATOM     67  C   UNL A   1      42.811  20.340  26.013  1.00  0.00     0.275 C 
BRANCH  67  68
ATOM     68  O   UNL A   1      43.052  21.567  25.304  1.00  0.00    -0.457 OA
BRANCH  68  69
ATOM     69  C   UNL A   1      44.359  21.844  24.986  1.00  0.00     0.359 C 
ATOM     70  O   UNL A   1      45.107  21.101  24.367  1.00  0.00    -0.244 OA
BRANCH  69  71
ATOM     71  C   UNL A   1      44.787  23.141  25.518  1.00  0.00     0.175 A 
ATOM     72  N   UNL A   1      45.199  24.119  24.683  1.00  0.00    -0.165 NA
ATOM     73  C   UNL A   1      44.799  23.590  26.869  1.00  0.00     0.028 A 
ATOM     74  N   UNL A   1      45.500  25.161  25.487  1.00  0.00    -0.264 N 
ATOM     75  C   UNL A   1      45.372  24.844  26.804  1.00  0.00     0.046 A 
ATOM     76  C   UNL A   1      44.400  22.927  28.149  1.00  0.00     0.159 C 
ATOM     77  C   UNL A   1      45.737  25.663  27.981  1.00  0.00     0.078 C 
ATOM     78  N   UNL A   1      44.725  23.796  29.309  1.00  0.00    -0.337 N 
ATOM     79  C   UNL A   1      45.873  24.702  29.173  1.00  0.00     0.126 C 
BRANCH  74  80
ATOM     80  C   UNL A   1      45.674  26.495  24.920  1.00  0.00     0.180 C 
BRANCH  80  81
ATOM     81  C   UNL A   1      47.077  27.030  25.040  1.00  0.00    -0.026 A 
ATOM     82  C   UNL A   1      47.358  28.083  25.927  1.00  0.00     0.008 A 
ATOM     83  C   UNL A   1      48.130  26.451  24.313  1.00  0.00     0.008 A 
ATOM     84  C   UNL A   1      48.665  28.536  26.098  1.00  0.00     0.039 A 
ATOM     85  C   UNL A   1      49.438  26.906  24.488  1.00  0.00     0.039 A 
ATOM     86  C   UNL A   1      49.694  27.939  25.383  1.00  0.00     0.123 A 
ATOM     87  F   UNL A   1      50.952  28.359  25.568  1.00  0.00    -0.207 F 
ENDBRANCH  80  81
ENDBRANCH  74  80
BRANCH  78  88
ATOM     88  C   UNL A   1      44.150  23.493  30.539  1.00  0.00     0.232 C 
ATOM     89  O   UNL A   1      43.118  22.845  30.654  1.00  0.00    -0.274 OA
BRANCH  88  90
ATOM     90  C   UNL A   1      44.871  23.940  31.753  1.00  0.00     0.154 C 
ATOM     91  C   UNL A   1      44.238  24.958  32.693  1.00  0.00     0.097 C 
ATOM     92  C   UNL A   1      44.386  23.541  33.095  1.00  0.00     0.260 C 
ATOM     93  F   UNL A   1      43.253  22.792  33.296  1.00  0.00    -0.206 F 
ATOM     94  F   UNL A   1      45.266  23.233  34.108  1.00  0.00    -0.206 F 
ENDBRANCH  88  90
ENDBRANCH  78  88
ENDBRANCH  69  71
ENDBRANCH  68  69
ENDBRANCH  67  68
ENDBRANCH   1  67
TORSDOF 18
ENDMDL
