MODEL 1
REMARK VINA RESULT:      -9.6      0.000      0.000
REMARK SMILES O=C(CCOc1cccc(/C=C2/SC(=S)N(c3ccc(Cl)c(Cl)c3)C2=O)c1)OCCOC(=O)c1ccc(-c2c3nc(c(-c4ccc(S(=O)(=O)[O-])cc4)c4ccc([nH]4)c(-c4ccc(S(=O)(=O)[O-])cc4)c4nc(c(-c5ccc(S(=O)(=O)[O-])cc5)c5ccc2[nH]5)C=C4)C=C3)cc1
REMARK SMILES IDX 29 1 28 2 2 3 1 4 3 5 4 6 5 7 6 8 7 9 27 10 8 11 10 12 9 13
REMARK SMILES IDX 11 14 12 15 13 16 25 17 14 18 16 19 26 20 15 21 17 22 18 23
REMARK SMILES IDX 24 24 19 25 22 26 20 27 23 28 21 29 30 30 31 31 32 32 33 33
REMARK SMILES IDX 34 34 35 35 93 36 36 37 92 38 37 39 38 40 39 41 86 42 40 43
REMARK SMILES IDX 91 44 85 45 87 46 41 47 90 48 84 49 83 50 42 52 72 53 53 54
REMARK SMILES IDX 71 55 54 56 57 57 70 58 88 59 55 60 56 61 69 63 89 64 58 65
REMARK SMILES IDX 43 66 44 67 52 68 45 69 51 70 46 71 47 72 48 73 49 74 50 75
REMARK SMILES IDX 73 76 74 77 82 78 75 79 81 80 76 81 77 82 78 83 79 84 80 85
REMARK SMILES IDX 59 86 60 87 68 88 61 89 67 90 62 91 63 92 64 93 65 94 66 95
REMARK H PARENT 87 51 57 62
REMARK Flexibility Score: inf
ROOT
ATOM      1  C   UNL A   1      34.394  34.308  29.207  1.00  0.00     0.274 C 
ENDROOT
BRANCH   1   2
ATOM      2  O   UNL A   1      34.176  33.714  30.504  1.00  0.00    -0.462 OA
BRANCH   2   3
ATOM      3  C   UNL A   1      35.097  33.561  31.478  1.00  0.00     0.309 C 
ATOM      4  O   UNL A   1      36.147  34.201  31.438  1.00  0.00    -0.252 OA
BRANCH   3   5
ATOM      5  C   UNL A   1      34.767  32.728  32.676  1.00  0.00     0.164 C 
BRANCH   5   6
ATOM      6  C   UNL A   1      36.032  32.452  33.486  1.00  0.00     0.241 C 
BRANCH   6   7
ATOM      7  O   UNL A   1      36.735  31.258  33.123  1.00  0.00    -0.493 OA
BRANCH   7   8
ATOM      8  C   UNL A   1      38.093  31.175  33.273  1.00  0.00     0.119 A 
ATOM      9  C   UNL A   1      38.608  29.880  33.210  1.00  0.00     0.046 A 
ATOM     10  C   UNL A   1      38.959  32.222  33.588  1.00  0.00     0.054 A 
ATOM     11  C   UNL A   1      39.944  29.630  33.538  1.00  0.00     0.004 A 
ATOM     12  C   UNL A   1      40.244  31.958  34.095  1.00  0.00    -0.021 A 
ATOM     13  C   UNL A   1      40.751  30.663  34.017  1.00  0.00     0.008 A 
BRANCH  12  14
ATOM     14  C   UNL A   1      40.961  33.047  34.779  1.00  0.00     0.029 C 
ATOM     15  C   UNL A   1      40.876  33.376  36.084  1.00  0.00     0.081 C 
ATOM     16  S   UNL A   1      41.602  34.818  36.694  1.00  0.00    -0.054 SA
ATOM     17  C   UNL A   1      40.139  32.694  37.202  1.00  0.00     0.270 C 
ATOM     18  C   UNL A   1      40.857  34.659  38.286  1.00  0.00     0.152 C 
ATOM     19  N   UNL A   1      40.072  33.516  38.336  1.00  0.00    -0.261 N 
ATOM     20  O   UNL A   1      39.705  31.552  37.100  1.00  0.00    -0.268 OA
ATOM     21  S   UNL A   1      41.282  35.721  39.512  1.00  0.00    -0.051 S 
BRANCH  19  22
ATOM     22  C   UNL A   1      39.191  33.177  39.431  1.00  0.00     0.052 A 
ATOM     23  C   UNL A   1      39.684  32.656  40.639  1.00  0.00     0.028 A 
ATOM     24  C   UNL A   1      37.793  33.180  39.258  1.00  0.00     0.048 A 
ATOM     25  C   UNL A   1      38.826  32.109  41.605  1.00  0.00     0.024 A 
ATOM     26  C   UNL A   1      36.930  32.611  40.209  1.00  0.00     0.061 A 
ATOM     27  C   UNL A   1      37.450  32.066  41.383  1.00  0.00     0.059 A 
ATOM     28  Cl  UNL A   1      35.247  32.531  39.825  1.00  0.00    -0.083 Cl
ATOM     29  Cl  UNL A   1      36.465  31.286  42.569  1.00  0.00    -0.083 Cl
ENDBRANCH  19  22
ENDBRANCH  12  14
ENDBRANCH   7   8
ENDBRANCH   6   7
ENDBRANCH   5   6
ENDBRANCH   3   5
ENDBRANCH   2   3
ENDBRANCH   1   2
BRANCH   1  30
ATOM     30  C   UNL A   1      34.841  33.215  28.249  1.00  0.00     0.275 C 
BRANCH  30  31
ATOM     31  O   UNL A   1      34.637  31.929  28.840  1.00  0.00    -0.458 OA
BRANCH  31  32
ATOM     32  C   UNL A   1      34.799  30.860  28.007  1.00  0.00     0.338 C 
ATOM     33  O   UNL A   1      34.113  30.534  27.065  1.00  0.00    -0.246 OA
BRANCH  32  34
ATOM     34  C   UNL A   1      36.115  30.287  28.328  1.00  0.00     0.060 A 
ATOM     35  C   UNL A   1      36.332  29.749  29.604  1.00  0.00     0.016 A 
ATOM     36  C   UNL A   1      37.098  30.231  27.341  1.00  0.00     0.016 A 
ATOM     37  C   UNL A   1      37.543  29.130  29.891  1.00  0.00     0.010 A 
ATOM     38  C   UNL A   1      38.309  29.626  27.629  1.00  0.00     0.010 A 
ATOM     39  C   UNL A   1      38.538  29.095  28.909  1.00  0.00    -0.014 A 
BRANCH  39  40
ATOM     40  C   UNL A   1      39.920  28.716  29.239  1.00  0.00     0.031 A 
ATOM     41  C   UNL A   1      40.814  29.798  29.761  1.00  0.00     0.074 A 
ATOM     42  C   UNL A   1      40.376  27.487  28.954  1.00  0.00     0.049 A 
ATOM     43  N   UNL A   1      42.107  29.791  29.929  1.00  0.00    -0.248 NA
ATOM     44  C   UNL A   1      40.161  31.073  30.111  1.00  0.00     0.031 C 
ATOM     45  C   UNL A   1      39.567  26.375  28.454  1.00  0.00     0.029 A 
ATOM     46  N   UNL A   1      41.647  26.984  29.010  1.00  0.00    -0.354 N 
ATOM     47  C   UNL A   1      42.425  31.064  30.385  1.00  0.00     0.074 A 
ATOM     48  C   UNL A   1      41.198  31.825  30.441  1.00  0.00     0.031 C 
ATOM     49  C   UNL A   1      40.372  25.323  28.222  1.00  0.00     0.029 A 
ATOM     50  C   UNL A   1      41.750  25.705  28.521  1.00  0.00     0.049 A 
ATOM     51  H   UNL A   1      42.413  27.490  29.366  1.00  0.00     0.167 HD
ATOM     52  C   UNL A   1      43.640  31.553  30.721  1.00  0.00     0.031 A 
ATOM     53  C   UNL A   1      42.845  24.949  28.313  1.00  0.00     0.031 A 
ATOM     54  C   UNL A   1      44.849  30.787  30.623  1.00  0.00     0.049 A 
ATOM     55  C   UNL A   1      44.193  25.527  28.655  1.00  0.00     0.074 A 
ATOM     56  C   UNL A   1      46.139  31.163  30.946  1.00  0.00     0.029 A 
ATOM     57  N   UNL A   1      44.913  29.482  30.154  1.00  0.00    -0.354 N 
ATOM     58  N   UNL A   1      44.485  26.720  29.119  1.00  0.00    -0.248 NA
ATOM     59  C   UNL A   1      45.357  24.655  28.455  1.00  0.00     0.031 C 
ATOM     60  C   UNL A   1      46.990  30.099  30.627  1.00  0.00     0.029 A 
ATOM     61  C   UNL A   1      46.223  29.040  30.163  1.00  0.00     0.049 A 
ATOM     62  H   UNL A   1      44.140  28.949  29.858  1.00  0.00     0.167 HD
ATOM     63  C   UNL A   1      45.864  26.732  29.298  1.00  0.00     0.074 A 
ATOM     64  C   UNL A   1      46.345  25.424  28.896  1.00  0.00     0.031 C 
ATOM     65  C   UNL A   1      46.662  27.727  29.760  1.00  0.00     0.031 A 
BRANCH  52  66
ATOM     66  C   UNL A   1      43.700  32.983  31.182  1.00  0.00    -0.014 A 
ATOM     67  C   UNL A   1      43.782  34.041  30.259  1.00  0.00     0.010 A 
ATOM     68  C   UNL A   1      43.689  33.274  32.558  1.00  0.00     0.010 A 
ATOM     69  C   UNL A   1      43.900  35.360  30.703  1.00  0.00     0.020 A 
ATOM     70  C   UNL A   1      43.778  34.595  33.006  1.00  0.00     0.020 A 
ATOM     71  C   UNL A   1      43.902  35.628  32.075  1.00  0.00     0.054 A 
BRANCH  71  72
ATOM     72  S   UNL A   1      44.046  37.350  32.625  1.00  0.00     0.124 S 
ATOM     73  O   UNL A   1      42.997  37.431  33.639  1.00  0.00    -0.237 OA
ATOM     74  O   UNL A   1      45.415  37.411  33.131  1.00  0.00    -0.237 OA
ATOM     75  O   UNL A   1      43.800  38.125  31.412  1.00  0.00    -0.744 OA
ENDBRANCH  71  72
ENDBRANCH  52  66
BRANCH  53  76
ATOM     76  C   UNL A   1      42.706  23.576  27.759  1.00  0.00    -0.014 A 
ATOM     77  C   UNL A   1      42.351  22.505  28.598  1.00  0.00     0.010 A 
ATOM     78  C   UNL A   1      42.897  23.333  26.386  1.00  0.00     0.010 A 
ATOM     79  C   UNL A   1      42.201  21.216  28.077  1.00  0.00     0.020 A 
ATOM     80  C   UNL A   1      42.725  22.050  25.858  1.00  0.00     0.020 A 
ATOM     81  C   UNL A   1      42.385  20.997  26.709  1.00  0.00     0.054 A 
BRANCH  81  82
ATOM     82  S   UNL A   1      42.120  19.328  26.047  1.00  0.00     0.124 S 
ATOM     83  O   UNL A   1      40.679  19.315  25.820  1.00  0.00    -0.237 OA
ATOM     84  O   UNL A   1      42.952  19.331  24.845  1.00  0.00    -0.237 OA
ATOM     85  O   UNL A   1      42.594  18.457  27.121  1.00  0.00    -0.744 OA
ENDBRANCH  81  82
ENDBRANCH  53  76
BRANCH  65  86
ATOM     86  C   UNL A   1      48.129  27.427  29.901  1.00  0.00    -0.014 A 
ATOM     87  C   UNL A   1      49.060  27.861  28.943  1.00  0.00     0.010 A 
ATOM     88  C   UNL A   1      48.585  26.767  31.056  1.00  0.00     0.010 A 
ATOM     89  C   UNL A   1      50.423  27.618  29.127  1.00  0.00     0.020 A 
ATOM     90  C   UNL A   1      49.948  26.546  31.257  1.00  0.00     0.020 A 
ATOM     91  C   UNL A   1      50.858  26.964  30.284  1.00  0.00     0.054 A 
BRANCH  91  92
ATOM     92  S   UNL A   1      52.637  26.711  30.528  1.00  0.00     0.124 S 
ATOM     93  O   UNL A   1      53.121  26.617  29.155  1.00  0.00    -0.237 OA
ATOM     94  O   UNL A   1      53.035  27.915  31.254  1.00  0.00    -0.237 OA
ATOM     95  O   UNL A   1      52.708  25.473  31.301  1.00  0.00    -0.744 OA
ENDBRANCH  91  92
ENDBRANCH  65  86
ENDBRANCH  39  40
ENDBRANCH  32  34
ENDBRANCH  31  32
ENDBRANCH  30  31
ENDBRANCH   1  30
TORSDOF 19
ENDMDL
MODEL 2
REMARK VINA RESULT:      -9.3      2.699      3.501
REMARK SMILES O=C(CCOc1cccc(/C=C2/SC(=S)N(c3ccc(Cl)c(Cl)c3)C2=O)c1)OCCOC(=O)c1ccc(-c2c3nc(c(-c4ccc(S(=O)(=O)[O-])cc4)c4ccc([nH]4)c(-c4ccc(S(=O)(=O)[O-])cc4)c4nc(c(-c5ccc(S(=O)(=O)[O-])cc5)c5ccc2[nH]5)C=C4)C=C3)cc1
REMARK SMILES IDX 29 1 28 2 2 3 1 4 3 5 4 6 5 7 6 8 7 9 27 10 8 11 10 12 9 13
REMARK SMILES IDX 11 14 12 15 13 16 25 17 14 18 16 19 26 20 15 21 17 22 18 23
REMARK SMILES IDX 24 24 19 25 22 26 20 27 23 28 21 29 30 30 31 31 32 32 33 33
REMARK SMILES IDX 34 34 35 35 93 36 36 37 92 38 37 39 38 40 39 41 86 42 40 43
REMARK SMILES IDX 91 44 85 45 87 46 41 47 90 48 84 49 83 50 42 52 72 53 53 54
REMARK SMILES IDX 71 55 54 56 57 57 70 58 88 59 55 60 56 61 69 63 89 64 58 65
REMARK SMILES IDX 43 66 44 67 52 68 45 69 51 70 46 71 47 72 48 73 49 74 50 75
REMARK SMILES IDX 73 76 74 77 82 78 75 79 81 80 76 81 77 82 78 83 79 84 80 85
REMARK SMILES IDX 59 86 60 87 68 88 61 89 67 90 62 91 63 92 64 93 65 94 66 95
REMARK H PARENT 87 51 57 62
REMARK Flexibility Score: inf
ROOT
ATOM      1  C   UNL A   1      34.134  34.657  29.651  1.00  0.00     0.274 C 
ENDROOT
BRANCH   1   2
ATOM      2  O   UNL A   1      33.573  34.413  30.958  1.00  0.00    -0.462 OA
BRANCH   2   3
ATOM      3  C   UNL A   1      34.234  34.458  32.133  1.00  0.00     0.309 C 
ATOM      4  O   UNL A   1      34.725  35.518  32.521  1.00  0.00    -0.252 OA
BRANCH   3   5
ATOM      5  C   UNL A   1      34.232  33.257  33.024  1.00  0.00     0.164 C 
BRANCH   5   6
ATOM      6  C   UNL A   1      35.370  32.315  32.637  1.00  0.00     0.241 C 
BRANCH   6   7
ATOM      7  O   UNL A   1      36.450  32.252  33.576  1.00  0.00    -0.493 OA
BRANCH   7   8
ATOM      8  C   UNL A   1      37.512  33.111  33.477  1.00  0.00     0.119 A 
ATOM      9  C   UNL A   1      37.724  33.629  32.200  1.00  0.00     0.046 A 
ATOM     10  C   UNL A   1      38.434  33.411  34.480  1.00  0.00     0.054 A 
ATOM     11  C   UNL A   1      38.880  34.362  31.913  1.00  0.00     0.004 A 
ATOM     12  C   UNL A   1      39.678  33.982  34.158  1.00  0.00    -0.021 A 
ATOM     13  C   UNL A   1      39.874  34.505  32.882  1.00  0.00     0.008 A 
BRANCH  12  14
ATOM     14  C   UNL A   1      40.756  33.913  35.158  1.00  0.00     0.029 C 
ATOM     15  C   UNL A   1      41.590  32.876  35.378  1.00  0.00     0.081 C 
ATOM     16  S   UNL A   1      42.655  32.854  36.735  1.00  0.00    -0.054 SA
ATOM     17  C   UNL A   1      41.730  31.580  34.630  1.00  0.00     0.270 C 
ATOM     18  C   UNL A   1      43.150  31.181  36.468  1.00  0.00     0.152 C 
ATOM     19  N   UNL A   1      42.505  30.662  35.353  1.00  0.00    -0.261 N 
ATOM     20  O   UNL A   1      41.245  31.410  33.517  1.00  0.00    -0.268 OA
ATOM     21  S   UNL A   1      44.371  30.516  37.405  1.00  0.00    -0.051 S 
BRANCH  19  22
ATOM     22  C   UNL A   1      42.553  29.273  34.955  1.00  0.00     0.052 A 
ATOM     23  C   UNL A   1      41.937  28.267  35.718  1.00  0.00     0.028 A 
ATOM     24  C   UNL A   1      43.378  28.857  33.893  1.00  0.00     0.048 A 
ATOM     25  C   UNL A   1      42.179  26.908  35.469  1.00  0.00     0.024 A 
ATOM     26  C   UNL A   1      43.645  27.499  33.654  1.00  0.00     0.061 A 
ATOM     27  C   UNL A   1      43.050  26.522  34.450  1.00  0.00     0.059 A 
ATOM     28  Cl  UNL A   1      44.792  27.108  32.421  1.00  0.00    -0.083 Cl
ATOM     29  Cl  UNL A   1      43.381  24.836  34.267  1.00  0.00    -0.083 Cl
ENDBRANCH  19  22
ENDBRANCH  12  14
ENDBRANCH   7   8
ENDBRANCH   6   7
ENDBRANCH   5   6
ENDBRANCH   3   5
ENDBRANCH   2   3
ENDBRANCH   1   2
BRANCH   1  30
ATOM     30  C   UNL A   1      33.887  33.431  28.786  1.00  0.00     0.275 C 
BRANCH  30  31
ATOM     31  O   UNL A   1      34.595  32.306  29.314  1.00  0.00    -0.458 OA
BRANCH  31  32
ATOM     32  C   UNL A   1      34.686  31.222  28.490  1.00  0.00     0.338 C 
ATOM     33  O   UNL A   1      33.924  30.880  27.616  1.00  0.00    -0.246 OA
BRANCH  32  34
ATOM     34  C   UNL A   1      36.025  30.654  28.709  1.00  0.00     0.060 A 
ATOM     35  C   UNL A   1      36.393  30.253  30.000  1.00  0.00     0.016 A 
ATOM     36  C   UNL A   1      36.877  30.465  27.621  1.00  0.00     0.016 A 
ATOM     37  C   UNL A   1      37.623  29.637  30.204  1.00  0.00     0.010 A 
ATOM     38  C   UNL A   1      38.107  29.865  27.824  1.00  0.00     0.010 A 
ATOM     39  C   UNL A   1      38.487  29.470  29.117  1.00  0.00    -0.014 A 
BRANCH  39  40
ATOM     40  C   UNL A   1      39.895  29.094  29.315  1.00  0.00     0.031 A 
ATOM     41  C   UNL A   1      40.840  30.187  29.711  1.00  0.00     0.074 A 
ATOM     42  C   UNL A   1      40.317  27.855  29.021  1.00  0.00     0.049 A 
ATOM     43  N   UNL A   1      42.144  30.178  29.746  1.00  0.00    -0.248 NA
ATOM     44  C   UNL A   1      40.229  31.474  30.088  1.00  0.00     0.031 C 
ATOM     45  C   UNL A   1      39.459  26.733  28.639  1.00  0.00     0.029 A 
ATOM     46  N   UNL A   1      41.587  27.347  28.961  1.00  0.00    -0.354 N 
ATOM     47  C   UNL A   1      42.509  31.462  30.129  1.00  0.00     0.074 A 
ATOM     48  C   UNL A   1      41.296  32.231  30.288  1.00  0.00     0.031 C 
ATOM     49  C   UNL A   1      40.234  25.671  28.357  1.00  0.00     0.029 A 
ATOM     50  C   UNL A   1      41.636  26.055  28.502  1.00  0.00     0.049 A 
ATOM     51  H   UNL A   1      42.386  27.860  29.222  1.00  0.00     0.167 HD
ATOM     52  C   UNL A   1      43.753  31.954  30.325  1.00  0.00     0.031 A 
ATOM     53  C   UNL A   1      42.703  25.288  28.205  1.00  0.00     0.031 A 
ATOM     54  C   UNL A   1      44.945  31.180  30.126  1.00  0.00     0.049 A 
ATOM     55  C   UNL A   1      44.080  25.869  28.391  1.00  0.00     0.074 A 
ATOM     56  C   UNL A   1      46.261  31.559  30.304  1.00  0.00     0.029 A 
ATOM     57  N   UNL A   1      44.957  29.861  29.691  1.00  0.00    -0.354 N 
ATOM     58  N   UNL A   1      44.420  27.074  28.787  1.00  0.00    -0.248 NA
ATOM     59  C   UNL A   1      45.216  24.986  28.098  1.00  0.00     0.031 C 
ATOM     60  C   UNL A   1      47.073  30.483  29.931  1.00  0.00     0.029 A 
ATOM     61  C   UNL A   1      46.261  29.414  29.579  1.00  0.00     0.049 A 
ATOM     62  H   UNL A   1      44.157  29.324  29.491  1.00  0.00     0.167 HD
ATOM     63  C   UNL A   1      45.810  27.084  28.823  1.00  0.00     0.074 A 
ATOM     64  C   UNL A   1      46.246  25.762  28.413  1.00  0.00     0.031 C 
ATOM     65  C   UNL A   1      46.654  28.088  29.172  1.00  0.00     0.031 A 
BRANCH  52  66
ATOM     66  C   UNL A   1      43.863  33.397  30.735  1.00  0.00    -0.014 A 
ATOM     67  C   UNL A   1      43.366  33.839  31.975  1.00  0.00     0.010 A 
ATOM     68  C   UNL A   1      44.456  34.327  29.864  1.00  0.00     0.010 A 
ATOM     69  C   UNL A   1      43.418  35.193  32.316  1.00  0.00     0.020 A 
ATOM     70  C   UNL A   1      44.536  35.678  30.214  1.00  0.00     0.020 A 
ATOM     71  C   UNL A   1      43.999  36.105  31.430  1.00  0.00     0.054 A 
BRANCH  71  72
ATOM     72  S   UNL A   1      44.064  37.855  31.901  1.00  0.00     0.124 S 
ATOM     73  O   UNL A   1      43.361  37.849  33.182  1.00  0.00    -0.237 OA
ATOM     74  O   UNL A   1      45.499  38.114  31.974  1.00  0.00    -0.237 OA
ATOM     75  O   UNL A   1      43.367  38.534  30.812  1.00  0.00    -0.744 OA
ENDBRANCH  71  72
ENDBRANCH  52  66
BRANCH  53  76
ATOM     76  C   UNL A   1      42.505  23.900  27.709  1.00  0.00    -0.014 A 
ATOM     77  C   UNL A   1      42.449  23.641  26.328  1.00  0.00     0.010 A 
ATOM     78  C   UNL A   1      42.402  22.824  28.610  1.00  0.00     0.010 A 
ATOM     79  C   UNL A   1      42.283  22.335  25.858  1.00  0.00     0.020 A 
ATOM     80  C   UNL A   1      42.259  21.514  28.143  1.00  0.00     0.020 A 
ATOM     81  C   UNL A   1      42.193  21.278  26.769  1.00  0.00     0.054 A 
BRANCH  81  82
ATOM     82  S   UNL A   1      42.043  19.585  26.131  1.00  0.00     0.124 S 
ATOM     83  O   UNL A   1      42.408  18.788  27.297  1.00  0.00    -0.237 OA
ATOM     84  O   UNL A   1      40.638  19.522  25.735  1.00  0.00    -0.237 OA
ATOM     85  O   UNL A   1      42.996  19.552  25.024  1.00  0.00    -0.744 OA
ENDBRANCH  81  82
ENDBRANCH  53  76
BRANCH  65  86
ATOM     86  C   UNL A   1      48.127  27.784  29.171  1.00  0.00    -0.014 A 
ATOM     87  C   UNL A   1      48.728  27.078  30.226  1.00  0.00     0.010 A 
ATOM     88  C   UNL A   1      48.900  28.146  28.053  1.00  0.00     0.010 A 
ATOM     89  C   UNL A   1      50.087  26.760  30.173  1.00  0.00     0.020 A 
ATOM     90  C   UNL A   1      50.251  27.806  27.985  1.00  0.00     0.020 A 
ATOM     91  C   UNL A   1      50.840  27.124  29.052  1.00  0.00     0.054 A 
BRANCH  91  92
ATOM     92  S   UNL A   1      52.588  26.649  28.981  1.00  0.00     0.124 S 
ATOM     93  O   UNL A   1      53.251  27.947  28.894  1.00  0.00    -0.237 OA
ATOM     94  O   UNL A   1      52.776  25.930  30.238  1.00  0.00    -0.237 OA
ATOM     95  O   UNL A   1      52.674  25.823  27.779  1.00  0.00    -0.744 OA
ENDBRANCH  91  92
ENDBRANCH  65  86
ENDBRANCH  39  40
ENDBRANCH  32  34
ENDBRANCH  31  32
ENDBRANCH  30  31
ENDBRANCH   1  30
TORSDOF 19
ENDMDL
MODEL 3
REMARK VINA RESULT:      -9.3      2.971      3.784
REMARK SMILES O=C(CCOc1cccc(/C=C2/SC(=S)N(c3ccc(Cl)c(Cl)c3)C2=O)c1)OCCOC(=O)c1ccc(-c2c3nc(c(-c4ccc(S(=O)(=O)[O-])cc4)c4ccc([nH]4)c(-c4ccc(S(=O)(=O)[O-])cc4)c4nc(c(-c5ccc(S(=O)(=O)[O-])cc5)c5ccc2[nH]5)C=C4)C=C3)cc1
REMARK SMILES IDX 29 1 28 2 2 3 1 4 3 5 4 6 5 7 6 8 7 9 27 10 8 11 10 12 9 13
REMARK SMILES IDX 11 14 12 15 13 16 25 17 14 18 16 19 26 20 15 21 17 22 18 23
REMARK SMILES IDX 24 24 19 25 22 26 20 27 23 28 21 29 30 30 31 31 32 32 33 33
REMARK SMILES IDX 34 34 35 35 93 36 36 37 92 38 37 39 38 40 39 41 86 42 40 43
REMARK SMILES IDX 91 44 85 45 87 46 41 47 90 48 84 49 83 50 42 52 72 53 53 54
REMARK SMILES IDX 71 55 54 56 57 57 70 58 88 59 55 60 56 61 69 63 89 64 58 65
REMARK SMILES IDX 43 66 44 67 52 68 45 69 51 70 46 71 47 72 48 73 49 74 50 75
REMARK SMILES IDX 73 76 74 77 82 78 75 79 81 80 76 81 77 82 78 83 79 84 80 85
REMARK SMILES IDX 59 86 60 87 68 88 61 89 67 90 62 91 63 92 64 93 65 94 66 95
REMARK H PARENT 87 51 57 62
REMARK Flexibility Score: inf
ROOT
ATOM      1  C   UNL A   1      34.054  34.011  29.434  1.00  0.00     0.274 C 
ENDROOT
BRANCH   1   2
ATOM      2  O   UNL A   1      34.255  33.152  30.576  1.00  0.00    -0.462 OA
BRANCH   2   3
ATOM      3  C   UNL A   1      35.407  32.988  31.259  1.00  0.00     0.309 C 
ATOM      4  O   UNL A   1      36.472  33.357  30.766  1.00  0.00    -0.252 OA
BRANCH   3   5
ATOM      5  C   UNL A   1      35.359  32.499  32.672  1.00  0.00     0.164 C 
BRANCH   5   6
ATOM      6  C   UNL A   1      36.580  31.632  32.968  1.00  0.00     0.241 C 
BRANCH   6   7
ATOM      7  O   UNL A   1      37.022  31.653  34.331  1.00  0.00    -0.493 OA
BRANCH   7   8
ATOM      8  C   UNL A   1      38.347  31.499  34.637  1.00  0.00     0.119 A 
ATOM      9  C   UNL A   1      38.961  32.638  35.157  1.00  0.00     0.046 A 
ATOM     10  C   UNL A   1      39.136  30.379  34.375  1.00  0.00     0.054 A 
ATOM     11  C   UNL A   1      40.347  32.682  35.332  1.00  0.00     0.004 A 
ATOM     12  C   UNL A   1      40.538  30.477  34.372  1.00  0.00    -0.021 A 
ATOM     13  C   UNL A   1      41.139  31.616  34.903  1.00  0.00     0.008 A 
BRANCH  12  14
ATOM     14  C   UNL A   1      41.311  29.411  33.713  1.00  0.00     0.029 C 
ATOM     15  C   UNL A   1      42.217  28.594  34.289  1.00  0.00     0.081 C 
ATOM     16  S   UNL A   1      43.207  27.545  33.342  1.00  0.00    -0.054 SA
ATOM     17  C   UNL A   1      42.612  28.463  35.732  1.00  0.00     0.270 C 
ATOM     18  C   UNL A   1      44.216  27.071  34.711  1.00  0.00     0.152 C 
ATOM     19  N   UNL A   1      43.787  27.710  35.866  1.00  0.00    -0.261 N 
ATOM     20  O   UNL A   1      41.940  28.938  36.642  1.00  0.00    -0.268 OA
ATOM     21  S   UNL A   1      45.369  25.870  34.517  1.00  0.00    -0.051 S 
BRANCH  19  22
ATOM     22  C   UNL A   1      44.493  27.677  37.128  1.00  0.00     0.052 A 
ATOM     23  C   UNL A   1      45.498  28.610  37.433  1.00  0.00     0.028 A 
ATOM     24  C   UNL A   1      44.333  26.595  38.015  1.00  0.00     0.048 A 
ATOM     25  C   UNL A   1      46.341  28.441  38.541  1.00  0.00     0.024 A 
ATOM     26  C   UNL A   1      45.190  26.405  39.111  1.00  0.00     0.061 A 
ATOM     27  C   UNL A   1      46.203  27.327  39.370  1.00  0.00     0.059 A 
ATOM     28  Cl  UNL A   1      44.998  24.963  40.043  1.00  0.00    -0.083 Cl
ATOM     29  Cl  UNL A   1      47.341  27.130  40.654  1.00  0.00    -0.083 Cl
ENDBRANCH  19  22
ENDBRANCH  12  14
ENDBRANCH   7   8
ENDBRANCH   6   7
ENDBRANCH   5   6
ENDBRANCH   3   5
ENDBRANCH   2   3
ENDBRANCH   1   2
BRANCH   1  30
ATOM     30  C   UNL A   1      33.817  33.137  28.212  1.00  0.00     0.275 C 
BRANCH  30  31
ATOM     31  O   UNL A   1      34.956  32.306  27.974  1.00  0.00    -0.458 OA
BRANCH  31  32
ATOM     32  C   UNL A   1      34.735  30.961  28.043  1.00  0.00     0.338 C 
ATOM     33  O   UNL A   1      33.747  30.347  27.714  1.00  0.00    -0.246 OA
BRANCH  32  34
ATOM     34  C   UNL A   1      36.029  30.352  28.387  1.00  0.00     0.060 A 
ATOM     35  C   UNL A   1      36.214  29.824  29.673  1.00  0.00     0.016 A 
ATOM     36  C   UNL A   1      37.021  30.251  27.413  1.00  0.00     0.016 A 
ATOM     37  C   UNL A   1      37.401  29.171  29.982  1.00  0.00     0.010 A 
ATOM     38  C   UNL A   1      38.209  29.612  27.723  1.00  0.00     0.010 A 
ATOM     39  C   UNL A   1      38.406  29.091  29.013  1.00  0.00    -0.014 A 
BRANCH  39  40
ATOM     40  C   UNL A   1      39.772  28.674  29.364  1.00  0.00     0.031 A 
ATOM     41  C   UNL A   1      40.673  29.719  29.946  1.00  0.00     0.074 A 
ATOM     42  C   UNL A   1      40.211  27.446  29.048  1.00  0.00     0.049 A 
ATOM     43  N   UNL A   1      41.960  29.680  30.146  1.00  0.00    -0.248 NA
ATOM     44  C   UNL A   1      40.035  30.994  30.323  1.00  0.00     0.031 C 
ATOM     45  C   UNL A   1      39.394  26.369  28.489  1.00  0.00     0.029 A 
ATOM     46  N   UNL A   1      41.471  26.916  29.119  1.00  0.00    -0.354 N 
ATOM     47  C   UNL A   1      42.291  30.930  30.654  1.00  0.00     0.074 A 
ATOM     48  C   UNL A   1      41.078  31.714  30.705  1.00  0.00     0.031 C 
ATOM     49  C   UNL A   1      40.184  25.309  28.242  1.00  0.00     0.029 A 
ATOM     50  C   UNL A   1      41.561  25.653  28.588  1.00  0.00     0.049 A 
ATOM     51  H   UNL A   1      42.237  27.394  29.511  1.00  0.00     0.167 HD
ATOM     52  C   UNL A   1      43.506  31.383  31.038  1.00  0.00     0.031 A 
ATOM     53  C   UNL A   1      42.646  24.882  28.382  1.00  0.00     0.031 A 
ATOM     54  C   UNL A   1      44.702  30.596  30.943  1.00  0.00     0.049 A 
ATOM     55  C   UNL A   1      43.996  25.421  28.778  1.00  0.00     0.074 A 
ATOM     56  C   UNL A   1      45.990  30.935  31.311  1.00  0.00     0.029 A 
ATOM     57  N   UNL A   1      44.753  29.307  30.430  1.00  0.00    -0.354 N 
ATOM     58  N   UNL A   1      44.299  26.592  29.290  1.00  0.00    -0.248 NA
ATOM     59  C   UNL A   1      45.149  24.534  28.577  1.00  0.00     0.031 C 
ATOM     60  C   UNL A   1      46.829  29.866  30.978  1.00  0.00     0.029 A 
ATOM     61  C   UNL A   1      46.054  28.840  30.457  1.00  0.00     0.049 A 
ATOM     62  H   UNL A   1      43.978  28.801  30.097  1.00  0.00     0.167 HD
ATOM     63  C   UNL A   1      45.673  26.570  29.504  1.00  0.00     0.074 A 
ATOM     64  C   UNL A   1      46.139  25.267  29.069  1.00  0.00     0.031 C 
ATOM     65  C   UNL A   1      46.478  27.532  30.020  1.00  0.00     0.031 A 
BRANCH  52  66
ATOM     66  C   UNL A   1      43.581  32.795  31.549  1.00  0.00    -0.014 A 
ATOM     67  C   UNL A   1      43.442  33.079  32.920  1.00  0.00     0.010 A 
ATOM     68  C   UNL A   1      43.778  33.855  30.646  1.00  0.00     0.010 A 
ATOM     69  C   UNL A   1      43.452  34.400  33.373  1.00  0.00     0.020 A 
ATOM     70  C   UNL A   1      43.817  35.176  31.099  1.00  0.00     0.020 A 
ATOM     71  C   UNL A   1      43.634  35.442  32.459  1.00  0.00     0.054 A 
BRANCH  71  72
ATOM     72  S   UNL A   1      43.653  37.147  33.073  1.00  0.00     0.124 S 
ATOM     73  O   UNL A   1      42.474  37.169  33.936  1.00  0.00    -0.237 OA
ATOM     74  O   UNL A   1      44.938  37.225  33.764  1.00  0.00    -0.237 OA
ATOM     75  O   UNL A   1      43.552  37.955  31.861  1.00  0.00    -0.744 OA
ENDBRANCH  71  72
ENDBRANCH  52  66
BRANCH  53  76
ATOM     76  C   UNL A   1      42.495  23.532  27.777  1.00  0.00    -0.014 A 
ATOM     77  C   UNL A   1      42.707  23.344  26.401  1.00  0.00     0.010 A 
ATOM     78  C   UNL A   1      42.169  22.421  28.576  1.00  0.00     0.010 A 
ATOM     79  C   UNL A   1      42.585  22.072  25.832  1.00  0.00     0.020 A 
ATOM     80  C   UNL A   1      42.069  21.144  28.016  1.00  0.00     0.020 A 
ATOM     81  C   UNL A   1      42.270  20.978  26.645  1.00  0.00     0.054 A 
BRANCH  81  82
ATOM     82  S   UNL A   1      42.182  19.329  25.894  1.00  0.00     0.124 S 
ATOM     83  O   UNL A   1      43.054  19.475  24.734  1.00  0.00    -0.237 OA
ATOM     84  O   UNL A   1      42.688  18.470  26.963  1.00  0.00    -0.237 OA
ATOM     85  O   UNL A   1      40.761  19.166  25.595  1.00  0.00    -0.744 OA
ENDBRANCH  81  82
ENDBRANCH  53  76
BRANCH  65  86
ATOM     86  C   UNL A   1      47.934  27.198  30.188  1.00  0.00    -0.014 A 
ATOM     87  C   UNL A   1      48.908  27.714  29.316  1.00  0.00     0.010 A 
ATOM     88  C   UNL A   1      48.336  26.417  31.286  1.00  0.00     0.010 A 
ATOM     89  C   UNL A   1      50.260  27.433  29.529  1.00  0.00     0.020 A 
ATOM     90  C   UNL A   1      49.687  26.157  31.517  1.00  0.00     0.020 A 
ATOM     91  C   UNL A   1      50.641  26.659  30.629  1.00  0.00     0.054 A 
BRANCH  91  92
ATOM     92  S   UNL A   1      52.406  26.356  30.916  1.00  0.00     0.124 S 
ATOM     93  O   UNL A   1      52.895  26.109  29.564  1.00  0.00    -0.237 OA
ATOM     94  O   UNL A   1      52.850  27.607  31.526  1.00  0.00    -0.237 OA
ATOM     95  O   UNL A   1      52.418  25.198  31.807  1.00  0.00    -0.744 OA
ENDBRANCH  91  92
ENDBRANCH  65  86
ENDBRANCH  39  40
ENDBRANCH  32  34
ENDBRANCH  31  32
ENDBRANCH  30  31
ENDBRANCH   1  30
TORSDOF 19
ENDMDL
