MODEL 1
REMARK VINA RESULT:     -10.2      0.000      0.000
REMARK SMILES C[C@H](Cc1cccs1)NC(=O)N[C@](C)(C(=O)OCCOC(=O)c1ccc(-c2c3nc(c(-c4ccc(S(=O)(=O)[O-])cc4)c4ccc([nH]4)c(-c4ccc(S(=O)(=O)[O-])cc4)c4nc(c(-c5ccc(S(=O)(=O)[O-])cc5)c5ccc2[nH]5)C=C4)C=C3)cc1)C(F)(F)F
REMARK SMILES IDX 18 1 17 2 15 3 16 4 13 5 14 6 12 7 9 8 10 9 11 11 2 13 1 14
REMARK SMILES IDX 3 15 4 16 5 17 8 18 6 19 7 20 83 21 84 22 85 23 86 24 19 25
REMARK SMILES IDX 20 26 21 27 22 28 23 29 24 30 82 31 25 32 81 33 26 34 27 35
REMARK SMILES IDX 28 36 75 37 29 38 80 39 74 40 76 41 30 42 79 43 73 44 72 45
REMARK SMILES IDX 31 47 61 48 42 49 60 50 43 51 46 52 59 53 77 54 44 55 45 56
REMARK SMILES IDX 58 58 78 59 47 60 32 61 33 62 41 63 34 64 40 65 35 66 36 67
REMARK SMILES IDX 37 68 38 69 39 70 62 71 63 72 71 73 64 74 70 75 65 76 66 77
REMARK SMILES IDX 67 78 68 79 69 80 48 81 49 82 57 83 50 84 56 85 51 86 52 87
REMARK SMILES IDX 53 88 54 89 55 90
REMARK H PARENT 9 10 12 12 76 46 46 57
REMARK Flexibility Score: inf
ROOT
ATOM      1  C   UNL A   1      32.037  28.379  25.601  1.00  0.00     0.274 C 
ENDROOT
BRANCH   1   2
ATOM      2  O   UNL A   1      32.035  27.364  24.572  1.00  0.00    -0.460 OA
BRANCH   2   3
ATOM      3  C   UNL A   1      31.033  26.436  24.616  1.00  0.00     0.341 C 
ATOM      4  O   UNL A   1      29.844  26.728  24.648  1.00  0.00    -0.249 OA
BRANCH   3   5
ATOM      5  C   UNL A   1      31.565  25.003  24.706  1.00  0.00     0.232 C 
ATOM      6  C   UNL A   1      33.073  25.005  25.089  1.00  0.00     0.058 C 
BRANCH   5   7
ATOM      7  N   UNL A   1      30.903  24.330  25.879  1.00  0.00    -0.315 N 
ATOM      8  N   UNL A   1      31.596  22.120  26.428  1.00  0.00    -0.335 N 
ATOM      9  C   UNL A   1      30.867  23.207  26.567  1.00  0.00     0.316 C 
ATOM     10  H   UNL A   1      31.287  21.429  27.057  1.00  0.00     0.165 HD
ATOM     11  O   UNL A   1      30.013  23.184  27.463  1.00  0.00    -0.249 OA
ATOM     12  H   UNL A   1      30.260  24.961  26.277  1.00  0.00     0.166 HD
BRANCH   8  13
ATOM     13  C   UNL A   1      32.721  21.607  25.638  1.00  0.00     0.086 C 
ATOM     14  C   UNL A   1      32.279  20.299  24.979  1.00  0.00     0.031 C 
BRANCH  13  15
ATOM     15  C   UNL A   1      33.956  21.495  26.568  1.00  0.00     0.071 C 
BRANCH  15  16
ATOM     16  C   UNL A   1      35.316  21.575  25.930  1.00  0.00     0.007 A 
ATOM     17  C   UNL A   1      35.972  20.634  25.160  1.00  0.00     0.015 A 
ATOM     18  S   UNL A   1      36.210  23.044  26.003  1.00  0.00    -0.149 S 
ATOM     19  C   UNL A   1      37.221  21.112  24.663  1.00  0.00     0.012 A 
ATOM     20  C   UNL A   1      37.485  22.399  25.072  1.00  0.00     0.065 A 
ENDBRANCH  15  16
ENDBRANCH  13  15
ENDBRANCH   8  13
ENDBRANCH   5   7
BRANCH   5  21
ATOM     21  C   UNL A   1      31.476  24.340  23.328  1.00  0.00     0.422 C 
ATOM     22  F   UNL A   1      30.346  23.595  23.219  1.00  0.00    -0.168 F 
ATOM     23  F   UNL A   1      31.412  25.275  22.348  1.00  0.00    -0.168 F 
ATOM     24  F   UNL A   1      32.485  23.512  23.022  1.00  0.00    -0.168 F 
ENDBRANCH   5  21
ENDBRANCH   3   5
ENDBRANCH   2   3
ENDBRANCH   1   2
BRANCH   1  25
ATOM     25  C   UNL A   1      33.316  29.204  25.547  1.00  0.00     0.275 C 
BRANCH  25  26
ATOM     26  O   UNL A   1      34.065  28.971  26.748  1.00  0.00    -0.458 OA
BRANCH  26  27
ATOM     27  C   UNL A   1      34.414  30.069  27.452  1.00  0.00     0.338 C 
ATOM     28  O   UNL A   1      33.733  31.063  27.657  1.00  0.00    -0.246 OA
BRANCH  27  29
ATOM     29  C   UNL A   1      35.782  29.902  27.971  1.00  0.00     0.060 A 
ATOM     30  C   UNL A   1      36.876  30.093  27.128  1.00  0.00     0.016 A 
ATOM     31  C   UNL A   1      35.974  29.446  29.274  1.00  0.00     0.016 A 
ATOM     32  C   UNL A   1      38.152  29.734  27.554  1.00  0.00     0.010 A 
ATOM     33  C   UNL A   1      37.270  29.180  29.729  1.00  0.00     0.010 A 
ATOM     34  C   UNL A   1      38.371  29.277  28.861  1.00  0.00    -0.014 A 
BRANCH  34  35
ATOM     35  C   UNL A   1      39.729  28.831  29.287  1.00  0.00     0.031 A 
ATOM     36  C   UNL A   1      40.516  29.651  30.281  1.00  0.00     0.074 A 
ATOM     37  C   UNL A   1      40.244  27.666  28.842  1.00  0.00     0.049 A 
ATOM     38  N   UNL A   1      41.754  29.501  30.678  1.00  0.00    -0.248 NA
ATOM     39  C   UNL A   1      39.824  30.792  30.903  1.00  0.00     0.031 C 
ATOM     40  C   UNL A   1      39.566  26.716  27.958  1.00  0.00     0.029 A 
ATOM     41  N   UNL A   1      41.443  27.055  29.123  1.00  0.00    -0.354 N 
ATOM     42  C   UNL A   1      42.017  30.577  31.519  1.00  0.00     0.074 A 
ATOM     43  C   UNL A   1      40.799  31.355  31.602  1.00  0.00     0.031 C 
ATOM     44  C   UNL A   1      40.309  25.603  27.857  1.00  0.00     0.029 A 
ATOM     45  C   UNL A   1      41.559  25.796  28.583  1.00  0.00     0.049 A 
ATOM     46  H   UNL A   1      42.151  27.479  29.661  1.00  0.00     0.167 HD
ATOM     47  C   UNL A   1      43.171  30.902  32.150  1.00  0.00     0.031 A 
ATOM     48  C   UNL A   1      42.562  24.899  28.651  1.00  0.00     0.031 A 
ATOM     49  C   UNL A   1      44.365  30.099  32.117  1.00  0.00     0.049 A 
ATOM     50  C   UNL A   1      43.828  25.266  29.372  1.00  0.00     0.074 A 
ATOM     51  C   UNL A   1      45.597  30.362  32.691  1.00  0.00     0.029 A 
ATOM     52  N   UNL A   1      44.466  28.862  31.502  1.00  0.00    -0.354 N 
ATOM     53  N   UNL A   1      44.095  26.344  30.069  1.00  0.00    -0.248 NA
ATOM     54  C   UNL A   1      44.940  24.308  29.286  1.00  0.00     0.031 C 
ATOM     55  C   UNL A   1      46.451  29.292  32.401  1.00  0.00     0.029 A 
ATOM     56  C   UNL A   1      45.738  28.347  31.682  1.00  0.00     0.049 A 
ATOM     57  H   UNL A   1      43.739  28.415  31.010  1.00  0.00     0.167 HD
ATOM     58  C   UNL A   1      45.413  26.201  30.491  1.00  0.00     0.074 A 
ATOM     59  C   UNL A   1      45.872  24.914  30.009  1.00  0.00     0.031 C 
ATOM     60  C   UNL A   1      46.182  27.068  31.194  1.00  0.00     0.031 A 
BRANCH  47  61
ATOM     61  C   UNL A   1      43.218  32.222  32.869  1.00  0.00    -0.014 A 
ATOM     62  C   UNL A   1      42.984  32.322  34.251  1.00  0.00     0.010 A 
ATOM     63  C   UNL A   1      43.527  33.385  32.139  1.00  0.00     0.010 A 
ATOM     64  C   UNL A   1      43.014  33.571  34.881  1.00  0.00     0.020 A 
ATOM     65  C   UNL A   1      43.581  34.631  32.769  1.00  0.00     0.020 A 
ATOM     66  C   UNL A   1      43.304  34.718  34.134  1.00  0.00     0.054 A 
BRANCH  66  67
ATOM     67  S   UNL A   1      43.345  36.327  34.970  1.00  0.00     0.124 S 
ATOM     68  O   UNL A   1      42.340  36.147  36.016  1.00  0.00    -0.237 OA
ATOM     69  O   UNL A   1      44.725  36.417  35.437  1.00  0.00    -0.237 OA
ATOM     70  O   UNL A   1      42.985  37.273  33.917  1.00  0.00    -0.744 OA
ENDBRANCH  66  67
ENDBRANCH  47  61
BRANCH  48  71
ATOM     71  C   UNL A   1      42.423  23.572  27.991  1.00  0.00    -0.014 A 
ATOM     72  C   UNL A   1      42.799  23.405  26.648  1.00  0.00     0.010 A 
ATOM     73  C   UNL A   1      41.924  22.467  28.705  1.00  0.00     0.010 A 
ATOM     74  C   UNL A   1      42.674  22.159  26.026  1.00  0.00     0.020 A 
ATOM     75  C   UNL A   1      41.823  21.213  28.096  1.00  0.00     0.020 A 
ATOM     76  C   UNL A   1      42.188  21.070  26.756  1.00  0.00     0.054 A 
BRANCH  76  77
ATOM     77  S   UNL A   1      42.091  19.442  25.961  1.00  0.00     0.124 S 
ATOM     78  O   UNL A   1      42.947  19.625  24.794  1.00  0.00    -0.237 OA
ATOM     79  O   UNL A   1      42.609  18.546  26.991  1.00  0.00    -0.237 OA
ATOM     80  O   UNL A   1      40.665  19.292  25.676  1.00  0.00    -0.744 OA
ENDBRANCH  76  77
ENDBRANCH  48  71
BRANCH  60  81
ATOM     81  C   UNL A   1      47.596  26.654  31.486  1.00  0.00    -0.014 A 
ATOM     82  C   UNL A   1      47.929  26.053  32.714  1.00  0.00     0.010 A 
ATOM     83  C   UNL A   1      48.593  26.823  30.510  1.00  0.00     0.010 A 
ATOM     84  C   UNL A   1      49.244  25.657  32.972  1.00  0.00     0.020 A 
ATOM     85  C   UNL A   1      49.905  26.410  30.758  1.00  0.00     0.020 A 
ATOM     86  C   UNL A   1      50.225  25.842  31.993  1.00  0.00     0.054 A 
BRANCH  86  87
ATOM     87  S   UNL A   1      51.917  25.285  32.333  1.00  0.00     0.124 S 
ATOM     88  O   UNL A   1      52.684  26.008  31.321  1.00  0.00    -0.237 OA
ATOM     89  O   UNL A   1      52.131  25.718  33.712  1.00  0.00    -0.237 OA
ATOM     90  O   UNL A   1      51.847  23.837  32.146  1.00  0.00    -0.744 OA
ENDBRANCH  86  87
ENDBRANCH  60  81
ENDBRANCH  34  35
ENDBRANCH  27  29
ENDBRANCH  26  27
ENDBRANCH  25  26
ENDBRANCH   1  25
TORSDOF 19
ENDMDL
MODEL 2
REMARK VINA RESULT:     -10.1      4.471      9.537
REMARK SMILES C[C@H](Cc1cccs1)NC(=O)N[C@](C)(C(=O)OCCOC(=O)c1ccc(-c2c3nc(c(-c4ccc(S(=O)(=O)[O-])cc4)c4ccc([nH]4)c(-c4ccc(S(=O)(=O)[O-])cc4)c4nc(c(-c5ccc(S(=O)(=O)[O-])cc5)c5ccc2[nH]5)C=C4)C=C3)cc1)C(F)(F)F
REMARK SMILES IDX 18 1 17 2 15 3 16 4 13 5 14 6 12 7 9 8 10 9 11 11 2 13 1 14
REMARK SMILES IDX 3 15 4 16 5 17 8 18 6 19 7 20 83 21 84 22 85 23 86 24 19 25
REMARK SMILES IDX 20 26 21 27 22 28 23 29 24 30 82 31 25 32 81 33 26 34 27 35
REMARK SMILES IDX 28 36 75 37 29 38 80 39 74 40 76 41 30 42 79 43 73 44 72 45
REMARK SMILES IDX 31 47 61 48 42 49 60 50 43 51 46 52 59 53 77 54 44 55 45 56
REMARK SMILES IDX 58 58 78 59 47 60 32 61 33 62 41 63 34 64 40 65 35 66 36 67
REMARK SMILES IDX 37 68 38 69 39 70 62 71 63 72 71 73 64 74 70 75 65 76 66 77
REMARK SMILES IDX 67 78 68 79 69 80 48 81 49 82 57 83 50 84 56 85 51 86 52 87
REMARK SMILES IDX 53 88 54 89 55 90
REMARK H PARENT 9 10 12 12 76 46 46 57
REMARK Flexibility Score: inf
ROOT
ATOM      1  C   UNL A   1      37.704  22.699  25.671  1.00  0.00     0.274 C 
ENDROOT
BRANCH   1   2
ATOM      2  O   UNL A   1      36.934  23.761  25.064  1.00  0.00    -0.460 OA
BRANCH   2   3
ATOM      3  C   UNL A   1      36.236  23.453  23.930  1.00  0.00     0.341 C 
ATOM      4  O   UNL A   1      36.760  23.021  22.911  1.00  0.00    -0.249 OA
BRANCH   3   5
ATOM      5  C   UNL A   1      34.747  23.788  24.051  1.00  0.00     0.232 C 
ATOM      6  C   UNL A   1      34.449  24.465  25.419  1.00  0.00     0.058 C 
BRANCH   5   7
ATOM      7  N   UNL A   1      34.425  24.862  23.047  1.00  0.00    -0.315 N 
ATOM      8  N   UNL A   1      32.183  25.656  22.948  1.00  0.00    -0.335 N 
ATOM      9  C   UNL A   1      33.442  25.598  22.569  1.00  0.00     0.316 C 
ATOM     10  H   UNL A   1      31.683  26.259  22.353  1.00  0.00     0.165 HD
ATOM     11  O   UNL A   1      33.764  26.327  21.622  1.00  0.00    -0.249 OA
ATOM     12  H   UNL A   1      35.254  25.102  22.572  1.00  0.00     0.166 HD
BRANCH   8  13
ATOM     13  C   UNL A   1      31.285  25.110  23.973  1.00  0.00     0.086 C 
ATOM     14  C   UNL A   1      30.421  24.031  23.318  1.00  0.00     0.031 C 
BRANCH  13  15
ATOM     15  C   UNL A   1      30.505  26.287  24.611  1.00  0.00     0.071 C 
BRANCH  15  16
ATOM     16  C   UNL A   1      31.304  27.370  25.281  1.00  0.00     0.007 A 
ATOM     17  C   UNL A   1      32.198  27.269  26.330  1.00  0.00     0.015 A 
ATOM     18  S   UNL A   1      31.271  28.971  24.650  1.00  0.00    -0.149 S 
ATOM     19  C   UNL A   1      32.824  28.515  26.633  1.00  0.00     0.012 A 
ATOM     20  C   UNL A   1      32.388  29.529  25.813  1.00  0.00     0.065 A 
ENDBRANCH  15  16
ENDBRANCH  13  15
ENDBRANCH   8  13
ENDBRANCH   5   7
BRANCH   5  21
ATOM     21  C   UNL A   1      33.931  22.491  24.031  1.00  0.00     0.422 C 
ATOM     22  F   UNL A   1      32.926  22.535  24.945  1.00  0.00    -0.168 F 
ATOM     23  F   UNL A   1      33.340  22.314  22.824  1.00  0.00    -0.168 F 
ATOM     24  F   UNL A   1      34.619  21.374  24.305  1.00  0.00    -0.168 F 
ENDBRANCH   5  21
ENDBRANCH   3   5
ENDBRANCH   2   3
ENDBRANCH   1   2
BRANCH   1  25
ATOM     25  C   UNL A   1      39.050  23.217  26.161  1.00  0.00     0.275 C 
BRANCH  25  26
ATOM     26  O   UNL A   1      38.906  24.597  26.528  1.00  0.00    -0.458 OA
BRANCH  26  27
ATOM     27  C   UNL A   1      40.017  25.357  26.424  1.00  0.00     0.338 C 
ATOM     28  O   UNL A   1      40.774  25.434  25.468  1.00  0.00    -0.246 OA
BRANCH  27  29
ATOM     29  C   UNL A   1      40.202  26.124  27.668  1.00  0.00     0.060 A 
ATOM     30  C   UNL A   1      39.379  25.878  28.767  1.00  0.00     0.016 A 
ATOM     31  C   UNL A   1      41.126  27.166  27.705  1.00  0.00     0.016 A 
ATOM     32  C   UNL A   1      39.410  26.736  29.863  1.00  0.00     0.010 A 
ATOM     33  C   UNL A   1      41.221  27.965  28.850  1.00  0.00     0.010 A 
ATOM     34  C   UNL A   1      40.333  27.790  29.925  1.00  0.00    -0.014 A 
BRANCH  34  35
ATOM     35  C   UNL A   1      40.314  28.743  31.071  1.00  0.00     0.031 A 
ATOM     36  C   UNL A   1      39.260  29.822  31.138  1.00  0.00     0.074 A 
ATOM     37  C   UNL A   1      41.191  28.618  32.089  1.00  0.00     0.049 A 
ATOM     38  N   UNL A   1      39.151  30.820  31.980  1.00  0.00    -0.248 NA
ATOM     39  C   UNL A   1      38.195  29.781  30.123  1.00  0.00     0.031 C 
ATOM     40  C   UNL A   1      42.203  27.568  32.218  1.00  0.00     0.029 A 
ATOM     41  N   UNL A   1      41.333  29.353  33.242  1.00  0.00    -0.354 N 
ATOM     42  C   UNL A   1      38.067  31.572  31.540  1.00  0.00     0.074 A 
ATOM     43  C   UNL A   1      37.531  30.899  30.376  1.00  0.00     0.031 C 
ATOM     44  C   UNL A   1      42.783  27.662  33.425  1.00  0.00     0.029 A 
ATOM     45  C   UNL A   1      42.260  28.835  34.114  1.00  0.00     0.049 A 
ATOM     46  H   UNL A   1      40.818  30.172  33.425  1.00  0.00     0.167 HD
ATOM     47  C   UNL A   1      37.575  32.729  32.045  1.00  0.00     0.031 A 
ATOM     48  C   UNL A   1      42.658  29.262  35.329  1.00  0.00     0.031 A 
ATOM     49  C   UNL A   1      38.069  33.368  33.235  1.00  0.00     0.049 A 
ATOM     50  C   UNL A   1      42.087  30.535  35.884  1.00  0.00     0.074 A 
ATOM     51  C   UNL A   1      37.663  34.562  33.806  1.00  0.00     0.029 A 
ATOM     52  N   UNL A   1      39.057  32.850  34.056  1.00  0.00    -0.354 N 
ATOM     53  N   UNL A   1      41.137  31.294  35.393  1.00  0.00    -0.248 NA
ATOM     54  C   UNL A   1      42.667  31.027  37.142  1.00  0.00     0.031 C 
ATOM     55  C   UNL A   1      38.423  34.777  34.960  1.00  0.00     0.029 A 
ATOM     56  C   UNL A   1      39.274  33.697  35.129  1.00  0.00     0.049 A 
ATOM     57  H   UNL A   1      39.534  32.002  33.900  1.00  0.00     0.167 HD
ATOM     58  C   UNL A   1      41.017  32.363  36.275  1.00  0.00     0.074 A 
ATOM     59  C   UNL A   1      41.958  32.129  37.351  1.00  0.00     0.031 C 
ATOM     60  C   UNL A   1      40.216  33.453  36.189  1.00  0.00     0.031 A 
BRANCH  47  61
ATOM     61  C   UNL A   1      36.488  33.417  31.264  1.00  0.00    -0.014 A 
ATOM     62  C   UNL A   1      36.664  33.791  29.922  1.00  0.00     0.010 A 
ATOM     63  C   UNL A   1      35.255  33.671  31.892  1.00  0.00     0.010 A 
ATOM     64  C   UNL A   1      35.638  34.449  29.234  1.00  0.00     0.020 A 
ATOM     65  C   UNL A   1      34.220  34.307  31.202  1.00  0.00     0.020 A 
ATOM     66  C   UNL A   1      34.426  34.710  29.883  1.00  0.00     0.054 A 
BRANCH  66  67
ATOM     67  S   UNL A   1      33.106  35.559  28.972  1.00  0.00     0.124 S 
ATOM     68  O   UNL A   1      32.535  34.468  28.186  1.00  0.00    -0.237 OA
ATOM     69  O   UNL A   1      32.253  36.074  30.040  1.00  0.00    -0.237 OA
ATOM     70  O   UNL A   1      33.817  36.576  28.202  1.00  0.00    -0.744 OA
ENDBRANCH  66  67
ENDBRANCH  47  61
BRANCH  48  71
ATOM     71  C   UNL A   1      43.675  28.490  36.095  1.00  0.00    -0.014 A 
ATOM     72  C   UNL A   1      45.034  28.842  36.023  1.00  0.00     0.010 A 
ATOM     73  C   UNL A   1      43.290  27.407  36.906  1.00  0.00     0.010 A 
ATOM     74  C   UNL A   1      45.991  28.122  36.744  1.00  0.00     0.020 A 
ATOM     75  C   UNL A   1      44.240  26.702  37.650  1.00  0.00     0.020 A 
ATOM     76  C   UNL A   1      45.587  27.057  37.555  1.00  0.00     0.054 A 
BRANCH  76  77
ATOM     77  S   UNL A   1      46.828  26.170  38.538  1.00  0.00     0.124 S 
ATOM     78  O   UNL A   1      47.715  27.253  38.951  1.00  0.00    -0.237 OA
ATOM     79  O   UNL A   1      46.029  25.567  39.601  1.00  0.00    -0.237 OA
ATOM     80  O   UNL A   1      47.397  25.221  37.584  1.00  0.00    -0.744 OA
ENDBRANCH  76  77
ENDBRANCH  48  71
BRANCH  60  81
ATOM     81  C   UNL A   1      40.321  34.473  37.288  1.00  0.00    -0.014 A 
ATOM     82  C   UNL A   1      39.346  34.540  38.299  1.00  0.00     0.010 A 
ATOM     83  C   UNL A   1      41.425  35.341  37.336  1.00  0.00     0.010 A 
ATOM     84  C   UNL A   1      39.459  35.482  39.326  1.00  0.00     0.020 A 
ATOM     85  C   UNL A   1      41.551  36.271  38.372  1.00  0.00     0.020 A 
ATOM     86  C   UNL A   1      40.559  36.345  39.353  1.00  0.00     0.054 A 
BRANCH  86  87
ATOM     87  S   UNL A   1      40.707  37.533  40.715  1.00  0.00     0.124 S 
ATOM     88  O   UNL A   1      40.625  38.812  40.013  1.00  0.00    -0.237 OA
ATOM     89  O   UNL A   1      39.560  37.205  41.558  1.00  0.00    -0.237 OA
ATOM     90  O   UNL A   1      42.010  37.225  41.301  1.00  0.00    -0.744 OA
ENDBRANCH  86  87
ENDBRANCH  60  81
ENDBRANCH  34  35
ENDBRANCH  27  29
ENDBRANCH  26  27
ENDBRANCH  25  26
ENDBRANCH   1  25
TORSDOF 19
ENDMDL
MODEL 3
REMARK VINA RESULT:      -9.9      3.278      9.175
REMARK SMILES C[C@H](Cc1cccs1)NC(=O)N[C@](C)(C(=O)OCCOC(=O)c1ccc(-c2c3nc(c(-c4ccc(S(=O)(=O)[O-])cc4)c4ccc([nH]4)c(-c4ccc(S(=O)(=O)[O-])cc4)c4nc(c(-c5ccc(S(=O)(=O)[O-])cc5)c5ccc2[nH]5)C=C4)C=C3)cc1)C(F)(F)F
REMARK SMILES IDX 18 1 17 2 15 3 16 4 13 5 14 6 12 7 9 8 10 9 11 11 2 13 1 14
REMARK SMILES IDX 3 15 4 16 5 17 8 18 6 19 7 20 83 21 84 22 85 23 86 24 19 25
REMARK SMILES IDX 20 26 21 27 22 28 23 29 24 30 82 31 25 32 81 33 26 34 27 35
REMARK SMILES IDX 28 36 75 37 29 38 80 39 74 40 76 41 30 42 79 43 73 44 72 45
REMARK SMILES IDX 31 47 61 48 42 49 60 50 43 51 46 52 59 53 77 54 44 55 45 56
REMARK SMILES IDX 58 58 78 59 47 60 32 61 33 62 41 63 34 64 40 65 35 66 36 67
REMARK SMILES IDX 37 68 38 69 39 70 62 71 63 72 71 73 64 74 70 75 65 76 66 77
REMARK SMILES IDX 67 78 68 79 69 80 48 81 49 82 57 83 50 84 56 85 51 86 52 87
REMARK SMILES IDX 53 88 54 89 55 90
REMARK H PARENT 9 10 12 12 76 46 46 57
REMARK Flexibility Score: inf
ROOT
ATOM      1  C   UNL A   1      36.592  22.437  24.094  1.00  0.00     0.274 C 
ENDROOT
BRANCH   1   2
ATOM      2  O   UNL A   1      35.251  21.907  24.196  1.00  0.00    -0.460 OA
BRANCH   2   3
ATOM      3  C   UNL A   1      34.398  22.537  25.057  1.00  0.00     0.341 C 
ATOM      4  O   UNL A   1      34.743  22.986  26.143  1.00  0.00    -0.249 OA
BRANCH   3   5
ATOM      5  C   UNL A   1      32.953  22.542  24.550  1.00  0.00     0.232 C 
ATOM      6  C   UNL A   1      32.529  21.115  24.097  1.00  0.00     0.058 C 
BRANCH   5   7
ATOM      7  N   UNL A   1      32.047  22.826  25.718  1.00  0.00    -0.315 N 
ATOM      8  N   UNL A   1      31.813  25.089  26.419  1.00  0.00    -0.335 N 
ATOM      9  C   UNL A   1      31.594  23.793  26.490  1.00  0.00     0.316 C 
ATOM     10  H   UNL A   1      31.382  25.542  27.178  1.00  0.00     0.165 HD
ATOM     11  O   UNL A   1      30.867  23.410  27.415  1.00  0.00    -0.249 OA
ATOM     12  H   UNL A   1      31.647  21.976  26.015  1.00  0.00     0.166 HD
BRANCH   8  13
ATOM     13  C   UNL A   1      32.494  26.075  25.571  1.00  0.00     0.086 C 
ATOM     14  C   UNL A   1      33.987  26.030  25.899  1.00  0.00     0.031 C 
BRANCH  13  15
ATOM     15  C   UNL A   1      31.811  27.450  25.782  1.00  0.00     0.071 C 
BRANCH  15  16
ATOM     16  C   UNL A   1      30.958  27.983  24.663  1.00  0.00     0.007 A 
ATOM     17  C   UNL A   1      30.974  29.234  24.078  1.00  0.00     0.015 A 
ATOM     18  S   UNL A   1      29.869  26.932  23.844  1.00  0.00    -0.149 S 
ATOM     19  C   UNL A   1      30.066  29.334  22.982  1.00  0.00     0.012 A 
ATOM     20  C   UNL A   1      29.380  28.161  22.767  1.00  0.00     0.065 A 
ENDBRANCH  15  16
ENDBRANCH  13  15
ENDBRANCH   8  13
ENDBRANCH   5   7
BRANCH   5  21
ATOM     21  C   UNL A   1      32.853  23.429  23.306  1.00  0.00     0.422 C 
ATOM     22  F   UNL A   1      32.983  22.694  22.171  1.00  0.00    -0.168 F 
ATOM     23  F   UNL A   1      31.636  24.024  23.236  1.00  0.00    -0.168 F 
ATOM     24  F   UNL A   1      33.774  24.399  23.215  1.00  0.00    -0.168 F 
ENDBRANCH   5  21
ENDBRANCH   3   5
ENDBRANCH   2   3
ENDBRANCH   1   2
BRANCH   1  25
ATOM     25  C   UNL A   1      37.603  21.478  24.709  1.00  0.00     0.275 C 
BRANCH  25  26
ATOM     26  O   UNL A   1      37.997  21.986  25.993  1.00  0.00    -0.458 OA
BRANCH  26  27
ATOM     27  C   UNL A   1      39.318  21.942  26.268  1.00  0.00     0.338 C 
ATOM     28  O   UNL A   1      40.088  21.018  26.049  1.00  0.00    -0.246 OA
BRANCH  27  29
ATOM     29  C   UNL A   1      39.730  23.212  26.888  1.00  0.00     0.060 A 
ATOM     30  C   UNL A   1      39.178  24.414  26.447  1.00  0.00     0.016 A 
ATOM     31  C   UNL A   1      40.750  23.217  27.838  1.00  0.00     0.016 A 
ATOM     32  C   UNL A   1      39.713  25.624  26.881  1.00  0.00     0.010 A 
ATOM     33  C   UNL A   1      41.217  24.435  28.344  1.00  0.00     0.010 A 
ATOM     34  C   UNL A   1      40.737  25.656  27.838  1.00  0.00    -0.014 A 
BRANCH  34  35
ATOM     35  C   UNL A   1      41.350  26.952  28.246  1.00  0.00     0.031 A 
ATOM     36  C   UNL A   1      42.810  27.217  27.969  1.00  0.00     0.074 A 
ATOM     37  C   UNL A   1      40.600  27.924  28.806  1.00  0.00     0.049 A 
ATOM     38  N   UNL A   1      43.555  28.223  28.355  1.00  0.00    -0.248 NA
ATOM     39  C   UNL A   1      43.529  26.219  27.161  1.00  0.00     0.031 C 
ATOM     40  C   UNL A   1      39.158  27.857  29.046  1.00  0.00     0.029 A 
ATOM     41  N   UNL A   1      40.944  29.188  29.224  1.00  0.00    -0.354 N 
ATOM     42  C   UNL A   1      44.843  27.932  27.919  1.00  0.00     0.074 A 
ATOM     43  C   UNL A   1      44.774  26.672  27.210  1.00  0.00     0.031 C 
ATOM     44  C   UNL A   1      38.725  29.057  29.465  1.00  0.00     0.029 A 
ATOM     45  C   UNL A   1      39.869  29.947  29.621  1.00  0.00     0.049 A 
ATOM     46  H   UNL A   1      41.872  29.517  29.237  1.00  0.00     0.167 HD
ATOM     47  C   UNL A   1      45.984  28.638  28.108  1.00  0.00     0.031 A 
ATOM     48  C   UNL A   1      39.808  31.216  30.074  1.00  0.00     0.031 A 
ATOM     49  C   UNL A   1      46.045  29.918  28.761  1.00  0.00     0.049 A 
ATOM     50  C   UNL A   1      41.081  31.992  30.259  1.00  0.00     0.074 A 
ATOM     51  C   UNL A   1      47.158  30.694  29.036  1.00  0.00     0.029 A 
ATOM     52  N   UNL A   1      44.944  30.627  29.212  1.00  0.00    -0.354 N 
ATOM     53  N   UNL A   1      42.307  31.650  29.942  1.00  0.00    -0.248 NA
ATOM     54  C   UNL A   1      40.964  33.312  30.894  1.00  0.00     0.031 C 
ATOM     55  C   UNL A   1      46.730  31.862  29.677  1.00  0.00     0.029 A 
ATOM     56  C   UNL A   1      45.348  31.830  29.764  1.00  0.00     0.049 A 
ATOM     57  H   UNL A   1      44.010  30.319  29.150  1.00  0.00     0.167 HD
ATOM     58  C   UNL A   1      43.110  32.709  30.354  1.00  0.00     0.074 A 
ATOM     59  C   UNL A   1      42.227  33.718  30.902  1.00  0.00     0.031 C 
ATOM     60  C   UNL A   1      44.459  32.823  30.307  1.00  0.00     0.031 A 
BRANCH  47  61
ATOM     61  C   UNL A   1      47.273  27.999  27.666  1.00  0.00    -0.014 A 
ATOM     62  C   UNL A   1      48.026  27.180  28.523  1.00  0.00     0.010 A 
ATOM     63  C   UNL A   1      47.722  28.215  26.350  1.00  0.00     0.010 A 
ATOM     64  C   UNL A   1      49.231  26.621  28.083  1.00  0.00     0.020 A 
ATOM     65  C   UNL A   1      48.913  27.640  25.899  1.00  0.00     0.020 A 
ATOM     66  C   UNL A   1      49.671  26.862  26.776  1.00  0.00     0.054 A 
BRANCH  66  67
ATOM     67  S   UNL A   1      51.232  26.125  26.222  1.00  0.00     0.124 S 
ATOM     68  O   UNL A   1      51.100  26.199  24.769  1.00  0.00    -0.237 OA
ATOM     69  O   UNL A   1      52.236  27.010  26.806  1.00  0.00    -0.237 OA
ATOM     70  O   UNL A   1      51.195  24.776  26.783  1.00  0.00    -0.744 OA
ENDBRANCH  66  67
ENDBRANCH  47  61
BRANCH  48  71
ATOM     71  C   UNL A   1      38.493  31.824  30.414  1.00  0.00    -0.014 A 
ATOM     72  C   UNL A   1      37.882  31.549  31.649  1.00  0.00     0.010 A 
ATOM     73  C   UNL A   1      37.850  32.689  29.510  1.00  0.00     0.010 A 
ATOM     74  C   UNL A   1      36.649  32.122  31.973  1.00  0.00     0.020 A 
ATOM     75  C   UNL A   1      36.631  33.287  29.841  1.00  0.00     0.020 A 
ATOM     76  C   UNL A   1      36.032  32.989  31.066  1.00  0.00     0.054 A 
BRANCH  76  77
ATOM     77  S   UNL A   1      34.464  33.780  31.523  1.00  0.00     0.124 S 
ATOM     78  O   UNL A   1      33.805  33.911  30.228  1.00  0.00    -0.237 OA
ATOM     79  O   UNL A   1      33.868  32.812  32.440  1.00  0.00    -0.237 OA
ATOM     80  O   UNL A   1      34.887  35.034  32.143  1.00  0.00    -0.744 OA
ENDBRANCH  76  77
ENDBRANCH  48  71
BRANCH  60  81
ATOM     81  C   UNL A   1      45.063  34.084  30.859  1.00  0.00    -0.014 A 
ATOM     82  C   UNL A   1      45.414  34.175  32.218  1.00  0.00     0.010 A 
ATOM     83  C   UNL A   1      45.325  35.169  30.005  1.00  0.00     0.010 A 
ATOM     84  C   UNL A   1      45.989  35.345  32.720  1.00  0.00     0.020 A 
ATOM     85  C   UNL A   1      45.918  36.333  30.501  1.00  0.00     0.020 A 
ATOM     86  C   UNL A   1      46.234  36.419  31.859  1.00  0.00     0.054 A 
BRANCH  86  87
ATOM     87  S   UNL A   1      47.017  37.914  32.523  1.00  0.00     0.124 S 
ATOM     88  O   UNL A   1      48.144  38.096  31.612  1.00  0.00    -0.237 OA
ATOM     89  O   UNL A   1      45.956  38.912  32.417  1.00  0.00    -0.237 OA
ATOM     90  O   UNL A   1      47.375  37.537  33.890  1.00  0.00    -0.744 OA
ENDBRANCH  86  87
ENDBRANCH  60  81
ENDBRANCH  34  35
ENDBRANCH  27  29
ENDBRANCH  26  27
ENDBRANCH  25  26
ENDBRANCH   1  25
TORSDOF 19
ENDMDL
