MODEL 1
REMARK VINA RESULT:     -12.2      0.000      0.000
REMARK SMILES COc1ccc(-n2ccnc2C[N@@H+]2CCn3nc(C(=O)OCCOC(=O)c4ccc(-c5c6nc(c(-c7ccc(S(=O)(=O)[O-])cc7)c7ccc([nH]7)c(-c7ccc(S(=O)(=O)[O-])cc7)c7nc(c(-c8ccc(S(=O)(=O)[O-])cc8)c8ccc5[nH]8)C=C7)C=C6)cc4)cc3C2)cc1
REMARK SMILES IDX 22 1 21 2 19 3 20 4 18 5 13 6 14 7 89 8 15 10 88 11 16 12
REMARK SMILES IDX 87 13 17 14 12 15 11 16 7 17 8 18 9 19 10 20 6 21 3 22 4 23
REMARK SMILES IDX 91 24 5 25 90 26 2 27 1 28 23 29 24 30 25 31 26 32 27 33
REMARK SMILES IDX 28 34 86 35 29 36 85 37 30 38 31 39 32 40 79 41 33 42 84 43
REMARK SMILES IDX 78 44 80 45 34 46 83 47 77 48 76 49 35 51 65 52 46 53 64 54
REMARK SMILES IDX 47 55 50 56 63 57 81 58 48 59 49 60 62 62 82 63 51 64 36 65
REMARK SMILES IDX 37 66 45 67 38 68 44 69 39 70 40 71 41 72 42 73 43 74 66 75
REMARK SMILES IDX 67 76 75 77 68 78 74 79 69 80 70 81 71 82 72 83 73 84 52 85
REMARK SMILES IDX 53 86 61 87 54 88 60 89 55 90 56 91 57 92 58 93 59 94
REMARK H PARENT 13 9 80 50 50 61
REMARK Flexibility Score: inf
ROOT
ATOM      1  C   UNL A   1      37.967  21.876  25.596  1.00  0.00     0.275 C 
ENDROOT
BRANCH   1   2
ATOM      2  O   UNL A   1      37.632  20.825  24.631  1.00  0.00    -0.457 OA
BRANCH   2   3
ATOM      3  C   UNL A   1      36.412  19.957  24.963  1.00  0.00     0.358 C 
ATOM      4  O   UNL A   1      36.931  18.794  24.933  1.00  0.00    -0.244 OA
BRANCH   3   5
ATOM      5  C   UNL A   1      34.420  20.548  25.203  1.00  0.00     0.170 A 
ATOM      6  N   UNL A   1      32.527  24.068  24.796  1.00  0.00    -0.322 N 
ATOM      7  C   UNL A   1      33.024  24.099  26.206  1.00  0.00     0.286 C 
ATOM      8  C   UNL A   1      31.598  22.944  24.563  1.00  0.00     0.319 C 
ATOM      9  H   UNL A   1      32.056  24.971  24.737  1.00  0.00     0.348 HD
ATOM     10  C   UNL A   1      32.782  22.832  27.066  1.00  0.00     0.206 C 
ATOM     11  C   UNL A   1      32.352  21.731  24.933  1.00  0.00     0.094 A 
ATOM     12  N   UNL A   1      32.812  21.675  26.194  1.00  0.00    -0.257 N 
ATOM     13  C   UNL A   1      33.164  20.863  24.239  1.00  0.00     0.067 A 
ATOM     14  N   UNL A   1      33.639  20.673  26.403  1.00  0.00    -0.165 NA
BRANCH   6  15
ATOM     15  C   UNL A   1      33.536  24.084  23.696  1.00  0.00     0.339 C 
BRANCH  15  16
ATOM     16  C   UNL A   1      33.190  24.599  22.340  1.00  0.00     0.168 A 
ATOM     17  N   UNL A   1      32.822  25.908  22.001  1.00  0.00    -0.299 N 
ATOM     18  C   UNL A   1      32.590  25.862  20.642  1.00  0.00     0.113 A 
ATOM     19  C   UNL A   1      32.892  24.597  20.213  1.00  0.00     0.132 A 
ATOM     20  N   UNL A   1      33.270  23.829  21.265  1.00  0.00    -0.236 NA
BRANCH  17  21
ATOM     21  C   UNL A   1      32.329  26.954  22.844  1.00  0.00     0.047 A 
ATOM     22  C   UNL A   1      31.520  29.994  24.731  1.00  0.00     0.119 A 
ATOM     23  C   UNL A   1      30.207  29.105  23.805  1.00  0.00     0.048 A 
ATOM     24  C   UNL A   1      33.233  29.308  24.778  1.00  0.00     0.048 A 
ATOM     25  C   UNL A   1      30.618  27.586  22.830  1.00  0.00     0.030 A 
ATOM     26  C   UNL A   1      33.592  27.790  23.822  1.00  0.00     0.030 A 
BRANCH  22  27
ATOM     27  O   UNL A   1      31.144  31.100  25.440  1.00  0.00    -0.497 OA
ATOM     28  C   UNL A   1      31.354  30.921  26.837  1.00  0.00     0.278 C 
ENDBRANCH  22  27
ENDBRANCH  17  21
ENDBRANCH  15  16
ENDBRANCH   6  15
ENDBRANCH   3   5
ENDBRANCH   2   3
ENDBRANCH   1   2
BRANCH   1  29
ATOM     29  C   UNL A   1      39.385  21.828  26.171  1.00  0.00     0.275 C 
BRANCH  29  30
ATOM     30  O   UNL A   1      39.787  23.093  26.678  1.00  0.00    -0.458 OA
BRANCH  30  31
ATOM     31  C   UNL A   1      41.129  23.217  26.761  1.00  0.00     0.338 C 
ATOM     32  O   UNL A   1      41.904  22.406  27.238  1.00  0.00    -0.246 OA
BRANCH  31  33
ATOM     33  C   UNL A   1      41.543  24.543  26.303  1.00  0.00     0.060 A 
ATOM     34  C   UNL A   1      42.798  24.994  26.714  1.00  0.00     0.016 A 
ATOM     35  C   UNL A   1      40.516  25.441  26.104  1.00  0.00     0.016 A 
ATOM     36  C   UNL A   1      42.852  26.093  27.515  1.00  0.00     0.010 A 
ATOM     37  C   UNL A   1      40.691  26.675  26.643  1.00  0.00     0.010 A 
ATOM     38  C   UNL A   1      41.692  26.830  27.599  1.00  0.00    -0.014 A 
BRANCH  38  39
ATOM     39  C   UNL A   1      41.621  27.946  28.500  1.00  0.00     0.031 A 
ATOM     40  C   UNL A   1      42.806  28.804  28.269  1.00  0.00     0.074 A 
ATOM     41  C   UNL A   1      40.535  28.150  29.276  1.00  0.00     0.049 A 
ATOM     42  N   UNL A   1      43.907  28.790  28.952  1.00  0.00    -0.248 NA
ATOM     43  C   UNL A   1      42.956  29.427  26.934  1.00  0.00     0.031 C 
ATOM     44  C   UNL A   1      39.279  27.397  29.395  1.00  0.00     0.029 A 
ATOM     45  N   UNL A   1      40.291  29.218  30.075  1.00  0.00    -0.354 N 
ATOM     46  C   UNL A   1      44.745  29.657  28.263  1.00  0.00     0.074 A 
ATOM     47  C   UNL A   1      44.265  29.677  26.914  1.00  0.00     0.031 C 
ATOM     48  C   UNL A   1      38.331  28.180  29.976  1.00  0.00     0.029 A 
ATOM     49  C   UNL A   1      38.947  29.426  30.390  1.00  0.00     0.049 A 
ATOM     50  H   UNL A   1      41.009  29.803  30.407  1.00  0.00     0.167 HD
ATOM     51  C   UNL A   1      45.449  30.619  28.920  1.00  0.00     0.031 A 
ATOM     52  C   UNL A   1      38.446  30.615  30.838  1.00  0.00     0.031 A 
ATOM     53  C   UNL A   1      45.473  30.352  30.335  1.00  0.00     0.049 A 
ATOM     54  C   UNL A   1      39.629  31.368  31.370  1.00  0.00     0.074 A 
ATOM     55  C   UNL A   1      45.946  29.311  31.108  1.00  0.00     0.029 A 
ATOM     56  N   UNL A   1      44.518  30.999  31.090  1.00  0.00    -0.354 N 
ATOM     57  N   UNL A   1      40.319  30.935  32.398  1.00  0.00    -0.248 NA
ATOM     58  C   UNL A   1      40.377  32.191  30.421  1.00  0.00     0.031 C 
ATOM     59  C   UNL A   1      44.928  29.091  32.079  1.00  0.00     0.029 A 
ATOM     60  C   UNL A   1      43.954  30.083  31.943  1.00  0.00     0.049 A 
ATOM     61  H   UNL A   1      44.282  31.953  31.028  1.00  0.00     0.167 HD
ATOM     62  C   UNL A   1      41.652  31.055  32.014  1.00  0.00     0.074 A 
ATOM     63  C   UNL A   1      41.623  31.863  30.790  1.00  0.00     0.031 C 
ATOM     64  C   UNL A   1      42.621  30.218  32.499  1.00  0.00     0.031 A 
BRANCH  51  65
ATOM     65  C   UNL A   1      45.676  32.005  28.365  1.00  0.00    -0.014 A 
ATOM     66  C   UNL A   1      46.575  32.844  29.046  1.00  0.00     0.010 A 
ATOM     67  C   UNL A   1      44.867  32.606  27.375  1.00  0.00     0.010 A 
ATOM     68  C   UNL A   1      46.612  34.221  28.796  1.00  0.00     0.020 A 
ATOM     69  C   UNL A   1      44.921  33.970  27.091  1.00  0.00     0.020 A 
ATOM     70  C   UNL A   1      45.777  34.775  27.826  1.00  0.00     0.054 A 
BRANCH  70  71
ATOM     71  S   UNL A   1      45.788  36.563  27.568  1.00  0.00     0.124 S 
ATOM     72  O   UNL A   1      44.363  36.867  27.493  1.00  0.00    -0.237 OA
ATOM     73  O   UNL A   1      46.478  37.037  28.764  1.00  0.00    -0.237 OA
ATOM     74  O   UNL A   1      46.531  36.725  26.320  1.00  0.00    -0.744 OA
ENDBRANCH  70  71
ENDBRANCH  51  65
BRANCH  52  75
ATOM     75  C   UNL A   1      37.190  31.278  30.364  1.00  0.00    -0.014 A 
ATOM     76  C   UNL A   1      36.140  31.653  31.230  1.00  0.00     0.010 A 
ATOM     77  C   UNL A   1      37.140  31.788  29.049  1.00  0.00     0.010 A 
ATOM     78  C   UNL A   1      35.114  32.529  30.805  1.00  0.00     0.020 A 
ATOM     79  C   UNL A   1      36.129  32.659  28.620  1.00  0.00     0.020 A 
ATOM     80  C   UNL A   1      35.128  33.044  29.505  1.00  0.00     0.054 A 
BRANCH  80  81
ATOM     81  S   UNL A   1      33.912  34.303  28.995  1.00  0.00     0.124 S 
ATOM     82  O   UNL A   1      33.085  33.575  28.038  1.00  0.00    -0.237 OA
ATOM     83  O   UNL A   1      33.262  34.650  30.256  1.00  0.00    -0.237 OA
ATOM     84  O   UNL A   1      34.736  35.364  28.417  1.00  0.00    -0.744 OA
ENDBRANCH  80  81
ENDBRANCH  52  75
BRANCH  64  85
ATOM     85  C   UNL A   1      42.272  29.238  33.604  1.00  0.00    -0.014 A 
ATOM     86  C   UNL A   1      41.649  27.983  33.419  1.00  0.00     0.010 A 
ATOM     87  C   UNL A   1      42.791  29.537  34.875  1.00  0.00     0.010 A 
ATOM     88  C   UNL A   1      41.520  27.079  34.492  1.00  0.00     0.020 A 
ATOM     89  C   UNL A   1      42.684  28.637  35.934  1.00  0.00     0.020 A 
ATOM     90  C   UNL A   1      42.033  27.419  35.747  1.00  0.00     0.054 A 
BRANCH  90  91
ATOM     91  S   UNL A   1      41.868  26.266  37.140  1.00  0.00     0.124 S 
ATOM     92  O   UNL A   1      40.550  26.601  37.671  1.00  0.00    -0.237 OA
ATOM     93  O   UNL A   1      41.976  24.959  36.497  1.00  0.00    -0.237 OA
ATOM     94  O   UNL A   1      42.991  26.612  38.011  1.00  0.00    -0.744 OA
ENDBRANCH  90  91
ENDBRANCH  64  85
ENDBRANCH  38  39
ENDBRANCH  31  33
ENDBRANCH  30  31
ENDBRANCH  29  30
ENDBRANCH   1  29
TORSDOF 18
ENDMDL
MODEL 2
REMARK VINA RESULT:     -11.8      2.594      9.550
REMARK SMILES COc1ccc(-n2ccnc2C[N@@H+]2CCn3nc(C(=O)OCCOC(=O)c4ccc(-c5c6nc(c(-c7ccc(S(=O)(=O)[O-])cc7)c7ccc([nH]7)c(-c7ccc(S(=O)(=O)[O-])cc7)c7nc(c(-c8ccc(S(=O)(=O)[O-])cc8)c8ccc5[nH]8)C=C7)C=C6)cc4)cc3C2)cc1
REMARK SMILES IDX 22 1 21 2 19 3 20 4 18 5 13 6 14 7 89 8 15 10 88 11 16 12
REMARK SMILES IDX 87 13 17 14 12 15 11 16 7 17 8 18 9 19 10 20 6 21 3 22 4 23
REMARK SMILES IDX 91 24 5 25 90 26 2 27 1 28 23 29 24 30 25 31 26 32 27 33
REMARK SMILES IDX 28 34 86 35 29 36 85 37 30 38 31 39 32 40 79 41 33 42 84 43
REMARK SMILES IDX 78 44 80 45 34 46 83 47 77 48 76 49 35 51 65 52 46 53 64 54
REMARK SMILES IDX 47 55 50 56 63 57 81 58 48 59 49 60 62 62 82 63 51 64 36 65
REMARK SMILES IDX 37 66 45 67 38 68 44 69 39 70 40 71 41 72 42 73 43 74 66 75
REMARK SMILES IDX 67 76 75 77 68 78 74 79 69 80 70 81 71 82 72 83 73 84 52 85
REMARK SMILES IDX 53 86 61 87 54 88 60 89 55 90 56 91 57 92 58 93 59 94
REMARK H PARENT 13 9 80 50 50 61
REMARK Flexibility Score: inf
ROOT
ATOM      1  C   UNL A   1      32.705  29.973  27.287  1.00  0.00     0.275 C 
ENDROOT
BRANCH   1   2
ATOM      2  O   UNL A   1      32.901  28.636  26.717  1.00  0.00    -0.457 OA
BRANCH   2   3
ATOM      3  C   UNL A   1      31.657  27.745  26.625  1.00  0.00     0.358 C 
ATOM      4  O   UNL A   1      31.148  27.926  27.780  1.00  0.00    -0.244 OA
BRANCH   3   5
ATOM      5  C   UNL A   1      31.090  26.455  25.080  1.00  0.00     0.170 A 
ATOM      6  N   UNL A   1      32.846  23.270  23.373  1.00  0.00    -0.322 N 
ATOM      7  C   UNL A   1      33.405  24.428  22.611  1.00  0.00     0.286 C 
ATOM      8  C   UNL A   1      31.376  23.187  23.251  1.00  0.00     0.319 C 
ATOM      9  H   UNL A   1      33.313  22.490  22.910  1.00  0.00     0.348 HD
ATOM     10  C   UNL A   1      32.399  25.502  22.122  1.00  0.00     0.206 C 
ATOM     11  C   UNL A   1      30.869  24.487  23.728  1.00  0.00     0.094 A 
ATOM     12  N   UNL A   1      31.311  25.576  23.076  1.00  0.00    -0.257 N 
ATOM     13  C   UNL A   1      30.479  24.966  24.958  1.00  0.00     0.067 A 
ATOM     14  N   UNL A   1      30.986  26.705  23.669  1.00  0.00    -0.165 NA
BRANCH   6  15
ATOM     15  C   UNL A   1      33.209  23.138  24.815  1.00  0.00     0.339 C 
BRANCH  15  16
ATOM     16  C   UNL A   1      34.592  22.768  25.232  1.00  0.00     0.168 A 
ATOM     17  N   UNL A   1      35.236  21.541  25.027  1.00  0.00    -0.299 N 
ATOM     18  C   UNL A   1      36.477  21.699  25.608  1.00  0.00     0.113 A 
ATOM     19  C   UNL A   1      36.564  22.991  26.054  1.00  0.00     0.132 A 
ATOM     20  N   UNL A   1      35.400  23.645  25.809  1.00  0.00    -0.236 NA
BRANCH  17  21
ATOM     21  C   UNL A   1      34.668  20.261  24.733  1.00  0.00     0.047 A 
ATOM     22  C   UNL A   1      33.494  16.791  24.523  1.00  0.00     0.119 A 
ATOM     23  C   UNL A   1      32.298  18.179  24.414  1.00  0.00     0.048 A 
ATOM     24  C   UNL A   1      35.301  17.148  24.655  1.00  0.00     0.048 A 
ATOM     25  C   UNL A   1      32.883  19.930  24.548  1.00  0.00     0.030 A 
ATOM     26  C   UNL A   1      35.841  18.892  24.757  1.00  0.00     0.030 A 
BRANCH  22  27
ATOM     27  O   UNL A   1      32.995  15.525  24.404  1.00  0.00    -0.497 OA
ATOM     28  C   UNL A   1      32.710  14.955  25.676  1.00  0.00     0.278 C 
ENDBRANCH  22  27
ENDBRANCH  17  21
ENDBRANCH  15  16
ENDBRANCH   6  15
ENDBRANCH   3   5
ENDBRANCH   2   3
ENDBRANCH   1   2
BRANCH   1  29
ATOM     29  C   UNL A   1      33.917  30.907  27.230  1.00  0.00     0.275 C 
BRANCH  29  30
ATOM     30  O   UNL A   1      35.079  30.289  27.762  1.00  0.00    -0.458 OA
BRANCH  30  31
ATOM     31  C   UNL A   1      35.971  31.183  28.241  1.00  0.00     0.338 C 
ATOM     32  O   UNL A   1      36.287  32.241  27.725  1.00  0.00    -0.246 OA
BRANCH  31  33
ATOM     33  C   UNL A   1      36.626  30.653  29.437  1.00  0.00     0.060 A 
ATOM     34  C   UNL A   1      37.459  31.521  30.144  1.00  0.00     0.016 A 
ATOM     35  C   UNL A   1      36.902  29.303  29.404  1.00  0.00     0.016 A 
ATOM     36  C   UNL A   1      38.784  31.218  30.215  1.00  0.00     0.010 A 
ATOM     37  C   UNL A   1      38.156  28.942  29.780  1.00  0.00     0.010 A 
ATOM     38  C   UNL A   1      39.127  29.938  29.843  1.00  0.00    -0.014 A 
BRANCH  38  39
ATOM     39  C   UNL A   1      40.511  29.559  29.785  1.00  0.00     0.031 A 
ATOM     40  C   UNL A   1      41.048  29.555  31.166  1.00  0.00     0.074 A 
ATOM     41  C   UNL A   1      41.078  29.154  28.629  1.00  0.00     0.049 A 
ATOM     42  N   UNL A   1      41.710  30.513  31.733  1.00  0.00    -0.248 NA
ATOM     43  C   UNL A   1      40.453  28.605  32.134  1.00  0.00     0.031 C 
ATOM     44  C   UNL A   1      40.513  28.995  27.282  1.00  0.00     0.029 A 
ATOM     45  N   UNL A   1      42.329  28.662  28.461  1.00  0.00    -0.354 N 
ATOM     46  C   UNL A   1      41.857  30.092  33.048  1.00  0.00     0.074 A 
ATOM     47  C   UNL A   1      40.780  29.179  33.291  1.00  0.00     0.031 C 
ATOM     48  C   UNL A   1      41.319  28.189  26.541  1.00  0.00     0.029 A 
ATOM     49  C   UNL A   1      42.513  27.893  27.310  1.00  0.00     0.049 A 
ATOM     50  H   UNL A   1      43.055  28.833  29.104  1.00  0.00     0.167 HD
ATOM     51  C   UNL A   1      43.066  30.150  33.671  1.00  0.00     0.031 A 
ATOM     52  C   UNL A   1      43.540  27.008  27.142  1.00  0.00     0.031 A 
ATOM     53  C   UNL A   1      43.972  30.997  32.938  1.00  0.00     0.049 A 
ATOM     54  C   UNL A   1      44.589  27.426  28.130  1.00  0.00     0.074 A 
ATOM     55  C   UNL A   1      43.961  32.329  32.577  1.00  0.00     0.029 A 
ATOM     56  N   UNL A   1      44.823  30.359  32.062  1.00  0.00    -0.354 N 
ATOM     57  N   UNL A   1      45.188  28.590  28.052  1.00  0.00    -0.248 NA
ATOM     58  C   UNL A   1      44.498  26.863  29.476  1.00  0.00     0.031 C 
ATOM     59  C   UNL A   1      44.415  32.340  31.227  1.00  0.00     0.029 A 
ATOM     60  C   UNL A   1      44.808  31.047  30.874  1.00  0.00     0.049 A 
ATOM     61  H   UNL A   1      45.351  29.551  32.255  1.00  0.00     0.167 HD
ATOM     62  C   UNL A   1      45.160  29.099  29.347  1.00  0.00     0.074 A 
ATOM     63  C   UNL A   1      44.742  27.971  30.189  1.00  0.00     0.031 C 
ATOM     64  C   UNL A   1      45.129  30.446  29.594  1.00  0.00     0.031 A 
BRANCH  51  65
ATOM     65  C   UNL A   1      43.560  29.089  34.625  1.00  0.00    -0.014 A 
ATOM     66  C   UNL A   1      43.493  27.749  34.205  1.00  0.00     0.010 A 
ATOM     67  C   UNL A   1      43.838  29.316  35.991  1.00  0.00     0.010 A 
ATOM     68  C   UNL A   1      43.629  26.696  35.117  1.00  0.00     0.020 A 
ATOM     69  C   UNL A   1      44.013  28.275  36.902  1.00  0.00     0.020 A 
ATOM     70  C   UNL A   1      43.879  26.968  36.462  1.00  0.00     0.054 A 
BRANCH  70  71
ATOM     71  S   UNL A   1      43.982  25.599  37.636  1.00  0.00     0.124 S 
ATOM     72  O   UNL A   1      45.350  25.132  37.437  1.00  0.00    -0.237 OA
ATOM     73  O   UNL A   1      43.716  26.268  38.906  1.00  0.00    -0.237 OA
ATOM     74  O   UNL A   1      42.934  24.683  37.188  1.00  0.00    -0.744 OA
ENDBRANCH  70  71
ENDBRANCH  51  65
BRANCH  52  75
ATOM     75  C   UNL A   1      43.428  25.619  26.595  1.00  0.00    -0.014 A 
ATOM     76  C   UNL A   1      43.503  25.323  25.217  1.00  0.00     0.010 A 
ATOM     77  C   UNL A   1      43.506  24.526  27.484  1.00  0.00     0.010 A 
ATOM     78  C   UNL A   1      43.688  23.997  24.758  1.00  0.00     0.020 A 
ATOM     79  C   UNL A   1      43.694  23.210  27.039  1.00  0.00     0.020 A 
ATOM     80  C   UNL A   1      43.803  22.950  25.677  1.00  0.00     0.054 A 
BRANCH  80  81
ATOM     81  S   UNL A   1      44.210  21.265  25.113  1.00  0.00     0.124 S 
ATOM     82  O   UNL A   1      43.045  20.497  25.542  1.00  0.00    -0.237 OA
ATOM     83  O   UNL A   1      44.358  21.437  23.670  1.00  0.00    -0.237 OA
ATOM     84  O   UNL A   1      45.450  20.953  25.824  1.00  0.00    -0.744 OA
ENDBRANCH  80  81
ENDBRANCH  52  75
BRANCH  64  85
ATOM     85  C   UNL A   1      45.295  31.416  28.439  1.00  0.00    -0.014 A 
ATOM     86  C   UNL A   1      44.249  31.899  27.620  1.00  0.00     0.010 A 
ATOM     87  C   UNL A   1      46.559  32.015  28.317  1.00  0.00     0.010 A 
ATOM     88  C   UNL A   1      44.485  32.924  26.682  1.00  0.00     0.020 A 
ATOM     89  C   UNL A   1      46.793  33.044  27.406  1.00  0.00     0.020 A 
ATOM     90  C   UNL A   1      45.762  33.483  26.577  1.00  0.00     0.054 A 
BRANCH  90  91
ATOM     91  S   UNL A   1      46.082  34.800  25.369  1.00  0.00     0.124 S 
ATOM     92  O   UNL A   1      45.173  34.456  24.280  1.00  0.00    -0.237 OA
ATOM     93  O   UNL A   1      45.747  36.013  26.111  1.00  0.00    -0.237 OA
ATOM     94  O   UNL A   1      47.503  34.648  25.058  1.00  0.00    -0.744 OA
ENDBRANCH  90  91
ENDBRANCH  64  85
ENDBRANCH  38  39
ENDBRANCH  31  33
ENDBRANCH  30  31
ENDBRANCH  29  30
ENDBRANCH   1  29
TORSDOF 18
ENDMDL
MODEL 3
REMARK VINA RESULT:     -11.7      2.404      3.215
REMARK SMILES COc1ccc(-n2ccnc2C[N@@H+]2CCn3nc(C(=O)OCCOC(=O)c4ccc(-c5c6nc(c(-c7ccc(S(=O)(=O)[O-])cc7)c7ccc([nH]7)c(-c7ccc(S(=O)(=O)[O-])cc7)c7nc(c(-c8ccc(S(=O)(=O)[O-])cc8)c8ccc5[nH]8)C=C7)C=C6)cc4)cc3C2)cc1
REMARK SMILES IDX 22 1 21 2 19 3 20 4 18 5 13 6 14 7 89 8 15 10 88 11 16 12
REMARK SMILES IDX 87 13 17 14 12 15 11 16 7 17 8 18 9 19 10 20 6 21 3 22 4 23
REMARK SMILES IDX 91 24 5 25 90 26 2 27 1 28 23 29 24 30 25 31 26 32 27 33
REMARK SMILES IDX 28 34 86 35 29 36 85 37 30 38 31 39 32 40 79 41 33 42 84 43
REMARK SMILES IDX 78 44 80 45 34 46 83 47 77 48 76 49 35 51 65 52 46 53 64 54
REMARK SMILES IDX 47 55 50 56 63 57 81 58 48 59 49 60 62 62 82 63 51 64 36 65
REMARK SMILES IDX 37 66 45 67 38 68 44 69 39 70 40 71 41 72 42 73 43 74 66 75
REMARK SMILES IDX 67 76 75 77 68 78 74 79 69 80 70 81 71 82 72 83 73 84 52 85
REMARK SMILES IDX 53 86 61 87 54 88 60 89 55 90 56 91 57 92 58 93 59 94
REMARK H PARENT 13 9 80 50 50 61
REMARK Flexibility Score: inf
ROOT
ATOM      1  C   UNL A   1      39.638  21.265  26.235  1.00  0.00     0.275 C 
ENDROOT
BRANCH   1   2
ATOM      2  O   UNL A   1      39.421  22.712  26.145  1.00  0.00    -0.457 OA
BRANCH   2   3
ATOM      3  C   UNL A   1      37.965  23.178  26.025  1.00  0.00     0.358 C 
ATOM      4  O   UNL A   1      38.094  24.426  26.249  1.00  0.00    -0.244 OA
BRANCH   3   5
ATOM      5  C   UNL A   1      36.244  22.018  25.757  1.00  0.00     0.170 A 
ATOM      6  N   UNL A   1      32.712  22.711  23.974  1.00  0.00    -0.322 N 
ATOM      7  C   UNL A   1      32.512  23.233  25.360  1.00  0.00     0.286 C 
ATOM      8  C   UNL A   1      33.028  21.269  23.967  1.00  0.00     0.319 C 
ATOM      9  H   UNL A   1      31.799  22.905  23.561  1.00  0.00     0.348 HD
ATOM     10  C   UNL A   1      32.976  22.326  26.528  1.00  0.00     0.206 C 
ATOM     11  C   UNL A   1      34.229  21.128  24.812  1.00  0.00     0.094 A 
ATOM     12  N   UNL A   1      34.119  21.555  26.082  1.00  0.00    -0.257 N 
ATOM     13  C   UNL A   1      35.582  21.159  24.562  1.00  0.00     0.067 A 
ATOM     14  N   UNL A   1      35.269  21.589  26.721  1.00  0.00    -0.165 NA
BRANCH   6  15
ATOM     15  C   UNL A   1      33.692  23.414  23.094  1.00  0.00     0.339 C 
BRANCH  15  16
ATOM     16  C   UNL A   1      33.237  24.357  22.032  1.00  0.00     0.168 A 
ATOM     17  N   UNL A   1      32.965  25.725  22.175  1.00  0.00    -0.299 N 
ATOM     18  C   UNL A   1      32.565  26.132  20.920  1.00  0.00     0.113 A 
ATOM     19  C   UNL A   1      32.683  25.058  20.079  1.00  0.00     0.132 A 
ATOM     20  N   UNL A   1      33.107  23.971  20.771  1.00  0.00    -0.236 NA
BRANCH  17  21
ATOM     21  C   UNL A   1      32.687  26.469  23.365  1.00  0.00     0.047 A 
ATOM     22  C   UNL A   1      32.074  28.895  26.049  1.00  0.00     0.119 A 
ATOM     23  C   UNL A   1      30.833  27.594  25.678  1.00  0.00     0.048 A 
ATOM     24  C   UNL A   1      33.671  28.928  25.121  1.00  0.00     0.048 A 
ATOM     25  C   UNL A   1      31.126  26.386  24.307  1.00  0.00     0.030 A 
ATOM     26  C   UNL A   1      33.933  27.700  23.791  1.00  0.00     0.030 A 
BRANCH  22  27
ATOM     27  O   UNL A   1      31.800  29.745  27.083  1.00  0.00    -0.497 OA
ATOM     28  C   UNL A   1      31.730  31.097  26.642  1.00  0.00     0.278 C 
ENDBRANCH  22  27
ENDBRANCH  17  21
ENDBRANCH  15  16
ENDBRANCH   6  15
ENDBRANCH   3   5
ENDBRANCH   2   3
ENDBRANCH   1   2
BRANCH   1  29
ATOM     29  C   UNL A   1      41.021  20.826  26.722  1.00  0.00     0.275 C 
BRANCH  29  30
ATOM     30  O   UNL A   1      41.986  21.854  26.550  1.00  0.00    -0.458 OA
BRANCH  30  31
ATOM     31  C   UNL A   1      42.959  21.514  25.677  1.00  0.00     0.338 C 
ATOM     32  O   UNL A   1      43.221  20.390  25.285  1.00  0.00    -0.246 OA
BRANCH  31  33
ATOM     33  C   UNL A   1      43.769  22.684  25.340  1.00  0.00     0.060 A 
ATOM     34  C   UNL A   1      44.968  22.849  26.034  1.00  0.00     0.016 A 
ATOM     35  C   UNL A   1      43.056  23.787  24.918  1.00  0.00     0.016 A 
ATOM     36  C   UNL A   1      45.097  23.941  26.836  1.00  0.00     0.010 A 
ATOM     37  C   UNL A   1      43.392  24.969  25.494  1.00  0.00     0.010 A 
ATOM     38  C   UNL A   1      44.157  24.931  26.656  1.00  0.00    -0.014 A 
BRANCH  38  39
ATOM     39  C   UNL A   1      44.150  26.073  27.527  1.00  0.00     0.031 A 
ATOM     40  C   UNL A   1      45.384  26.855  27.276  1.00  0.00     0.074 A 
ATOM     41  C   UNL A   1      43.077  26.360  28.295  1.00  0.00     0.049 A 
ATOM     42  N   UNL A   1      46.481  26.794  27.962  1.00  0.00    -0.248 NA
ATOM     43  C   UNL A   1      45.571  27.431  25.925  1.00  0.00     0.031 C 
ATOM     44  C   UNL A   1      41.779  25.685  28.430  1.00  0.00     0.029 A 
ATOM     45  N   UNL A   1      42.895  27.461  29.064  1.00  0.00    -0.354 N 
ATOM     46  C   UNL A   1      47.368  27.592  27.253  1.00  0.00     0.074 A 
ATOM     47  C   UNL A   1      46.892  27.605  25.902  1.00  0.00     0.031 C 
ATOM     48  C   UNL A   1      40.878  26.537  28.988  1.00  0.00     0.029 A 
ATOM     49  C   UNL A   1      41.565  27.755  29.370  1.00  0.00     0.049 A 
ATOM     50  H   UNL A   1      43.645  28.013  29.383  1.00  0.00     0.167 HD
ATOM     51  C   UNL A   1      48.127  28.529  27.885  1.00  0.00     0.031 A 
ATOM     52  C   UNL A   1      41.133  28.983  29.785  1.00  0.00     0.031 A 
ATOM     53  C   UNL A   1      48.133  28.299  29.307  1.00  0.00     0.049 A 
ATOM     54  C   UNL A   1      42.358  29.681  30.300  1.00  0.00     0.074 A 
ATOM     55  C   UNL A   1      48.545  27.254  30.108  1.00  0.00     0.029 A 
ATOM     56  N   UNL A   1      47.217  29.021  30.042  1.00  0.00    -0.354 N 
ATOM     57  N   UNL A   1      43.021  29.235  31.340  1.00  0.00    -0.248 NA
ATOM     58  C   UNL A   1      43.153  30.433  29.331  1.00  0.00     0.031 C 
ATOM     59  C   UNL A   1      47.514  27.119  31.082  1.00  0.00     0.029 A 
ATOM     60  C   UNL A   1      46.600  28.162  30.917  1.00  0.00     0.049 A 
ATOM     61  H   UNL A   1      47.037  29.985  29.954  1.00  0.00     0.167 HD
ATOM     62  C   UNL A   1      44.358  29.268  30.957  1.00  0.00     0.074 A 
ATOM     63  C   UNL A   1      44.378  30.043  29.712  1.00  0.00     0.031 C 
ATOM     64  C   UNL A   1      45.277  28.389  31.467  1.00  0.00     0.031 A 
BRANCH  51  65
ATOM     65  C   UNL A   1      48.434  29.884  27.294  1.00  0.00    -0.014 A 
ATOM     66  C   UNL A   1      49.786  30.237  27.132  1.00  0.00     0.010 A 
ATOM     67  C   UNL A   1      47.483  30.916  27.135  1.00  0.00     0.010 A 
ATOM     68  C   UNL A   1      50.164  31.563  26.892  1.00  0.00     0.020 A 
ATOM     69  C   UNL A   1      47.845  32.234  26.859  1.00  0.00     0.020 A 
ATOM     70  C   UNL A   1      49.191  32.554  26.767  1.00  0.00     0.054 A 
BRANCH  70  71
ATOM     71  S   UNL A   1      49.702  34.270  26.528  1.00  0.00     0.124 S 
ATOM     72  O   UNL A   1      49.836  34.347  25.077  1.00  0.00    -0.237 OA
ATOM     73  O   UNL A   1      48.579  35.003  27.103  1.00  0.00    -0.237 OA
ATOM     74  O   UNL A   1      50.952  34.364  27.280  1.00  0.00    -0.744 OA
ENDBRANCH  70  71
ENDBRANCH  51  65
BRANCH  52  75
ATOM     75  C   UNL A   1      39.919  29.705  29.291  1.00  0.00    -0.014 A 
ATOM     76  C   UNL A   1      39.214  29.326  28.128  1.00  0.00     0.010 A 
ATOM     77  C   UNL A   1      39.289  30.643  30.136  1.00  0.00     0.010 A 
ATOM     78  C   UNL A   1      37.922  29.834  27.852  1.00  0.00     0.020 A 
ATOM     79  C   UNL A   1      38.008  31.149  29.874  1.00  0.00     0.020 A 
ATOM     80  C   UNL A   1      37.319  30.728  28.741  1.00  0.00     0.054 A 
BRANCH  80  81
ATOM     81  S   UNL A   1      35.593  31.259  28.490  1.00  0.00     0.124 S 
ATOM     82  O   UNL A   1      35.217  31.747  29.813  1.00  0.00    -0.237 OA
ATOM     83  O   UNL A   1      35.720  32.279  27.452  1.00  0.00    -0.237 OA
ATOM     84  O   UNL A   1      34.913  30.035  28.067  1.00  0.00    -0.744 OA
ENDBRANCH  80  81
ENDBRANCH  52  75
BRANCH  64  85
ATOM     85  C   UNL A   1      44.871  27.462  32.596  1.00  0.00    -0.014 A 
ATOM     86  C   UNL A   1      44.328  26.166  32.437  1.00  0.00     0.010 A 
ATOM     87  C   UNL A   1      45.251  27.863  33.887  1.00  0.00     0.010 A 
ATOM     88  C   UNL A   1      44.140  25.323  33.550  1.00  0.00     0.020 A 
ATOM     89  C   UNL A   1      45.087  27.025  34.989  1.00  0.00     0.020 A 
ATOM     90  C   UNL A   1      44.514  25.766  34.823  1.00  0.00     0.054 A 
BRANCH  90  91
ATOM     91  S   UNL A   1      44.272  24.692  36.267  1.00  0.00     0.124 S 
ATOM     92  O   UNL A   1      43.423  23.632  35.732  1.00  0.00    -0.237 OA
ATOM     93  O   UNL A   1      45.635  24.296  36.612  1.00  0.00    -0.237 OA
ATOM     94  O   UNL A   1      43.624  25.567  37.244  1.00  0.00    -0.744 OA
ENDBRANCH  90  91
ENDBRANCH  64  85
ENDBRANCH  38  39
ENDBRANCH  31  33
ENDBRANCH  30  31
ENDBRANCH  29  30
ENDBRANCH   1  29
TORSDOF 18
ENDMDL
