MODEL 1
REMARK VINA RESULT:      -8.9      0.000      0.000
REMARK SMILES CSc1ccc(Cl)c(C(=O)N[C@@H](CO)C(=O)OCCOC(=O)c2ccc(-c3c4nc(c(-c5ccc(S(=O)(=O)[O-])cc5)c5ccc([nH]5)c(-c5ccc(S(=O)(=O)[O-])cc5)c5nc(c(-c6ccc(S(=O)(=O)[O-])cc6)c6ccc3[nH]6)C=C5)C=C4)cc2)c1
REMARK SMILES IDX 18 1 17 2 15 3 16 4 12 5 11 6 9 7 10 8 8 10 3 11 4 12 83 13
REMARK SMILES IDX 5 14 6 15 7 16 2 17 1 18 13 19 14 20 19 22 20 23 21 24 22 25
REMARK SMILES IDX 23 26 24 27 82 28 25 29 81 30 26 31 27 32 28 33 75 34 29 35
REMARK SMILES IDX 80 36 74 37 76 38 30 39 79 40 73 41 72 42 31 44 61 45 42 46
REMARK SMILES IDX 60 47 43 48 46 49 59 50 77 51 44 52 45 53 58 55 78 56 47 57
REMARK SMILES IDX 32 58 33 59 41 60 34 61 40 62 35 63 36 64 37 65 38 66 39 67
REMARK SMILES IDX 62 68 63 69 71 70 64 71 70 72 65 73 66 74 67 75 68 76 69 77
REMARK SMILES IDX 48 78 49 79 57 80 50 81 56 82 51 83 52 84 53 85 54 86 55 87
REMARK H PARENT 11 9 14 21 76 43 46 54
REMARK Flexibility Score: inf
ROOT
ATOM      1  C   UNL A   1      41.936  21.367  25.896  1.00  0.00     0.274 C 
ENDROOT
BRANCH   1   2
ATOM      2  O   UNL A   1      43.145  20.593  26.024  1.00  0.00    -0.460 OA
BRANCH   2   3
ATOM      3  C   UNL A   1      44.051  20.745  25.017  1.00  0.00     0.331 C 
ATOM      4  O   UNL A   1      44.189  19.966  24.080  1.00  0.00    -0.250 OA
BRANCH   3   5
ATOM      5  C   UNL A   1      44.976  21.954  25.216  1.00  0.00     0.218 C 
BRANCH   5   6
ATOM      6  N   UNL A   1      45.058  22.493  26.581  1.00  0.00    -0.337 N 
ATOM      7  C   UNL A   1      45.670  23.590  27.130  1.00  0.00     0.253 C 
ATOM      8  O   UNL A   1      45.740  23.641  28.360  1.00  0.00    -0.269 OA
ATOM      9  H   UNL A   1      44.572  21.950  27.242  1.00  0.00     0.164 HD
BRANCH   7  10
ATOM     10  C   UNL A   1      46.127  24.779  26.363  1.00  0.00     0.059 A 
ATOM     11  C   UNL A   1      48.134  25.990  25.623  1.00  0.00     0.008 A 
ATOM     12  C   UNL A   1      47.322  26.908  24.960  1.00  0.00     0.016 A 
ATOM     13  C   UNL A   1      47.530  24.960  26.354  1.00  0.00     0.030 A 
ATOM     14  C   UNL A   1      45.939  26.728  24.933  1.00  0.00     0.022 A 
ATOM     15  C   UNL A   1      45.346  25.635  25.583  1.00  0.00     0.053 A 
ATOM     16  Cl  UNL A   1      43.685  25.365  25.225  1.00  0.00    -0.083 Cl
BRANCH  11  17
ATOM     17  S   UNL A   1      49.898  26.193  25.491  1.00  0.00    -0.130 SA
ATOM     18  C   UNL A   1      50.078  27.992  25.622  1.00  0.00     0.091 C 
ENDBRANCH  11  17
ENDBRANCH   7  10
ENDBRANCH   5   6
BRANCH   5  19
ATOM     19  C   UNL A   1      46.375  21.481  24.774  1.00  0.00     0.193 C 
BRANCH  19  20
ATOM     20  O   UNL A   1      46.639  20.149  25.237  1.00  0.00    -0.394 OA
ATOM     21  H   UNL A   1      47.428  20.154  25.800  1.00  0.00     0.210 HD
ENDBRANCH  19  20
ENDBRANCH   5  19
ENDBRANCH   3   5
ENDBRANCH   2   3
ENDBRANCH   1   2
BRANCH   1  22
ATOM     22  C   UNL A   1      40.768  20.720  26.643  1.00  0.00     0.275 C 
BRANCH  22  23
ATOM     23  O   UNL A   1      39.947  21.708  27.289  1.00  0.00    -0.458 OA
BRANCH  23  24
ATOM     24  C   UNL A   1      39.253  22.488  26.432  1.00  0.00     0.338 C 
ATOM     25  O   UNL A   1      38.586  22.125  25.470  1.00  0.00    -0.246 OA
BRANCH  24  26
ATOM     26  C   UNL A   1      39.285  23.884  26.871  1.00  0.00     0.060 A 
ATOM     27  C   UNL A   1      40.004  24.789  26.093  1.00  0.00     0.016 A 
ATOM     28  C   UNL A   1      38.785  24.259  28.117  1.00  0.00     0.016 A 
ATOM     29  C   UNL A   1      40.300  26.050  26.594  1.00  0.00     0.010 A 
ATOM     30  C   UNL A   1      39.060  25.541  28.607  1.00  0.00     0.010 A 
ATOM     31  C   UNL A   1      39.872  26.425  27.874  1.00  0.00    -0.014 A 
BRANCH  31  32
ATOM     32  C   UNL A   1      40.400  27.680  28.475  1.00  0.00     0.031 A 
ATOM     33  C   UNL A   1      41.874  27.811  28.771  1.00  0.00     0.074 A 
ATOM     34  C   UNL A   1      39.588  28.734  28.685  1.00  0.00     0.049 A 
ATOM     35  N   UNL A   1      42.523  28.814  29.308  1.00  0.00    -0.248 NA
ATOM     36  C   UNL A   1      42.723  26.660  28.429  1.00  0.00     0.031 C 
ATOM     37  C   UNL A   1      38.150  28.761  28.417  1.00  0.00     0.029 A 
ATOM     38  N   UNL A   1      39.865  29.990  29.162  1.00  0.00    -0.354 N 
ATOM     39  C   UNL A   1      43.849  28.405  29.393  1.00  0.00     0.074 A 
ATOM     40  C   UNL A   1      43.908  27.056  28.869  1.00  0.00     0.031 C 
ATOM     41  C   UNL A   1      37.674  29.982  28.712  1.00  0.00     0.029 A 
ATOM     42  C   UNL A   1      38.763  30.807  29.232  1.00  0.00     0.049 A 
ATOM     43  H   UNL A   1      40.767  30.279  29.429  1.00  0.00     0.167 HD
ATOM     44  C   UNL A   1      44.925  29.082  29.859  1.00  0.00     0.031 A 
ATOM     45  C   UNL A   1      38.632  32.071  29.679  1.00  0.00     0.031 A 
ATOM     46  C   UNL A   1      44.886  30.428  30.363  1.00  0.00     0.049 A 
ATOM     47  C   UNL A   1      39.835  32.808  30.194  1.00  0.00     0.074 A 
ATOM     48  C   UNL A   1      45.923  31.191  30.867  1.00  0.00     0.029 A 
ATOM     49  N   UNL A   1      43.746  31.215  30.417  1.00  0.00    -0.354 N 
ATOM     50  N   UNL A   1      41.075  32.392  30.289  1.00  0.00    -0.248 NA
ATOM     51  C   UNL A   1      39.619  34.184  30.660  1.00  0.00     0.031 C 
ATOM     52  C   UNL A   1      45.404  32.432  31.257  1.00  0.00     0.029 A 
ATOM     53  C   UNL A   1      44.051  32.453  30.959  1.00  0.00     0.049 A 
ATOM     54  H   UNL A   1      42.852  30.936  30.116  1.00  0.00     0.167 HD
ATOM     55  C   UNL A   1      41.788  33.455  30.829  1.00  0.00     0.074 A 
ATOM     56  C   UNL A   1      40.847  34.541  31.014  1.00  0.00     0.031 C 
ATOM     57  C   UNL A   1      43.105  33.521  31.150  1.00  0.00     0.031 A 
BRANCH  44  58
ATOM     58  C   UNL A   1      46.230  28.336  29.898  1.00  0.00    -0.014 A 
ATOM     59  C   UNL A   1      46.618  27.590  31.024  1.00  0.00     0.010 A 
ATOM     60  C   UNL A   1      47.095  28.410  28.790  1.00  0.00     0.010 A 
ATOM     61  C   UNL A   1      47.874  26.976  31.065  1.00  0.00     0.020 A 
ATOM     62  C   UNL A   1      48.342  27.782  28.819  1.00  0.00     0.020 A 
ATOM     63  C   UNL A   1      48.734  27.091  29.968  1.00  0.00     0.054 A 
BRANCH  63  64
ATOM     64  S   UNL A   1      50.374  26.318  30.047  1.00  0.00     0.124 S 
ATOM     65  O   UNL A   1      51.249  27.438  29.707  1.00  0.00    -0.237 OA
ATOM     66  O   UNL A   1      50.453  25.859  31.431  1.00  0.00    -0.237 OA
ATOM     67  O   UNL A   1      50.303  25.257  29.046  1.00  0.00    -0.744 OA
ENDBRANCH  63  64
ENDBRANCH  44  58
BRANCH  45  68
ATOM     68  C   UNL A   1      37.287  32.705  29.669  1.00  0.00    -0.014 A 
ATOM     69  C   UNL A   1      36.497  32.724  30.830  1.00  0.00     0.010 A 
ATOM     70  C   UNL A   1      36.824  33.349  28.508  1.00  0.00     0.010 A 
ATOM     71  C   UNL A   1      35.269  33.392  30.834  1.00  0.00     0.020 A 
ATOM     72  C   UNL A   1      35.608  34.035  28.515  1.00  0.00     0.020 A 
ATOM     73  C   UNL A   1      34.836  34.050  29.678  1.00  0.00     0.054 A 
BRANCH  73  74
ATOM     74  S   UNL A   1      33.296  35.008  29.733  1.00  0.00     0.124 S 
ATOM     75  O   UNL A   1      33.746  36.330  29.309  1.00  0.00    -0.237 OA
ATOM     76  O   UNL A   1      32.441  34.296  28.787  1.00  0.00    -0.237 OA
ATOM     77  O   UNL A   1      32.883  34.902  31.131  1.00  0.00    -0.744 OA
ENDBRANCH  73  74
ENDBRANCH  45  68
BRANCH  57  78
ATOM     78  C   UNL A   1      43.604  34.816  31.728  1.00  0.00    -0.014 A 
ATOM     79  C   UNL A   1      43.545  35.059  33.112  1.00  0.00     0.010 A 
ATOM     80  C   UNL A   1      44.170  35.786  30.882  1.00  0.00     0.010 A 
ATOM     81  C   UNL A   1      44.008  36.269  33.636  1.00  0.00     0.020 A 
ATOM     82  C   UNL A   1      44.650  36.990  31.405  1.00  0.00     0.020 A 
ATOM     83  C   UNL A   1      44.551  37.230  32.777  1.00  0.00     0.054 A 
BRANCH  83  84
ATOM     84  S   UNL A   1      45.167  38.787  33.477  1.00  0.00     0.124 S 
ATOM     85  O   UNL A   1      45.416  39.581  32.276  1.00  0.00    -0.237 OA
ATOM     86  O   UNL A   1      44.052  39.237  34.307  1.00  0.00    -0.237 OA
ATOM     87  O   UNL A   1      46.361  38.383  34.217  1.00  0.00    -0.744 OA
ENDBRANCH  83  84
ENDBRANCH  57  78
ENDBRANCH  31  32
ENDBRANCH  24  26
ENDBRANCH  23  24
ENDBRANCH  22  23
ENDBRANCH   1  22
TORSDOF 19
ENDMDL
MODEL 2
REMARK VINA RESULT:      -8.9      4.507     11.073
REMARK SMILES CSc1ccc(Cl)c(C(=O)N[C@@H](CO)C(=O)OCCOC(=O)c2ccc(-c3c4nc(c(-c5ccc(S(=O)(=O)[O-])cc5)c5ccc([nH]5)c(-c5ccc(S(=O)(=O)[O-])cc5)c5nc(c(-c6ccc(S(=O)(=O)[O-])cc6)c6ccc3[nH]6)C=C5)C=C4)cc2)c1
REMARK SMILES IDX 18 1 17 2 15 3 16 4 12 5 11 6 9 7 10 8 8 10 3 11 4 12 83 13
REMARK SMILES IDX 5 14 6 15 7 16 2 17 1 18 13 19 14 20 19 22 20 23 21 24 22 25
REMARK SMILES IDX 23 26 24 27 82 28 25 29 81 30 26 31 27 32 28 33 75 34 29 35
REMARK SMILES IDX 80 36 74 37 76 38 30 39 79 40 73 41 72 42 31 44 61 45 42 46
REMARK SMILES IDX 60 47 43 48 46 49 59 50 77 51 44 52 45 53 58 55 78 56 47 57
REMARK SMILES IDX 32 58 33 59 41 60 34 61 40 62 35 63 36 64 37 65 38 66 39 67
REMARK SMILES IDX 62 68 63 69 71 70 64 71 70 72 65 73 66 74 67 75 68 76 69 77
REMARK SMILES IDX 48 78 49 79 57 80 50 81 56 82 51 83 52 84 53 85 54 86 55 87
REMARK H PARENT 11 9 14 21 76 43 46 54
REMARK Flexibility Score: inf
ROOT
ATOM      1  C   UNL A   1      31.741  28.040  26.224  1.00  0.00     0.274 C 
ENDROOT
BRANCH   1   2
ATOM      2  O   UNL A   1      32.342  27.076  25.337  1.00  0.00    -0.460 OA
BRANCH   2   3
ATOM      3  C   UNL A   1      32.016  27.205  24.020  1.00  0.00     0.331 C 
ATOM      4  O   UNL A   1      30.871  27.309  23.592  1.00  0.00    -0.250 OA
BRANCH   3   5
ATOM      5  C   UNL A   1      33.230  27.104  23.085  1.00  0.00     0.218 C 
BRANCH   5   6
ATOM      6  N   UNL A   1      33.043  26.313  21.860  1.00  0.00    -0.337 N 
ATOM      7  C   UNL A   1      33.190  24.984  21.561  1.00  0.00     0.253 C 
ATOM      8  O   UNL A   1      33.175  24.668  20.369  1.00  0.00    -0.269 OA
ATOM      9  H   UNL A   1      32.751  26.853  21.091  1.00  0.00     0.164 HD
BRANCH   7  10
ATOM     10  C   UNL A   1      33.228  23.887  22.564  1.00  0.00     0.059 A 
ATOM     11  C   UNL A   1      34.748  22.518  23.927  1.00  0.00     0.008 A 
ATOM     12  C   UNL A   1      33.648  21.869  24.483  1.00  0.00     0.016 A 
ATOM     13  C   UNL A   1      34.531  23.490  22.942  1.00  0.00     0.030 A 
ATOM     14  C   UNL A   1      32.354  22.268  24.144  1.00  0.00     0.022 A 
ATOM     15  C   UNL A   1      32.143  23.314  23.232  1.00  0.00     0.053 A 
ATOM     16  Cl  UNL A   1      30.529  23.902  23.131  1.00  0.00    -0.083 Cl
BRANCH  11  17
ATOM     17  S   UNL A   1      36.366  22.063  24.515  1.00  0.00    -0.130 SA
ATOM     18  C   UNL A   1      36.719  23.387  25.702  1.00  0.00     0.091 C 
ENDBRANCH  11  17
ENDBRANCH   7  10
ENDBRANCH   5   6
BRANCH   5  19
ATOM     19  C   UNL A   1      33.577  28.556  22.702  1.00  0.00     0.193 C 
BRANCH  19  20
ATOM     20  O   UNL A   1      32.587  29.470  23.193  1.00  0.00    -0.394 OA
ATOM     21  H   UNL A   1      32.944  30.371  23.179  1.00  0.00     0.210 HD
ENDBRANCH  19  20
ENDBRANCH   5  19
ENDBRANCH   3   5
ENDBRANCH   2   3
ENDBRANCH   1   2
BRANCH   1  22
ATOM     22  C   UNL A   1      32.526  28.174  27.530  1.00  0.00     0.275 C 
BRANCH  22  23
ATOM     23  O   UNL A   1      33.896  28.534  27.284  1.00  0.00    -0.458 OA
BRANCH  23  24
ATOM     24  C   UNL A   1      34.193  29.812  27.606  1.00  0.00     0.338 C 
ATOM     25  O   UNL A   1      33.437  30.776  27.594  1.00  0.00    -0.246 OA
BRANCH  24  26
ATOM     26  C   UNL A   1      35.562  29.907  28.116  1.00  0.00     0.060 A 
ATOM     27  C   UNL A   1      36.566  30.244  27.210  1.00  0.00     0.016 A 
ATOM     28  C   UNL A   1      35.880  29.486  29.406  1.00  0.00     0.016 A 
ATOM     29  C   UNL A   1      37.899  30.082  27.563  1.00  0.00     0.010 A 
ATOM     30  C   UNL A   1      37.226  29.351  29.768  1.00  0.00     0.010 A 
ATOM     31  C   UNL A   1      38.245  29.590  28.829  1.00  0.00    -0.014 A 
BRANCH  31  32
ATOM     32  C   UNL A   1      39.657  29.205  29.094  1.00  0.00     0.031 A 
ATOM     33  C   UNL A   1      40.579  30.166  29.803  1.00  0.00     0.074 A 
ATOM     34  C   UNL A   1      40.104  27.974  28.776  1.00  0.00     0.049 A 
ATOM     35  N   UNL A   1      41.844  30.024  30.110  1.00  0.00    -0.248 NA
ATOM     36  C   UNL A   1      40.004  31.457  30.210  1.00  0.00     0.031 C 
ATOM     37  C   UNL A   1      39.318  26.933  28.116  1.00  0.00     0.029 A 
ATOM     38  N   UNL A   1      41.329  27.391  28.981  1.00  0.00    -0.354 N 
ATOM     39  C   UNL A   1      42.222  31.215  30.719  1.00  0.00     0.074 A 
ATOM     40  C   UNL A   1      41.057  32.075  30.723  1.00  0.00     0.031 C 
ATOM     41  C   UNL A   1      40.073  25.829  27.990  1.00  0.00     0.029 A 
ATOM     42  C   UNL A   1      41.408  26.100  28.519  1.00  0.00     0.049 A 
ATOM     43  H   UNL A   1      42.081  27.854  29.418  1.00  0.00     0.167 HD
ATOM     44  C   UNL A   1      43.424  31.569  31.234  1.00  0.00     0.031 A 
ATOM     45  C   UNL A   1      42.439  25.233  28.503  1.00  0.00     0.031 A 
ATOM     46  C   UNL A   1      44.583  30.720  31.257  1.00  0.00     0.049 A 
ATOM     47  C   UNL A   1      43.765  25.642  29.076  1.00  0.00     0.074 A 
ATOM     48  C   UNL A   1      45.847  30.996  31.747  1.00  0.00     0.029 A 
ATOM     49  N   UNL A   1      44.616  29.421  30.774  1.00  0.00    -0.354 N 
ATOM     50  N   UNL A   1      44.107  26.783  29.624  1.00  0.00    -0.248 NA
ATOM     51  C   UNL A   1      44.843  24.645  29.030  1.00  0.00     0.031 C 
ATOM     52  C   UNL A   1      46.656  29.873  31.531  1.00  0.00     0.029 A 
ATOM     53  C   UNL A   1      45.883  28.885  30.942  1.00  0.00     0.049 A 
ATOM     54  H   UNL A   1      43.853  28.948  30.371  1.00  0.00     0.167 HD
ATOM     55  C   UNL A   1      45.442  26.642  29.985  1.00  0.00     0.074 A 
ATOM     56  C   UNL A   1      45.836  25.297  29.620  1.00  0.00     0.031 C 
ATOM     57  C   UNL A   1      46.268  27.551  30.563  1.00  0.00     0.031 A 
BRANCH  44  58
ATOM     58  C   UNL A   1      43.548  32.972  31.760  1.00  0.00    -0.014 A 
ATOM     59  C   UNL A   1      43.933  34.039  30.929  1.00  0.00     0.010 A 
ATOM     60  C   UNL A   1      43.300  33.218  33.124  1.00  0.00     0.010 A 
ATOM     61  C   UNL A   1      44.123  35.317  31.464  1.00  0.00     0.020 A 
ATOM     62  C   UNL A   1      43.469  34.496  33.658  1.00  0.00     0.020 A 
ATOM     63  C   UNL A   1      43.905  35.533  32.829  1.00  0.00     0.054 A 
BRANCH  63  64
ATOM     64  S   UNL A   1      44.187  37.188  33.517  1.00  0.00     0.124 S 
ATOM     65  O   UNL A   1      43.996  38.036  32.343  1.00  0.00    -0.237 OA
ATOM     66  O   UNL A   1      43.153  37.296  34.543  1.00  0.00    -0.237 OA
ATOM     67  O   UNL A   1      45.556  37.122  34.022  1.00  0.00    -0.744 OA
ENDBRANCH  63  64
ENDBRANCH  44  58
BRANCH  45  68
ATOM     68  C   UNL A   1      42.243  23.890  27.897  1.00  0.00    -0.014 A 
ATOM     69  C   UNL A   1      42.467  23.685  26.525  1.00  0.00     0.010 A 
ATOM     70  C   UNL A   1      41.894  22.797  28.710  1.00  0.00     0.010 A 
ATOM     71  C   UNL A   1      42.359  22.402  25.979  1.00  0.00     0.020 A 
ATOM     72  C   UNL A   1      41.806  21.512  28.172  1.00  0.00     0.020 A 
ATOM     73  C   UNL A   1      42.037  21.323  26.808  1.00  0.00     0.054 A 
BRANCH  73  74
ATOM     74  S   UNL A   1      42.013  19.649  26.108  1.00  0.00     0.124 S 
ATOM     75  O   UNL A   1      42.473  18.842  27.233  1.00  0.00    -0.237 OA
ATOM     76  O   UNL A   1      40.611  19.476  25.736  1.00  0.00    -0.237 OA
ATOM     77  O   UNL A   1      42.939  19.743  24.980  1.00  0.00    -0.744 OA
ENDBRANCH  73  74
ENDBRANCH  45  68
BRANCH  57  78
ATOM     78  C   UNL A   1      47.679  27.114  30.839  1.00  0.00    -0.014 A 
ATOM     79  C   UNL A   1      48.717  27.413  29.939  1.00  0.00     0.010 A 
ATOM     80  C   UNL A   1      47.977  26.425  32.029  1.00  0.00     0.010 A 
ATOM     81  C   UNL A   1      50.025  26.997  30.205  1.00  0.00     0.020 A 
ATOM     82  C   UNL A   1      49.286  26.023  32.307  1.00  0.00     0.020 A 
ATOM     83  C   UNL A   1      50.298  26.298  31.385  1.00  0.00     0.054 A 
BRANCH  83  84
ATOM     84  S   UNL A   1      52.005  25.783  31.725  1.00  0.00     0.124 S 
ATOM     85  O   UNL A   1      51.829  24.384  32.106  1.00  0.00    -0.237 OA
ATOM     86  O   UNL A   1      52.676  26.006  30.447  1.00  0.00    -0.237 OA
ATOM     87  O   UNL A   1      52.425  26.676  32.804  1.00  0.00    -0.744 OA
ENDBRANCH  83  84
ENDBRANCH  57  78
ENDBRANCH  31  32
ENDBRANCH  24  26
ENDBRANCH  23  24
ENDBRANCH  22  23
ENDBRANCH   1  22
TORSDOF 19
ENDMDL
MODEL 3
REMARK VINA RESULT:      -8.9      4.827     11.324
REMARK SMILES CSc1ccc(Cl)c(C(=O)N[C@@H](CO)C(=O)OCCOC(=O)c2ccc(-c3c4nc(c(-c5ccc(S(=O)(=O)[O-])cc5)c5ccc([nH]5)c(-c5ccc(S(=O)(=O)[O-])cc5)c5nc(c(-c6ccc(S(=O)(=O)[O-])cc6)c6ccc3[nH]6)C=C5)C=C4)cc2)c1
REMARK SMILES IDX 18 1 17 2 15 3 16 4 12 5 11 6 9 7 10 8 8 10 3 11 4 12 83 13
REMARK SMILES IDX 5 14 6 15 7 16 2 17 1 18 13 19 14 20 19 22 20 23 21 24 22 25
REMARK SMILES IDX 23 26 24 27 82 28 25 29 81 30 26 31 27 32 28 33 75 34 29 35
REMARK SMILES IDX 80 36 74 37 76 38 30 39 79 40 73 41 72 42 31 44 61 45 42 46
REMARK SMILES IDX 60 47 43 48 46 49 59 50 77 51 44 52 45 53 58 55 78 56 47 57
REMARK SMILES IDX 32 58 33 59 41 60 34 61 40 62 35 63 36 64 37 65 38 66 39 67
REMARK SMILES IDX 62 68 63 69 71 70 64 71 70 72 65 73 66 74 67 75 68 76 69 77
REMARK SMILES IDX 48 78 49 79 57 80 50 81 56 82 51 83 52 84 53 85 54 86 55 87
REMARK H PARENT 11 9 14 21 76 43 46 54
REMARK Flexibility Score: inf
ROOT
ATOM      1  C   UNL A   1      38.374  21.077  25.475  1.00  0.00     0.274 C 
ENDROOT
BRANCH   1   2
ATOM      2  O   UNL A   1      37.886  22.247  24.790  1.00  0.00    -0.460 OA
BRANCH   2   3
ATOM      3  C   UNL A   1      36.666  22.700  25.193  1.00  0.00     0.331 C 
ATOM      4  O   UNL A   1      36.483  23.466  26.133  1.00  0.00    -0.250 OA
BRANCH   3   5
ATOM      5  C   UNL A   1      35.502  22.072  24.413  1.00  0.00     0.218 C 
BRANCH   5   6
ATOM      6  N   UNL A   1      34.213  21.997  25.117  1.00  0.00    -0.337 N 
ATOM      7  C   UNL A   1      33.091  21.226  24.958  1.00  0.00     0.253 C 
ATOM      8  O   UNL A   1      32.080  21.566  25.575  1.00  0.00    -0.269 OA
ATOM      9  H   UNL A   1      34.140  22.638  25.861  1.00  0.00     0.164 HD
BRANCH   7  10
ATOM     10  C   UNL A   1      33.044  19.941  24.210  1.00  0.00     0.059 A 
ATOM     11  C   UNL A   1      33.421  17.522  24.431  1.00  0.00     0.008 A 
ATOM     12  C   UNL A   1      33.029  17.351  23.105  1.00  0.00     0.016 A 
ATOM     13  C   UNL A   1      33.468  18.818  24.959  1.00  0.00     0.030 A 
ATOM     14  C   UNL A   1      32.580  18.443  22.361  1.00  0.00     0.022 A 
ATOM     15  C   UNL A   1      32.531  19.725  22.929  1.00  0.00     0.053 A 
ATOM     16  Cl  UNL A   1      31.686  20.914  22.017  1.00  0.00    -0.083 Cl
BRANCH  11  17
ATOM     17  S   UNL A   1      33.838  16.067  25.369  1.00  0.00    -0.130 SA
ATOM     18  C   UNL A   1      32.211  15.314  25.635  1.00  0.00     0.091 C 
ENDBRANCH  11  17
ENDBRANCH   7  10
ENDBRANCH   5   6
BRANCH   5  19
ATOM     19  C   UNL A   1      35.337  22.938  23.149  1.00  0.00     0.193 C 
BRANCH  19  20
ATOM     20  O   UNL A   1      36.543  22.950  22.372  1.00  0.00    -0.394 OA
ATOM     21  H   UNL A   1      36.383  23.412  21.535  1.00  0.00     0.210 HD
ENDBRANCH  19  20
ENDBRANCH   5  19
ENDBRANCH   3   5
ENDBRANCH   2   3
ENDBRANCH   1   2
BRANCH   1  22
ATOM     22  C   UNL A   1      39.582  21.400  26.357  1.00  0.00     0.275 C 
BRANCH  22  23
ATOM     23  O   UNL A   1      40.150  20.208  26.926  1.00  0.00    -0.458 OA
BRANCH  23  24
ATOM     24  C   UNL A   1      41.341  19.860  26.392  1.00  0.00     0.338 C 
ATOM     25  O   UNL A   1      41.612  18.828  25.790  1.00  0.00    -0.246 OA
BRANCH  24  26
ATOM     26  C   UNL A   1      42.296  20.964  26.509  1.00  0.00     0.060 A 
ATOM     27  C   UNL A   1      42.579  21.439  27.789  1.00  0.00     0.016 A 
ATOM     28  C   UNL A   1      42.754  21.643  25.381  1.00  0.00     0.016 A 
ATOM     29  C   UNL A   1      43.251  22.644  27.947  1.00  0.00     0.010 A 
ATOM     30  C   UNL A   1      43.457  22.842  25.545  1.00  0.00     0.010 A 
ATOM     31  C   UNL A   1      43.657  23.383  26.827  1.00  0.00    -0.014 A 
BRANCH  31  32
ATOM     32  C   UNL A   1      44.159  24.770  27.021  1.00  0.00     0.031 A 
ATOM     33  C   UNL A   1      43.219  25.851  27.496  1.00  0.00     0.074 A 
ATOM     34  C   UNL A   1      45.464  25.057  26.852  1.00  0.00     0.049 A 
ATOM     35  N   UNL A   1      43.461  27.121  27.707  1.00  0.00    -0.248 NA
ATOM     36  C   UNL A   1      41.828  25.452  27.756  1.00  0.00     0.031 C 
ATOM     37  C   UNL A   1      46.491  24.107  26.425  1.00  0.00     0.029 A 
ATOM     38  N   UNL A   1      46.148  26.233  27.032  1.00  0.00    -0.354 N 
ATOM     39  C   UNL A   1      42.247  27.676  28.097  1.00  0.00     0.074 A 
ATOM     40  C   UNL A   1      41.268  26.610  28.076  1.00  0.00     0.031 C 
ATOM     41  C   UNL A   1      47.680  24.731  26.399  1.00  0.00     0.029 A 
ATOM     42  C   UNL A   1      47.491  26.134  26.762  1.00  0.00     0.049 A 
ATOM     43  H   UNL A   1      45.718  27.068  27.327  1.00  0.00     0.167 HD
ATOM     44  C   UNL A   1      41.964  28.955  28.445  1.00  0.00     0.031 A 
ATOM     45  C   UNL A   1      48.463  27.066  26.784  1.00  0.00     0.031 A 
ATOM     46  C   UNL A   1      42.928  30.020  28.492  1.00  0.00     0.049 A 
ATOM     47  C   UNL A   1      48.133  28.479  27.170  1.00  0.00     0.074 A 
ATOM     48  C   UNL A   1      42.731  31.349  28.822  1.00  0.00     0.029 A 
ATOM     49  N   UNL A   1      44.276  29.874  28.207  1.00  0.00    -0.354 N 
ATOM     50  N   UNL A   1      46.973  28.988  27.511  1.00  0.00    -0.248 NA
ATOM     51  C   UNL A   1      49.242  29.442  27.178  1.00  0.00     0.031 C 
ATOM     52  C   UNL A   1      43.957  32.015  28.705  1.00  0.00     0.029 A 
ATOM     53  C   UNL A   1      44.924  31.091  28.340  1.00  0.00     0.049 A 
ATOM     54  H   UNL A   1      44.711  29.030  27.947  1.00  0.00     0.167 HD
ATOM     55  C   UNL A   1      47.213  30.332  27.769  1.00  0.00     0.074 A 
ATOM     56  C   UNL A   1      48.631  30.551  27.575  1.00  0.00     0.031 C 
ATOM     57  C   UNL A   1      46.333  31.300  28.130  1.00  0.00     0.031 A 
BRANCH  44  58
ATOM     58  C   UNL A   1      40.524  29.271  28.744  1.00  0.00    -0.014 A 
ATOM     59  C   UNL A   1      39.582  29.451  27.717  1.00  0.00     0.010 A 
ATOM     60  C   UNL A   1      40.119  29.419  30.084  1.00  0.00     0.010 A 
ATOM     61  C   UNL A   1      38.270  29.829  28.022  1.00  0.00     0.020 A 
ATOM     62  C   UNL A   1      38.805  29.777  30.393  1.00  0.00     0.020 A 
ATOM     63  C   UNL A   1      37.895  30.005  29.358  1.00  0.00     0.054 A 
BRANCH  63  64
ATOM     64  S   UNL A   1      36.200  30.528  29.738  1.00  0.00     0.124 S 
ATOM     65  O   UNL A   1      36.314  31.983  29.674  1.00  0.00    -0.237 OA
ATOM     66  O   UNL A   1      35.420  29.913  28.667  1.00  0.00    -0.237 OA
ATOM     67  O   UNL A   1      35.961  29.979  31.071  1.00  0.00    -0.744 OA
ENDBRANCH  63  64
ENDBRANCH  44  58
BRANCH  45  68
ATOM     68  C   UNL A   1      49.846  26.677  26.403  1.00  0.00    -0.014 A 
ATOM     69  C   UNL A   1      50.704  26.075  27.339  1.00  0.00     0.010 A 
ATOM     70  C   UNL A   1      50.285  26.850  25.078  1.00  0.00     0.010 A 
ATOM     71  C   UNL A   1      51.974  25.638  26.951  1.00  0.00     0.020 A 
ATOM     72  C   UNL A   1      51.544  26.397  24.683  1.00  0.00     0.020 A 
ATOM     73  C   UNL A   1      52.383  25.795  25.623  1.00  0.00     0.054 A 
BRANCH  73  74
ATOM     74  S   UNL A   1      53.987  25.121  25.109  1.00  0.00     0.124 S 
ATOM     75  O   UNL A   1      53.681  23.704  24.941  1.00  0.00    -0.237 OA
ATOM     76  O   UNL A   1      54.266  25.859  23.879  1.00  0.00    -0.237 OA
ATOM     77  O   UNL A   1      54.865  25.447  26.231  1.00  0.00    -0.744 OA
ENDBRANCH  73  74
ENDBRANCH  45  68
BRANCH  57  78
ATOM     78  C   UNL A   1      46.884  32.682  28.343  1.00  0.00    -0.014 A 
ATOM     79  C   UNL A   1      47.390  33.072  29.595  1.00  0.00     0.010 A 
ATOM     80  C   UNL A   1      46.926  33.590  27.270  1.00  0.00     0.010 A 
ATOM     81  C   UNL A   1      47.895  34.362  29.782  1.00  0.00     0.020 A 
ATOM     82  C   UNL A   1      47.447  34.875  27.448  1.00  0.00     0.020 A 
ATOM     83  C   UNL A   1      47.912  35.258  28.708  1.00  0.00     0.054 A 
BRANCH  83  84
ATOM     84  S   UNL A   1      48.591  36.922  28.962  1.00  0.00     0.124 S 
ATOM     85  O   UNL A   1      49.780  36.644  29.765  1.00  0.00    -0.237 OA
ATOM     86  O   UNL A   1      48.847  37.381  27.599  1.00  0.00    -0.237 OA
ATOM     87  O   UNL A   1      47.518  37.628  29.659  1.00  0.00    -0.744 OA
ENDBRANCH  83  84
ENDBRANCH  57  78
ENDBRANCH  31  32
ENDBRANCH  24  26
ENDBRANCH  23  24
ENDBRANCH  22  23
ENDBRANCH   1  22
TORSDOF 19
ENDMDL
