MODEL 1
REMARK VINA RESULT:      -9.0      0.000      0.000
REMARK SMILES C[C@@H](C(=O)OCCOC(=O)c1ccc(-c2c3nc(c(-c4ccc(S(=O)(=O)[O-])cc4)c4ccc([nH]4)c(-c4ccc(S(=O)(=O)[O-])cc4)c4nc(c(-c5ccc(S(=O)(=O)[O-])cc5)c5ccc2[nH]5)C=C4)C=C3)cc1)c1ccc(-c2ccc3[nH]ccc3c2)cc1
REMARK SMILES IDX 7 1 6 2 5 3 3 4 4 5 2 6 1 7 71 8 72 9 85 10 73 11 84 12
REMARK SMILES IDX 74 13 75 14 76 15 83 16 77 17 82 18 78 19 81 20 79 21 80 22
REMARK SMILES IDX 8 24 9 25 10 26 11 27 12 28 70 29 13 30 69 31 14 32 15 33
REMARK SMILES IDX 16 34 63 35 17 36 68 37 62 38 64 39 18 40 67 41 61 42 60 43
REMARK SMILES IDX 19 45 49 46 30 47 48 48 31 49 34 50 47 51 65 52 32 53 33 54
REMARK SMILES IDX 46 56 66 57 35 58 20 59 21 60 29 61 22 62 28 63 23 64 24 65
REMARK SMILES IDX 25 66 26 67 27 68 50 69 51 70 59 71 52 72 58 73 53 74 54 75
REMARK SMILES IDX 55 76 56 77 57 78 36 79 37 80 45 81 38 82 44 83 39 84 40 85
REMARK SMILES IDX 41 86 42 87 43 88
REMARK H PARENT 79 23 64 44 34 55
REMARK Flexibility Score: inf
ROOT
ATOM      1  C   UNL A   1      33.923  32.910  28.926  1.00  0.00     0.275 C 
ENDROOT
BRANCH   1   2
ATOM      2  C   UNL A   1      34.809  34.039  29.443  1.00  0.00     0.274 C 
BRANCH   2   3
ATOM      3  O   UNL A   1      34.957  33.943  30.874  1.00  0.00    -0.462 OA
BRANCH   3   4
ATOM      4  C   UNL A   1      35.968  33.154  31.337  1.00  0.00     0.313 C 
ATOM      5  O   UNL A   1      37.029  32.990  30.744  1.00  0.00    -0.252 OA
BRANCH   4   6
ATOM      6  C   UNL A   1      35.601  32.430  32.640  1.00  0.00     0.126 C 
ATOM      7  C   UNL A   1      34.833  33.307  33.634  1.00  0.00     0.025 C 
BRANCH   6   8
ATOM      8  C   UNL A   1      36.816  31.746  33.262  1.00  0.00    -0.034 A 
ATOM      9  C   UNL A   1      37.054  30.390  32.989  1.00  0.00     0.005 A 
ATOM     10  C   UNL A   1      37.753  32.427  34.050  1.00  0.00     0.005 A 
ATOM     11  C   UNL A   1      38.210  29.751  33.453  1.00  0.00     0.009 A 
ATOM     12  C   UNL A   1      38.909  31.780  34.517  1.00  0.00     0.009 A 
ATOM     13  C   UNL A   1      39.180  30.439  34.198  1.00  0.00    -0.018 A 
BRANCH  13  14
ATOM     14  C   UNL A   1      40.476  29.809  34.541  1.00  0.00    -0.018 A 
ATOM     15  C   UNL A   1      41.150  30.173  35.722  1.00  0.00     0.011 A 
ATOM     16  C   UNL A   1      41.042  28.794  33.744  1.00  0.00     0.019 A 
ATOM     17  C   UNL A   1      42.335  29.554  36.138  1.00  0.00     0.027 A 
ATOM     18  C   UNL A   1      42.233  28.144  34.143  1.00  0.00    -0.000 A 
ATOM     19  C   UNL A   1      42.838  28.527  35.339  1.00  0.00     0.045 A 
ATOM     20  C   UNL A   1      43.026  27.099  33.593  1.00  0.00     0.028 A 
ATOM     21  N   UNL A   1      43.918  27.695  35.537  1.00  0.00    -0.361 N 
ATOM     22  C   UNL A   1      44.061  26.853  34.467  1.00  0.00     0.083 A 
ATOM     23  H   UNL A   1      44.501  27.705  36.330  1.00  0.00     0.166 HD
ENDBRANCH  13  14
ENDBRANCH   6   8
ENDBRANCH   4   6
ENDBRANCH   3   4
ENDBRANCH   2   3
ENDBRANCH   1   2
BRANCH   1  24
ATOM     24  O   UNL A   1      34.580  32.249  27.832  1.00  0.00    -0.458 OA
BRANCH  24  25
ATOM     25  C   UNL A   1      34.405  30.913  27.754  1.00  0.00     0.338 C 
ATOM     26  O   UNL A   1      33.369  30.314  27.493  1.00  0.00    -0.246 OA
BRANCH  25  27
ATOM     27  C   UNL A   1      35.678  30.231  28.032  1.00  0.00     0.060 A 
ATOM     28  C   UNL A   1      35.913  29.689  29.293  1.00  0.00     0.016 A 
ATOM     29  C   UNL A   1      36.692  30.240  27.072  1.00  0.00     0.016 A 
ATOM     30  C   UNL A   1      37.193  29.248  29.625  1.00  0.00     0.010 A 
ATOM     31  C   UNL A   1      37.951  29.715  27.386  1.00  0.00     0.010 A 
ATOM     32  C   UNL A   1      38.236  29.260  28.685  1.00  0.00    -0.014 A 
BRANCH  32  33
ATOM     33  C   UNL A   1      39.622  28.867  29.082  1.00  0.00     0.031 A 
ATOM     34  C   UNL A   1      40.438  29.752  29.998  1.00  0.00     0.074 A 
ATOM     35  C   UNL A   1      40.154  27.699  28.666  1.00  0.00     0.049 A 
ATOM     36  N   UNL A   1      41.708  29.672  30.310  1.00  0.00    -0.248 NA
ATOM     37  C   UNL A   1      39.745  30.894  30.617  1.00  0.00     0.031 C 
ATOM     38  C   UNL A   1      39.476  26.703  27.834  1.00  0.00     0.029 A 
ATOM     39  N   UNL A   1      41.377  27.128  28.930  1.00  0.00    -0.354 N 
ATOM     40  C   UNL A   1      41.978  30.787  31.097  1.00  0.00     0.074 A 
ATOM     41  C   UNL A   1      40.742  31.528  31.217  1.00  0.00     0.031 C 
ATOM     42  C   UNL A   1      40.246  25.609  27.743  1.00  0.00     0.029 A 
ATOM     43  C   UNL A   1      41.513  25.858  28.423  1.00  0.00     0.049 A 
ATOM     44  H   UNL A   1      42.088  27.586  29.434  1.00  0.00     0.167 HD
ATOM     45  C   UNL A   1      43.153  31.166  31.660  1.00  0.00     0.031 A 
ATOM     46  C   UNL A   1      42.539  24.985  28.485  1.00  0.00     0.031 A 
ATOM     47  C   UNL A   1      44.360  30.382  31.621  1.00  0.00     0.049 A 
ATOM     48  C   UNL A   1      43.818  25.399  29.152  1.00  0.00     0.074 A 
ATOM     49  C   UNL A   1      45.606  30.690  32.140  1.00  0.00     0.029 A 
ATOM     50  N   UNL A   1      44.457  29.115  31.070  1.00  0.00    -0.354 N 
ATOM     51  N   UNL A   1      44.078  26.493  29.825  1.00  0.00    -0.248 NA
ATOM     52  C   UNL A   1      44.951  24.469  29.046  1.00  0.00     0.031 C 
ATOM     53  C   UNL A   1      46.465  29.616  31.879  1.00  0.00     0.029 A 
ATOM     54  C   UNL A   1      45.744  28.627  31.232  1.00  0.00     0.049 A 
ATOM     55  H   UNL A   1      43.722  28.633  30.629  1.00  0.00     0.167 HD
ATOM     56  C   UNL A   1      45.420  26.410  30.174  1.00  0.00     0.074 A 
ATOM     57  C   UNL A   1      45.893  25.119  29.716  1.00  0.00     0.031 C 
ATOM     58  C   UNL A   1      46.197  27.335  30.788  1.00  0.00     0.031 A 
BRANCH  45  59
ATOM     59  C   UNL A   1      43.208  32.518  32.320  1.00  0.00    -0.014 A 
ATOM     60  C   UNL A   1      43.569  33.677  31.613  1.00  0.00     0.010 A 
ATOM     61  C   UNL A   1      42.843  32.629  33.677  1.00  0.00     0.010 A 
ATOM     62  C   UNL A   1      43.597  34.918  32.260  1.00  0.00     0.020 A 
ATOM     63  C   UNL A   1      42.848  33.869  34.319  1.00  0.00     0.020 A 
ATOM     64  C   UNL A   1      43.242  35.005  33.610  1.00  0.00     0.054 A 
BRANCH  64  65
ATOM     65  S   UNL A   1      43.264  36.627  34.424  1.00  0.00     0.124 S 
ATOM     66  O   UNL A   1      41.988  36.625  35.134  1.00  0.00    -0.237 OA
ATOM     67  O   UNL A   1      44.453  36.550  35.269  1.00  0.00    -0.237 OA
ATOM     68  O   UNL A   1      43.356  37.570  33.312  1.00  0.00    -0.744 OA
ENDBRANCH  64  65
ENDBRANCH  45  59
BRANCH  46  69
ATOM     69  C   UNL A   1      42.402  23.640  27.866  1.00  0.00    -0.014 A 
ATOM     70  C   UNL A   1      42.739  23.444  26.516  1.00  0.00     0.010 A 
ATOM     71  C   UNL A   1      41.976  22.540  28.634  1.00  0.00     0.010 A 
ATOM     72  C   UNL A   1      42.663  22.169  25.947  1.00  0.00     0.020 A 
ATOM     73  C   UNL A   1      41.927  21.260  28.076  1.00  0.00     0.020 A 
ATOM     74  C   UNL A   1      42.266  21.085  26.734  1.00  0.00     0.054 A 
BRANCH  74  75
ATOM     75  S   UNL A   1      42.270  19.419  26.013  1.00  0.00     0.124 S 
ATOM     76  O   UNL A   1      40.861  19.225  25.693  1.00  0.00    -0.237 OA
ATOM     77  O   UNL A   1      43.166  19.566  24.869  1.00  0.00    -0.237 OA
ATOM     78  O   UNL A   1      42.791  18.586  27.096  1.00  0.00    -0.744 OA
ENDBRANCH  74  75
ENDBRANCH  46  69
BRANCH  58  79
ATOM     79  C   UNL A   1      47.639  26.977  31.014  1.00  0.00    -0.014 A 
ATOM     80  C   UNL A   1      48.022  26.199  32.121  1.00  0.00     0.010 A 
ATOM     81  C   UNL A   1      48.616  27.388  30.091  1.00  0.00     0.010 A 
ATOM     82  C   UNL A   1      49.364  25.868  32.321  1.00  0.00     0.020 A 
ATOM     83  C   UNL A   1      49.958  27.043  30.279  1.00  0.00     0.020 A 
ATOM     84  C   UNL A   1      50.325  26.298  31.401  1.00  0.00     0.054 A 
BRANCH  84  85
ATOM     85  S   UNL A   1      52.060  25.839  31.667  1.00  0.00     0.124 S 
ATOM     86  O   UNL A   1      52.629  26.027  30.336  1.00  0.00    -0.237 OA
ATOM     87  O   UNL A   1      52.498  26.796  32.679  1.00  0.00    -0.237 OA
ATOM     88  O   UNL A   1      51.983  24.452  32.122  1.00  0.00    -0.744 OA
ENDBRANCH  84  85
ENDBRANCH  58  79
ENDBRANCH  32  33
ENDBRANCH  25  27
ENDBRANCH  24  25
ENDBRANCH   1  24
TORSDOF 16
ENDMDL
MODEL 2
REMARK VINA RESULT:      -9.0      4.451     11.927
REMARK SMILES C[C@@H](C(=O)OCCOC(=O)c1ccc(-c2c3nc(c(-c4ccc(S(=O)(=O)[O-])cc4)c4ccc([nH]4)c(-c4ccc(S(=O)(=O)[O-])cc4)c4nc(c(-c5ccc(S(=O)(=O)[O-])cc5)c5ccc2[nH]5)C=C4)C=C3)cc1)c1ccc(-c2ccc3[nH]ccc3c2)cc1
REMARK SMILES IDX 7 1 6 2 5 3 3 4 4 5 2 6 1 7 71 8 72 9 85 10 73 11 84 12
REMARK SMILES IDX 74 13 75 14 76 15 83 16 77 17 82 18 78 19 81 20 79 21 80 22
REMARK SMILES IDX 8 24 9 25 10 26 11 27 12 28 70 29 13 30 69 31 14 32 15 33
REMARK SMILES IDX 16 34 63 35 17 36 68 37 62 38 64 39 18 40 67 41 61 42 60 43
REMARK SMILES IDX 19 45 49 46 30 47 48 48 31 49 34 50 47 51 65 52 32 53 33 54
REMARK SMILES IDX 46 56 66 57 35 58 20 59 21 60 29 61 22 62 28 63 23 64 24 65
REMARK SMILES IDX 25 66 26 67 27 68 50 69 51 70 59 71 52 72 58 73 53 74 54 75
REMARK SMILES IDX 55 76 56 77 57 78 36 79 37 80 45 81 38 82 44 83 39 84 40 85
REMARK SMILES IDX 41 86 42 87 43 88
REMARK H PARENT 79 23 64 44 34 55
REMARK Flexibility Score: inf
ROOT
ATOM      1  C   UNL A   1      39.049  22.301  26.207  1.00  0.00     0.275 C 
ENDROOT
BRANCH   1   2
ATOM      2  C   UNL A   1      37.999  21.912  25.172  1.00  0.00     0.274 C 
BRANCH   2   3
ATOM      3  O   UNL A   1      36.756  21.574  25.822  1.00  0.00    -0.462 OA
BRANCH   3   4
ATOM      4  C   UNL A   1      36.094  20.478  25.353  1.00  0.00     0.313 C 
ATOM      5  O   UNL A   1      36.652  19.512  24.844  1.00  0.00    -0.252 OA
BRANCH   4   6
ATOM      6  C   UNL A   1      34.569  20.622  25.457  1.00  0.00     0.126 C 
ATOM      7  C   UNL A   1      33.799  19.696  24.510  1.00  0.00     0.025 C 
BRANCH   6   8
ATOM      8  C   UNL A   1      34.136  22.082  25.349  1.00  0.00    -0.034 A 
ATOM      9  C   UNL A   1      33.629  22.733  26.483  1.00  0.00     0.005 A 
ATOM     10  C   UNL A   1      34.281  22.834  24.175  1.00  0.00     0.005 A 
ATOM     11  C   UNL A   1      33.317  24.097  26.456  1.00  0.00     0.009 A 
ATOM     12  C   UNL A   1      33.962  24.201  24.151  1.00  0.00     0.009 A 
ATOM     13  C   UNL A   1      33.508  24.870  25.299  1.00  0.00    -0.018 A 
BRANCH  13  14
ATOM     14  C   UNL A   1      33.340  26.342  25.322  1.00  0.00    -0.018 A 
ATOM     15  C   UNL A   1      33.714  27.114  24.207  1.00  0.00     0.011 A 
ATOM     16  C   UNL A   1      32.751  27.005  26.416  1.00  0.00     0.019 A 
ATOM     17  C   UNL A   1      33.503  28.497  24.139  1.00  0.00     0.027 A 
ATOM     18  C   UNL A   1      32.517  28.399  26.374  1.00  0.00    -0.000 A 
ATOM     19  C   UNL A   1      32.881  29.106  25.229  1.00  0.00     0.045 A 
ATOM     20  C   UNL A   1      31.940  29.338  27.274  1.00  0.00     0.028 A 
ATOM     21  N   UNL A   1      32.475  30.410  25.406  1.00  0.00    -0.361 N 
ATOM     22  C   UNL A   1      31.938  30.567  26.656  1.00  0.00     0.083 A 
ATOM     23  H   UNL A   1      32.557  31.124  24.733  1.00  0.00     0.166 HD
ENDBRANCH  13  14
ENDBRANCH   6   8
ENDBRANCH   4   6
ENDBRANCH   3   4
ENDBRANCH   2   3
ENDBRANCH   1   2
BRANCH   1  24
ATOM     24  O   UNL A   1      39.039  23.727  26.386  1.00  0.00    -0.458 OA
BRANCH  24  25
ATOM     25  C   UNL A   1      40.219  24.292  26.718  1.00  0.00     0.338 C 
ATOM     26  O   UNL A   1      41.337  23.942  26.359  1.00  0.00    -0.246 OA
BRANCH  25  27
ATOM     27  C   UNL A   1      39.984  25.441  27.605  1.00  0.00     0.060 A 
ATOM     28  C   UNL A   1      40.678  26.630  27.397  1.00  0.00     0.016 A 
ATOM     29  C   UNL A   1      39.163  25.294  28.725  1.00  0.00     0.016 A 
ATOM     30  C   UNL A   1      40.628  27.634  28.363  1.00  0.00     0.010 A 
ATOM     31  C   UNL A   1      39.050  26.342  29.646  1.00  0.00     0.010 A 
ATOM     32  C   UNL A   1      39.823  27.508  29.506  1.00  0.00    -0.014 A 
BRANCH  32  33
ATOM     33  C   UNL A   1      39.848  28.553  30.574  1.00  0.00     0.031 A 
ATOM     34  C   UNL A   1      40.934  28.550  31.627  1.00  0.00     0.074 A 
ATOM     35  C   UNL A   1      38.930  29.542  30.593  1.00  0.00     0.049 A 
ATOM     36  N   UNL A   1      41.024  29.258  32.725  1.00  0.00    -0.248 NA
ATOM     37  C   UNL A   1      42.045  27.602  31.437  1.00  0.00     0.031 C 
ATOM     38  C   UNL A   1      37.857  29.727  29.614  1.00  0.00     0.029 A 
ATOM     39  N   UNL A   1      38.783  30.610  31.447  1.00  0.00    -0.354 N 
ATOM     40  C   UNL A   1      42.155  28.793  33.387  1.00  0.00     0.074 A 
ATOM     41  C   UNL A   1      42.721  27.742  32.570  1.00  0.00     0.031 C 
ATOM     42  C   UNL A   1      37.233  30.888  29.860  1.00  0.00     0.029 A 
ATOM     43  C   UNL A   1      37.791  31.484  31.070  1.00  0.00     0.049 A 
ATOM     44  H   UNL A   1      39.335  30.737  32.251  1.00  0.00     0.167 HD
ATOM     45  C   UNL A   1      42.671  29.195  34.575  1.00  0.00     0.031 A 
ATOM     46  C   UNL A   1      37.363  32.633  31.631  1.00  0.00     0.031 A 
ATOM     47  C   UNL A   1      42.166  30.303  35.344  1.00  0.00     0.049 A 
ATOM     48  C   UNL A   1      37.974  33.093  32.922  1.00  0.00     0.074 A 
ATOM     49  C   UNL A   1      42.604  30.774  36.570  1.00  0.00     0.029 A 
ATOM     50  N   UNL A   1      41.140  31.140  34.937  1.00  0.00    -0.354 N 
ATOM     51  N   UNL A   1      38.995  32.592  33.574  1.00  0.00    -0.248 NA
ATOM     52  C   UNL A   1      37.357  34.261  33.567  1.00  0.00     0.031 C 
ATOM     53  C   UNL A   1      41.823  31.883  36.916  1.00  0.00     0.029 A 
ATOM     54  C   UNL A   1      40.926  32.123  35.889  1.00  0.00     0.049 A 
ATOM     55  H   UNL A   1      40.637  31.049  34.096  1.00  0.00     0.167 HD
ATOM     56  C   UNL A   1      39.108  33.349  34.734  1.00  0.00     0.074 A 
ATOM     57  C   UNL A   1      38.109  34.395  34.652  1.00  0.00     0.031 C 
ATOM     58  C   UNL A   1      39.942  33.169  35.787  1.00  0.00     0.031 A 
BRANCH  45  59
ATOM     59  C   UNL A   1      43.811  28.398  35.150  1.00  0.00    -0.014 A 
ATOM     60  C   UNL A   1      45.153  28.755  34.934  1.00  0.00     0.010 A 
ATOM     61  C   UNL A   1      43.522  27.285  35.966  1.00  0.00     0.010 A 
ATOM     62  C   UNL A   1      46.185  27.994  35.495  1.00  0.00     0.020 A 
ATOM     63  C   UNL A   1      44.549  26.538  36.547  1.00  0.00     0.020 A 
ATOM     64  C   UNL A   1      45.876  26.887  36.293  1.00  0.00     0.054 A 
BRANCH  64  65
ATOM     65  S   UNL A   1      47.230  25.928  37.029  1.00  0.00     0.124 S 
ATOM     66  O   UNL A   1      47.624  25.064  35.920  1.00  0.00    -0.237 OA
ATOM     67  O   UNL A   1      48.196  26.960  37.396  1.00  0.00    -0.237 OA
ATOM     68  O   UNL A   1      46.597  25.245  38.155  1.00  0.00    -0.744 OA
ENDBRANCH  64  65
ENDBRANCH  45  59
BRANCH  46  69
ATOM     69  C   UNL A   1      36.273  33.409  30.983  1.00  0.00    -0.014 A 
ATOM     70  C   UNL A   1      35.093  33.698  31.689  1.00  0.00     0.010 A 
ATOM     71  C   UNL A   1      36.428  33.901  29.673  1.00  0.00     0.010 A 
ATOM     72  C   UNL A   1      34.090  34.475  31.100  1.00  0.00     0.020 A 
ATOM     73  C   UNL A   1      35.441  34.701  29.094  1.00  0.00     0.020 A 
ATOM     74  C   UNL A   1      34.275  34.978  29.810  1.00  0.00     0.054 A 
BRANCH  74  75
ATOM     75  S   UNL A   1      33.013  36.070  29.095  1.00  0.00     0.124 S 
ATOM     76  O   UNL A   1      32.277  35.155  28.231  1.00  0.00    -0.237 OA
ATOM     77  O   UNL A   1      32.294  36.545  30.275  1.00  0.00    -0.237 OA
ATOM     78  O   UNL A   1      33.803  37.090  28.407  1.00  0.00    -0.744 OA
ENDBRANCH  74  75
ENDBRANCH  46  69
BRANCH  58  79
ATOM     79  C   UNL A   1      39.820  34.137  36.930  1.00  0.00    -0.014 A 
ATOM     80  C   UNL A   1      39.091  33.798  38.084  1.00  0.00     0.010 A 
ATOM     81  C   UNL A   1      40.470  35.381  36.868  1.00  0.00     0.010 A 
ATOM     82  C   UNL A   1      38.986  34.703  39.143  1.00  0.00     0.020 A 
ATOM     83  C   UNL A   1      40.383  36.281  37.934  1.00  0.00     0.020 A 
ATOM     84  C   UNL A   1      39.627  35.942  39.059  1.00  0.00     0.054 A 
BRANCH  84  85
ATOM     85  S   UNL A   1      39.498  37.094  40.454  1.00  0.00     0.124 S 
ATOM     86  O   UNL A   1      38.504  36.436  41.297  1.00  0.00    -0.237 OA
ATOM     87  O   UNL A   1      40.858  37.114  40.985  1.00  0.00    -0.237 OA
ATOM     88  O   UNL A   1      39.060  38.341  39.831  1.00  0.00    -0.744 OA
ENDBRANCH  84  85
ENDBRANCH  58  79
ENDBRANCH  32  33
ENDBRANCH  25  27
ENDBRANCH  24  25
ENDBRANCH   1  24
TORSDOF 16
ENDMDL
MODEL 3
REMARK VINA RESULT:      -8.9      4.783     10.857
REMARK SMILES C[C@@H](C(=O)OCCOC(=O)c1ccc(-c2c3nc(c(-c4ccc(S(=O)(=O)[O-])cc4)c4ccc([nH]4)c(-c4ccc(S(=O)(=O)[O-])cc4)c4nc(c(-c5ccc(S(=O)(=O)[O-])cc5)c5ccc2[nH]5)C=C4)C=C3)cc1)c1ccc(-c2ccc3[nH]ccc3c2)cc1
REMARK SMILES IDX 7 1 6 2 5 3 3 4 4 5 2 6 1 7 71 8 72 9 85 10 73 11 84 12
REMARK SMILES IDX 74 13 75 14 76 15 83 16 77 17 82 18 78 19 81 20 79 21 80 22
REMARK SMILES IDX 8 24 9 25 10 26 11 27 12 28 70 29 13 30 69 31 14 32 15 33
REMARK SMILES IDX 16 34 63 35 17 36 68 37 62 38 64 39 18 40 67 41 61 42 60 43
REMARK SMILES IDX 19 45 49 46 30 47 48 48 31 49 34 50 47 51 65 52 32 53 33 54
REMARK SMILES IDX 46 56 66 57 35 58 20 59 21 60 29 61 22 62 28 63 23 64 24 65
REMARK SMILES IDX 25 66 26 67 27 68 50 69 51 70 59 71 52 72 58 73 53 74 54 75
REMARK SMILES IDX 55 76 56 77 57 78 36 79 37 80 45 81 38 82 44 83 39 84 40 85
REMARK SMILES IDX 41 86 42 87 43 88
REMARK H PARENT 79 23 64 44 34 55
REMARK Flexibility Score: inf
ROOT
ATOM      1  C   UNL A   1      34.834  30.812  28.348  1.00  0.00     0.275 C 
ENDROOT
BRANCH   1   2
ATOM      2  C   UNL A   1      33.859  30.609  27.194  1.00  0.00     0.274 C 
BRANCH   2   3
ATOM      3  O   UNL A   1      34.258  29.477  26.394  1.00  0.00    -0.462 OA
BRANCH   3   4
ATOM      4  C   UNL A   1      33.306  28.928  25.586  1.00  0.00     0.313 C 
ATOM      5  O   UNL A   1      32.110  28.921  25.852  1.00  0.00    -0.252 OA
BRANCH   4   6
ATOM      6  C   UNL A   1      33.907  28.248  24.348  1.00  0.00     0.126 C 
ATOM      7  C   UNL A   1      33.349  28.779  23.024  1.00  0.00     0.025 C 
BRANCH   6   8
ATOM      8  C   UNL A   1      33.840  26.726  24.457  1.00  0.00    -0.034 A 
ATOM      9  C   UNL A   1      33.595  25.966  23.304  1.00  0.00     0.005 A 
ATOM     10  C   UNL A   1      34.078  26.038  25.654  1.00  0.00     0.005 A 
ATOM     11  C   UNL A   1      33.629  24.567  23.338  1.00  0.00     0.009 A 
ATOM     12  C   UNL A   1      34.106  24.634  25.685  1.00  0.00     0.009 A 
ATOM     13  C   UNL A   1      33.918  23.870  24.522  1.00  0.00    -0.018 A 
BRANCH  13  14
ATOM     14  C   UNL A   1      34.121  22.402  24.519  1.00  0.00    -0.018 A 
ATOM     15  C   UNL A   1      35.331  21.853  24.984  1.00  0.00     0.011 A 
ATOM     16  C   UNL A   1      33.104  21.513  24.119  1.00  0.00     0.019 A 
ATOM     17  C   UNL A   1      35.547  20.473  25.081  1.00  0.00     0.027 A 
ATOM     18  C   UNL A   1      33.290  20.114  24.215  1.00  0.00    -0.000 A 
ATOM     19  C   UNL A   1      34.499  19.631  24.712  1.00  0.00     0.045 A 
ATOM     20  C   UNL A   1      32.480  18.982  23.923  1.00  0.00     0.028 A 
ATOM     21  N   UNL A   1      34.395  18.259  24.781  1.00  0.00    -0.361 N 
ATOM     22  C   UNL A   1      33.190  17.855  24.271  1.00  0.00     0.083 A 
ATOM     23  H   UNL A   1      35.084  17.658  25.144  1.00  0.00     0.166 HD
ENDBRANCH  13  14
ENDBRANCH   6   8
ENDBRANCH   4   6
ENDBRANCH   3   4
ENDBRANCH   2   3
ENDBRANCH   1   2
BRANCH   1  24
ATOM     24  O   UNL A   1      35.737  29.696  28.413  1.00  0.00    -0.458 OA
BRANCH  24  25
ATOM     25  C   UNL A   1      36.462  29.583  29.546  1.00  0.00     0.338 C 
ATOM     26  O   UNL A   1      36.038  29.489  30.692  1.00  0.00    -0.246 OA
BRANCH  25  27
ATOM     27  C   UNL A   1      37.895  29.583  29.218  1.00  0.00     0.060 A 
ATOM     28  C   UNL A   1      38.301  29.669  27.889  1.00  0.00     0.016 A 
ATOM     29  C   UNL A   1      38.836  29.373  30.228  1.00  0.00     0.016 A 
ATOM     30  C   UNL A   1      39.638  29.442  27.562  1.00  0.00     0.010 A 
ATOM     31  C   UNL A   1      40.190  29.233  29.898  1.00  0.00     0.010 A 
ATOM     32  C   UNL A   1      40.603  29.212  28.555  1.00  0.00    -0.014 A 
BRANCH  32  33
ATOM     33  C   UNL A   1      42.013  28.884  28.183  1.00  0.00     0.031 A 
ATOM     34  C   UNL A   1      42.380  27.492  27.719  1.00  0.00     0.074 A 
ATOM     35  C   UNL A   1      42.974  29.831  28.213  1.00  0.00     0.049 A 
ATOM     36  N   UNL A   1      43.566  26.970  27.524  1.00  0.00    -0.248 NA
ATOM     37  C   UNL A   1      41.271  26.554  27.474  1.00  0.00     0.031 C 
ATOM     38  C   UNL A   1      42.772  31.235  28.574  1.00  0.00     0.029 A 
ATOM     39  N   UNL A   1      44.307  29.764  27.888  1.00  0.00    -0.354 N 
ATOM     40  C   UNL A   1      43.348  25.633  27.207  1.00  0.00     0.074 A 
ATOM     41  C   UNL A   1      41.917  25.422  27.234  1.00  0.00     0.031 C 
ATOM     42  C   UNL A   1      43.907  31.914  28.352  1.00  0.00     0.029 A 
ATOM     43  C   UNL A   1      44.947  30.980  27.929  1.00  0.00     0.049 A 
ATOM     44  H   UNL A   1      44.762  28.924  27.648  1.00  0.00     0.167 HD
ATOM     45  C   UNL A   1      44.257  24.666  26.931  1.00  0.00     0.031 A 
ATOM     46  C   UNL A   1      46.225  31.317  27.666  1.00  0.00     0.031 A 
ATOM     47  C   UNL A   1      45.673  24.895  26.811  1.00  0.00     0.049 A 
ATOM     48  C   UNL A   1      47.212  30.243  27.315  1.00  0.00     0.074 A 
ATOM     49  C   UNL A   1      46.678  23.978  26.556  1.00  0.00     0.029 A 
ATOM     50  N   UNL A   1      46.278  26.139  26.890  1.00  0.00    -0.354 N 
ATOM     51  N   UNL A   1      46.998  28.969  27.096  1.00  0.00    -0.248 NA
ATOM     52  C   UNL A   1      48.620  30.650  27.199  1.00  0.00     0.031 C 
ATOM     53  C   UNL A   1      47.896  24.665  26.509  1.00  0.00     0.029 A 
ATOM     54  C   UNL A   1      47.643  26.014  26.694  1.00  0.00     0.049 A 
ATOM     55  H   UNL A   1      45.807  26.986  27.061  1.00  0.00     0.167 HD
ATOM     56  C   UNL A   1      48.250  28.410  26.872  1.00  0.00     0.074 A 
ATOM     57  C   UNL A   1      49.206  29.499  26.894  1.00  0.00     0.031 C 
ATOM     58  C   UNL A   1      48.581  27.107  26.700  1.00  0.00     0.031 A 
BRANCH  45  59
ATOM     59  C   UNL A   1      43.756  23.253  26.794  1.00  0.00    -0.014 A 
ATOM     60  C   UNL A   1      43.061  22.606  27.830  1.00  0.00     0.010 A 
ATOM     61  C   UNL A   1      43.950  22.576  25.573  1.00  0.00     0.010 A 
ATOM     62  C   UNL A   1      42.601  21.296  27.660  1.00  0.00     0.020 A 
ATOM     63  C   UNL A   1      43.470  21.277  25.392  1.00  0.00     0.020 A 
ATOM     64  C   UNL A   1      42.814  20.637  26.444  1.00  0.00     0.054 A 
BRANCH  64  65
ATOM     65  S   UNL A   1      42.188  18.946  26.237  1.00  0.00     0.124 S 
ATOM     66  O   UNL A   1      40.811  19.185  25.813  1.00  0.00    -0.237 OA
ATOM     67  O   UNL A   1      43.073  18.396  25.214  1.00  0.00    -0.237 OA
ATOM     68  O   UNL A   1      42.337  18.357  27.565  1.00  0.00    -0.744 OA
ENDBRANCH  64  65
ENDBRANCH  45  59
BRANCH  46  69
ATOM     69  C   UNL A   1      46.647  32.740  27.759  1.00  0.00    -0.014 A 
ATOM     70  C   UNL A   1      46.594  33.570  26.627  1.00  0.00     0.010 A 
ATOM     71  C   UNL A   1      47.062  33.283  28.990  1.00  0.00     0.010 A 
ATOM     72  C   UNL A   1      46.938  34.922  26.725  1.00  0.00     0.020 A 
ATOM     73  C   UNL A   1      47.378  34.639  29.097  1.00  0.00     0.020 A 
ATOM     74  C   UNL A   1      47.320  35.449  27.962  1.00  0.00     0.054 A 
BRANCH  74  75
ATOM     75  S   UNL A   1      47.665  37.226  28.100  1.00  0.00     0.124 S 
ATOM     76  O   UNL A   1      47.402  37.690  26.743  1.00  0.00    -0.237 OA
ATOM     77  O   UNL A   1      46.708  37.661  29.115  1.00  0.00    -0.237 OA
ATOM     78  O   UNL A   1      49.064  37.264  28.520  1.00  0.00    -0.744 OA
ENDBRANCH  74  75
ENDBRANCH  46  69
BRANCH  58  79
ATOM     79  C   UNL A   1      50.036  26.790  26.506  1.00  0.00    -0.014 A 
ATOM     80  C   UNL A   1      50.874  26.547  27.609  1.00  0.00     0.010 A 
ATOM     81  C   UNL A   1      50.565  26.694  25.207  1.00  0.00     0.010 A 
ATOM     82  C   UNL A   1      52.225  26.249  27.418  1.00  0.00     0.020 A 
ATOM     83  C   UNL A   1      51.913  26.377  25.012  1.00  0.00     0.020 A 
ATOM     84  C   UNL A   1      52.738  26.173  26.120  1.00  0.00     0.054 A 
BRANCH  84  85
ATOM     85  S   UNL A   1      54.490  25.762  25.892  1.00  0.00     0.124 S 
ATOM     86  O   UNL A   1      54.419  24.648  24.952  1.00  0.00    -0.237 OA
ATOM     87  O   UNL A   1      55.046  27.002  25.357  1.00  0.00    -0.237 OA
ATOM     88  O   UNL A   1      54.940  25.414  27.238  1.00  0.00    -0.744 OA
ENDBRANCH  84  85
ENDBRANCH  58  79
ENDBRANCH  32  33
ENDBRANCH  25  27
ENDBRANCH  24  25
ENDBRANCH   1  24
TORSDOF 16
ENDMDL
