MODEL 1
REMARK VINA RESULT:      -8.8      0.000      0.000
REMARK SMILES CC(C)CCc1cc2c(cc1Cl)C=C(C(=O)OCCOC(=O)c1ccc(-c3c4nc(c(-c5ccc(S(=O)(=O)[O-])cc5)c5ccc([nH]5)c(-c5ccc(S(=O)(=O)[O-])cc5)c5nc(c(-c6ccc(S(=O)(=O)[O-])cc6)c6ccc3[nH]6)C=C5)C=C4)cc1)[C@H](C(F)(F)F)O2
REMARK SMILES IDX 18 1 17 2 15 3 16 4 14 5 6 6 7 7 11 8 8 9 10 10 12 11 9 12
REMARK SMILES IDX 88 13 13 14 83 15 5 16 4 17 2 18 1 19 3 20 84 21 85 22 86 23
REMARK SMILES IDX 87 24 19 25 20 26 21 27 22 28 23 29 24 30 82 31 25 32 81 33
REMARK SMILES IDX 26 34 27 35 28 36 75 37 29 38 80 39 74 40 76 41 30 42 79 43
REMARK SMILES IDX 73 44 72 45 31 47 61 48 42 49 60 50 43 51 46 52 59 53 77 54
REMARK SMILES IDX 44 55 45 56 58 58 78 59 47 60 32 61 33 62 41 63 34 64 40 65
REMARK SMILES IDX 35 66 36 67 37 68 38 69 39 70 62 71 63 72 71 73 64 74 70 75
REMARK SMILES IDX 65 76 66 77 67 78 68 79 69 80 48 81 49 82 57 83 50 84 56 85
REMARK SMILES IDX 51 86 52 87 53 88 54 89 55 90
REMARK H PARENT 76 46 46 57
REMARK Flexibility Score: inf
ROOT
ATOM      1  C   UNL A   1      45.891  23.921  25.382  1.00  0.00     0.275 C 
ENDROOT
BRANCH   1   2
ATOM      2  O   UNL A   1      44.786  23.907  24.453  1.00  0.00    -0.459 OA
BRANCH   2   3
ATOM      3  C   UNL A   1      43.800  23.027  24.723  1.00  0.00     0.338 C 
ATOM      4  O   UNL A   1      43.753  21.878  24.318  1.00  0.00    -0.246 OA
BRANCH   3   5
ATOM      5  C   UNL A   1      42.807  23.591  25.666  1.00  0.00     0.087 C 
ATOM      6  C   UNL A   1      39.920  26.923  28.142  1.00  0.00    -0.026 A 
ATOM      7  C   UNL A   1      40.369  25.603  28.412  1.00  0.00     0.052 A 
ATOM      8  C   UNL A   1      40.357  27.532  26.953  1.00  0.00     0.045 A 
ATOM      9  C   UNL A   1      41.209  24.919  27.528  1.00  0.00     0.128 A 
ATOM     10  C   UNL A   1      41.179  26.839  26.063  1.00  0.00     0.032 A 
ATOM     11  Cl  UNL A   1      40.015  29.167  26.522  1.00  0.00    -0.084 Cl
ATOM     12  C   UNL A   1      41.620  25.551  26.364  1.00  0.00     0.019 A 
ATOM     13  O   UNL A   1      41.666  23.675  27.886  1.00  0.00    -0.475 OA
ATOM     14  C   UNL A   1      42.580  24.900  25.504  1.00  0.00     0.027 C 
ATOM     15  C   UNL A   1      42.211  22.816  26.816  1.00  0.00     0.316 C 
BRANCH   6  16
ATOM     16  C   UNL A   1      39.097  27.617  29.212  1.00  0.00     0.037 C 
BRANCH  16  17
ATOM     17  C   UNL A   1      39.219  27.179  30.682  1.00  0.00     0.008 C 
BRANCH  17  18
ATOM     18  C   UNL A   1      39.150  28.309  31.724  1.00  0.00    -0.017 C 
ATOM     19  C   UNL A   1      37.725  28.510  32.236  1.00  0.00     0.007 C 
ATOM     20  C   UNL A   1      40.089  27.997  32.893  1.00  0.00     0.007 C 
ENDBRANCH  17  18
ENDBRANCH  16  17
ENDBRANCH   6  16
BRANCH  15  21
ATOM     21  C   UNL A   1      41.157  21.740  26.496  1.00  0.00     0.430 C 
ATOM     22  F   UNL A   1      40.362  22.084  25.461  1.00  0.00    -0.167 F 
ATOM     23  F   UNL A   1      41.681  20.526  26.232  1.00  0.00    -0.167 F 
ATOM     24  F   UNL A   1      40.348  21.562  27.578  1.00  0.00    -0.167 F 
ENDBRANCH  15  21
ENDBRANCH   3   5
ENDBRANCH   2   3
ENDBRANCH   1   2
BRANCH   1  25
ATOM     25  C   UNL A   1      46.425  25.343  25.588  1.00  0.00     0.275 C 
BRANCH  25  26
ATOM     26  O   UNL A   1      45.682  26.042  26.608  1.00  0.00    -0.458 OA
BRANCH  26  27
ATOM     27  C   UNL A   1      45.138  27.222  26.232  1.00  0.00     0.338 C 
ATOM     28  O   UNL A   1      44.909  27.600  25.095  1.00  0.00    -0.246 OA
BRANCH  27  29
ATOM     29  C   UNL A   1      44.704  27.967  27.424  1.00  0.00     0.060 A 
ATOM     30  C   UNL A   1      44.885  29.340  27.558  1.00  0.00     0.016 A 
ATOM     31  C   UNL A   1      43.982  27.265  28.383  1.00  0.00     0.016 A 
ATOM     32  C   UNL A   1      44.357  29.990  28.686  1.00  0.00     0.010 A 
ATOM     33  C   UNL A   1      43.395  27.919  29.463  1.00  0.00     0.010 A 
ATOM     34  C   UNL A   1      43.593  29.291  29.645  1.00  0.00    -0.014 A 
BRANCH  34  35
ATOM     35  C   UNL A   1      42.984  29.979  30.821  1.00  0.00     0.031 A 
ATOM     36  C   UNL A   1      41.617  30.616  30.730  1.00  0.00     0.074 A 
ATOM     37  C   UNL A   1      43.684  30.078  31.971  1.00  0.00     0.049 A 
ATOM     38  N   UNL A   1      40.933  31.230  31.664  1.00  0.00    -0.248 NA
ATOM     39  C   UNL A   1      40.941  30.593  29.422  1.00  0.00     0.031 C 
ATOM     40  C   UNL A   1      45.051  29.595  32.170  1.00  0.00     0.029 A 
ATOM     41  N   UNL A   1      43.337  30.601  33.194  1.00  0.00    -0.354 N 
ATOM     42  C   UNL A   1      39.764  31.676  31.054  1.00  0.00     0.074 A 
ATOM     43  C   UNL A   1      39.860  31.321  29.656  1.00  0.00     0.031 C 
ATOM     44  C   UNL A   1      45.397  29.771  33.454  1.00  0.00     0.029 A 
ATOM     45  C   UNL A   1      44.295  30.413  34.165  1.00  0.00     0.049 A 
ATOM     46  H   UNL A   1      42.485  31.065  33.360  1.00  0.00     0.167 HD
ATOM     47  C   UNL A   1      38.692  32.287  31.610  1.00  0.00     0.031 A 
ATOM     48  C   UNL A   1      44.286  30.699  35.483  1.00  0.00     0.031 A 
ATOM     49  C   UNL A   1      38.575  32.593  33.012  1.00  0.00     0.049 A 
ATOM     50  C   UNL A   1      43.062  31.321  36.096  1.00  0.00     0.074 A 
ATOM     51  C   UNL A   1      37.492  33.134  33.683  1.00  0.00     0.029 A 
ATOM     52  N   UNL A   1      39.563  32.373  33.959  1.00  0.00    -0.354 N 
ATOM     53  N   UNL A   1      41.937  31.661  35.515  1.00  0.00    -0.248 NA
ATOM     54  C   UNL A   1      43.098  31.588  37.541  1.00  0.00     0.031 C 
ATOM     55  C   UNL A   1      37.840  33.283  35.027  1.00  0.00     0.029 A 
ATOM     56  C   UNL A   1      39.119  32.780  35.206  1.00  0.00     0.049 A 
ATOM     57  H   UNL A   1      40.448  31.985  33.773  1.00  0.00     0.167 HD
ATOM     58  C   UNL A   1      41.129  32.174  36.522  1.00  0.00     0.074 A 
ATOM     59  C   UNL A   1      41.883  32.078  37.756  1.00  0.00     0.031 C 
ATOM     60  C   UNL A   1      39.877  32.685  36.428  1.00  0.00     0.031 A 
BRANCH  47  61
ATOM     61  C   UNL A   1      37.519  32.624  30.722  1.00  0.00    -0.014 A 
ATOM     62  C   UNL A   1      37.447  33.877  30.085  1.00  0.00     0.010 A 
ATOM     63  C   UNL A   1      36.430  31.738  30.609  1.00  0.00     0.010 A 
ATOM     64  C   UNL A   1      36.303  34.246  29.370  1.00  0.00     0.020 A 
ATOM     65  C   UNL A   1      35.298  32.092  29.869  1.00  0.00     0.020 A 
ATOM     66  C   UNL A   1      35.233  33.353  29.272  1.00  0.00     0.054 A 
BRANCH  66  67
ATOM     67  S   UNL A   1      33.750  33.848  28.350  1.00  0.00     0.124 S 
ATOM     68  O   UNL A   1      34.302  34.739  27.335  1.00  0.00    -0.237 OA
ATOM     69  O   UNL A   1      33.236  32.570  27.859  1.00  0.00    -0.237 OA
ATOM     70  O   UNL A   1      32.918  34.492  29.365  1.00  0.00    -0.744 OA
ENDBRANCH  66  67
ENDBRANCH  47  61
BRANCH  48  71
ATOM     71  C   UNL A   1      45.455  30.303  36.316  1.00  0.00    -0.014 A 
ATOM     72  C   UNL A   1      46.551  31.171  36.477  1.00  0.00     0.010 A 
ATOM     73  C   UNL A   1      45.520  29.011  36.867  1.00  0.00     0.010 A 
ATOM     74  C   UNL A   1      47.711  30.734  37.124  1.00  0.00     0.020 A 
ATOM     75  C   UNL A   1      46.669  28.581  37.538  1.00  0.00     0.020 A 
ATOM     76  C   UNL A   1      47.769  29.434  37.633  1.00  0.00     0.054 A 
BRANCH  76  77
ATOM     77  S   UNL A   1      49.308  28.864  38.407  1.00  0.00     0.124 S 
ATOM     78  O   UNL A   1      48.843  27.721  39.189  1.00  0.00    -0.237 OA
ATOM     79  O   UNL A   1      50.146  28.540  37.255  1.00  0.00    -0.237 OA
ATOM     80  O   UNL A   1      49.745  30.019  39.187  1.00  0.00    -0.744 OA
ENDBRANCH  76  77
ENDBRANCH  48  71
BRANCH  60  81
ATOM     81  C   UNL A   1      39.220  33.201  37.682  1.00  0.00    -0.014 A 
ATOM     82  C   UNL A   1      39.550  34.478  38.171  1.00  0.00     0.010 A 
ATOM     83  C   UNL A   1      38.388  32.365  38.448  1.00  0.00     0.010 A 
ATOM     84  C   UNL A   1      39.093  34.897  39.423  1.00  0.00     0.020 A 
ATOM     85  C   UNL A   1      37.908  32.792  39.690  1.00  0.00     0.020 A 
ATOM     86  C   UNL A   1      38.285  34.045  40.180  1.00  0.00     0.054 A 
BRANCH  86  87
ATOM     87  S   UNL A   1      37.734  34.588  41.821  1.00  0.00     0.124 S 
ATOM     88  O   UNL A   1      38.054  36.013  41.797  1.00  0.00    -0.237 OA
ATOM     89  O   UNL A   1      36.311  34.261  41.808  1.00  0.00    -0.237 OA
ATOM     90  O   UNL A   1      38.541  33.783  42.736  1.00  0.00    -0.744 OA
ENDBRANCH  86  87
ENDBRANCH  60  81
ENDBRANCH  34  35
ENDBRANCH  27  29
ENDBRANCH  26  27
ENDBRANCH  25  26
ENDBRANCH   1  25
TORSDOF 18
ENDMDL
MODEL 2
REMARK VINA RESULT:      -8.6      3.025      8.867
REMARK SMILES CC(C)CCc1cc2c(cc1Cl)C=C(C(=O)OCCOC(=O)c1ccc(-c3c4nc(c(-c5ccc(S(=O)(=O)[O-])cc5)c5ccc([nH]5)c(-c5ccc(S(=O)(=O)[O-])cc5)c5nc(c(-c6ccc(S(=O)(=O)[O-])cc6)c6ccc3[nH]6)C=C5)C=C4)cc1)[C@H](C(F)(F)F)O2
REMARK SMILES IDX 18 1 17 2 15 3 16 4 14 5 6 6 7 7 11 8 8 9 10 10 12 11 9 12
REMARK SMILES IDX 88 13 13 14 83 15 5 16 4 17 2 18 1 19 3 20 84 21 85 22 86 23
REMARK SMILES IDX 87 24 19 25 20 26 21 27 22 28 23 29 24 30 82 31 25 32 81 33
REMARK SMILES IDX 26 34 27 35 28 36 75 37 29 38 80 39 74 40 76 41 30 42 79 43
REMARK SMILES IDX 73 44 72 45 31 47 61 48 42 49 60 50 43 51 46 52 59 53 77 54
REMARK SMILES IDX 44 55 45 56 58 58 78 59 47 60 32 61 33 62 41 63 34 64 40 65
REMARK SMILES IDX 35 66 36 67 37 68 38 69 39 70 62 71 63 72 71 73 64 74 70 75
REMARK SMILES IDX 65 76 66 77 67 78 68 79 69 80 48 81 49 82 57 83 50 84 56 85
REMARK SMILES IDX 51 86 52 87 53 88 54 89 55 90
REMARK H PARENT 76 46 46 57
REMARK Flexibility Score: inf
ROOT
ATOM      1  C   UNL A   1      43.361  22.427  25.669  1.00  0.00     0.275 C 
ENDROOT
BRANCH   1   2
ATOM      2  O   UNL A   1      42.111  21.729  25.482  1.00  0.00    -0.459 OA
BRANCH   2   3
ATOM      3  C   UNL A   1      41.309  21.657  26.564  1.00  0.00     0.338 C 
ATOM      4  O   UNL A   1      41.627  21.194  27.646  1.00  0.00    -0.246 OA
BRANCH   3   5
ATOM      5  C   UNL A   1      40.001  22.306  26.319  1.00  0.00     0.087 C 
ATOM      6  C   UNL A   1      35.181  22.978  24.945  1.00  0.00    -0.026 A 
ATOM      7  C   UNL A   1      36.288  23.845  25.145  1.00  0.00     0.052 A 
ATOM      8  C   UNL A   1      35.392  21.598  25.112  1.00  0.00     0.045 A 
ATOM      9  C   UNL A   1      37.547  23.356  25.506  1.00  0.00     0.128 A 
ATOM     10  C   UNL A   1      36.645  21.115  25.493  1.00  0.00     0.032 A 
ATOM     11  Cl  UNL A   1      34.201  20.393  24.792  1.00  0.00    -0.084 Cl
ATOM     12  C   UNL A   1      37.718  21.989  25.663  1.00  0.00     0.019 A 
ATOM     13  O   UNL A   1      38.590  24.241  25.610  1.00  0.00    -0.475 OA
ATOM     14  C   UNL A   1      39.038  21.464  25.921  1.00  0.00     0.027 C 
ATOM     15  C   UNL A   1      39.786  23.799  26.354  1.00  0.00     0.316 C 
BRANCH   6  16
ATOM     16  C   UNL A   1      33.885  23.596  24.453  1.00  0.00     0.037 C 
BRANCH  16  17
ATOM     17  C   UNL A   1      33.774  24.100  23.003  1.00  0.00     0.008 C 
BRANCH  17  18
ATOM     18  C   UNL A   1      33.002  25.418  22.811  1.00  0.00    -0.017 C 
ATOM     19  C   UNL A   1      31.493  25.197  22.891  1.00  0.00     0.007 C 
ATOM     20  C   UNL A   1      33.441  26.436  23.868  1.00  0.00     0.007 C 
ENDBRANCH  17  18
ENDBRANCH  16  17
ENDBRANCH   6  16
BRANCH  15  21
ATOM     21  C   UNL A   1      39.769  24.496  27.727  1.00  0.00     0.430 C 
ATOM     22  F   UNL A   1      38.555  24.457  28.314  1.00  0.00    -0.167 F 
ATOM     23  F   UNL A   1      40.670  24.002  28.601  1.00  0.00    -0.167 F 
ATOM     24  F   UNL A   1      40.094  25.811  27.572  1.00  0.00    -0.167 F 
ENDBRANCH  15  21
ENDBRANCH   3   5
ENDBRANCH   2   3
ENDBRANCH   1   2
BRANCH   1  25
ATOM     25  C   UNL A   1      43.321  23.819  25.031  1.00  0.00     0.275 C 
BRANCH  25  26
ATOM     26  O   UNL A   1      42.996  24.834  26.002  1.00  0.00    -0.458 OA
BRANCH  26  27
ATOM     27  C   UNL A   1      43.891  25.843  26.118  1.00  0.00     0.338 C 
ATOM     28  O   UNL A   1      44.787  26.126  25.340  1.00  0.00    -0.246 OA
BRANCH  27  29
ATOM     29  C   UNL A   1      43.542  26.682  27.274  1.00  0.00     0.060 A 
ATOM     30  C   UNL A   1      43.488  28.070  27.206  1.00  0.00     0.016 A 
ATOM     31  C   UNL A   1      43.142  26.028  28.435  1.00  0.00     0.016 A 
ATOM     32  C   UNL A   1      43.055  28.792  28.330  1.00  0.00     0.010 A 
ATOM     33  C   UNL A   1      42.643  26.737  29.524  1.00  0.00     0.010 A 
ATOM     34  C   UNL A   1      42.614  28.134  29.499  1.00  0.00    -0.014 A 
BRANCH  34  35
ATOM     35  C   UNL A   1      42.105  28.888  30.681  1.00  0.00     0.031 A 
ATOM     36  C   UNL A   1      42.858  28.886  31.992  1.00  0.00     0.074 A 
ATOM     37  C   UNL A   1      40.927  29.543  30.598  1.00  0.00     0.049 A 
ATOM     38  N   UNL A   1      42.567  29.508  33.108  1.00  0.00    -0.248 NA
ATOM     39  C   UNL A   1      44.072  28.058  32.076  1.00  0.00     0.031 C 
ATOM     40  C   UNL A   1      40.048  29.550  29.428  1.00  0.00     0.029 A 
ATOM     41  N   UNL A   1      40.276  30.344  31.505  1.00  0.00    -0.354 N 
ATOM     42  C   UNL A   1      43.548  29.135  34.022  1.00  0.00     0.074 A 
ATOM     43  C   UNL A   1      44.403  28.181  33.353  1.00  0.00     0.031 C 
ATOM     44  C   UNL A   1      39.017  30.377  29.658  1.00  0.00     0.029 A 
ATOM     45  C   UNL A   1      39.137  30.932  31.004  1.00  0.00     0.049 A 
ATOM     46  H   UNL A   1      40.594  30.484  32.427  1.00  0.00     0.167 HD
ATOM     47  C   UNL A   1      43.744  29.573  35.288  1.00  0.00     0.031 A 
ATOM     48  C   UNL A   1      38.293  31.833  31.547  1.00  0.00     0.031 A 
ATOM     49  C   UNL A   1      42.923  30.562  35.936  1.00  0.00     0.049 A 
ATOM     50  C   UNL A   1      38.562  32.356  32.931  1.00  0.00     0.074 A 
ATOM     51  C   UNL A   1      43.095  31.133  37.185  1.00  0.00     0.029 A 
ATOM     52  N   UNL A   1      41.790  31.139  35.385  1.00  0.00    -0.354 N 
ATOM     53  N   UNL A   1      39.541  32.048  33.748  1.00  0.00    -0.248 NA
ATOM     54  C   UNL A   1      37.624  33.354  33.464  1.00  0.00     0.031 C 
ATOM     55  C   UNL A   1      42.040  32.021  37.409  1.00  0.00     0.029 A 
ATOM     56  C   UNL A   1      41.244  32.049  36.275  1.00  0.00     0.049 A 
ATOM     57  H   UNL A   1      41.426  30.932  34.494  1.00  0.00     0.167 HD
ATOM     58  C   UNL A   1      39.342  32.819  34.887  1.00  0.00     0.074 A 
ATOM     59  C   UNL A   1      38.164  33.627  34.646  1.00  0.00     0.031 C 
ATOM     60  C   UNL A   1      40.069  32.847  36.030  1.00  0.00     0.031 A 
BRANCH  47  61
ATOM     61  C   UNL A   1      44.928  29.037  36.056  1.00  0.00    -0.014 A 
ATOM     62  C   UNL A   1      44.845  27.795  36.712  1.00  0.00     0.010 A 
ATOM     63  C   UNL A   1      46.087  29.819  36.221  1.00  0.00     0.010 A 
ATOM     64  C   UNL A   1      45.887  27.354  37.534  1.00  0.00     0.020 A 
ATOM     65  C   UNL A   1      47.145  29.367  37.016  1.00  0.00     0.020 A 
ATOM     66  C   UNL A   1      47.028  28.147  37.686  1.00  0.00     0.054 A 
BRANCH  66  67
ATOM     67  S   UNL A   1      48.369  27.568  38.762  1.00  0.00     0.124 S 
ATOM     68  O   UNL A   1      47.639  27.063  39.920  1.00  0.00    -0.237 OA
ATOM     69  O   UNL A   1      49.029  26.557  37.939  1.00  0.00    -0.237 OA
ATOM     70  O   UNL A   1      49.161  28.775  38.998  1.00  0.00    -0.744 OA
ENDBRANCH  66  67
ENDBRANCH  47  61
BRANCH  48  71
ATOM     71  C   UNL A   1      37.168  32.357  30.725  1.00  0.00    -0.014 A 
ATOM     72  C   UNL A   1      37.376  33.398  29.801  1.00  0.00     0.010 A 
ATOM     73  C   UNL A   1      35.861  31.883  30.938  1.00  0.00     0.010 A 
ATOM     74  C   UNL A   1      36.291  33.994  29.150  1.00  0.00     0.020 A 
ATOM     75  C   UNL A   1      34.778  32.460  30.268  1.00  0.00     0.020 A 
ATOM     76  C   UNL A   1      34.997  33.533  29.403  1.00  0.00     0.054 A 
BRANCH  76  77
ATOM     77  S   UNL A   1      33.597  34.366  28.602  1.00  0.00     0.124 S 
ATOM     78  O   UNL A   1      34.269  35.434  27.865  1.00  0.00    -0.237 OA
ATOM     79  O   UNL A   1      33.017  33.304  27.784  1.00  0.00    -0.237 OA
ATOM     80  O   UNL A   1      32.773  34.804  29.726  1.00  0.00    -0.744 OA
ENDBRANCH  76  77
ENDBRANCH  48  71
BRANCH  60  81
ATOM     81  C   UNL A   1      39.625  33.767  37.136  1.00  0.00    -0.014 A 
ATOM     82  C   UNL A   1      39.981  35.128  37.101  1.00  0.00     0.010 A 
ATOM     83  C   UNL A   1      38.982  33.256  38.278  1.00  0.00     0.010 A 
ATOM     84  C   UNL A   1      39.738  35.953  38.201  1.00  0.00     0.020 A 
ATOM     85  C   UNL A   1      38.713  34.085  39.370  1.00  0.00     0.020 A 
ATOM     86  C   UNL A   1      39.118  35.422  39.335  1.00  0.00     0.054 A 
BRANCH  86  87
ATOM     87  S   UNL A   1      38.846  36.497  40.771  1.00  0.00     0.124 S 
ATOM     88  O   UNL A   1      38.349  37.721  40.149  1.00  0.00    -0.237 OA
ATOM     89  O   UNL A   1      37.869  35.747  41.555  1.00  0.00    -0.237 OA
ATOM     90  O   UNL A   1      40.172  36.599  41.377  1.00  0.00    -0.744 OA
ENDBRANCH  86  87
ENDBRANCH  60  81
ENDBRANCH  34  35
ENDBRANCH  27  29
ENDBRANCH  26  27
ENDBRANCH  25  26
ENDBRANCH   1  25
TORSDOF 18
ENDMDL
MODEL 3
REMARK VINA RESULT:      -8.6      5.984     11.690
REMARK SMILES CC(C)CCc1cc2c(cc1Cl)C=C(C(=O)OCCOC(=O)c1ccc(-c3c4nc(c(-c5ccc(S(=O)(=O)[O-])cc5)c5ccc([nH]5)c(-c5ccc(S(=O)(=O)[O-])cc5)c5nc(c(-c6ccc(S(=O)(=O)[O-])cc6)c6ccc3[nH]6)C=C5)C=C4)cc1)[C@H](C(F)(F)F)O2
REMARK SMILES IDX 18 1 17 2 15 3 16 4 14 5 6 6 7 7 11 8 8 9 10 10 12 11 9 12
REMARK SMILES IDX 88 13 13 14 83 15 5 16 4 17 2 18 1 19 3 20 84 21 85 22 86 23
REMARK SMILES IDX 87 24 19 25 20 26 21 27 22 28 23 29 24 30 82 31 25 32 81 33
REMARK SMILES IDX 26 34 27 35 28 36 75 37 29 38 80 39 74 40 76 41 30 42 79 43
REMARK SMILES IDX 73 44 72 45 31 47 61 48 42 49 60 50 43 51 46 52 59 53 77 54
REMARK SMILES IDX 44 55 45 56 58 58 78 59 47 60 32 61 33 62 41 63 34 64 40 65
REMARK SMILES IDX 35 66 36 67 37 68 38 69 39 70 62 71 63 72 71 73 64 74 70 75
REMARK SMILES IDX 65 76 66 77 67 78 68 79 69 80 48 81 49 82 57 83 50 84 56 85
REMARK SMILES IDX 51 86 52 87 53 88 54 89 55 90
REMARK H PARENT 76 46 46 57
REMARK Flexibility Score: inf
ROOT
ATOM      1  C   UNL A   1      38.601  20.207  25.314  1.00  0.00     0.275 C 
ENDROOT
BRANCH   1   2
ATOM      2  O   UNL A   1      37.453  21.017  24.982  1.00  0.00    -0.459 OA
BRANCH   2   3
ATOM      3  C   UNL A   1      36.261  20.386  25.001  1.00  0.00     0.338 C 
ATOM      4  O   UNL A   1      36.105  19.177  24.967  1.00  0.00    -0.246 OA
BRANCH   3   5
ATOM      5  C   UNL A   1      35.140  21.338  25.171  1.00  0.00     0.087 C 
ATOM      6  C   UNL A   1      32.500  25.650  25.238  1.00  0.00    -0.026 A 
ATOM      7  C   UNL A   1      32.354  24.385  25.868  1.00  0.00     0.052 A 
ATOM      8  C   UNL A   1      33.624  25.847  24.419  1.00  0.00     0.045 A 
ATOM      9  C   UNL A   1      33.285  23.360  25.678  1.00  0.00     0.128 A 
ATOM     10  C   UNL A   1      34.541  24.815  24.216  1.00  0.00     0.032 A 
ATOM     11  Cl  UNL A   1      34.028  27.351  23.678  1.00  0.00    -0.084 Cl
ATOM     12  C   UNL A   1      34.383  23.591  24.862  1.00  0.00     0.019 A 
ATOM     13  O   UNL A   1      33.124  22.189  26.375  1.00  0.00    -0.475 OA
ATOM     14  C   UNL A   1      35.410  22.581  24.753  1.00  0.00     0.027 C 
ATOM     15  C   UNL A   1      33.857  21.002  25.890  1.00  0.00     0.316 C 
BRANCH   6  16
ATOM     16  C   UNL A   1      31.492  26.729  25.590  1.00  0.00     0.037 C 
BRANCH  16  17
ATOM     17  C   UNL A   1      30.189  26.859  24.780  1.00  0.00     0.008 C 
BRANCH  17  18
ATOM     18  C   UNL A   1      30.164  27.984  23.731  1.00  0.00    -0.017 C 
ATOM     19  C   UNL A   1      31.018  29.173  24.167  1.00  0.00     0.007 C 
ATOM     20  C   UNL A   1      30.657  27.450  22.383  1.00  0.00     0.007 C 
ENDBRANCH  17  18
ENDBRANCH  16  17
ENDBRANCH   6  16
BRANCH  15  21
ATOM     21  C   UNL A   1      32.846  20.084  25.179  1.00  0.00     0.430 C 
ATOM     22  F   UNL A   1      32.809  18.844  25.709  1.00  0.00    -0.167 F 
ATOM     23  F   UNL A   1      31.587  20.569  25.164  1.00  0.00    -0.167 F 
ATOM     24  F   UNL A   1      33.201  19.947  23.870  1.00  0.00    -0.167 F 
ENDBRANCH  15  21
ENDBRANCH   3   5
ENDBRANCH   2   3
ENDBRANCH   1   2
BRANCH   1  25
ATOM     25  C   UNL A   1      39.614  20.996  26.151  1.00  0.00     0.275 C 
BRANCH  25  26
ATOM     26  O   UNL A   1      40.607  20.127  26.732  1.00  0.00    -0.458 OA
BRANCH  26  27
ATOM     27  C   UNL A   1      41.817  20.131  26.125  1.00  0.00     0.338 C 
ATOM     28  O   UNL A   1      42.272  19.276  25.383  1.00  0.00    -0.246 OA
BRANCH  27  29
ATOM     29  C   UNL A   1      42.486  21.418  26.366  1.00  0.00     0.060 A 
ATOM     30  C   UNL A   1      42.740  22.334  25.350  1.00  0.00     0.016 A 
ATOM     31  C   UNL A   1      42.757  21.755  27.688  1.00  0.00     0.016 A 
ATOM     32  C   UNL A   1      43.297  23.580  25.679  1.00  0.00     0.010 A 
ATOM     33  C   UNL A   1      43.241  23.016  28.024  1.00  0.00     0.010 A 
ATOM     34  C   UNL A   1      43.543  23.943  27.021  1.00  0.00    -0.014 A 
BRANCH  34  35
ATOM     35  C   UNL A   1      44.088  25.282  27.388  1.00  0.00     0.031 A 
ATOM     36  C   UNL A   1      45.539  25.627  27.144  1.00  0.00     0.074 A 
ATOM     37  C   UNL A   1      43.288  26.186  27.992  1.00  0.00     0.049 A 
ATOM     38  N   UNL A   1      46.167  26.753  27.381  1.00  0.00    -0.248 NA
ATOM     39  C   UNL A   1      46.407  24.570  26.598  1.00  0.00     0.031 C 
ATOM     40  C   UNL A   1      41.894  25.953  28.375  1.00  0.00     0.029 A 
ATOM     41  N   UNL A   1      43.523  27.485  28.373  1.00  0.00    -0.354 N 
ATOM     42  C   UNL A   1      47.496  26.533  27.028  1.00  0.00     0.074 A 
ATOM     43  C   UNL A   1      47.599  25.148  26.626  1.00  0.00     0.031 C 
ATOM     44  C   UNL A   1      41.376  27.092  28.862  1.00  0.00     0.029 A 
ATOM     45  C   UNL A   1      42.407  28.126  28.862  1.00  0.00     0.049 A 
ATOM     46  H   UNL A   1      44.405  27.916  28.303  1.00  0.00     0.167 HD
ATOM     47  C   UNL A   1      48.527  27.409  27.003  1.00  0.00     0.031 A 
ATOM     48  C   UNL A   1      42.219  29.405  29.246  1.00  0.00     0.031 A 
ATOM     49  C   UNL A   1      48.413  28.801  27.354  1.00  0.00     0.049 A 
ATOM     50  C   UNL A   1      43.360  30.380  29.152  1.00  0.00     0.074 A 
ATOM     51  C   UNL A   1      49.382  29.785  27.277  1.00  0.00     0.029 A 
ATOM     52  N   UNL A   1      47.262  29.408  27.830  1.00  0.00    -0.354 N 
ATOM     53  N   UNL A   1      44.587  30.169  28.741  1.00  0.00    -0.248 NA
ATOM     54  C   UNL A   1      43.092  31.767  29.561  1.00  0.00     0.031 C 
ATOM     55  C   UNL A   1      48.831  30.978  27.750  1.00  0.00     0.029 A 
ATOM     56  C   UNL A   1      47.501  30.752  28.065  1.00  0.00     0.049 A 
ATOM     57  H   UNL A   1      46.402  28.952  27.980  1.00  0.00     0.167 HD
ATOM     58  C   UNL A   1      45.235  31.395  28.833  1.00  0.00     0.074 A 
ATOM     59  C   UNL A   1      44.259  32.351  29.316  1.00  0.00     0.031 C 
ATOM     60  C   UNL A   1      46.526  31.696  28.549  1.00  0.00     0.031 A 
BRANCH  47  61
ATOM     61  C   UNL A   1      49.873  26.918  26.526  1.00  0.00    -0.014 A 
ATOM     62  C   UNL A   1      50.177  26.903  25.152  1.00  0.00     0.010 A 
ATOM     63  C   UNL A   1      50.795  26.363  27.434  1.00  0.00     0.010 A 
ATOM     64  C   UNL A   1      51.365  26.327  24.693  1.00  0.00     0.020 A 
ATOM     65  C   UNL A   1      51.999  25.814  26.981  1.00  0.00     0.020 A 
ATOM     66  C   UNL A   1      52.266  25.780  25.611  1.00  0.00     0.054 A 
BRANCH  66  67
ATOM     67  S   UNL A   1      53.800  25.026  25.002  1.00  0.00     0.124 S 
ATOM     68  O   UNL A   1      53.491  23.601  25.067  1.00  0.00    -0.237 OA
ATOM     69  O   UNL A   1      53.922  25.587  23.658  1.00  0.00    -0.237 OA
ATOM     70  O   UNL A   1      54.809  25.492  25.953  1.00  0.00    -0.744 OA
ENDBRANCH  66  67
ENDBRANCH  47  61
BRANCH  48  71
ATOM     71  C   UNL A   1      40.859  29.841  29.666  1.00  0.00    -0.014 A 
ATOM     72  C   UNL A   1      40.562  30.070  31.022  1.00  0.00     0.010 A 
ATOM     73  C   UNL A   1      39.825  29.930  28.716  1.00  0.00     0.010 A 
ATOM     74  C   UNL A   1      39.247  30.321  31.427  1.00  0.00     0.020 A 
ATOM     75  C   UNL A   1      38.515  30.207  29.115  1.00  0.00     0.020 A 
ATOM     76  C   UNL A   1      38.229  30.369  30.471  1.00  0.00     0.054 A 
BRANCH  76  77
ATOM     77  S   UNL A   1      36.520  30.627  31.025  1.00  0.00     0.124 S 
ATOM     78  O   UNL A   1      36.081  31.707  30.144  1.00  0.00    -0.237 OA
ATOM     79  O   UNL A   1      35.903  29.326  30.781  1.00  0.00    -0.237 OA
ATOM     80  O   UNL A   1      36.668  30.989  32.432  1.00  0.00    -0.744 OA
ENDBRANCH  76  77
ENDBRANCH  48  71
BRANCH  60  81
ATOM     81  C   UNL A   1      46.991  33.113  28.756  1.00  0.00    -0.014 A 
ATOM     82  C   UNL A   1      46.948  34.028  27.688  1.00  0.00     0.010 A 
ATOM     83  C   UNL A   1      47.602  33.496  29.964  1.00  0.00     0.010 A 
ATOM     84  C   UNL A   1      47.542  35.286  27.809  1.00  0.00     0.020 A 
ATOM     85  C   UNL A   1      48.174  34.764  30.096  1.00  0.00     0.020 A 
ATOM     86  C   UNL A   1      48.163  35.641  29.008  1.00  0.00     0.054 A 
BRANCH  86  87
ATOM     87  S   UNL A   1      48.966  37.264  29.134  1.00  0.00     0.124 S 
ATOM     88  O   UNL A   1      49.905  37.229  28.016  1.00  0.00    -0.237 OA
ATOM     89  O   UNL A   1      47.846  38.190  28.987  1.00  0.00    -0.237 OA
ATOM     90  O   UNL A   1      49.575  37.241  30.462  1.00  0.00    -0.744 OA
ENDBRANCH  86  87
ENDBRANCH  60  81
ENDBRANCH  34  35
ENDBRANCH  27  29
ENDBRANCH  26  27
ENDBRANCH  25  26
ENDBRANCH   1  25
TORSDOF 18
ENDMDL
