MODEL 1
REMARK VINA RESULT:     -11.8      0.000      0.000
REMARK SMILES O=C(OCCOC(=O)c1nnn(-c2ccc(C(F)(F)F)cc2)c1-c1cccc(Cl)c1)c1ccc(-c2c3nc(c(-c4ccc(S(=O)(=O)[O-])cc4)c4ccc([nH]4)c(-c4ccc(S(=O)(=O)[O-])cc4)c4nc(c(-c5ccc(S(=O)(=O)[O-])cc5)c5ccc2[nH]5)C=C4)C=C3)cc1
REMARK SMILES IDX 4 1 3 2 2 3 1 4 31 5 32 6 90 7 33 8 89 9 34 10 35 11 36 12
REMARK SMILES IDX 83 13 37 14 88 15 82 16 84 17 38 18 87 19 81 20 80 21 39 23
REMARK SMILES IDX 69 24 50 25 68 26 51 27 54 28 67 29 85 30 52 31 53 32 66 34
REMARK SMILES IDX 86 35 55 36 40 37 41 38 49 39 42 40 48 41 43 42 44 43 45 44
REMARK SMILES IDX 46 45 47 46 70 47 71 48 79 49 72 50 78 51 73 52 74 53 75 54
REMARK SMILES IDX 76 55 77 56 56 57 57 58 65 59 58 60 64 61 59 62 60 63 61 64
REMARK SMILES IDX 62 65 63 66 5 67 6 68 7 69 8 70 9 71 10 72 23 73 11 74 12 75
REMARK SMILES IDX 24 76 25 77 30 78 26 79 28 80 27 81 29 82 13 83 14 84 22 85
REMARK SMILES IDX 15 86 21 87 16 88 17 89 18 90 19 91 20 92
REMARK H PARENT 84 22 54 33
REMARK Flexibility Score: inf
ROOT
ATOM      1  C   UNL A   1      39.444  22.760  26.715  1.00  0.00     0.275 C 
ENDROOT
BRANCH   1   2
ATOM      2  O   UNL A   1      40.406  21.875  26.106  1.00  0.00    -0.458 OA
BRANCH   2   3
ATOM      3  C   UNL A   1      41.721  22.179  26.064  1.00  0.00     0.338 C 
ATOM      4  O   UNL A   1      42.511  21.556  25.369  1.00  0.00    -0.246 OA
BRANCH   3   5
ATOM      5  C   UNL A   1      42.098  23.463  26.713  1.00  0.00     0.060 A 
ATOM      6  C   UNL A   1      42.822  23.552  27.911  1.00  0.00     0.016 A 
ATOM      7  C   UNL A   1      41.649  24.631  26.085  1.00  0.00     0.016 A 
ATOM      8  C   UNL A   1      42.962  24.768  28.553  1.00  0.00     0.010 A 
ATOM      9  C   UNL A   1      41.798  25.851  26.714  1.00  0.00     0.010 A 
ATOM     10  C   UNL A   1      42.372  25.889  27.984  1.00  0.00    -0.014 A 
BRANCH  10  11
ATOM     11  C   UNL A   1      42.313  27.113  28.761  1.00  0.00     0.031 A 
ATOM     12  C   UNL A   1      43.473  28.032  28.592  1.00  0.00     0.074 A 
ATOM     13  C   UNL A   1      41.178  27.395  29.436  1.00  0.00     0.049 A 
ATOM     14  N   UNL A   1      44.249  28.531  29.498  1.00  0.00    -0.248 NA
ATOM     15  C   UNL A   1      43.894  28.352  27.214  1.00  0.00     0.031 C 
ATOM     16  C   UNL A   1      39.914  26.644  29.422  1.00  0.00     0.029 A 
ATOM     17  N   UNL A   1      40.852  28.496  30.156  1.00  0.00    -0.354 N 
ATOM     18  C   UNL A   1      45.118  29.393  28.831  1.00  0.00     0.074 A 
ATOM     19  C   UNL A   1      44.956  29.127  27.425  1.00  0.00     0.031 C 
ATOM     20  C   UNL A   1      38.911  27.452  29.832  1.00  0.00     0.029 A 
ATOM     21  C   UNL A   1      39.482  28.710  30.277  1.00  0.00     0.049 A 
ATOM     22  H   UNL A   1      41.524  29.091  30.558  1.00  0.00     0.167 HD
ATOM     23  C   UNL A   1      45.737  30.431  29.461  1.00  0.00     0.031 A 
ATOM     24  C   UNL A   1      38.868  29.873  30.618  1.00  0.00     0.031 A 
ATOM     25  C   UNL A   1      45.734  30.275  30.890  1.00  0.00     0.049 A 
ATOM     26  C   UNL A   1      39.900  30.721  31.271  1.00  0.00     0.074 A 
ATOM     27  C   UNL A   1      46.268  29.349  31.761  1.00  0.00     0.029 A 
ATOM     28  N   UNL A   1      44.759  30.941  31.596  1.00  0.00    -0.354 N 
ATOM     29  N   UNL A   1      40.482  30.394  32.393  1.00  0.00    -0.248 NA
ATOM     30  C   UNL A   1      40.648  31.644  30.428  1.00  0.00     0.031 C 
ATOM     31  C   UNL A   1      45.258  29.157  32.748  1.00  0.00     0.029 A 
ATOM     32  C   UNL A   1      44.208  30.035  32.469  1.00  0.00     0.049 A 
ATOM     33  H   UNL A   1      44.505  31.887  31.496  1.00  0.00     0.167 HD
ATOM     34  C   UNL A   1      41.822  30.711  32.209  1.00  0.00     0.074 A 
ATOM     35  C   UNL A   1      41.850  31.547  31.007  1.00  0.00     0.031 C 
ATOM     36  C   UNL A   1      42.814  30.032  32.861  1.00  0.00     0.031 A 
BRANCH  23  37
ATOM     37  C   UNL A   1      45.988  31.762  28.797  1.00  0.00    -0.014 A 
ATOM     38  C   UNL A   1      44.892  32.554  28.401  1.00  0.00     0.010 A 
ATOM     39  C   UNL A   1      47.257  32.121  28.292  1.00  0.00     0.010 A 
ATOM     40  C   UNL A   1      45.053  33.612  27.494  1.00  0.00     0.020 A 
ATOM     41  C   UNL A   1      47.432  33.197  27.420  1.00  0.00     0.020 A 
ATOM     42  C   UNL A   1      46.322  33.915  27.000  1.00  0.00     0.054 A 
BRANCH  42  43
ATOM     43  S   UNL A   1      46.501  35.204  25.741  1.00  0.00     0.124 S 
ATOM     44  O   UNL A   1      45.900  36.357  26.403  1.00  0.00    -0.237 OA
ATOM     45  O   UNL A   1      47.950  35.259  25.563  1.00  0.00    -0.237 OA
ATOM     46  O   UNL A   1      45.758  34.676  24.600  1.00  0.00    -0.744 OA
ENDBRANCH  42  43
ENDBRANCH  23  37
BRANCH  24  47
ATOM     47  C   UNL A   1      37.613  30.417  30.024  1.00  0.00    -0.014 A 
ATOM     48  C   UNL A   1      36.521  30.810  30.819  1.00  0.00     0.010 A 
ATOM     49  C   UNL A   1      37.590  30.794  28.663  1.00  0.00     0.010 A 
ATOM     50  C   UNL A   1      35.470  31.582  30.282  1.00  0.00     0.020 A 
ATOM     51  C   UNL A   1      36.548  31.557  28.120  1.00  0.00     0.020 A 
ATOM     52  C   UNL A   1      35.500  31.966  28.938  1.00  0.00     0.054 A 
BRANCH  52  53
ATOM     53  S   UNL A   1      34.228  33.094  28.288  1.00  0.00     0.124 S 
ATOM     54  O   UNL A   1      33.711  33.717  29.503  1.00  0.00    -0.237 OA
ATOM     55  O   UNL A   1      34.999  33.970  27.409  1.00  0.00    -0.237 OA
ATOM     56  O   UNL A   1      33.293  32.203  27.603  1.00  0.00    -0.744 OA
ENDBRANCH  52  53
ENDBRANCH  24  47
BRANCH  36  57
ATOM     57  C   UNL A   1      42.421  29.019  33.919  1.00  0.00    -0.014 A 
ATOM     58  C   UNL A   1      41.978  27.712  33.621  1.00  0.00     0.010 A 
ATOM     59  C   UNL A   1      42.685  29.340  35.260  1.00  0.00     0.010 A 
ATOM     60  C   UNL A   1      41.786  26.764  34.641  1.00  0.00     0.020 A 
ATOM     61  C   UNL A   1      42.510  28.398  36.277  1.00  0.00     0.020 A 
ATOM     62  C   UNL A   1      42.053  27.116  35.966  1.00  0.00     0.054 A 
BRANCH  62  63
ATOM     63  S   UNL A   1      41.851  25.878  37.279  1.00  0.00     0.124 S 
ATOM     64  O   UNL A   1      42.832  26.305  38.273  1.00  0.00    -0.237 OA
ATOM     65  O   UNL A   1      40.451  26.039  37.667  1.00  0.00    -0.237 OA
ATOM     66  O   UNL A   1      42.157  24.611  36.615  1.00  0.00    -0.744 OA
ENDBRANCH  62  63
ENDBRANCH  36  57
ENDBRANCH  10  11
ENDBRANCH   3   5
ENDBRANCH   2   3
ENDBRANCH   1   2
BRANCH   1  67
ATOM     67  C   UNL A   1      38.037  22.770  26.120  1.00  0.00     0.275 C 
BRANCH  67  68
ATOM     68  O   UNL A   1      37.884  21.747  25.125  1.00  0.00    -0.457 OA
BRANCH  68  69
ATOM     69  C   UNL A   1      36.600  21.381  24.814  1.00  0.00     0.361 C 
ATOM     70  O   UNL A   1      36.112  20.288  25.028  1.00  0.00    -0.244 OA
BRANCH  69  71
ATOM     71  C   UNL A   1      35.940  22.403  24.031  1.00  0.00     0.198 A 
ATOM     72  N   UNL A   1      36.299  22.817  22.778  1.00  0.00    -0.122 NA
ATOM     73  C   UNL A   1      34.814  23.085  24.439  1.00  0.00     0.109 A 
ATOM     74  N   UNL A   1      35.414  23.726  22.375  1.00  0.00    -0.061 NA
ATOM     75  N   UNL A   1      34.606  24.002  23.424  1.00  0.00    -0.212 N 
BRANCH  73  76
ATOM     76  C   UNL A   1      33.980  22.892  25.619  1.00  0.00     0.004 A 
ATOM     77  C   UNL A   1      34.559  22.834  26.893  1.00  0.00     0.010 A 
ATOM     78  C   UNL A   1      32.591  22.789  25.484  1.00  0.00     0.031 A 
ATOM     79  C   UNL A   1      33.759  22.646  28.020  1.00  0.00     0.002 A 
ATOM     80  C   UNL A   1      31.799  22.604  26.612  1.00  0.00     0.041 A 
ATOM     81  C   UNL A   1      32.377  22.526  27.878  1.00  0.00     0.020 A 
ATOM     82  Cl  UNL A   1      30.094  22.466  26.439  1.00  0.00    -0.084 Cl
ENDBRANCH  73  76
BRANCH  75  83
ATOM     83  C   UNL A   1      33.753  25.122  23.454  1.00  0.00     0.067 A 
ATOM     84  C   UNL A   1      32.679  25.223  22.568  1.00  0.00     0.029 A 
ATOM     85  C   UNL A   1      33.966  26.101  24.433  1.00  0.00     0.029 A 
ATOM     86  C   UNL A   1      31.761  26.266  22.738  1.00  0.00     0.015 A 
ATOM     87  C   UNL A   1      33.069  27.151  24.576  1.00  0.00     0.015 A 
ATOM     88  C   UNL A   1      31.941  27.230  23.749  1.00  0.00     0.056 A 
BRANCH  88  89
ATOM     89  C   UNL A   1      30.925  28.325  23.964  1.00  0.00     0.416 C 
ATOM     90  F   UNL A   1      29.651  27.861  24.051  1.00  0.00    -0.166 F 
ATOM     91  F   UNL A   1      31.157  29.030  25.107  1.00  0.00    -0.166 F 
ATOM     92  F   UNL A   1      30.916  29.252  22.962  1.00  0.00    -0.166 F 
ENDBRANCH  88  89
ENDBRANCH  75  83
ENDBRANCH  69  71
ENDBRANCH  68  69
ENDBRANCH  67  68
ENDBRANCH   1  67
TORSDOF 17
ENDMDL
MODEL 2
REMARK VINA RESULT:     -11.7      5.340      9.710
REMARK SMILES O=C(OCCOC(=O)c1nnn(-c2ccc(C(F)(F)F)cc2)c1-c1cccc(Cl)c1)c1ccc(-c2c3nc(c(-c4ccc(S(=O)(=O)[O-])cc4)c4ccc([nH]4)c(-c4ccc(S(=O)(=O)[O-])cc4)c4nc(c(-c5ccc(S(=O)(=O)[O-])cc5)c5ccc2[nH]5)C=C4)C=C3)cc1
REMARK SMILES IDX 4 1 3 2 2 3 1 4 31 5 32 6 90 7 33 8 89 9 34 10 35 11 36 12
REMARK SMILES IDX 83 13 37 14 88 15 82 16 84 17 38 18 87 19 81 20 80 21 39 23
REMARK SMILES IDX 69 24 50 25 68 26 51 27 54 28 67 29 85 30 52 31 53 32 66 34
REMARK SMILES IDX 86 35 55 36 40 37 41 38 49 39 42 40 48 41 43 42 44 43 45 44
REMARK SMILES IDX 46 45 47 46 70 47 71 48 79 49 72 50 78 51 73 52 74 53 75 54
REMARK SMILES IDX 76 55 77 56 56 57 57 58 65 59 58 60 64 61 59 62 60 63 61 64
REMARK SMILES IDX 62 65 63 66 5 67 6 68 7 69 8 70 9 71 10 72 23 73 11 74 12 75
REMARK SMILES IDX 24 76 25 77 30 78 26 79 28 80 27 81 29 82 13 83 14 84 22 85
REMARK SMILES IDX 15 86 21 87 16 88 17 89 18 90 19 91 20 92
REMARK H PARENT 84 22 54 33
REMARK Flexibility Score: inf
ROOT
ATOM      1  C   UNL A   1      46.221  26.670  24.997  1.00  0.00     0.275 C 
ENDROOT
BRANCH   1   2
ATOM      2  O   UNL A   1      46.311  27.607  26.089  1.00  0.00    -0.458 OA
BRANCH   2   3
ATOM      3  C   UNL A   1      46.141  28.933  25.900  1.00  0.00     0.338 C 
ATOM      4  O   UNL A   1      46.468  29.489  24.861  1.00  0.00    -0.246 OA
BRANCH   3   5
ATOM      5  C   UNL A   1      45.309  29.619  26.923  1.00  0.00     0.060 A 
ATOM      6  C   UNL A   1      45.830  30.439  27.936  1.00  0.00     0.016 A 
ATOM      7  C   UNL A   1      43.930  29.376  26.867  1.00  0.00     0.016 A 
ATOM      8  C   UNL A   1      45.017  30.879  28.963  1.00  0.00     0.010 A 
ATOM      9  C   UNL A   1      43.111  29.826  27.883  1.00  0.00     0.010 A 
ATOM     10  C   UNL A   1      43.683  30.493  28.965  1.00  0.00    -0.014 A 
BRANCH  10  11
ATOM     11  C   UNL A   1      42.886  30.753  30.150  1.00  0.00     0.031 A 
ATOM     12  C   UNL A   1      42.765  29.612  31.100  1.00  0.00     0.074 A 
ATOM     13  C   UNL A   1      42.460  32.014  30.376  1.00  0.00     0.049 A 
ATOM     14  N   UNL A   1      41.693  29.063  31.571  1.00  0.00    -0.248 NA
ATOM     15  C   UNL A   1      44.006  28.917  31.492  1.00  0.00     0.031 C 
ATOM     16  C   UNL A   1      42.776  33.223  29.601  1.00  0.00     0.029 A 
ATOM     17  N   UNL A   1      41.782  32.519  31.436  1.00  0.00    -0.354 N 
ATOM     18  C   UNL A   1      42.122  28.098  32.481  1.00  0.00     0.074 A 
ATOM     19  C   UNL A   1      43.540  27.948  32.278  1.00  0.00     0.031 C 
ATOM     20  C   UNL A   1      42.558  34.315  30.368  1.00  0.00     0.029 A 
ATOM     21  C   UNL A   1      41.950  33.890  31.615  1.00  0.00     0.049 A 
ATOM     22  H   UNL A   1      41.221  31.967  32.026  1.00  0.00     0.167 HD
ATOM     23  C   UNL A   1      41.332  27.659  33.501  1.00  0.00     0.031 A 
ATOM     24  C   UNL A   1      41.701  34.597  32.749  1.00  0.00     0.031 A 
ATOM     25  C   UNL A   1      39.945  27.963  33.279  1.00  0.00     0.049 A 
ATOM     26  C   UNL A   1      40.807  33.754  33.587  1.00  0.00     0.074 A 
ATOM     27  C   UNL A   1      39.018  27.599  32.325  1.00  0.00     0.029 A 
ATOM     28  N   UNL A   1      39.437  29.086  33.891  1.00  0.00    -0.354 N 
ATOM     29  N   UNL A   1      39.600  33.416  33.220  1.00  0.00    -0.248 NA
ATOM     30  C   UNL A   1      41.431  32.872  34.562  1.00  0.00     0.031 C 
ATOM     31  C   UNL A   1      38.279  28.791  32.066  1.00  0.00     0.029 A 
ATOM     32  C   UNL A   1      38.741  29.783  32.934  1.00  0.00     0.049 A 
ATOM     33  H   UNL A   1      39.551  29.341  34.835  1.00  0.00     0.167 HD
ATOM     34  C   UNL A   1      39.479  32.078  33.572  1.00  0.00     0.074 A 
ATOM     35  C   UNL A   1      40.611  31.819  34.464  1.00  0.00     0.031 C 
ATOM     36  C   UNL A   1      38.658  31.228  32.884  1.00  0.00     0.031 A 
BRANCH  23  37
ATOM     37  C   UNL A   1      41.871  27.313  34.867  1.00  0.00    -0.014 A 
ATOM     38  C   UNL A   1      42.586  28.284  35.595  1.00  0.00     0.010 A 
ATOM     39  C   UNL A   1      41.945  25.980  35.328  1.00  0.00     0.010 A 
ATOM     40  C   UNL A   1      43.387  27.926  36.689  1.00  0.00     0.020 A 
ATOM     41  C   UNL A   1      42.707  25.620  36.440  1.00  0.00     0.020 A 
ATOM     42  C   UNL A   1      43.452  26.592  37.094  1.00  0.00     0.054 A 
BRANCH  42  43
ATOM     43  S   UNL A   1      44.578  26.123  38.432  1.00  0.00     0.124 S 
ATOM     44  O   UNL A   1      45.834  26.721  37.993  1.00  0.00    -0.237 OA
ATOM     45  O   UNL A   1      43.950  26.747  39.594  1.00  0.00    -0.237 OA
ATOM     46  O   UNL A   1      44.537  24.663  38.418  1.00  0.00    -0.744 OA
ENDBRANCH  42  43
ENDBRANCH  23  37
BRANCH  24  47
ATOM     47  C   UNL A   1      42.527  35.712  33.294  1.00  0.00    -0.014 A 
ATOM     48  C   UNL A   1      42.092  36.505  34.372  1.00  0.00     0.010 A 
ATOM     49  C   UNL A   1      43.881  35.832  32.908  1.00  0.00     0.010 A 
ATOM     50  C   UNL A   1      42.986  37.351  35.060  1.00  0.00     0.020 A 
ATOM     51  C   UNL A   1      44.775  36.673  33.584  1.00  0.00     0.020 A 
ATOM     52  C   UNL A   1      44.328  37.416  34.671  1.00  0.00     0.054 A 
BRANCH  52  53
ATOM     53  S   UNL A   1      45.512  38.384  35.658  1.00  0.00     0.124 S 
ATOM     54  O   UNL A   1      44.666  39.427  36.229  1.00  0.00    -0.237 OA
ATOM     55  O   UNL A   1      46.020  37.395  36.606  1.00  0.00    -0.237 OA
ATOM     56  O   UNL A   1      46.487  38.847  34.672  1.00  0.00    -0.744 OA
ENDBRANCH  52  53
ENDBRANCH  24  47
BRANCH  36  57
ATOM     57  C   UNL A   1      37.752  31.807  31.815  1.00  0.00    -0.014 A 
ATOM     58  C   UNL A   1      38.146  31.987  30.471  1.00  0.00     0.010 A 
ATOM     59  C   UNL A   1      36.400  32.003  32.141  1.00  0.00     0.010 A 
ATOM     60  C   UNL A   1      37.216  32.371  29.491  1.00  0.00     0.020 A 
ATOM     61  C   UNL A   1      35.468  32.372  31.167  1.00  0.00     0.020 A 
ATOM     62  C   UNL A   1      35.880  32.563  29.847  1.00  0.00     0.054 A 
BRANCH  62  63
ATOM     63  S   UNL A   1      34.668  33.014  28.572  1.00  0.00     0.124 S 
ATOM     64  O   UNL A   1      35.502  33.621  27.539  1.00  0.00    -0.237 OA
ATOM     65  O   UNL A   1      34.067  31.728  28.223  1.00  0.00    -0.237 OA
ATOM     66  O   UNL A   1      33.767  33.939  29.260  1.00  0.00    -0.744 OA
ENDBRANCH  62  63
ENDBRANCH  36  57
ENDBRANCH  10  11
ENDBRANCH   3   5
ENDBRANCH   2   3
ENDBRANCH   1   2
BRANCH   1  67
ATOM     67  C   UNL A   1      47.184  25.484  25.020  1.00  0.00     0.275 C 
BRANCH  67  68
ATOM     68  O   UNL A   1      46.940  24.636  26.152  1.00  0.00    -0.457 OA
BRANCH  68  69
ATOM     69  C   UNL A   1      46.101  23.571  25.952  1.00  0.00     0.361 C 
ATOM     70  O   UNL A   1      46.457  22.431  25.726  1.00  0.00    -0.244 OA
BRANCH  69  71
ATOM     71  C   UNL A   1      44.721  24.001  25.865  1.00  0.00     0.198 A 
ATOM     72  N   UNL A   1      43.883  23.809  24.802  1.00  0.00    -0.122 NA
ATOM     73  C   UNL A   1      44.045  24.643  26.880  1.00  0.00     0.109 A 
ATOM     74  N   UNL A   1      42.687  24.294  25.128  1.00  0.00    -0.061 NA
ATOM     75  N   UNL A   1      42.814  24.929  26.315  1.00  0.00    -0.212 N 
BRANCH  73  76
ATOM     76  C   UNL A   1      44.461  24.929  28.246  1.00  0.00     0.004 A 
ATOM     77  C   UNL A   1      44.051  24.102  29.300  1.00  0.00     0.010 A 
ATOM     78  C   UNL A   1      45.297  26.021  28.508  1.00  0.00     0.031 A 
ATOM     79  C   UNL A   1      44.450  24.380  30.607  1.00  0.00     0.002 A 
ATOM     80  C   UNL A   1      45.693  26.291  29.813  1.00  0.00     0.041 A 
ATOM     81  C   UNL A   1      45.269  25.479  30.864  1.00  0.00     0.020 A 
ATOM     82  Cl  UNL A   1      46.710  27.640  30.130  1.00  0.00    -0.084 Cl
ENDBRANCH  73  76
BRANCH  75  83
ATOM     83  C   UNL A   1      41.834  25.807  26.818  1.00  0.00     0.067 A 
ATOM     84  C   UNL A   1      41.334  25.650  28.112  1.00  0.00     0.029 A 
ATOM     85  C   UNL A   1      41.418  26.877  26.017  1.00  0.00     0.029 A 
ATOM     86  C   UNL A   1      40.487  26.635  28.632  1.00  0.00     0.015 A 
ATOM     87  C   UNL A   1      40.552  27.835  26.527  1.00  0.00     0.015 A 
ATOM     88  C   UNL A   1      40.099  27.741  27.849  1.00  0.00     0.056 A 
BRANCH  88  89
ATOM     89  C   UNL A   1      39.226  28.829  28.425  1.00  0.00     0.416 C 
ATOM     90  F   UNL A   1      38.733  29.673  27.482  1.00  0.00    -0.166 F 
ATOM     91  F   UNL A   1      38.150  28.330  29.095  1.00  0.00    -0.166 F 
ATOM     92  F   UNL A   1      39.880  29.619  29.326  1.00  0.00    -0.166 F 
ENDBRANCH  88  89
ENDBRANCH  75  83
ENDBRANCH  69  71
ENDBRANCH  68  69
ENDBRANCH  67  68
ENDBRANCH   1  67
TORSDOF 17
ENDMDL
MODEL 3
REMARK VINA RESULT:     -11.5      3.979      7.114
REMARK SMILES O=C(OCCOC(=O)c1nnn(-c2ccc(C(F)(F)F)cc2)c1-c1cccc(Cl)c1)c1ccc(-c2c3nc(c(-c4ccc(S(=O)(=O)[O-])cc4)c4ccc([nH]4)c(-c4ccc(S(=O)(=O)[O-])cc4)c4nc(c(-c5ccc(S(=O)(=O)[O-])cc5)c5ccc2[nH]5)C=C4)C=C3)cc1
REMARK SMILES IDX 4 1 3 2 2 3 1 4 31 5 32 6 90 7 33 8 89 9 34 10 35 11 36 12
REMARK SMILES IDX 83 13 37 14 88 15 82 16 84 17 38 18 87 19 81 20 80 21 39 23
REMARK SMILES IDX 69 24 50 25 68 26 51 27 54 28 67 29 85 30 52 31 53 32 66 34
REMARK SMILES IDX 86 35 55 36 40 37 41 38 49 39 42 40 48 41 43 42 44 43 45 44
REMARK SMILES IDX 46 45 47 46 70 47 71 48 79 49 72 50 78 51 73 52 74 53 75 54
REMARK SMILES IDX 76 55 77 56 56 57 57 58 65 59 58 60 64 61 59 62 60 63 61 64
REMARK SMILES IDX 62 65 63 66 5 67 6 68 7 69 8 70 9 71 10 72 23 73 11 74 12 75
REMARK SMILES IDX 24 76 25 77 30 78 26 79 28 80 27 81 29 82 13 83 14 84 22 85
REMARK SMILES IDX 15 86 21 87 16 88 17 89 18 90 19 91 20 92
REMARK H PARENT 84 22 54 33
REMARK Flexibility Score: inf
ROOT
ATOM      1  C   UNL A   1      32.586  28.780  25.016  1.00  0.00     0.275 C 
ENDROOT
BRANCH   1   2
ATOM      2  O   UNL A   1      33.635  29.608  25.557  1.00  0.00    -0.458 OA
BRANCH   2   3
ATOM      3  C   UNL A   1      33.412  30.448  26.591  1.00  0.00     0.338 C 
ATOM      4  O   UNL A   1      32.286  30.806  26.907  1.00  0.00    -0.246 OA
BRANCH   3   5
ATOM      5  C   UNL A   1      34.586  30.704  27.466  1.00  0.00     0.060 A 
ATOM      6  C   UNL A   1      35.164  31.969  27.652  1.00  0.00     0.016 A 
ATOM      7  C   UNL A   1      35.149  29.585  28.093  1.00  0.00     0.016 A 
ATOM      8  C   UNL A   1      36.367  32.095  28.320  1.00  0.00     0.010 A 
ATOM      9  C   UNL A   1      36.343  29.707  28.774  1.00  0.00     0.010 A 
ATOM     10  C   UNL A   1      36.982  30.946  28.799  1.00  0.00    -0.014 A 
BRANCH  10  11
ATOM     11  C   UNL A   1      38.345  31.040  29.290  1.00  0.00     0.031 A 
ATOM     12  C   UNL A   1      39.171  29.813  29.119  1.00  0.00     0.074 A 
ATOM     13  C   UNL A   1      38.798  32.242  29.707  1.00  0.00     0.049 A 
ATOM     14  N   UNL A   1      39.827  29.148  30.013  1.00  0.00    -0.248 NA
ATOM     15  C   UNL A   1      39.178  29.176  27.788  1.00  0.00     0.031 C 
ATOM     16  C   UNL A   1      38.100  33.535  29.649  1.00  0.00     0.029 A 
ATOM     17  N   UNL A   1      40.036  32.600  30.125  1.00  0.00    -0.354 N 
ATOM     18  C   UNL A   1      40.501  28.139  29.328  1.00  0.00     0.074 A 
ATOM     19  C   UNL A   1      39.948  28.109  27.999  1.00  0.00     0.031 C 
ATOM     20  C   UNL A   1      39.007  34.535  29.723  1.00  0.00     0.029 A 
ATOM     21  C   UNL A   1      40.313  33.957  29.984  1.00  0.00     0.049 A 
ATOM     22  H   UNL A   1      40.683  31.959  30.497  1.00  0.00     0.167 HD
ATOM     23  C   UNL A   1      41.629  27.555  29.820  1.00  0.00     0.031 A 
ATOM     24  C   UNL A   1      41.540  34.540  29.979  1.00  0.00     0.031 A 
ATOM     25  C   UNL A   1      41.781  27.777  31.232  1.00  0.00     0.049 A 
ATOM     26  C   UNL A   1      42.476  33.564  30.597  1.00  0.00     0.074 A 
ATOM     27  C   UNL A   1      41.045  27.435  32.348  1.00  0.00     0.029 A 
ATOM     28  N   UNL A   1      42.611  28.801  31.626  1.00  0.00    -0.354 N 
ATOM     29  N   UNL A   1      42.377  33.174  31.839  1.00  0.00    -0.248 NA
ATOM     30  C   UNL A   1      43.175  32.644  29.710  1.00  0.00     0.031 C 
ATOM     31  C   UNL A   1      41.098  28.589  33.183  1.00  0.00     0.029 A 
ATOM     32  C   UNL A   1      41.929  29.529  32.568  1.00  0.00     0.049 A 
ATOM     33  H   UNL A   1      43.521  28.977  31.295  1.00  0.00     0.167 HD
ATOM     34  C   UNL A   1      42.607  31.805  31.806  1.00  0.00     0.074 A 
ATOM     35  C   UNL A   1      43.167  31.549  30.478  1.00  0.00     0.031 C 
ATOM     36  C   UNL A   1      42.051  30.963  32.730  1.00  0.00     0.031 A 
BRANCH  23  37
ATOM     37  C   UNL A   1      42.781  27.127  28.945  1.00  0.00    -0.014 A 
ATOM     38  C   UNL A   1      43.463  28.092  28.178  1.00  0.00     0.010 A 
ATOM     39  C   UNL A   1      43.023  25.770  28.634  1.00  0.00     0.010 A 
ATOM     40  C   UNL A   1      44.293  27.716  27.112  1.00  0.00     0.020 A 
ATOM     41  C   UNL A   1      43.880  25.386  27.601  1.00  0.00     0.020 A 
ATOM     42  C   UNL A   1      44.483  26.364  26.823  1.00  0.00     0.054 A 
BRANCH  42  43
ATOM     43  S   UNL A   1      45.462  25.893  25.375  1.00  0.00     0.124 S 
ATOM     44  O   UNL A   1      45.673  27.180  24.722  1.00  0.00    -0.237 OA
ATOM     45  O   UNL A   1      46.644  25.290  25.986  1.00  0.00    -0.237 OA
ATOM     46  O   UNL A   1      44.592  24.961  24.661  1.00  0.00    -0.744 OA
ENDBRANCH  42  43
ENDBRANCH  23  37
BRANCH  24  47
ATOM     47  C   UNL A   1      41.984  35.658  29.097  1.00  0.00    -0.014 A 
ATOM     48  C   UNL A   1      41.361  35.927  27.863  1.00  0.00     0.010 A 
ATOM     49  C   UNL A   1      42.871  36.635  29.599  1.00  0.00     0.010 A 
ATOM     50  C   UNL A   1      41.589  37.141  27.183  1.00  0.00     0.020 A 
ATOM     51  C   UNL A   1      43.105  37.843  28.929  1.00  0.00     0.020 A 
ATOM     52  C   UNL A   1      42.446  38.100  27.731  1.00  0.00     0.054 A 
BRANCH  52  53
ATOM     53  S   UNL A   1      42.613  39.728  26.934  1.00  0.00     0.124 S 
ATOM     54  O   UNL A   1      41.393  39.813  26.136  1.00  0.00    -0.237 OA
ATOM     55  O   UNL A   1      42.683  40.635  28.077  1.00  0.00    -0.237 OA
ATOM     56  O   UNL A   1      43.850  39.611  26.164  1.00  0.00    -0.744 OA
ENDBRANCH  52  53
ENDBRANCH  24  47
BRANCH  36  57
ATOM     57  C   UNL A   1      41.299  31.570  33.898  1.00  0.00    -0.014 A 
ATOM     58  C   UNL A   1      39.966  32.029  33.814  1.00  0.00     0.010 A 
ATOM     59  C   UNL A   1      41.898  31.501  35.167  1.00  0.00     0.010 A 
ATOM     60  C   UNL A   1      39.265  32.428  34.965  1.00  0.00     0.020 A 
ATOM     61  C   UNL A   1      41.201  31.883  36.317  1.00  0.00     0.020 A 
ATOM     62  C   UNL A   1      39.890  32.352  36.212  1.00  0.00     0.054 A 
BRANCH  62  63
ATOM     63  S   UNL A   1      38.970  32.822  37.705  1.00  0.00     0.124 S 
ATOM     64  O   UNL A   1      40.006  32.813  38.734  1.00  0.00    -0.237 OA
ATOM     65  O   UNL A   1      38.438  34.139  37.360  1.00  0.00    -0.237 OA
ATOM     66  O   UNL A   1      37.960  31.773  37.837  1.00  0.00    -0.744 OA
ENDBRANCH  62  63
ENDBRANCH  36  57
ENDBRANCH  10  11
ENDBRANCH   3   5
ENDBRANCH   2   3
ENDBRANCH   1   2
BRANCH   1  67
ATOM     67  C   UNL A   1      32.170  29.044  23.571  1.00  0.00     0.275 C 
BRANCH  67  68
ATOM     68  O   UNL A   1      32.740  28.075  22.678  1.00  0.00    -0.457 OA
BRANCH  68  69
ATOM     69  C   UNL A   1      31.866  27.214  22.067  1.00  0.00     0.361 C 
ATOM     70  O   UNL A   1      30.703  27.461  21.812  1.00  0.00    -0.244 OA
BRANCH  69  71
ATOM     71  C   UNL A   1      32.446  25.896  21.919  1.00  0.00     0.198 A 
ATOM     72  N   UNL A   1      33.008  25.386  20.782  1.00  0.00    -0.122 NA
ATOM     73  C   UNL A   1      32.543  24.974  22.939  1.00  0.00     0.109 A 
ATOM     74  N   UNL A   1      33.478  24.174  21.063  1.00  0.00    -0.061 NA
ATOM     75  N   UNL A   1      33.073  23.858  22.314  1.00  0.00    -0.212 N 
BRANCH  73  76
ATOM     76  C   UNL A   1      32.227  25.109  24.354  1.00  0.00     0.004 A 
ATOM     77  C   UNL A   1      33.247  25.318  25.292  1.00  0.00     0.010 A 
ATOM     78  C   UNL A   1      30.895  25.055  24.781  1.00  0.00     0.031 A 
ATOM     79  C   UNL A   1      32.942  25.444  26.646  1.00  0.00     0.002 A 
ATOM     80  C   UNL A   1      30.597  25.185  26.134  1.00  0.00     0.041 A 
ATOM     81  C   UNL A   1      31.614  25.373  27.068  1.00  0.00     0.020 A 
ATOM     82  Cl  UNL A   1      28.960  25.106  26.653  1.00  0.00    -0.084 Cl
ENDBRANCH  73  76
BRANCH  75  83
ATOM     83  C   UNL A   1      33.131  22.547  22.827  1.00  0.00     0.067 A 
ATOM     84  C   UNL A   1      34.105  22.191  23.761  1.00  0.00     0.029 A 
ATOM     85  C   UNL A   1      32.154  21.628  22.427  1.00  0.00     0.029 A 
ATOM     86  C   UNL A   1      34.029  20.932  24.367  1.00  0.00     0.015 A 
ATOM     87  C   UNL A   1      32.103  20.368  23.009  1.00  0.00     0.015 A 
ATOM     88  C   UNL A   1      33.022  20.016  24.006  1.00  0.00     0.056 A 
BRANCH  88  89
ATOM     89  C   UNL A   1      32.909  18.678  24.695  1.00  0.00     0.416 C 
ATOM     90  F   UNL A   1      33.996  17.885  24.501  1.00  0.00    -0.166 F 
ATOM     91  F   UNL A   1      32.758  18.800  26.043  1.00  0.00    -0.166 F 
ATOM     92  F   UNL A   1      31.836  17.947  24.273  1.00  0.00    -0.166 F 
ENDBRANCH  88  89
ENDBRANCH  75  83
ENDBRANCH  69  71
ENDBRANCH  68  69
ENDBRANCH  67  68
ENDBRANCH   1  67
TORSDOF 17
ENDMDL
