MODEL 1
REMARK VINA RESULT:     -11.1      0.000      0.000
REMARK SMILES O=Cc1c(OCc2ccc(C(=O)OCCOC(=O)c3ccc(-c4c5nc(c(-c6ccc(S(=O)(=O)[O-])cc6)c6ccc([nH]6)c(-c6ccc(S(=O)(=O)[O-])cc6)c6nc(c(-c7ccc(S(=O)(=O)[O-])cc7)c7ccc4[nH]7)C=C6)C=C5)cc3)cc2)ccc2ccccc12
REMARK SMILES IDX 14 1 13 2 11 3 12 4 10 5 7 6 8 7 80 8 9 9 79 10 6 11 5 12
REMARK SMILES IDX 4 13 3 14 88 15 81 16 83 17 87 18 82 19 84 20 86 21 85 22
REMARK SMILES IDX 2 23 1 24 15 25 16 26 17 27 18 28 19 29 20 30 78 31 21 32
REMARK SMILES IDX 77 33 22 34 23 35 24 36 71 37 25 38 76 39 70 40 72 41 26 42
REMARK SMILES IDX 75 43 69 44 68 45 27 47 57 48 38 49 56 50 39 51 42 52 55 53
REMARK SMILES IDX 73 54 40 55 41 56 54 58 74 59 43 60 28 61 29 62 37 63 30 64
REMARK SMILES IDX 36 65 31 66 32 67 33 68 34 69 35 70 58 71 59 72 67 73 60 74
REMARK SMILES IDX 66 75 61 76 62 77 63 78 64 79 65 80 44 81 45 82 53 83 46 84
REMARK SMILES IDX 52 85 47 86 48 87 49 88 50 89 51 90
REMARK H PARENT 72 46 42 57
REMARK Flexibility Score: inf
ROOT
ATOM      1  C   UNL A   1      31.513  30.477  25.972  1.00  0.00     0.275 C 
ENDROOT
BRANCH   1   2
ATOM      2  O   UNL A   1      32.050  29.775  24.833  1.00  0.00    -0.458 OA
BRANCH   2   3
ATOM      3  C   UNL A   1      31.387  28.644  24.481  1.00  0.00     0.338 C 
ATOM      4  O   UNL A   1      30.349  28.581  23.842  1.00  0.00    -0.246 OA
BRANCH   3   5
ATOM      5  C   UNL A   1      32.144  27.441  24.903  1.00  0.00     0.060 A 
ATOM      6  C   UNL A   1      33.474  25.111  25.747  1.00  0.00    -0.011 A 
ATOM      7  C   UNL A   1      32.272  25.498  26.351  1.00  0.00     0.008 A 
ATOM      8  C   UNL A   1      34.028  25.933  24.752  1.00  0.00     0.008 A 
ATOM      9  C   UNL A   1      31.622  26.663  25.944  1.00  0.00     0.016 A 
ATOM     10  C   UNL A   1      33.357  27.079  24.313  1.00  0.00     0.016 A 
BRANCH   6  11
ATOM     11  C   UNL A   1      34.151  23.835  26.211  1.00  0.00     0.265 C 
BRANCH  11  12
ATOM     12  O   UNL A   1      34.653  23.015  25.155  1.00  0.00    -0.488 OA
BRANCH  12  13
ATOM     13  C   UNL A   1      34.035  21.830  24.856  1.00  0.00     0.130 A 
ATOM     14  C   UNL A   1      34.827  20.669  24.927  1.00  0.00     0.064 A 
ATOM     15  C   UNL A   1      34.345  19.403  24.487  1.00  0.00    -0.004 A 
ATOM     16  C   UNL A   1      32.719  21.718  24.412  1.00  0.00     0.048 A 
ATOM     17  C   UNL A   1      33.022  19.337  23.989  1.00  0.00    -0.017 A 
ATOM     18  C   UNL A   1      35.094  18.198  24.515  1.00  0.00     0.009 A 
ATOM     19  C   UNL A   1      32.224  20.488  23.978  1.00  0.00     0.012 A 
ATOM     20  C   UNL A   1      32.508  18.122  23.510  1.00  0.00     0.009 A 
ATOM     21  C   UNL A   1      34.568  16.997  24.035  1.00  0.00     0.001 A 
ATOM     22  C   UNL A   1      33.278  16.961  23.525  1.00  0.00     0.001 A 
BRANCH  14  23
ATOM     23  C   UNL A   1      36.224  20.779  25.407  1.00  0.00     0.264 C 
ATOM     24  O   UNL A   1      37.180  20.997  24.674  1.00  0.00    -0.298 OA
ENDBRANCH  14  23
ENDBRANCH  12  13
ENDBRANCH  11  12
ENDBRANCH   6  11
ENDBRANCH   3   5
ENDBRANCH   2   3
ENDBRANCH   1   2
BRANCH   1  25
ATOM     25  C   UNL A   1      32.461  30.383  27.167  1.00  0.00     0.275 C 
BRANCH  25  26
ATOM     26  O   UNL A   1      33.735  30.956  26.823  1.00  0.00    -0.458 OA
BRANCH  26  27
ATOM     27  C   UNL A   1      34.326  31.688  27.794  1.00  0.00     0.338 C 
ATOM     28  O   UNL A   1      33.907  32.713  28.302  1.00  0.00    -0.246 OA
BRANCH  27  29
ATOM     29  C   UNL A   1      35.612  31.070  28.176  1.00  0.00     0.060 A 
ATOM     30  C   UNL A   1      35.652  29.756  28.640  1.00  0.00     0.016 A 
ATOM     31  C   UNL A   1      36.766  31.852  28.195  1.00  0.00     0.016 A 
ATOM     32  C   UNL A   1      36.822  29.249  29.209  1.00  0.00     0.010 A 
ATOM     33  C   UNL A   1      37.958  31.314  28.691  1.00  0.00     0.010 A 
ATOM     34  C   UNL A   1      37.991  30.024  29.254  1.00  0.00    -0.014 A 
BRANCH  34  35
ATOM     35  C   UNL A   1      39.211  29.542  29.968  1.00  0.00     0.031 A 
ATOM     36  C   UNL A   1      39.605  30.169  31.286  1.00  0.00     0.074 A 
ATOM     37  C   UNL A   1      39.969  28.544  29.471  1.00  0.00     0.049 A 
ATOM     38  N   UNL A   1      40.713  30.035  31.970  1.00  0.00    -0.248 NA
ATOM     39  C   UNL A   1      38.628  31.079  31.906  1.00  0.00     0.031 C 
ATOM     40  C   UNL A   1      39.702  27.801  28.239  1.00  0.00     0.029 A 
ATOM     41  N   UNL A   1      41.121  27.972  29.958  1.00  0.00    -0.354 N 
ATOM     42  C   UNL A   1      40.599  30.899  33.055  1.00  0.00     0.074 A 
ATOM     43  C   UNL A   1      39.308  31.546  32.943  1.00  0.00     0.031 C 
ATOM     44  C   UNL A   1      40.634  26.845  28.091  1.00  0.00     0.029 A 
ATOM     45  C   UNL A   1      41.608  26.955  29.171  1.00  0.00     0.049 A 
ATOM     46  H   UNL A   1      41.556  28.264  30.792  1.00  0.00     0.167 HD
ATOM     47  C   UNL A   1      41.487  31.142  34.049  1.00  0.00     0.031 A 
ATOM     48  C   UNL A   1      42.728  26.212  29.283  1.00  0.00     0.031 A 
ATOM     49  C   UNL A   1      42.743  30.459  34.203  1.00  0.00     0.049 A 
ATOM     50  C   UNL A   1      43.688  26.475  30.409  1.00  0.00     0.074 A 
ATOM     51  C   UNL A   1      43.712  30.643  35.175  1.00  0.00     0.029 A 
ATOM     52  N   UNL A   1      43.190  29.434  33.384  1.00  0.00    -0.354 N 
ATOM     53  N   UNL A   1      43.604  27.362  31.372  1.00  0.00    -0.248 NA
ATOM     54  C   UNL A   1      44.901  25.647  30.456  1.00  0.00     0.031 C 
ATOM     55  C   UNL A   1      44.753  29.739  34.934  1.00  0.00     0.029 A 
ATOM     56  C   UNL A   1      44.414  28.970  33.833  1.00  0.00     0.049 A 
ATOM     57  H   UNL A   1      42.708  29.088  32.598  1.00  0.00     0.167 HD
ATOM     58  C   UNL A   1      44.750  27.194  32.141  1.00  0.00     0.074 A 
ATOM     59  C   UNL A   1      45.501  26.108  31.545  1.00  0.00     0.031 C 
ATOM     60  C   UNL A   1      45.149  27.886  33.236  1.00  0.00     0.031 A 
BRANCH  47  61
ATOM     61  C   UNL A   1      41.146  32.232  35.028  1.00  0.00    -0.014 A 
ATOM     62  C   UNL A   1      41.514  33.570  34.800  1.00  0.00     0.010 A 
ATOM     63  C   UNL A   1      40.423  31.909  36.193  1.00  0.00     0.010 A 
ATOM     64  C   UNL A   1      41.205  34.557  35.741  1.00  0.00     0.020 A 
ATOM     65  C   UNL A   1      40.091  32.897  37.123  1.00  0.00     0.020 A 
ATOM     66  C   UNL A   1      40.504  34.212  36.901  1.00  0.00     0.054 A 
BRANCH  66  67
ATOM     67  S   UNL A   1      40.109  35.508  38.108  1.00  0.00     0.124 S 
ATOM     68  O   UNL A   1      41.337  35.566  38.896  1.00  0.00    -0.237 OA
ATOM     69  O   UNL A   1      39.851  36.672  37.263  1.00  0.00    -0.237 OA
ATOM     70  O   UNL A   1      38.941  34.981  38.809  1.00  0.00    -0.744 OA
ENDBRANCH  66  67
ENDBRANCH  47  61
BRANCH  48  71
ATOM     71  C   UNL A   1      43.017  25.159  28.272  1.00  0.00    -0.014 A 
ATOM     72  C   UNL A   1      43.796  25.454  27.139  1.00  0.00     0.010 A 
ATOM     73  C   UNL A   1      42.535  23.850  28.452  1.00  0.00     0.010 A 
ATOM     74  C   UNL A   1      44.086  24.458  26.203  1.00  0.00     0.020 A 
ATOM     75  C   UNL A   1      42.844  22.847  27.531  1.00  0.00     0.020 A 
ATOM     76  C   UNL A   1      43.612  23.159  26.408  1.00  0.00     0.054 A 
BRANCH  76  77
ATOM     77  S   UNL A   1      44.065  21.856  25.227  1.00  0.00     0.124 S 
ATOM     78  O   UNL A   1      43.052  20.840  25.494  1.00  0.00    -0.237 OA
ATOM     79  O   UNL A   1      43.956  22.536  23.939  1.00  0.00    -0.237 OA
ATOM     80  O   UNL A   1      45.428  21.505  25.621  1.00  0.00    -0.744 OA
ENDBRANCH  76  77
ENDBRANCH  48  71
BRANCH  60  81
ATOM     81  C   UNL A   1      46.439  27.466  33.883  1.00  0.00    -0.014 A 
ATOM     82  C   UNL A   1      46.461  26.477  34.881  1.00  0.00     0.010 A 
ATOM     83  C   UNL A   1      47.648  28.047  33.460  1.00  0.00     0.010 A 
ATOM     84  C   UNL A   1      47.671  26.096  35.469  1.00  0.00     0.020 A 
ATOM     85  C   UNL A   1      48.861  27.657  34.034  1.00  0.00     0.020 A 
ATOM     86  C   UNL A   1      48.863  26.695  35.047  1.00  0.00     0.054 A 
BRANCH  86  87
ATOM     87  S   UNL A   1      50.427  26.170  35.802  1.00  0.00     0.124 S 
ATOM     88  O   UNL A   1      49.972  25.214  36.808  1.00  0.00    -0.237 OA
ATOM     89  O   UNL A   1      51.155  25.594  34.674  1.00  0.00    -0.237 OA
ATOM     90  O   UNL A   1      50.988  27.412  36.328  1.00  0.00    -0.744 OA
ENDBRANCH  86  87
ENDBRANCH  60  81
ENDBRANCH  34  35
ENDBRANCH  27  29
ENDBRANCH  26  27
ENDBRANCH  25  26
ENDBRANCH   1  25
TORSDOF 18
ENDMDL
MODEL 2
REMARK VINA RESULT:     -11.0      2.958      9.101
REMARK SMILES O=Cc1c(OCc2ccc(C(=O)OCCOC(=O)c3ccc(-c4c5nc(c(-c6ccc(S(=O)(=O)[O-])cc6)c6ccc([nH]6)c(-c6ccc(S(=O)(=O)[O-])cc6)c6nc(c(-c7ccc(S(=O)(=O)[O-])cc7)c7ccc4[nH]7)C=C6)C=C5)cc3)cc2)ccc2ccccc12
REMARK SMILES IDX 14 1 13 2 11 3 12 4 10 5 7 6 8 7 80 8 9 9 79 10 6 11 5 12
REMARK SMILES IDX 4 13 3 14 88 15 81 16 83 17 87 18 82 19 84 20 86 21 85 22
REMARK SMILES IDX 2 23 1 24 15 25 16 26 17 27 18 28 19 29 20 30 78 31 21 32
REMARK SMILES IDX 77 33 22 34 23 35 24 36 71 37 25 38 76 39 70 40 72 41 26 42
REMARK SMILES IDX 75 43 69 44 68 45 27 47 57 48 38 49 56 50 39 51 42 52 55 53
REMARK SMILES IDX 73 54 40 55 41 56 54 58 74 59 43 60 28 61 29 62 37 63 30 64
REMARK SMILES IDX 36 65 31 66 32 67 33 68 34 69 35 70 58 71 59 72 67 73 60 74
REMARK SMILES IDX 66 75 61 76 62 77 63 78 64 79 65 80 44 81 45 82 53 83 46 84
REMARK SMILES IDX 52 85 47 86 48 87 49 88 50 89 51 90
REMARK H PARENT 72 46 42 57
REMARK Flexibility Score: inf
ROOT
ATOM      1  C   UNL A   1      39.702  21.573  26.300  1.00  0.00     0.275 C 
ENDROOT
BRANCH   1   2
ATOM      2  O   UNL A   1      38.529  22.074  25.627  1.00  0.00    -0.458 OA
BRANCH   2   3
ATOM      3  C   UNL A   1      37.766  21.134  25.012  1.00  0.00     0.338 C 
ATOM      4  O   UNL A   1      37.988  19.936  24.969  1.00  0.00    -0.246 OA
BRANCH   3   5
ATOM      5  C   UNL A   1      36.535  21.743  24.453  1.00  0.00     0.060 A 
ATOM      6  C   UNL A   1      34.137  22.852  23.488  1.00  0.00    -0.011 A 
ATOM      7  C   UNL A   1      34.111  21.754  24.355  1.00  0.00     0.008 A 
ATOM      8  C   UNL A   1      35.381  23.355  23.070  1.00  0.00     0.008 A 
ATOM      9  C   UNL A   1      35.301  21.193  24.819  1.00  0.00     0.016 A 
ATOM     10  C   UNL A   1      36.574  22.822  23.567  1.00  0.00     0.016 A 
BRANCH   6  11
ATOM     11  C   UNL A   1      32.824  23.441  23.008  1.00  0.00     0.265 C 
BRANCH  11  12
ATOM     12  O   UNL A   1      31.985  23.942  24.049  1.00  0.00    -0.488 OA
BRANCH  12  13
ATOM     13  C   UNL A   1      32.330  25.090  24.713  1.00  0.00     0.130 A 
ATOM     14  C   UNL A   1      31.538  26.226  24.464  1.00  0.00     0.064 A 
ATOM     15  C   UNL A   1      31.890  27.511  24.968  1.00  0.00    -0.004 A 
ATOM     16  C   UNL A   1      33.446  25.217  25.537  1.00  0.00     0.048 A 
ATOM     17  C   UNL A   1      33.061  27.615  25.754  1.00  0.00    -0.017 A 
ATOM     18  C   UNL A   1      31.147  28.699  24.742  1.00  0.00     0.009 A 
ATOM     19  C   UNL A   1      33.810  26.466  26.043  1.00  0.00     0.012 A 
ATOM     20  C   UNL A   1      33.473  28.863  26.246  1.00  0.00     0.009 A 
ATOM     21  C   UNL A   1      31.570  29.933  25.240  1.00  0.00     0.001 A 
ATOM     22  C   UNL A   1      32.737  30.016  25.984  1.00  0.00     0.001 A 
BRANCH  14  23
ATOM     23  C   UNL A   1      30.344  26.095  23.598  1.00  0.00     0.264 C 
ATOM     24  O   UNL A   1      29.198  26.033  24.024  1.00  0.00    -0.298 OA
ENDBRANCH  14  23
ENDBRANCH  12  13
ENDBRANCH  11  12
ENDBRANCH   6  11
ENDBRANCH   3   5
ENDBRANCH   2   3
ENDBRANCH   1   2
BRANCH   1  25
ATOM     25  C   UNL A   1      40.399  22.686  27.082  1.00  0.00     0.275 C 
BRANCH  25  26
ATOM     26  O   UNL A   1      39.900  23.966  26.655  1.00  0.00    -0.458 OA
BRANCH  26  27
ATOM     27  C   UNL A   1      40.825  24.947  26.548  1.00  0.00     0.338 C 
ATOM     28  O   UNL A   1      41.764  24.993  25.773  1.00  0.00    -0.246 OA
BRANCH  27  29
ATOM     29  C   UNL A   1      40.553  26.004  27.543  1.00  0.00     0.060 A 
ATOM     30  C   UNL A   1      41.328  27.163  27.569  1.00  0.00     0.016 A 
ATOM     31  C   UNL A   1      39.603  25.778  28.538  1.00  0.00     0.016 A 
ATOM     32  C   UNL A   1      41.221  28.053  28.639  1.00  0.00     0.010 A 
ATOM     33  C   UNL A   1      39.441  26.712  29.566  1.00  0.00     0.010 A 
ATOM     34  C   UNL A   1      40.283  27.837  29.660  1.00  0.00    -0.014 A 
BRANCH  34  35
ATOM     35  C   UNL A   1      40.242  28.711  30.870  1.00  0.00     0.031 A 
ATOM     36  C   UNL A   1      39.211  29.813  30.964  1.00  0.00     0.074 A 
ATOM     37  C   UNL A   1      41.097  28.533  31.897  1.00  0.00     0.049 A 
ATOM     38  N   UNL A   1      39.121  30.794  31.826  1.00  0.00    -0.248 NA
ATOM     39  C   UNL A   1      38.152  29.819  29.942  1.00  0.00     0.031 C 
ATOM     40  C   UNL A   1      42.118  27.488  31.987  1.00  0.00     0.029 A 
ATOM     41  N   UNL A   1      41.232  29.227  33.077  1.00  0.00    -0.354 N 
ATOM     42  C   UNL A   1      38.048  31.574  31.406  1.00  0.00     0.074 A 
ATOM     43  C   UNL A   1      37.513  30.947  30.217  1.00  0.00     0.031 C 
ATOM     44  C   UNL A   1      42.741  27.582  33.174  1.00  0.00     0.029 A 
ATOM     45  C   UNL A   1      42.222  28.738  33.897  1.00  0.00     0.049 A 
ATOM     46  H   UNL A   1      40.672  30.003  33.311  1.00  0.00     0.167 HD
ATOM     47  C   UNL A   1      37.557  32.714  31.952  1.00  0.00     0.031 A 
ATOM     48  C   UNL A   1      42.685  29.183  35.082  1.00  0.00     0.031 A 
ATOM     49  C   UNL A   1      38.042  33.308  33.168  1.00  0.00     0.049 A 
ATOM     50  C   UNL A   1      42.109  30.432  35.686  1.00  0.00     0.074 A 
ATOM     51  C   UNL A   1      37.612  34.467  33.794  1.00  0.00     0.029 A 
ATOM     52  N   UNL A   1      39.042  32.774  33.964  1.00  0.00    -0.354 N 
ATOM     53  N   UNL A   1      41.156  31.207  35.224  1.00  0.00    -0.248 NA
ATOM     54  C   UNL A   1      42.679  30.876  36.967  1.00  0.00     0.031 C 
ATOM     55  C   UNL A   1      38.363  34.640  34.962  1.00  0.00     0.029 A 
ATOM     56  C   UNL A   1      39.236  33.571  35.079  1.00  0.00     0.049 A 
ATOM     57  H   UNL A   1      39.542  31.949  33.765  1.00  0.00     0.167 HD
ATOM     58  C   UNL A   1      41.011  32.225  36.159  1.00  0.00     0.074 A 
ATOM     59  C   UNL A   1      41.957  31.958  37.223  1.00  0.00     0.031 C 
ATOM     60  C   UNL A   1      40.175  33.292  36.133  1.00  0.00     0.031 A 
BRANCH  47  61
ATOM     61  C   UNL A   1      36.458  33.419  31.204  1.00  0.00    -0.014 A 
ATOM     62  C   UNL A   1      36.611  33.804  29.860  1.00  0.00     0.010 A 
ATOM     63  C   UNL A   1      35.240  33.683  31.859  1.00  0.00     0.010 A 
ATOM     64  C   UNL A   1      35.581  34.480  29.199  1.00  0.00     0.020 A 
ATOM     65  C   UNL A   1      34.201  34.338  31.194  1.00  0.00     0.020 A 
ATOM     66  C   UNL A   1      34.386  34.751  29.873  1.00  0.00     0.054 A 
BRANCH  66  67
ATOM     67  S   UNL A   1      33.062  35.628  28.997  1.00  0.00     0.124 S 
ATOM     68  O   UNL A   1      33.814  36.609  28.221  1.00  0.00    -0.237 OA
ATOM     69  O   UNL A   1      32.427  34.566  28.219  1.00  0.00    -0.237 OA
ATOM     70  O   UNL A   1      32.242  36.178  30.074  1.00  0.00    -0.744 OA
ENDBRANCH  66  67
ENDBRANCH  47  61
BRANCH  48  71
ATOM     71  C   UNL A   1      43.786  28.450  35.764  1.00  0.00    -0.014 A 
ATOM     72  C   UNL A   1      45.128  28.774  35.501  1.00  0.00     0.010 A 
ATOM     73  C   UNL A   1      43.494  27.440  36.699  1.00  0.00     0.010 A 
ATOM     74  C   UNL A   1      46.160  28.100  36.161  1.00  0.00     0.020 A 
ATOM     75  C   UNL A   1      44.522  26.782  37.377  1.00  0.00     0.020 A 
ATOM     76  C   UNL A   1      45.849  27.111  37.098  1.00  0.00     0.054 A 
BRANCH  76  77
ATOM     77  S   UNL A   1      47.196  26.301  38.008  1.00  0.00     0.124 S 
ATOM     78  O   UNL A   1      47.861  25.544  36.953  1.00  0.00    -0.237 OA
ATOM     79  O   UNL A   1      47.947  27.433  38.546  1.00  0.00    -0.237 OA
ATOM     80  O   UNL A   1      46.492  25.501  39.009  1.00  0.00    -0.744 OA
ENDBRANCH  76  77
ENDBRANCH  48  71
BRANCH  60  81
ATOM     81  C   UNL A   1      40.221  34.231  37.305  1.00  0.00    -0.014 A 
ATOM     82  C   UNL A   1      39.455  33.989  38.458  1.00  0.00     0.010 A 
ATOM     83  C   UNL A   1      41.069  35.353  37.263  1.00  0.00     0.010 A 
ATOM     84  C   UNL A   1      39.513  34.873  39.541  1.00  0.00     0.020 A 
ATOM     85  C   UNL A   1      41.142  36.228  38.350  1.00  0.00     0.020 A 
ATOM     86  C   UNL A   1      40.351  35.990  39.476  1.00  0.00     0.054 A 
BRANCH  86  87
ATOM     87  S   UNL A   1      40.434  37.111  40.901  1.00  0.00     0.124 S 
ATOM     88  O   UNL A   1      41.381  38.121  40.436  1.00  0.00    -0.237 OA
ATOM     89  O   UNL A   1      39.052  37.563  41.041  1.00  0.00    -0.237 OA
ATOM     90  O   UNL A   1      40.915  36.255  41.983  1.00  0.00    -0.744 OA
ENDBRANCH  86  87
ENDBRANCH  60  81
ENDBRANCH  34  35
ENDBRANCH  27  29
ENDBRANCH  26  27
ENDBRANCH  25  26
ENDBRANCH   1  25
TORSDOF 18
ENDMDL
MODEL 3
REMARK VINA RESULT:     -10.9      4.910      6.220
REMARK SMILES O=Cc1c(OCc2ccc(C(=O)OCCOC(=O)c3ccc(-c4c5nc(c(-c6ccc(S(=O)(=O)[O-])cc6)c6ccc([nH]6)c(-c6ccc(S(=O)(=O)[O-])cc6)c6nc(c(-c7ccc(S(=O)(=O)[O-])cc7)c7ccc4[nH]7)C=C6)C=C5)cc3)cc2)ccc2ccccc12
REMARK SMILES IDX 14 1 13 2 11 3 12 4 10 5 7 6 8 7 80 8 9 9 79 10 6 11 5 12
REMARK SMILES IDX 4 13 3 14 88 15 81 16 83 17 87 18 82 19 84 20 86 21 85 22
REMARK SMILES IDX 2 23 1 24 15 25 16 26 17 27 18 28 19 29 20 30 78 31 21 32
REMARK SMILES IDX 77 33 22 34 23 35 24 36 71 37 25 38 76 39 70 40 72 41 26 42
REMARK SMILES IDX 75 43 69 44 68 45 27 47 57 48 38 49 56 50 39 51 42 52 55 53
REMARK SMILES IDX 73 54 40 55 41 56 54 58 74 59 43 60 28 61 29 62 37 63 30 64
REMARK SMILES IDX 36 65 31 66 32 67 33 68 34 69 35 70 58 71 59 72 67 73 60 74
REMARK SMILES IDX 66 75 61 76 62 77 63 78 64 79 65 80 44 81 45 82 53 83 46 84
REMARK SMILES IDX 52 85 47 86 48 87 49 88 50 89 51 90
REMARK H PARENT 72 46 42 57
REMARK Flexibility Score: inf
ROOT
ATOM      1  C   UNL A   1      34.101  30.653  27.258  1.00  0.00     0.275 C 
ENDROOT
BRANCH   1   2
ATOM      2  O   UNL A   1      32.705  30.480  27.575  1.00  0.00    -0.458 OA
BRANCH   2   3
ATOM      3  C   UNL A   1      31.881  30.331  26.506  1.00  0.00     0.338 C 
ATOM      4  O   UNL A   1      31.358  31.227  25.863  1.00  0.00    -0.246 OA
BRANCH   3   5
ATOM      5  C   UNL A   1      31.752  28.900  26.139  1.00  0.00     0.060 A 
ATOM      6  C   UNL A   1      31.562  26.212  25.335  1.00  0.00    -0.011 A 
ATOM      7  C   UNL A   1      31.649  27.232  24.380  1.00  0.00     0.008 A 
ATOM      8  C   UNL A   1      31.519  26.559  26.696  1.00  0.00     0.008 A 
ATOM      9  C   UNL A   1      31.725  28.566  24.780  1.00  0.00     0.016 A 
ATOM     10  C   UNL A   1      31.638  27.893  27.100  1.00  0.00     0.016 A 
BRANCH   6  11
ATOM     11  C   UNL A   1      31.486  24.771  24.865  1.00  0.00     0.265 C 
BRANCH  11  12
ATOM     12  O   UNL A   1      32.754  24.158  24.633  1.00  0.00    -0.488 OA
BRANCH  12  13
ATOM     13  C   UNL A   1      32.928  22.825  24.898  1.00  0.00     0.130 A 
ATOM     14  C   UNL A   1      32.682  21.932  23.838  1.00  0.00     0.064 A 
ATOM     15  C   UNL A   1      32.673  20.522  24.031  1.00  0.00    -0.004 A 
ATOM     16  C   UNL A   1      33.245  22.306  26.151  1.00  0.00     0.048 A 
ATOM     17  C   UNL A   1      32.944  20.031  25.330  1.00  0.00    -0.017 A 
ATOM     18  C   UNL A   1      32.417  19.568  23.013  1.00  0.00     0.009 A 
ATOM     19  C   UNL A   1      33.245  20.927  26.364  1.00  0.00     0.012 A 
ATOM     20  C   UNL A   1      32.914  18.651  25.584  1.00  0.00     0.009 A 
ATOM     21  C   UNL A   1      32.391  18.198  23.281  1.00  0.00     0.001 A 
ATOM     22  C   UNL A   1      32.631  17.740  24.568  1.00  0.00     0.001 A 
BRANCH  14  23
ATOM     23  C   UNL A   1      32.355  22.478  22.500  1.00  0.00     0.264 C 
ATOM     24  O   UNL A   1      33.187  22.952  21.737  1.00  0.00    -0.298 OA
ENDBRANCH  14  23
ENDBRANCH  12  13
ENDBRANCH  11  12
ENDBRANCH   6  11
ENDBRANCH   3   5
ENDBRANCH   2   3
ENDBRANCH   1   2
BRANCH   1  25
ATOM     25  C   UNL A   1      34.698  31.820  28.043  1.00  0.00     0.275 C 
BRANCH  25  26
ATOM     26  O   UNL A   1      36.107  31.606  28.236  1.00  0.00    -0.458 OA
BRANCH  26  27
ATOM     27  C   UNL A   1      36.445  30.914  29.348  1.00  0.00     0.338 C 
ATOM     28  O   UNL A   1      35.844  30.885  30.408  1.00  0.00    -0.246 OA
BRANCH  27  29
ATOM     29  C   UNL A   1      37.698  30.169  29.115  1.00  0.00     0.060 A 
ATOM     30  C   UNL A   1      38.533  29.844  30.184  1.00  0.00     0.016 A 
ATOM     31  C   UNL A   1      38.105  29.909  27.808  1.00  0.00     0.016 A 
ATOM     32  C   UNL A   1      39.815  29.343  29.944  1.00  0.00     0.010 A 
ATOM     33  C   UNL A   1      39.358  29.332  27.574  1.00  0.00     0.010 A 
ATOM     34  C   UNL A   1      40.252  29.090  28.635  1.00  0.00    -0.014 A 
BRANCH  34  35
ATOM     35  C   UNL A   1      41.658  28.672  28.356  1.00  0.00     0.031 A 
ATOM     36  C   UNL A   1      42.774  29.687  28.450  1.00  0.00     0.074 A 
ATOM     37  C   UNL A   1      41.964  27.399  28.036  1.00  0.00     0.049 A 
ATOM     38  N   UNL A   1      44.023  29.585  28.070  1.00  0.00    -0.248 NA
ATOM     39  C   UNL A   1      42.434  30.996  29.032  1.00  0.00     0.031 C 
ATOM     40  C   UNL A   1      41.015  26.288  27.951  1.00  0.00     0.029 A 
ATOM     41  N   UNL A   1      43.175  26.821  27.733  1.00  0.00    -0.354 N 
ATOM     42  C   UNL A   1      44.594  30.834  28.295  1.00  0.00     0.074 A 
ATOM     43  C   UNL A   1      43.557  31.676  28.853  1.00  0.00     0.031 C 
ATOM     44  C   UNL A   1      41.684  25.158  27.664  1.00  0.00     0.029 A 
ATOM     45  C   UNL A   1      43.095  25.475  27.467  1.00  0.00     0.049 A 
ATOM     46  H   UNL A   1      44.021  27.326  27.709  1.00  0.00     0.167 HD
ATOM     47  C   UNL A   1      45.861  31.250  28.052  1.00  0.00     0.031 A 
ATOM     48  C   UNL A   1      44.038  24.594  27.077  1.00  0.00     0.031 A 
ATOM     49  C   UNL A   1      46.913  30.403  27.557  1.00  0.00     0.049 A 
ATOM     50  C   UNL A   1      45.445  25.066  26.840  1.00  0.00     0.074 A 
ATOM     51  C   UNL A   1      48.227  30.737  27.273  1.00  0.00     0.029 A 
ATOM     52  N   UNL A   1      46.784  29.047  27.308  1.00  0.00    -0.354 N 
ATOM     53  N   UNL A   1      45.941  26.274  26.970  1.00  0.00    -0.248 NA
ATOM     54  C   UNL A   1      46.417  24.059  26.391  1.00  0.00     0.031 C 
ATOM     55  C   UNL A   1      48.889  29.583  26.836  1.00  0.00     0.029 A 
ATOM     56  C   UNL A   1      47.995  28.527  26.882  1.00  0.00     0.049 A 
ATOM     57  H   UNL A   1      45.953  28.529  27.415  1.00  0.00     0.167 HD
ATOM     58  C   UNL A   1      47.284  26.169  26.623  1.00  0.00     0.074 A 
ATOM     59  C   UNL A   1      47.528  24.779  26.298  1.00  0.00     0.031 C 
ATOM     60  C   UNL A   1      48.227  27.141  26.568  1.00  0.00     0.031 A 
BRANCH  47  61
ATOM     61  C   UNL A   1      46.166  32.706  28.277  1.00  0.00    -0.014 A 
ATOM     62  C   UNL A   1      46.660  33.173  29.508  1.00  0.00     0.010 A 
ATOM     63  C   UNL A   1      45.969  33.620  27.225  1.00  0.00     0.010 A 
ATOM     64  C   UNL A   1      46.910  34.536  29.695  1.00  0.00     0.020 A 
ATOM     65  C   UNL A   1      46.241  34.979  27.402  1.00  0.00     0.020 A 
ATOM     66  C   UNL A   1      46.689  35.432  28.644  1.00  0.00     0.054 A 
BRANCH  66  67
ATOM     67  S   UNL A   1      47.022  37.195  28.906  1.00  0.00     0.124 S 
ATOM     68  O   UNL A   1      45.807  37.811  28.380  1.00  0.00    -0.237 OA
ATOM     69  O   UNL A   1      47.192  37.282  30.355  1.00  0.00    -0.237 OA
ATOM     70  O   UNL A   1      48.233  37.437  28.126  1.00  0.00    -0.744 OA
ENDBRANCH  66  67
ENDBRANCH  47  61
BRANCH  48  71
ATOM     71  C   UNL A   1      43.670  23.170  26.855  1.00  0.00    -0.014 A 
ATOM     72  C   UNL A   1      43.042  22.430  27.872  1.00  0.00     0.010 A 
ATOM     73  C   UNL A   1      43.923  22.556  25.615  1.00  0.00     0.010 A 
ATOM     74  C   UNL A   1      42.675  21.099  27.653  1.00  0.00     0.020 A 
ATOM     75  C   UNL A   1      43.536  21.234  25.385  1.00  0.00     0.020 A 
ATOM     76  C   UNL A   1      42.921  20.511  26.409  1.00  0.00     0.054 A 
BRANCH  76  77
ATOM     77  S   UNL A   1      42.365  18.808  26.110  1.00  0.00     0.124 S 
ATOM     78  O   UNL A   1      43.247  18.388  25.026  1.00  0.00    -0.237 OA
ATOM     79  O   UNL A   1      42.596  18.164  27.401  1.00  0.00    -0.237 OA
ATOM     80  O   UNL A   1      40.958  18.972  25.749  1.00  0.00    -0.744 OA
ENDBRANCH  76  77
ENDBRANCH  48  71
BRANCH  60  81
ATOM     81  C   UNL A   1      49.618  26.730  26.176  1.00  0.00    -0.014 A 
ATOM     82  C   UNL A   1      50.031  26.760  24.833  1.00  0.00     0.010 A 
ATOM     83  C   UNL A   1      50.532  26.340  27.171  1.00  0.00     0.010 A 
ATOM     84  C   UNL A   1      51.331  26.376  24.487  1.00  0.00     0.020 A 
ATOM     85  C   UNL A   1      51.837  25.972  26.830  1.00  0.00     0.020 A 
ATOM     86  C   UNL A   1      52.223  25.977  25.487  1.00  0.00     0.054 A 
BRANCH  86  87
ATOM     87  S   UNL A   1      53.913  25.509  25.024  1.00  0.00     0.124 S 
ATOM     88  O   UNL A   1      54.704  26.158  26.066  1.00  0.00    -0.237 OA
ATOM     89  O   UNL A   1      53.874  24.050  25.081  1.00  0.00    -0.237 OA
ATOM     90  O   UNL A   1      54.068  26.068  23.683  1.00  0.00    -0.744 OA
ENDBRANCH  86  87
ENDBRANCH  60  81
ENDBRANCH  34  35
ENDBRANCH  27  29
ENDBRANCH  26  27
ENDBRANCH  25  26
ENDBRANCH   1  25
TORSDOF 18
ENDMDL
