MODEL 1
REMARK VINA RESULT:      -9.4      0.000      0.000
REMARK SMILES C[C@H](CNC(=O)Cc1ccc(F)c(F)c1)C(=O)OCCOC(=O)c1ccc(-c2c3nc(c(-c4ccc(S(=O)(=O)[O-])cc4)c4ccc([nH]4)c(-c4ccc(S(=O)(=O)[O-])cc4)c4nc(c(-c5ccc(S(=O)(=O)[O-])cc5)c5ccc2[nH]5)C=C4)C=C3)cc1
REMARK SMILES IDX 19 1 18 2 16 3 17 4 2 5 1 6 3 7 4 8 5 9 6 11 7 12 8 13 9 14
REMARK SMILES IDX 15 15 10 16 13 17 11 18 14 19 12 20 20 21 21 22 22 23 23 24
REMARK SMILES IDX 24 25 25 26 83 27 26 28 82 29 27 30 28 31 29 32 76 33 30 34
REMARK SMILES IDX 81 35 75 36 77 37 31 38 80 39 74 40 73 41 32 43 62 44 43 45
REMARK SMILES IDX 61 46 44 47 47 48 60 49 78 50 45 51 46 52 59 54 79 55 48 56
REMARK SMILES IDX 33 57 34 58 42 59 35 60 41 61 36 62 37 63 38 64 39 65 40 66
REMARK SMILES IDX 63 67 64 68 72 69 65 70 71 71 66 72 67 73 68 74 69 75 70 76
REMARK SMILES IDX 49 77 50 78 58 79 51 80 57 81 52 82 53 83 54 84 55 85 56 86
REMARK H PARENT 4 10 77 42 47 53
REMARK Flexibility Score: inf
ROOT
ATOM      1  C   UNL A   1      33.672  33.721  28.204  1.00  0.00     0.274 C 
ENDROOT
BRANCH   1   2
ATOM      2  O   UNL A   1      34.205  34.684  29.135  1.00  0.00    -0.462 OA
BRANCH   2   3
ATOM      3  C   UNL A   1      33.285  35.452  29.775  1.00  0.00     0.310 C 
ATOM      4  O   UNL A   1      32.472  36.178  29.216  1.00  0.00    -0.252 OA
BRANCH   3   5
ATOM      5  C   UNL A   1      33.392  35.377  31.283  1.00  0.00     0.115 C 
ATOM      6  C   UNL A   1      33.591  36.783  31.831  1.00  0.00     0.022 C 
BRANCH   5   7
ATOM      7  C   UNL A   1      34.390  34.331  31.793  1.00  0.00     0.130 C 
BRANCH   7   8
ATOM      8  N   UNL A   1      35.776  34.608  31.453  1.00  0.00    -0.355 N 
ATOM      9  C   UNL A   1      36.906  34.425  32.194  1.00  0.00     0.224 C 
ATOM     10  H   UNL A   1      35.920  34.985  30.556  1.00  0.00     0.163 HD
ATOM     11  O   UNL A   1      37.993  34.741  31.706  1.00  0.00    -0.275 OA
BRANCH   9  12
ATOM     12  C   UNL A   1      36.813  33.832  33.593  1.00  0.00     0.135 C 
BRANCH  12  13
ATOM     13  C   UNL A   1      37.673  32.606  33.795  1.00  0.00    -0.036 A 
ATOM     14  C   UNL A   1      38.956  32.723  34.359  1.00  0.00     0.007 A 
ATOM     15  C   UNL A   1      37.213  31.337  33.408  1.00  0.00     0.046 A 
ATOM     16  C   UNL A   1      39.786  31.606  34.476  1.00  0.00     0.043 A 
ATOM     17  C   UNL A   1      38.046  30.227  33.535  1.00  0.00     0.159 A 
ATOM     18  C   UNL A   1      39.327  30.363  34.055  1.00  0.00     0.158 A 
ATOM     19  F   UNL A   1      37.607  29.029  33.126  1.00  0.00    -0.204 F 
ATOM     20  F   UNL A   1      40.136  29.298  34.143  1.00  0.00    -0.204 F 
ENDBRANCH  12  13
ENDBRANCH   9  12
ENDBRANCH   7   8
ENDBRANCH   5   7
ENDBRANCH   3   5
ENDBRANCH   2   3
ENDBRANCH   1   2
BRANCH   1  21
ATOM     21  C   UNL A   1      34.637  32.558  27.967  1.00  0.00     0.275 C 
BRANCH  21  22
ATOM     22  O   UNL A   1      34.035  31.285  28.266  1.00  0.00    -0.458 OA
BRANCH  22  23
ATOM     23  C   UNL A   1      34.581  30.226  27.626  1.00  0.00     0.338 C 
ATOM     24  O   UNL A   1      34.100  29.600  26.697  1.00  0.00    -0.246 OA
BRANCH  23  25
ATOM     25  C   UNL A   1      35.941  29.982  28.127  1.00  0.00     0.060 A 
ATOM     26  C   UNL A   1      37.011  30.069  27.230  1.00  0.00     0.016 A 
ATOM     27  C   UNL A   1      36.147  29.581  29.446  1.00  0.00     0.016 A 
ATOM     28  C   UNL A   1      38.301  29.750  27.647  1.00  0.00     0.010 A 
ATOM     29  C   UNL A   1      37.439  29.256  29.861  1.00  0.00     0.010 A 
ATOM     30  C   UNL A   1      38.518  29.326  28.962  1.00  0.00    -0.014 A 
BRANCH  30  31
ATOM     31  C   UNL A   1      39.859  28.881  29.402  1.00  0.00     0.031 A 
ATOM     32  C   UNL A   1      40.745  29.844  30.133  1.00  0.00     0.074 A 
ATOM     33  C   UNL A   1      40.293  27.644  29.104  1.00  0.00     0.049 A 
ATOM     34  N   UNL A   1      42.016  29.741  30.424  1.00  0.00    -0.248 NA
ATOM     35  C   UNL A   1      40.116  31.092  30.593  1.00  0.00     0.031 C 
ATOM     36  C   UNL A   1      39.498  26.602  28.453  1.00  0.00     0.029 A 
ATOM     37  N   UNL A   1      41.523  27.066  29.288  1.00  0.00    -0.354 N 
ATOM     38  C   UNL A   1      42.350  30.928  31.063  1.00  0.00     0.074 A 
ATOM     39  C   UNL A   1      41.148  31.732  31.123  1.00  0.00     0.031 C 
ATOM     40  C   UNL A   1      40.270  25.518  28.268  1.00  0.00     0.029 A 
ATOM     41  C   UNL A   1      41.623  25.812  28.737  1.00  0.00     0.049 A 
ATOM     42  H   UNL A   1      42.261  27.506  29.768  1.00  0.00     0.167 HD
ATOM     43  C   UNL A   1      43.557  31.315  31.543  1.00  0.00     0.031 A 
ATOM     44  C   UNL A   1      42.694  25.010  28.582  1.00  0.00     0.031 A 
ATOM     45  C   UNL A   1      44.745  30.510  31.467  1.00  0.00     0.049 A 
ATOM     46  C   UNL A   1      44.037  25.480  29.068  1.00  0.00     0.074 A 
ATOM     47  C   UNL A   1      46.020  30.808  31.915  1.00  0.00     0.029 A 
ATOM     48  N   UNL A   1      44.805  29.244  30.902  1.00  0.00    -0.354 N 
ATOM     49  N   UNL A   1      44.351  26.614  29.647  1.00  0.00    -0.248 NA
ATOM     50  C   UNL A   1      45.171  24.565  28.876  1.00  0.00     0.031 C 
ATOM     51  C   UNL A   1      46.859  29.736  31.588  1.00  0.00     0.029 A 
ATOM     52  C   UNL A   1      46.096  28.751  30.979  1.00  0.00     0.049 A 
ATOM     53  H   UNL A   1      44.040  28.766  30.506  1.00  0.00     0.167 HD
ATOM     54  C   UNL A   1      45.714  26.542  29.910  1.00  0.00     0.074 A 
ATOM     55  C   UNL A   1      46.164  25.250  29.430  1.00  0.00     0.031 C 
ATOM     56  C   UNL A   1      46.520  27.460  30.499  1.00  0.00     0.031 A 
BRANCH  43  57
ATOM     57  C   UNL A   1      43.649  32.696  32.131  1.00  0.00    -0.014 A 
ATOM     58  C   UNL A   1      43.490  32.917  33.511  1.00  0.00     0.010 A 
ATOM     59  C   UNL A   1      43.887  33.793  31.283  1.00  0.00     0.010 A 
ATOM     60  C   UNL A   1      43.511  34.217  34.024  1.00  0.00     0.020 A 
ATOM     61  C   UNL A   1      43.933  35.092  31.796  1.00  0.00     0.020 A 
ATOM     62  C   UNL A   1      43.719  35.298  33.160  1.00  0.00     0.054 A 
BRANCH  62  63
ATOM     63  S   UNL A   1      43.719  36.978  33.843  1.00  0.00     0.124 S 
ATOM     64  O   UNL A   1      44.619  36.835  34.985  1.00  0.00    -0.237 OA
ATOM     65  O   UNL A   1      44.236  37.778  32.734  1.00  0.00    -0.237 OA
ATOM     66  O   UNL A   1      42.318  37.216  34.178  1.00  0.00    -0.744 OA
ENDBRANCH  62  63
ENDBRANCH  43  57
BRANCH  44  67
ATOM     67  C   UNL A   1      42.532  23.699  27.901  1.00  0.00    -0.014 A 
ATOM     68  C   UNL A   1      42.870  23.554  26.545  1.00  0.00     0.010 A 
ATOM     69  C   UNL A   1      42.092  22.575  28.623  1.00  0.00     0.010 A 
ATOM     70  C   UNL A   1      42.775  22.305  25.924  1.00  0.00     0.020 A 
ATOM     71  C   UNL A   1      42.018  21.320  28.012  1.00  0.00     0.020 A 
ATOM     72  C   UNL A   1      42.358  21.193  26.664  1.00  0.00     0.054 A 
BRANCH  72  73
ATOM     73  S   UNL A   1      42.333  19.565  25.864  1.00  0.00     0.124 S 
ATOM     74  O   UNL A   1      43.312  19.737  24.796  1.00  0.00    -0.237 OA
ATOM     75  O   UNL A   1      42.731  18.672  26.950  1.00  0.00    -0.237 OA
ATOM     76  O   UNL A   1      40.947  19.420  25.427  1.00  0.00    -0.744 OA
ENDBRANCH  72  73
ENDBRANCH  44  67
BRANCH  56  77
ATOM     77  C   UNL A   1      47.962  27.088  30.703  1.00  0.00    -0.014 A 
ATOM     78  C   UNL A   1      48.938  27.404  29.744  1.00  0.00     0.010 A 
ATOM     79  C   UNL A   1      48.353  26.485  31.913  1.00  0.00     0.010 A 
ATOM     80  C   UNL A   1      50.284  27.111  29.986  1.00  0.00     0.020 A 
ATOM     81  C   UNL A   1      49.699  26.209  32.167  1.00  0.00     0.020 A 
ATOM     82  C   UNL A   1      50.656  26.517  31.197  1.00  0.00     0.054 A 
BRANCH  82  83
ATOM     83  S   UNL A   1      52.414  26.209  31.520  1.00  0.00     0.124 S 
ATOM     84  O   UNL A   1      52.396  24.834  32.011  1.00  0.00    -0.237 OA
ATOM     85  O   UNL A   1      53.022  26.399  30.205  1.00  0.00    -0.237 OA
ATOM     86  O   UNL A   1      52.765  27.222  32.513  1.00  0.00    -0.744 OA
ENDBRANCH  82  83
ENDBRANCH  56  77
ENDBRANCH  30  31
ENDBRANCH  23  25
ENDBRANCH  22  23
ENDBRANCH  21  22
ENDBRANCH   1  21
TORSDOF 18
ENDMDL
MODEL 2
REMARK VINA RESULT:      -9.1      3.864      6.322
REMARK SMILES C[C@H](CNC(=O)Cc1ccc(F)c(F)c1)C(=O)OCCOC(=O)c1ccc(-c2c3nc(c(-c4ccc(S(=O)(=O)[O-])cc4)c4ccc([nH]4)c(-c4ccc(S(=O)(=O)[O-])cc4)c4nc(c(-c5ccc(S(=O)(=O)[O-])cc5)c5ccc2[nH]5)C=C4)C=C3)cc1
REMARK SMILES IDX 19 1 18 2 16 3 17 4 2 5 1 6 3 7 4 8 5 9 6 11 7 12 8 13 9 14
REMARK SMILES IDX 15 15 10 16 13 17 11 18 14 19 12 20 20 21 21 22 22 23 23 24
REMARK SMILES IDX 24 25 25 26 83 27 26 28 82 29 27 30 28 31 29 32 76 33 30 34
REMARK SMILES IDX 81 35 75 36 77 37 31 38 80 39 74 40 73 41 32 43 62 44 43 45
REMARK SMILES IDX 61 46 44 47 47 48 60 49 78 50 45 51 46 52 59 54 79 55 48 56
REMARK SMILES IDX 33 57 34 58 42 59 35 60 41 61 36 62 37 63 38 64 39 65 40 66
REMARK SMILES IDX 63 67 64 68 72 69 65 70 71 71 66 72 67 73 68 74 69 75 70 76
REMARK SMILES IDX 49 77 50 78 58 79 51 80 57 81 52 82 53 83 54 84 55 85 56 86
REMARK H PARENT 4 10 77 42 47 53
REMARK Flexibility Score: inf
ROOT
ATOM      1  C   UNL A   1      32.213  28.878  25.768  1.00  0.00     0.274 C 
ENDROOT
BRANCH   1   2
ATOM      2  O   UNL A   1      32.308  27.513  25.313  1.00  0.00    -0.462 OA
BRANCH   2   3
ATOM      3  C   UNL A   1      31.158  26.793  25.379  1.00  0.00     0.310 C 
ATOM      4  O   UNL A   1      30.604  26.456  26.419  1.00  0.00    -0.252 OA
BRANCH   3   5
ATOM      5  C   UNL A   1      30.636  26.379  24.021  1.00  0.00     0.115 C 
ATOM      6  C   UNL A   1      29.176  26.794  23.909  1.00  0.00     0.022 C 
BRANCH   5   7
ATOM      7  C   UNL A   1      30.929  24.920  23.649  1.00  0.00     0.130 C 
BRANCH   7   8
ATOM      8  N   UNL A   1      30.776  23.980  24.746  1.00  0.00    -0.355 N 
ATOM      9  C   UNL A   1      31.249  22.706  24.873  1.00  0.00     0.224 C 
ATOM     10  H   UNL A   1      30.253  24.310  25.512  1.00  0.00     0.163 HD
ATOM     11  O   UNL A   1      30.990  22.077  25.900  1.00  0.00    -0.275 OA
BRANCH   9  12
ATOM     12  C   UNL A   1      32.087  22.092  23.761  1.00  0.00     0.135 C 
BRANCH  12  13
ATOM     13  C   UNL A   1      33.539  21.892  24.130  1.00  0.00    -0.036 A 
ATOM     14  C   UNL A   1      33.978  20.659  24.647  1.00  0.00     0.007 A 
ATOM     15  C   UNL A   1      34.466  22.935  23.981  1.00  0.00     0.046 A 
ATOM     16  C   UNL A   1      35.300  20.492  25.064  1.00  0.00     0.043 A 
ATOM     17  C   UNL A   1      35.785  22.757  24.393  1.00  0.00     0.159 A 
ATOM     18  C   UNL A   1      36.196  21.548  24.941  1.00  0.00     0.158 A 
ATOM     19  F   UNL A   1      36.650  23.774  24.280  1.00  0.00    -0.204 F 
ATOM     20  F   UNL A   1      37.457  21.394  25.367  1.00  0.00    -0.204 F 
ENDBRANCH  12  13
ENDBRANCH   9  12
ENDBRANCH   7   8
ENDBRANCH   5   7
ENDBRANCH   3   5
ENDBRANCH   2   3
ENDBRANCH   1   2
BRANCH   1  21
ATOM     21  C   UNL A   1      32.481  29.001  27.270  1.00  0.00     0.275 C 
BRANCH  21  22
ATOM     22  O   UNL A   1      33.887  28.957  27.574  1.00  0.00    -0.458 OA
BRANCH  22  23
ATOM     23  C   UNL A   1      34.430  30.136  27.956  1.00  0.00     0.338 C 
ATOM     24  O   UNL A   1      33.849  31.196  28.115  1.00  0.00    -0.246 OA
BRANCH  23  25
ATOM     25  C   UNL A   1      35.850  29.952  28.287  1.00  0.00     0.060 A 
ATOM     26  C   UNL A   1      36.796  30.064  27.263  1.00  0.00     0.016 A 
ATOM     27  C   UNL A   1      36.233  29.583  29.575  1.00  0.00     0.016 A 
ATOM     28  C   UNL A   1      38.139  29.802  27.521  1.00  0.00     0.010 A 
ATOM     29  C   UNL A   1      37.578  29.314  29.831  1.00  0.00     0.010 A 
ATOM     30  C   UNL A   1      38.534  29.409  28.804  1.00  0.00    -0.014 A 
BRANCH  30  31
ATOM     31  C   UNL A   1      39.935  29.022  29.080  1.00  0.00     0.031 A 
ATOM     32  C   UNL A   1      40.895  30.060  29.580  1.00  0.00     0.074 A 
ATOM     33  C   UNL A   1      40.352  27.767  28.836  1.00  0.00     0.049 A 
ATOM     34  N   UNL A   1      42.196  29.999  29.687  1.00  0.00    -0.248 NA
ATOM     35  C   UNL A   1      40.309  31.339  30.011  1.00  0.00     0.031 C 
ATOM     36  C   UNL A   1      39.496  26.660  28.408  1.00  0.00     0.029 A 
ATOM     37  N   UNL A   1      41.609  27.224  28.888  1.00  0.00    -0.354 N 
ATOM     38  C   UNL A   1      42.591  31.245  30.159  1.00  0.00     0.074 A 
ATOM     39  C   UNL A   1      41.391  32.038  30.321  1.00  0.00     0.031 C 
ATOM     40  C   UNL A   1      40.260  25.572  28.212  1.00  0.00     0.029 A 
ATOM     41  C   UNL A   1      41.659  25.924  28.446  1.00  0.00     0.049 A 
ATOM     42  H   UNL A   1      42.398  27.716  29.211  1.00  0.00     0.167 HD
ATOM     43  C   UNL A   1      43.845  31.689  30.417  1.00  0.00     0.031 A 
ATOM     44  C   UNL A   1      42.716  25.124  28.208  1.00  0.00     0.031 A 
ATOM     45  C   UNL A   1      45.029  30.894  30.240  1.00  0.00     0.049 A 
ATOM     46  C   UNL A   1      44.104  25.652  28.444  1.00  0.00     0.074 A 
ATOM     47  C   UNL A   1      46.348  31.247  30.465  1.00  0.00     0.029 A 
ATOM     48  N   UNL A   1      45.037  29.581  29.791  1.00  0.00    -0.354 N 
ATOM     49  N   UNL A   1      44.471  26.839  28.864  1.00  0.00    -0.248 NA
ATOM     50  C   UNL A   1      45.220  24.735  28.172  1.00  0.00     0.031 C 
ATOM     51  C   UNL A   1      47.156  30.158  30.116  1.00  0.00     0.029 A 
ATOM     52  C   UNL A   1      46.337  29.112  29.720  1.00  0.00     0.049 A 
ATOM     53  H   UNL A   1      44.235  29.059  29.558  1.00  0.00     0.167 HD
ATOM     54  C   UNL A   1      45.859  26.807  28.928  1.00  0.00     0.074 A 
ATOM     55  C   UNL A   1      46.265  25.480  28.507  1.00  0.00     0.031 C 
ATOM     56  C   UNL A   1      46.718  27.786  29.304  1.00  0.00     0.031 A 
BRANCH  43  57
ATOM     57  C   UNL A   1      43.987  33.121  30.855  1.00  0.00    -0.014 A 
ATOM     58  C   UNL A   1      43.998  33.473  32.216  1.00  0.00     0.010 A 
ATOM     59  C   UNL A   1      44.100  34.132  29.883  1.00  0.00     0.010 A 
ATOM     60  C   UNL A   1      44.063  34.816  32.598  1.00  0.00     0.020 A 
ATOM     61  C   UNL A   1      44.189  35.475  30.262  1.00  0.00     0.020 A 
ATOM     62  C   UNL A   1      44.144  35.809  31.616  1.00  0.00     0.054 A 
BRANCH  62  63
ATOM     63  S   UNL A   1      44.202  37.547  32.131  1.00  0.00     0.124 S 
ATOM     64  O   UNL A   1      43.744  38.231  30.925  1.00  0.00    -0.237 OA
ATOM     65  O   UNL A   1      43.277  37.582  33.262  1.00  0.00    -0.237 OA
ATOM     66  O   UNL A   1      45.606  37.759  32.473  1.00  0.00    -0.744 OA
ENDBRANCH  62  63
ENDBRANCH  43  57
BRANCH  44  67
ATOM     67  C   UNL A   1      42.488  23.752  27.682  1.00  0.00    -0.014 A 
ATOM     68  C   UNL A   1      42.515  23.506  26.299  1.00  0.00     0.010 A 
ATOM     69  C   UNL A   1      42.301  22.675  28.568  1.00  0.00     0.010 A 
ATOM     70  C   UNL A   1      42.363  22.205  25.811  1.00  0.00     0.020 A 
ATOM     71  C   UNL A   1      42.173  21.370  28.085  1.00  0.00     0.020 A 
ATOM     72  C   UNL A   1      42.201  21.143  26.707  1.00  0.00     0.054 A 
BRANCH  72  73
ATOM     73  S   UNL A   1      42.101  19.452  26.057  1.00  0.00     0.124 S 
ATOM     74  O   UNL A   1      40.678  19.327  25.756  1.00  0.00    -0.237 OA
ATOM     75  O   UNL A   1      42.990  19.504  24.899  1.00  0.00    -0.237 OA
ATOM     76  O   UNL A   1      42.582  18.631  27.165  1.00  0.00    -0.744 OA
ENDBRANCH  72  73
ENDBRANCH  44  67
BRANCH  56  77
ATOM     77  C   UNL A   1      48.184  27.451  29.326  1.00  0.00    -0.014 A 
ATOM     78  C   UNL A   1      49.006  27.706  28.215  1.00  0.00     0.010 A 
ATOM     79  C   UNL A   1      48.759  26.949  30.508  1.00  0.00     0.010 A 
ATOM     80  C   UNL A   1      50.379  27.451  28.281  1.00  0.00     0.020 A 
ATOM     81  C   UNL A   1      50.133  26.713  30.585  1.00  0.00     0.020 A 
ATOM     82  C   UNL A   1      50.934  26.958  29.467  1.00  0.00     0.054 A 
BRANCH  82  83
ATOM     83  S   UNL A   1      52.727  26.701  29.556  1.00  0.00     0.124 S 
ATOM     84  O   UNL A   1      52.860  25.909  30.775  1.00  0.00    -0.237 OA
ATOM     85  O   UNL A   1      53.013  25.992  28.311  1.00  0.00    -0.237 OA
ATOM     86  O   UNL A   1      53.267  28.056  29.630  1.00  0.00    -0.744 OA
ENDBRANCH  82  83
ENDBRANCH  56  77
ENDBRANCH  30  31
ENDBRANCH  23  25
ENDBRANCH  22  23
ENDBRANCH  21  22
ENDBRANCH   1  21
TORSDOF 18
ENDMDL
MODEL 3
REMARK VINA RESULT:      -9.0      3.458      9.489
REMARK SMILES C[C@H](CNC(=O)Cc1ccc(F)c(F)c1)C(=O)OCCOC(=O)c1ccc(-c2c3nc(c(-c4ccc(S(=O)(=O)[O-])cc4)c4ccc([nH]4)c(-c4ccc(S(=O)(=O)[O-])cc4)c4nc(c(-c5ccc(S(=O)(=O)[O-])cc5)c5ccc2[nH]5)C=C4)C=C3)cc1
REMARK SMILES IDX 19 1 18 2 16 3 17 4 2 5 1 6 3 7 4 8 5 9 6 11 7 12 8 13 9 14
REMARK SMILES IDX 15 15 10 16 13 17 11 18 14 19 12 20 20 21 21 22 22 23 23 24
REMARK SMILES IDX 24 25 25 26 83 27 26 28 82 29 27 30 28 31 29 32 76 33 30 34
REMARK SMILES IDX 81 35 75 36 77 37 31 38 80 39 74 40 73 41 32 43 62 44 43 45
REMARK SMILES IDX 61 46 44 47 47 48 60 49 78 50 45 51 46 52 59 54 79 55 48 56
REMARK SMILES IDX 33 57 34 58 42 59 35 60 41 61 36 62 37 63 38 64 39 65 40 66
REMARK SMILES IDX 63 67 64 68 72 69 65 70 71 71 66 72 67 73 68 74 69 75 70 76
REMARK SMILES IDX 49 77 50 78 58 79 51 80 57 81 52 82 53 83 54 84 55 85 56 86
REMARK H PARENT 4 10 77 42 47 53
REMARK Flexibility Score: inf
ROOT
ATOM      1  C   UNL A   1      38.027  32.391  33.963  1.00  0.00     0.274 C 
ENDROOT
BRANCH   1   2
ATOM      2  O   UNL A   1      38.951  32.993  33.034  1.00  0.00    -0.462 OA
BRANCH   2   3
ATOM      3  C   UNL A   1      38.395  33.822  32.111  1.00  0.00     0.310 C 
ATOM      4  O   UNL A   1      37.661  34.767  32.374  1.00  0.00    -0.252 OA
BRANCH   3   5
ATOM      5  C   UNL A   1      38.722  33.430  30.687  1.00  0.00     0.115 C 
ATOM      6  C   UNL A   1      40.086  33.999  30.322  1.00  0.00     0.022 C 
BRANCH   5   7
ATOM      7  C   UNL A   1      37.604  33.723  29.679  1.00  0.00     0.130 C 
BRANCH   7   8
ATOM      8  N   UNL A   1      36.263  33.642  30.232  1.00  0.00    -0.355 N 
ATOM      9  C   UNL A   1      35.082  33.354  29.611  1.00  0.00     0.224 C 
ATOM     10  H   UNL A   1      36.195  33.822  31.197  1.00  0.00     0.163 HD
ATOM     11  O   UNL A   1      34.047  33.347  30.280  1.00  0.00    -0.275 OA
BRANCH   9  12
ATOM     12  C   UNL A   1      35.061  33.039  28.122  1.00  0.00     0.135 C 
BRANCH  12  13
ATOM     13  C   UNL A   1      34.682  31.611  27.805  1.00  0.00    -0.036 A 
ATOM     14  C   UNL A   1      35.673  30.617  27.709  1.00  0.00     0.007 A 
ATOM     15  C   UNL A   1      33.342  31.258  27.583  1.00  0.00     0.046 A 
ATOM     16  C   UNL A   1      35.338  29.313  27.338  1.00  0.00     0.043 A 
ATOM     17  C   UNL A   1      33.016  29.953  27.220  1.00  0.00     0.159 A 
ATOM     18  C   UNL A   1      34.010  28.990  27.088  1.00  0.00     0.158 A 
ATOM     19  F   UNL A   1      31.737  29.640  26.975  1.00  0.00    -0.204 F 
ATOM     20  F   UNL A   1      33.696  27.745  26.706  1.00  0.00    -0.204 F 
ENDBRANCH  12  13
ENDBRANCH   9  12
ENDBRANCH   7   8
ENDBRANCH   5   7
ENDBRANCH   3   5
ENDBRANCH   2   3
ENDBRANCH   1   2
BRANCH   1  21
ATOM     21  C   UNL A   1      36.905  31.635  33.247  1.00  0.00     0.275 C 
BRANCH  21  22
ATOM     22  O   UNL A   1      37.277  30.280  32.937  1.00  0.00    -0.458 OA
BRANCH  22  23
ATOM     23  C   UNL A   1      37.123  29.923  31.641  1.00  0.00     0.338 C 
ATOM     24  O   UNL A   1      36.073  29.770  31.041  1.00  0.00    -0.246 OA
BRANCH  23  25
ATOM     25  C   UNL A   1      38.433  29.855  30.979  1.00  0.00     0.060 A 
ATOM     26  C   UNL A   1      38.502  30.107  29.605  1.00  0.00     0.016 A 
ATOM     27  C   UNL A   1      39.564  29.456  31.688  1.00  0.00     0.016 A 
ATOM     28  C   UNL A   1      39.709  29.957  28.926  1.00  0.00     0.010 A 
ATOM     29  C   UNL A   1      40.771  29.300  31.006  1.00  0.00     0.010 A 
ATOM     30  C   UNL A   1      40.846  29.537  29.622  1.00  0.00    -0.014 A 
BRANCH  30  31
ATOM     31  C   UNL A   1      42.114  29.268  28.908  1.00  0.00     0.031 A 
ATOM     32  C   UNL A   1      42.375  27.890  28.377  1.00  0.00     0.074 A 
ATOM     33  C   UNL A   1      43.040  30.235  28.783  1.00  0.00     0.049 A 
ATOM     34  N   UNL A   1      43.485  27.380  27.912  1.00  0.00    -0.248 NA
ATOM     35  C   UNL A   1      41.233  26.962  28.375  1.00  0.00     0.031 C 
ATOM     36  C   UNL A   1      42.872  31.626  29.205  1.00  0.00     0.029 A 
ATOM     37  N   UNL A   1      44.318  30.182  28.289  1.00  0.00    -0.354 N 
ATOM     38  C   UNL A   1      43.189  26.059  27.601  1.00  0.00     0.074 A 
ATOM     39  C   UNL A   1      41.793  25.850  27.925  1.00  0.00     0.031 C 
ATOM     40  C   UNL A   1      44.016  32.291  28.973  1.00  0.00     0.029 A 
ATOM     41  C   UNL A   1      45.009  31.360  28.442  1.00  0.00     0.049 A 
ATOM     42  H   UNL A   1      44.701  29.381  27.866  1.00  0.00     0.167 HD
ATOM     43  C   UNL A   1      44.012  25.105  27.103  1.00  0.00     0.031 A 
ATOM     44  C   UNL A   1      46.308  31.642  28.225  1.00  0.00     0.031 A 
ATOM     45  C   UNL A   1      45.399  25.325  26.796  1.00  0.00     0.049 A 
ATOM     46  C   UNL A   1      47.222  30.556  27.729  1.00  0.00     0.074 A 
ATOM     47  C   UNL A   1      46.325  24.427  26.295  1.00  0.00     0.029 A 
ATOM     48  N   UNL A   1      46.062  26.532  26.964  1.00  0.00    -0.354 N 
ATOM     49  N   UNL A   1      46.941  29.303  27.463  1.00  0.00    -0.248 NA
ATOM     50  C   UNL A   1      48.629  30.920  27.507  1.00  0.00     0.031 C 
ATOM     51  C   UNL A   1      47.558  25.083  26.195  1.00  0.00     0.029 A 
ATOM     52  C   UNL A   1      47.388  26.401  26.588  1.00  0.00     0.049 A 
ATOM     53  H   UNL A   1      45.650  27.361  27.300  1.00  0.00     0.167 HD
ATOM     54  C   UNL A   1      48.128  28.732  27.021  1.00  0.00     0.074 A 
ATOM     55  C   UNL A   1      49.131  29.779  27.052  1.00  0.00     0.031 C 
ATOM     56  C   UNL A   1      48.367  27.458  26.622  1.00  0.00     0.031 A 
BRANCH  43  57
ATOM     57  C   UNL A   1      43.437  23.727  26.928  1.00  0.00    -0.014 A 
ATOM     58  C   UNL A   1      43.308  22.843  28.015  1.00  0.00     0.010 A 
ATOM     59  C   UNL A   1      43.029  23.306  25.649  1.00  0.00     0.010 A 
ATOM     60  C   UNL A   1      42.834  21.543  27.815  1.00  0.00     0.020 A 
ATOM     61  C   UNL A   1      42.532  22.015  25.450  1.00  0.00     0.020 A 
ATOM     62  C   UNL A   1      42.462  21.134  26.531  1.00  0.00     0.054 A 
BRANCH  62  63
ATOM     63  S   UNL A   1      41.873  19.436  26.289  1.00  0.00     0.124 S 
ATOM     64  O   UNL A   1      40.445  19.646  26.059  1.00  0.00    -0.237 OA
ATOM     65  O   UNL A   1      42.636  18.990  25.126  1.00  0.00    -0.237 OA
ATOM     66  O   UNL A   1      42.210  18.770  27.544  1.00  0.00    -0.744 OA
ENDBRANCH  62  63
ENDBRANCH  43  57
BRANCH  44  67
ATOM     67  C   UNL A   1      46.816  33.008  28.519  1.00  0.00    -0.014 A 
ATOM     68  C   UNL A   1      47.360  33.310  29.778  1.00  0.00     0.010 A 
ATOM     69  C   UNL A   1      46.810  33.996  27.517  1.00  0.00     0.010 A 
ATOM     70  C   UNL A   1      47.894  34.577  30.030  1.00  0.00     0.020 A 
ATOM     71  C   UNL A   1      47.364  35.256  27.758  1.00  0.00     0.020 A 
ATOM     72  C   UNL A   1      47.900  35.541  29.016  1.00  0.00     0.054 A 
BRANCH  72  73
ATOM     73  S   UNL A   1      48.683  37.147  29.334  1.00  0.00     0.124 S 
ATOM     74  O   UNL A   1      47.559  38.066  29.185  1.00  0.00    -0.237 OA
ATOM     75  O   UNL A   1      49.194  36.987  30.693  1.00  0.00    -0.237 OA
ATOM     76  O   UNL A   1      49.709  37.237  28.299  1.00  0.00    -0.744 OA
ENDBRANCH  72  73
ENDBRANCH  44  67
BRANCH  56  77
ATOM     77  C   UNL A   1      49.753  27.130  26.140  1.00  0.00    -0.014 A 
ATOM     78  C   UNL A   1      50.761  26.737  27.036  1.00  0.00     0.010 A 
ATOM     79  C   UNL A   1      50.022  27.138  24.759  1.00  0.00     0.010 A 
ATOM     80  C   UNL A   1      52.023  26.370  26.559  1.00  0.00     0.020 A 
ATOM     81  C   UNL A   1      51.275  26.752  24.277  1.00  0.00     0.020 A 
ATOM     82  C   UNL A   1      52.271  26.377  25.183  1.00  0.00     0.054 A 
BRANCH  82  83
ATOM     83  S   UNL A   1      53.891  25.830  24.580  1.00  0.00     0.124 S 
ATOM     84  O   UNL A   1      53.836  24.391  24.823  1.00  0.00    -0.237 OA
ATOM     85  O   UNL A   1      53.867  26.232  23.176  1.00  0.00    -0.237 OA
ATOM     86  O   UNL A   1      54.837  26.568  25.415  1.00  0.00    -0.744 OA
ENDBRANCH  82  83
ENDBRANCH  56  77
ENDBRANCH  30  31
ENDBRANCH  23  25
ENDBRANCH  22  23
ENDBRANCH  21  22
ENDBRANCH   1  21
TORSDOF 18
ENDMDL
