MODEL 1
REMARK VINA RESULT:      -9.3      0.000      0.000
REMARK SMILES CC(C)Cc1ccc([C@@H](C)C(=O)OCCOC(=O)c2ccc(-c3c4nc(c(-c5ccc(S(=O)(=O)[O-])cc5)c5ccc([nH]5)c(-c5ccc(S(=O)(=O)[O-])cc5)c5nc(c(-c6ccc(S(=O)(=O)[O-])cc6)c6ccc3[nH]6)C=C5)C=C4)cc2)cc1
REMARK SMILES IDX 14 1 13 2 11 3 12 4 9 5 10 6 8 7 5 8 6 9 80 10 7 11 79 12
REMARK SMILES IDX 4 13 2 14 1 15 3 16 15 17 16 18 17 19 18 20 19 21 20 22
REMARK SMILES IDX 78 23 21 24 77 25 22 26 23 27 24 28 71 29 25 30 76 31 70 32
REMARK SMILES IDX 72 33 26 34 75 35 69 36 68 37 27 39 57 40 38 41 56 42 39 43
REMARK SMILES IDX 42 44 55 45 73 46 40 47 41 48 54 50 74 51 43 52 28 53 29 54
REMARK SMILES IDX 37 55 30 56 36 57 31 58 32 59 33 60 34 61 35 62 58 63 59 64
REMARK SMILES IDX 67 65 60 66 66 67 61 68 62 69 63 70 64 71 65 72 44 73 45 74
REMARK SMILES IDX 53 75 46 76 52 77 47 78 48 79 49 80 50 81 51 82
REMARK H PARENT 72 38 42 49
REMARK Flexibility Score: inf
ROOT
ATOM      1  C   UNL A   1      33.444  34.242  28.363  1.00  0.00     0.274 C 
ENDROOT
BRANCH   1   2
ATOM      2  O   UNL A   1      33.112  34.238  29.764  1.00  0.00    -0.462 OA
BRANCH   2   3
ATOM      3  C   UNL A   1      33.099  35.441  30.395  1.00  0.00     0.313 C 
ATOM      4  O   UNL A   1      32.764  36.495  29.862  1.00  0.00    -0.252 OA
BRANCH   3   5
ATOM      5  C   UNL A   1      33.596  35.383  31.836  1.00  0.00     0.126 C 
ATOM      6  C   UNL A   1      33.952  36.793  32.306  1.00  0.00     0.025 C 
BRANCH   5   7
ATOM      7  C   UNL A   1      34.691  34.362  32.100  1.00  0.00    -0.034 A 
ATOM      8  C   UNL A   1      36.804  32.561  32.644  1.00  0.00    -0.048 A 
ATOM      9  C   UNL A   1      35.563  32.423  33.278  1.00  0.00     0.004 A 
ATOM     10  C   UNL A   1      36.974  33.594  31.720  1.00  0.00     0.004 A 
ATOM     11  C   UNL A   1      34.524  33.319  33.019  1.00  0.00     0.005 A 
ATOM     12  C   UNL A   1      35.927  34.479  31.445  1.00  0.00     0.005 A 
BRANCH   8  13
ATOM     13  C   UNL A   1      37.940  31.625  32.974  1.00  0.00     0.038 C 
BRANCH  13  14
ATOM     14  C   UNL A   1      39.143  32.292  33.675  1.00  0.00    -0.013 C 
ATOM     15  C   UNL A   1      38.751  33.047  34.948  1.00  0.00     0.008 C 
ATOM     16  C   UNL A   1      40.183  31.223  34.025  1.00  0.00     0.008 C 
ENDBRANCH  13  14
ENDBRANCH   8  13
ENDBRANCH   5   7
ENDBRANCH   3   5
ENDBRANCH   2   3
ENDBRANCH   1   2
BRANCH   1  17
ATOM     17  C   UNL A   1      34.465  33.153  28.036  1.00  0.00     0.275 C 
BRANCH  17  18
ATOM     18  O   UNL A   1      34.209  31.966  28.805  1.00  0.00    -0.458 OA
BRANCH  18  19
ATOM     19  C   UNL A   1      34.343  30.801  28.129  1.00  0.00     0.338 C 
ATOM     20  O   UNL A   1      33.531  30.265  27.400  1.00  0.00    -0.246 OA
BRANCH  19  21
ATOM     21  C   UNL A   1      35.692  30.271  28.355  1.00  0.00     0.060 A 
ATOM     22  C   UNL A   1      36.067  29.904  29.649  1.00  0.00     0.016 A 
ATOM     23  C   UNL A   1      36.606  30.224  27.304  1.00  0.00     0.016 A 
ATOM     24  C   UNL A   1      37.375  29.502  29.906  1.00  0.00     0.010 A 
ATOM     25  C   UNL A   1      37.913  29.805  27.560  1.00  0.00     0.010 A 
ATOM     26  C   UNL A   1      38.309  29.458  28.864  1.00  0.00    -0.014 A 
BRANCH  26  27
ATOM     27  C   UNL A   1      39.721  29.103  29.129  1.00  0.00     0.031 A 
ATOM     28  C   UNL A   1      40.648  30.135  29.701  1.00  0.00     0.074 A 
ATOM     29  C   UNL A   1      40.173  27.870  28.834  1.00  0.00     0.049 A 
ATOM     30  N   UNL A   1      41.943  30.081  29.868  1.00  0.00    -0.248 NA
ATOM     31  C   UNL A   1      40.032  31.399  30.140  1.00  0.00     0.031 C 
ATOM     32  C   UNL A   1      39.352  26.764  28.335  1.00  0.00     0.029 A 
ATOM     33  N   UNL A   1      41.438  27.346  28.901  1.00  0.00    -0.354 N 
ATOM     34  C   UNL A   1      42.306  31.314  30.397  1.00  0.00     0.074 A 
ATOM     35  C   UNL A   1      41.094  32.097  30.520  1.00  0.00     0.031 C 
ATOM     36  C   UNL A   1      40.137  25.691  28.146  1.00  0.00     0.029 A 
ATOM     37  C   UNL A   1      41.520  26.050  28.451  1.00  0.00     0.049 A 
ATOM     38  H   UNL A   1      42.213  27.849  29.240  1.00  0.00     0.167 HD
ATOM     39  C   UNL A   1      43.540  31.755  30.741  1.00  0.00     0.031 A 
ATOM     40  C   UNL A   1      42.592  25.256  28.271  1.00  0.00     0.031 A 
ATOM     41  C   UNL A   1      44.738  30.970  30.612  1.00  0.00     0.049 A 
ATOM     42  C   UNL A   1      43.962  25.794  28.579  1.00  0.00     0.074 A 
ATOM     43  C   UNL A   1      46.037  31.318  30.939  1.00  0.00     0.029 A 
ATOM     44  N   UNL A   1      44.783  29.677  30.112  1.00  0.00    -0.354 N 
ATOM     45  N   UNL A   1      44.294  26.967  29.064  1.00  0.00    -0.248 NA
ATOM     46  C   UNL A   1      45.102  24.908  28.306  1.00  0.00     0.031 C 
ATOM     47  C   UNL A   1      46.873  30.250  30.595  1.00  0.00     0.029 A 
ATOM     48  C   UNL A   1      46.089  29.220  30.098  1.00  0.00     0.049 A 
ATOM     49  H   UNL A   1      44.001  29.160  29.810  1.00  0.00     0.167 HD
ATOM     50  C   UNL A   1      45.680  26.950  29.180  1.00  0.00     0.074 A 
ATOM     51  C   UNL A   1      46.123  25.651  28.713  1.00  0.00     0.031 C 
ATOM     52  C   UNL A   1      46.508  27.921  29.637  1.00  0.00     0.031 A 
BRANCH  39  53
ATOM     53  C   UNL A   1      43.651  33.173  31.233  1.00  0.00    -0.014 A 
ATOM     54  C   UNL A   1      43.856  34.244  30.344  1.00  0.00     0.010 A 
ATOM     55  C   UNL A   1      43.553  33.434  32.612  1.00  0.00     0.010 A 
ATOM     56  C   UNL A   1      44.015  35.544  30.832  1.00  0.00     0.020 A 
ATOM     57  C   UNL A   1      43.688  34.736  33.100  1.00  0.00     0.020 A 
ATOM     58  C   UNL A   1      43.944  35.780  32.208  1.00  0.00     0.054 A 
BRANCH  58  59
ATOM     59  S   UNL A   1      44.175  37.471  32.821  1.00  0.00     0.124 S 
ATOM     60  O   UNL A   1      45.480  37.378  33.472  1.00  0.00    -0.237 OA
ATOM     61  O   UNL A   1      44.140  38.268  31.597  1.00  0.00    -0.237 OA
ATOM     62  O   UNL A   1      43.042  37.671  33.722  1.00  0.00    -0.744 OA
ENDBRANCH  58  59
ENDBRANCH  39  53
BRANCH  40  63
ATOM     63  C   UNL A   1      42.409  23.874  27.753  1.00  0.00    -0.014 A 
ATOM     64  C   UNL A   1      42.471  23.622  26.372  1.00  0.00     0.010 A 
ATOM     65  C   UNL A   1      42.207  22.799  28.638  1.00  0.00     0.010 A 
ATOM     66  C   UNL A   1      42.332  22.319  25.884  1.00  0.00     0.020 A 
ATOM     67  C   UNL A   1      42.090  21.492  28.156  1.00  0.00     0.020 A 
ATOM     68  C   UNL A   1      42.147  21.262  26.780  1.00  0.00     0.054 A 
BRANCH  68  69
ATOM     69  S   UNL A   1      42.041  19.571  26.130  1.00  0.00     0.124 S 
ATOM     70  O   UNL A   1      42.958  19.624  24.995  1.00  0.00    -0.237 OA
ATOM     71  O   UNL A   1      42.484  18.766  27.265  1.00  0.00    -0.237 OA
ATOM     72  O   UNL A   1      40.628  19.425  25.787  1.00  0.00    -0.744 OA
ENDBRANCH  68  69
ENDBRANCH  40  63
BRANCH  52  73
ATOM     73  C   UNL A   1      47.977  27.607  29.699  1.00  0.00    -0.014 A 
ATOM     74  C   UNL A   1      48.824  27.870  28.609  1.00  0.00     0.010 A 
ATOM     75  C   UNL A   1      48.528  27.125  30.900  1.00  0.00     0.010 A 
ATOM     76  C   UNL A   1      50.199  27.648  28.718  1.00  0.00     0.020 A 
ATOM     77  C   UNL A   1      49.905  26.920  31.018  1.00  0.00     0.020 A 
ATOM     78  C   UNL A   1      50.731  27.178  29.922  1.00  0.00     0.054 A 
BRANCH  78  79
ATOM     79  S   UNL A   1      52.529  26.974  30.067  1.00  0.00     0.124 S 
ATOM     80  O   UNL A   1      52.632  25.803  30.934  1.00  0.00    -0.237 OA
ATOM     81  O   UNL A   1      52.943  26.768  28.682  1.00  0.00    -0.237 OA
ATOM     82  O   UNL A   1      52.973  28.233  30.662  1.00  0.00    -0.744 OA
ENDBRANCH  78  79
ENDBRANCH  52  73
ENDBRANCH  26  27
ENDBRANCH  19  21
ENDBRANCH  18  19
ENDBRANCH  17  18
ENDBRANCH   1  17
TORSDOF 17
ENDMDL
MODEL 2
REMARK VINA RESULT:      -9.1      2.726      5.356
REMARK SMILES CC(C)Cc1ccc([C@@H](C)C(=O)OCCOC(=O)c2ccc(-c3c4nc(c(-c5ccc(S(=O)(=O)[O-])cc5)c5ccc([nH]5)c(-c5ccc(S(=O)(=O)[O-])cc5)c5nc(c(-c6ccc(S(=O)(=O)[O-])cc6)c6ccc3[nH]6)C=C5)C=C4)cc2)cc1
REMARK SMILES IDX 14 1 13 2 11 3 12 4 9 5 10 6 8 7 5 8 6 9 80 10 7 11 79 12
REMARK SMILES IDX 4 13 2 14 1 15 3 16 15 17 16 18 17 19 18 20 19 21 20 22
REMARK SMILES IDX 78 23 21 24 77 25 22 26 23 27 24 28 71 29 25 30 76 31 70 32
REMARK SMILES IDX 72 33 26 34 75 35 69 36 68 37 27 39 57 40 38 41 56 42 39 43
REMARK SMILES IDX 42 44 55 45 73 46 40 47 41 48 54 50 74 51 43 52 28 53 29 54
REMARK SMILES IDX 37 55 30 56 36 57 31 58 32 59 33 60 34 61 35 62 58 63 59 64
REMARK SMILES IDX 67 65 60 66 66 67 61 68 62 69 63 70 64 71 65 72 44 73 45 74
REMARK SMILES IDX 53 75 46 76 52 77 47 78 48 79 49 80 50 81 51 82
REMARK H PARENT 72 38 42 49
REMARK Flexibility Score: inf
ROOT
ATOM      1  C   UNL A   1      31.676  29.375  26.324  1.00  0.00     0.274 C 
ENDROOT
BRANCH   1   2
ATOM      2  O   UNL A   1      32.167  29.643  24.997  1.00  0.00    -0.462 OA
BRANCH   2   3
ATOM      3  C   UNL A   1      32.190  28.598  24.129  1.00  0.00     0.313 C 
ATOM      4  O   UNL A   1      31.186  28.053  23.680  1.00  0.00    -0.252 OA
BRANCH   3   5
ATOM      5  C   UNL A   1      33.596  28.114  23.790  1.00  0.00     0.126 C 
ATOM      6  C   UNL A   1      34.025  28.707  22.448  1.00  0.00     0.025 C 
BRANCH   5   7
ATOM      7  C   UNL A   1      33.798  26.610  23.879  1.00  0.00    -0.034 A 
ATOM      8  C   UNL A   1      34.064  23.803  24.122  1.00  0.00    -0.048 A 
ATOM      9  C   UNL A   1      33.813  24.395  22.878  1.00  0.00     0.004 A 
ATOM     10  C   UNL A   1      34.202  24.628  25.241  1.00  0.00     0.004 A 
ATOM     11  C   UNL A   1      33.670  25.778  22.760  1.00  0.00     0.005 A 
ATOM     12  C   UNL A   1      34.078  26.015  25.119  1.00  0.00     0.005 A 
BRANCH   8  13
ATOM     13  C   UNL A   1      34.159  22.303  24.252  1.00  0.00     0.038 C 
BRANCH  13  14
ATOM     14  C   UNL A   1      35.598  21.757  24.374  1.00  0.00    -0.013 C 
ATOM     15  C   UNL A   1      36.635  22.638  23.672  1.00  0.00     0.008 C 
ATOM     16  C   UNL A   1      35.968  21.630  25.855  1.00  0.00     0.008 C 
ENDBRANCH  13  14
ENDBRANCH   8  13
ENDBRANCH   5   7
ENDBRANCH   3   5
ENDBRANCH   2   3
ENDBRANCH   1   2
BRANCH   1  17
ATOM     17  C   UNL A   1      32.829  29.182  27.309  1.00  0.00     0.275 C 
BRANCH  17  18
ATOM     18  O   UNL A   1      33.963  29.981  26.931  1.00  0.00    -0.458 OA
BRANCH  18  19
ATOM     19  C   UNL A   1      34.544  30.671  27.939  1.00  0.00     0.338 C 
ATOM     20  O   UNL A   1      34.060  31.562  28.610  1.00  0.00    -0.246 OA
BRANCH  19  21
ATOM     21  C   UNL A   1      35.890  30.133  28.171  1.00  0.00     0.060 A 
ATOM     22  C   UNL A   1      36.236  29.703  29.454  1.00  0.00     0.016 A 
ATOM     23  C   UNL A   1      36.829  30.142  27.140  1.00  0.00     0.016 A 
ATOM     24  C   UNL A   1      37.540  29.293  29.721  1.00  0.00     0.010 A 
ATOM     25  C   UNL A   1      38.130  29.714  27.406  1.00  0.00     0.010 A 
ATOM     26  C   UNL A   1      38.497  29.304  28.700  1.00  0.00    -0.014 A 
BRANCH  26  27
ATOM     27  C   UNL A   1      39.904  28.940  28.980  1.00  0.00     0.031 A 
ATOM     28  C   UNL A   1      40.831  29.966  29.562  1.00  0.00     0.074 A 
ATOM     29  C   UNL A   1      40.352  27.704  28.690  1.00  0.00     0.049 A 
ATOM     30  N   UNL A   1      42.125  29.904  29.742  1.00  0.00    -0.248 NA
ATOM     31  C   UNL A   1      40.219  31.234  29.994  1.00  0.00     0.031 C 
ATOM     32  C   UNL A   1      39.530  26.603  28.183  1.00  0.00     0.029 A 
ATOM     33  N   UNL A   1      41.613  27.172  28.771  1.00  0.00    -0.354 N 
ATOM     34  C   UNL A   1      42.490  31.135  30.276  1.00  0.00     0.074 A 
ATOM     35  C   UNL A   1      41.281  31.925  30.386  1.00  0.00     0.031 C 
ATOM     36  C   UNL A   1      40.309  25.525  28.002  1.00  0.00     0.029 A 
ATOM     37  C   UNL A   1      41.691  25.876  28.322  1.00  0.00     0.049 A 
ATOM     38  H   UNL A   1      42.387  27.670  29.118  1.00  0.00     0.167 HD
ATOM     39  C   UNL A   1      43.722  31.568  30.632  1.00  0.00     0.031 A 
ATOM     40  C   UNL A   1      42.760  25.074  28.153  1.00  0.00     0.031 A 
ATOM     41  C   UNL A   1      44.917  30.776  30.517  1.00  0.00     0.049 A 
ATOM     42  C   UNL A   1      44.130  25.605  28.476  1.00  0.00     0.074 A 
ATOM     43  C   UNL A   1      46.214  31.116  30.857  1.00  0.00     0.029 A 
ATOM     44  N   UNL A   1      44.959  29.483  30.017  1.00  0.00    -0.354 N 
ATOM     45  N   UNL A   1      44.465  26.775  28.965  1.00  0.00    -0.248 NA
ATOM     46  C   UNL A   1      45.267  24.711  28.215  1.00  0.00     0.031 C 
ATOM     47  C   UNL A   1      47.048  30.043  30.522  1.00  0.00     0.029 A 
ATOM     48  C   UNL A   1      46.263  29.017  30.017  1.00  0.00     0.049 A 
ATOM     49  H   UNL A   1      44.177  28.970  29.707  1.00  0.00     0.167 HD
ATOM     50  C   UNL A   1      45.848  26.750  29.095  1.00  0.00     0.074 A 
ATOM     51  C   UNL A   1      46.288  25.448  28.633  1.00  0.00     0.031 C 
ATOM     52  C   UNL A   1      46.678  27.715  29.561  1.00  0.00     0.031 A 
BRANCH  39  53
ATOM     53  C   UNL A   1      43.838  32.985  31.125  1.00  0.00    -0.014 A 
ATOM     54  C   UNL A   1      44.032  34.058  30.237  1.00  0.00     0.010 A 
ATOM     55  C   UNL A   1      43.752  33.245  32.506  1.00  0.00     0.010 A 
ATOM     56  C   UNL A   1      44.195  35.357  30.725  1.00  0.00     0.020 A 
ATOM     57  C   UNL A   1      43.891  34.546  32.995  1.00  0.00     0.020 A 
ATOM     58  C   UNL A   1      44.138  35.591  32.102  1.00  0.00     0.054 A 
BRANCH  58  59
ATOM     59  S   UNL A   1      44.372  37.281  32.715  1.00  0.00     0.124 S 
ATOM     60  O   UNL A   1      43.301  37.393  33.703  1.00  0.00    -0.237 OA
ATOM     61  O   UNL A   1      45.727  37.244  33.261  1.00  0.00    -0.237 OA
ATOM     62  O   UNL A   1      44.208  38.109  31.523  1.00  0.00    -0.744 OA
ENDBRANCH  58  59
ENDBRANCH  39  53
BRANCH  40  63
ATOM     63  C   UNL A   1      42.574  23.694  27.634  1.00  0.00    -0.014 A 
ATOM     64  C   UNL A   1      42.726  23.428  26.262  1.00  0.00     0.010 A 
ATOM     65  C   UNL A   1      42.279  22.633  28.510  1.00  0.00     0.010 A 
ATOM     66  C   UNL A   1      42.585  22.125  25.775  1.00  0.00     0.020 A 
ATOM     67  C   UNL A   1      42.158  21.326  28.029  1.00  0.00     0.020 A 
ATOM     68  C   UNL A   1      42.306  21.082  26.663  1.00  0.00     0.054 A 
BRANCH  68  69
ATOM     69  S   UNL A   1      42.197  19.388  26.019  1.00  0.00     0.124 S 
ATOM     70  O   UNL A   1      43.036  19.463  24.827  1.00  0.00    -0.237 OA
ATOM     71  O   UNL A   1      42.733  18.594  27.122  1.00  0.00    -0.237 OA
ATOM     72  O   UNL A   1      40.768  19.209  25.770  1.00  0.00    -0.744 OA
ENDBRANCH  68  69
ENDBRANCH  40  63
BRANCH  52  73
ATOM     73  C   UNL A   1      48.145  27.392  29.639  1.00  0.00    -0.014 A 
ATOM     74  C   UNL A   1      49.029  27.776  28.617  1.00  0.00     0.010 A 
ATOM     75  C   UNL A   1      48.653  26.774  30.796  1.00  0.00     0.010 A 
ATOM     76  C   UNL A   1      50.400  27.539  28.748  1.00  0.00     0.020 A 
ATOM     77  C   UNL A   1      50.025  26.553  30.938  1.00  0.00     0.020 A 
ATOM     78  C   UNL A   1      50.890  26.933  29.909  1.00  0.00     0.054 A 
BRANCH  78  79
ATOM     79  S   UNL A   1      52.681  26.709  30.093  1.00  0.00     0.124 S 
ATOM     80  O   UNL A   1      53.052  26.151  28.796  1.00  0.00    -0.237 OA
ATOM     81  O   UNL A   1      53.151  28.068  30.350  1.00  0.00    -0.237 OA
ATOM     82  O   UNL A   1      52.800  25.791  31.224  1.00  0.00    -0.744 OA
ENDBRANCH  78  79
ENDBRANCH  52  73
ENDBRANCH  26  27
ENDBRANCH  19  21
ENDBRANCH  18  19
ENDBRANCH  17  18
ENDBRANCH   1  17
TORSDOF 17
ENDMDL
MODEL 3
REMARK VINA RESULT:      -9.0      2.618      3.745
REMARK SMILES CC(C)Cc1ccc([C@@H](C)C(=O)OCCOC(=O)c2ccc(-c3c4nc(c(-c5ccc(S(=O)(=O)[O-])cc5)c5ccc([nH]5)c(-c5ccc(S(=O)(=O)[O-])cc5)c5nc(c(-c6ccc(S(=O)(=O)[O-])cc6)c6ccc3[nH]6)C=C5)C=C4)cc2)cc1
REMARK SMILES IDX 14 1 13 2 11 3 12 4 9 5 10 6 8 7 5 8 6 9 80 10 7 11 79 12
REMARK SMILES IDX 4 13 2 14 1 15 3 16 15 17 16 18 17 19 18 20 19 21 20 22
REMARK SMILES IDX 78 23 21 24 77 25 22 26 23 27 24 28 71 29 25 30 76 31 70 32
REMARK SMILES IDX 72 33 26 34 75 35 69 36 68 37 27 39 57 40 38 41 56 42 39 43
REMARK SMILES IDX 42 44 55 45 73 46 40 47 41 48 54 50 74 51 43 52 28 53 29 54
REMARK SMILES IDX 37 55 30 56 36 57 31 58 32 59 33 60 34 61 35 62 58 63 59 64
REMARK SMILES IDX 67 65 60 66 66 67 61 68 62 69 63 70 64 71 65 72 44 73 45 74
REMARK SMILES IDX 53 75 46 76 52 77 47 78 48 79 49 80 50 81 51 82
REMARK H PARENT 72 38 42 49
REMARK Flexibility Score: inf
ROOT
ATOM      1  C   UNL A   1      34.422  33.279  27.833  1.00  0.00     0.274 C 
ENDROOT
BRANCH   1   2
ATOM      2  O   UNL A   1      34.057  34.341  28.734  1.00  0.00    -0.462 OA
BRANCH   2   3
ATOM      3  C   UNL A   1      34.138  34.074  30.064  1.00  0.00     0.313 C 
ATOM      4  O   UNL A   1      33.468  34.639  30.923  1.00  0.00    -0.252 OA
BRANCH   3   5
ATOM      5  C   UNL A   1      35.191  33.028  30.414  1.00  0.00     0.126 C 
ATOM      6  C   UNL A   1      34.843  32.390  31.759  1.00  0.00     0.025 C 
BRANCH   5   7
ATOM      7  C   UNL A   1      36.631  33.508  30.327  1.00  0.00    -0.034 A 
ATOM      8  C   UNL A   1      39.343  34.311  30.262  1.00  0.00    -0.048 A 
ATOM      9  C   UNL A   1      38.745  33.716  29.145  1.00  0.00     0.004 A 
ATOM     10  C   UNL A   1      38.569  34.522  31.405  1.00  0.00     0.004 A 
ATOM     11  C   UNL A   1      37.410  33.308  29.181  1.00  0.00     0.005 A 
ATOM     12  C   UNL A   1      37.227  34.132  31.435  1.00  0.00     0.005 A 
BRANCH   8  13
ATOM     13  C   UNL A   1      40.802  34.696  30.235  1.00  0.00     0.038 C 
BRANCH  13  14
ATOM     14  C   UNL A   1      41.747  33.689  30.926  1.00  0.00    -0.013 C 
ATOM     15  C   UNL A   1      42.112  32.500  30.032  1.00  0.00     0.008 C 
ATOM     16  C   UNL A   1      43.030  34.409  31.353  1.00  0.00     0.008 C 
ENDBRANCH  13  14
ENDBRANCH   8  13
ENDBRANCH   5   7
ENDBRANCH   3   5
ENDBRANCH   2   3
ENDBRANCH   1   2
BRANCH   1  17
ATOM     17  C   UNL A   1      33.236  32.354  27.563  1.00  0.00     0.275 C 
BRANCH  17  18
ATOM     18  O   UNL A   1      33.490  31.034  28.071  1.00  0.00    -0.458 OA
BRANCH  18  19
ATOM     19  C   UNL A   1      34.320  30.276  27.317  1.00  0.00     0.338 C 
ATOM     20  O   UNL A   1      34.129  29.853  26.193  1.00  0.00    -0.246 OA
BRANCH  19  21
ATOM     21  C   UNL A   1      35.573  30.068  28.050  1.00  0.00     0.060 A 
ATOM     22  C   UNL A   1      36.786  30.222  27.376  1.00  0.00     0.016 A 
ATOM     23  C   UNL A   1      35.541  29.633  29.375  1.00  0.00     0.016 A 
ATOM     24  C   UNL A   1      37.983  29.923  28.021  1.00  0.00     0.010 A 
ATOM     25  C   UNL A   1      36.742  29.350  30.025  1.00  0.00     0.010 A 
ATOM     26  C   UNL A   1      37.968  29.477  29.348  1.00  0.00    -0.014 A 
BRANCH  26  27
ATOM     27  C   UNL A   1      39.224  29.085  30.028  1.00  0.00     0.031 A 
ATOM     28  C   UNL A   1      39.659  29.826  31.258  1.00  0.00     0.074 A 
ATOM     29  C   UNL A   1      39.979  28.090  29.528  1.00  0.00     0.049 A 
ATOM     30  N   UNL A   1      40.787  29.747  31.914  1.00  0.00    -0.248 NA
ATOM     31  C   UNL A   1      38.697  30.788  31.821  1.00  0.00     0.031 C 
ATOM     32  C   UNL A   1      39.627  27.256  28.377  1.00  0.00     0.029 A 
ATOM     33  N   UNL A   1      41.205  27.620  29.921  1.00  0.00    -0.354 N 
ATOM     34  C   UNL A   1      40.687  30.672  32.946  1.00  0.00     0.074 A 
ATOM     35  C   UNL A   1      39.390  31.303  32.827  1.00  0.00     0.031 C 
ATOM     36  C   UNL A   1      40.615  26.372  28.161  1.00  0.00     0.029 A 
ATOM     37  C   UNL A   1      41.693  26.618  29.116  1.00  0.00     0.049 A 
ATOM     38  H   UNL A   1      41.690  27.966  30.705  1.00  0.00     0.167 HD
ATOM     39  C   UNL A   1      41.600  30.973  33.901  1.00  0.00     0.031 A 
ATOM     40  C   UNL A   1      42.886  25.995  29.126  1.00  0.00     0.031 A 
ATOM     41  C   UNL A   1      42.887  30.341  34.010  1.00  0.00     0.049 A 
ATOM     42  C   UNL A   1      43.917  26.403  30.143  1.00  0.00     0.074 A 
ATOM     43  C   UNL A   1      43.882  30.566  34.944  1.00  0.00     0.029 A 
ATOM     44  N   UNL A   1      43.359  29.362  33.149  1.00  0.00    -0.354 N 
ATOM     45  N   UNL A   1      43.817  27.290  31.104  1.00  0.00    -0.248 NA
ATOM     46  C   UNL A   1      45.224  25.736  30.070  1.00  0.00     0.031 C 
ATOM     47  C   UNL A   1      44.974  29.752  34.622  1.00  0.00     0.029 A 
ATOM     48  C   UNL A   1      44.640  28.987  33.515  1.00  0.00     0.049 A 
ATOM     49  H   UNL A   1      42.857  28.988  32.388  1.00  0.00     0.167 HD
ATOM     50  C   UNL A   1      45.038  27.268  31.768  1.00  0.00     0.074 A 
ATOM     51  C   UNL A   1      45.861  26.281  31.097  1.00  0.00     0.031 C 
ATOM     52  C   UNL A   1      45.439  27.996  32.839  1.00  0.00     0.031 A 
BRANCH  39  53
ATOM     53  C   UNL A   1      41.249  32.075  34.865  1.00  0.00    -0.014 A 
ATOM     54  C   UNL A   1      40.733  31.796  36.142  1.00  0.00     0.010 A 
ATOM     55  C   UNL A   1      41.439  33.415  34.479  1.00  0.00     0.010 A 
ATOM     56  C   UNL A   1      40.360  32.838  36.995  1.00  0.00     0.020 A 
ATOM     57  C   UNL A   1      41.089  34.459  35.339  1.00  0.00     0.020 A 
ATOM     58  C   UNL A   1      40.528  34.164  36.583  1.00  0.00     0.054 A 
BRANCH  58  59
ATOM     59  S   UNL A   1      40.018  35.500  37.697  1.00  0.00     0.124 S 
ATOM     60  O   UNL A   1      41.151  35.571  38.617  1.00  0.00    -0.237 OA
ATOM     61  O   UNL A   1      39.873  36.639  36.793  1.00  0.00    -0.237 OA
ATOM     62  O   UNL A   1      38.772  35.009  38.280  1.00  0.00    -0.744 OA
ENDBRANCH  58  59
ENDBRANCH  39  53
BRANCH  40  63
ATOM     63  C   UNL A   1      43.174  24.934  28.125  1.00  0.00    -0.014 A 
ATOM     64  C   UNL A   1      43.861  25.248  26.940  1.00  0.00     0.010 A 
ATOM     65  C   UNL A   1      42.794  23.601  28.365  1.00  0.00     0.010 A 
ATOM     66  C   UNL A   1      44.162  24.247  26.011  1.00  0.00     0.020 A 
ATOM     67  C   UNL A   1      43.113  22.594  27.449  1.00  0.00     0.020 A 
ATOM     68  C   UNL A   1      43.790  22.925  26.274  1.00  0.00     0.054 A 
BRANCH  68  69
ATOM     69  S   UNL A   1      44.255  21.632  25.089  1.00  0.00     0.124 S 
ATOM     70  O   UNL A   1      43.242  20.611  25.341  1.00  0.00    -0.237 OA
ATOM     71  O   UNL A   1      44.152  22.324  23.807  1.00  0.00    -0.237 OA
ATOM     72  O   UNL A   1      45.616  21.276  25.488  1.00  0.00    -0.744 OA
ENDBRANCH  68  69
ENDBRANCH  40  63
BRANCH  52  73
ATOM     73  C   UNL A   1      46.813  27.726  33.387  1.00  0.00    -0.014 A 
ATOM     74  C   UNL A   1      47.027  26.724  34.349  1.00  0.00     0.010 A 
ATOM     75  C   UNL A   1      47.914  28.426  32.862  1.00  0.00     0.010 A 
ATOM     76  C   UNL A   1      48.323  26.433  34.783  1.00  0.00     0.020 A 
ATOM     77  C   UNL A   1      49.212  28.124  33.280  1.00  0.00     0.020 A 
ATOM     78  C   UNL A   1      49.407  27.132  34.244  1.00  0.00     0.054 A 
BRANCH  78  79
ATOM     79  S   UNL A   1      51.087  26.682  34.762  1.00  0.00     0.124 S 
ATOM     80  O   UNL A   1      51.110  27.141  36.148  1.00  0.00    -0.237 OA
ATOM     81  O   UNL A   1      51.104  25.233  34.580  1.00  0.00    -0.237 OA
ATOM     82  O   UNL A   1      51.944  27.428  33.843  1.00  0.00    -0.744 OA
ENDBRANCH  78  79
ENDBRANCH  52  73
ENDBRANCH  26  27
ENDBRANCH  19  21
ENDBRANCH  18  19
ENDBRANCH  17  18
ENDBRANCH   1  17
TORSDOF 17
ENDMDL
