MODEL 1
REMARK VINA RESULT:     -13.2      0.000      0.000
REMARK SMILES Cc1cc(C(=O)OCCOC(=O)c2ccc(-c3c4nc(c(-c5ccc(S(=O)(=O)[O-])cc5)c5ccc([nH]5)c(-c5ccc(S(=O)(=O)[O-])cc5)c5nc(c(-c6ccc(S(=O)(=O)[O-])cc6)c6ccc3[nH]6)C=C5)C=C4)cc2)cc(S(=O)(=O)NNC(=O)c2c[nH]c3ccccc23)c1C
REMARK SMILES IDX 8 1 7 2 5 3 6 4 4 5 1 6 2 7 3 8 91 9 74 10 92 11 73 12 75 13
REMARK SMILES IDX 76 14 77 15 78 16 79 18 80 19 81 21 82 22 83 23 90 24 84 25
REMARK SMILES IDX 85 26 89 27 86 29 88 30 87 31 9 32 10 33 11 34 12 35 13 36
REMARK SMILES IDX 14 37 72 38 15 39 71 40 16 41 17 42 18 43 65 44 19 45 70 46
REMARK SMILES IDX 64 47 66 48 20 49 69 50 63 51 62 52 21 54 51 55 32 56 50 57
REMARK SMILES IDX 33 58 36 59 49 60 67 61 34 62 35 63 48 65 68 66 37 67 22 68
REMARK SMILES IDX 23 69 31 70 24 71 30 72 25 73 26 74 27 75 28 76 29 77 52 78
REMARK SMILES IDX 53 79 61 80 54 81 60 82 55 83 56 84 57 85 58 86 59 87 38 88
REMARK SMILES IDX 39 89 47 90 40 91 46 92 41 93 42 94 43 95 44 96 45 97
REMARK H PARENT 78 17 79 20 84 28 66 53 36 64
REMARK Flexibility Score: inf
ROOT
ATOM      1  C   UNL A   1      33.904  31.355  27.744  1.00  0.00     0.275 C 
ENDROOT
BRANCH   1   2
ATOM      2  O   UNL A   1      33.138  30.199  27.314  1.00  0.00    -0.458 OA
BRANCH   2   3
ATOM      3  C   UNL A   1      33.805  29.172  26.708  1.00  0.00     0.338 C 
ATOM      4  O   UNL A   1      34.894  28.733  27.039  1.00  0.00    -0.246 OA
BRANCH   3   5
ATOM      5  C   UNL A   1      33.023  28.611  25.556  1.00  0.00     0.061 A 
ATOM      6  C   UNL A   1      29.913  29.878  23.848  1.00  0.00     0.044 C 
ATOM      7  C   UNL A   1      31.107  28.991  24.127  1.00  0.00    -0.046 A 
ATOM      8  C   UNL A   1      31.839  29.291  25.273  1.00  0.00     0.019 A 
ATOM      9  C   UNL A   1      31.552  27.933  23.268  1.00  0.00    -0.028 A 
ATOM     10  C   UNL A   1      32.737  27.157  23.584  1.00  0.00     0.088 A 
ATOM     11  C   UNL A   1      30.779  27.697  21.989  1.00  0.00     0.046 C 
ATOM     12  C   UNL A   1      33.482  27.546  24.707  1.00  0.00     0.037 A 
BRANCH  10  13
ATOM     13  S   UNL A   1      33.160  25.699  22.479  1.00  0.00     0.257 S 
ATOM     14  O   UNL A   1      33.568  26.333  21.239  1.00  0.00    -0.205 OA
ATOM     15  O   UNL A   1      34.095  24.911  23.257  1.00  0.00    -0.205 OA
BRANCH  13  16
ATOM     16  N   UNL A   1      31.853  24.491  21.974  1.00  0.00    -0.123 NA
ATOM     17  H   UNL A   1      31.818  24.444  20.956  1.00  0.00     0.167 HD
BRANCH  16  18
ATOM     18  N   UNL A   1      32.139  23.147  22.508  1.00  0.00    -0.273 N 
ATOM     19  C   UNL A   1      32.627  22.102  23.272  1.00  0.00     0.268 C 
ATOM     20  H   UNL A   1      31.603  22.621  21.872  1.00  0.00     0.186 HD
ATOM     21  O   UNL A   1      32.051  21.241  22.520  1.00  0.00    -0.268 OA
BRANCH  19  22
ATOM     22  C   UNL A   1      33.685  21.393  24.571  1.00  0.00     0.066 A 
ATOM     23  C   UNL A   1      32.933  22.799  25.548  1.00  0.00     0.097 A 
ATOM     24  C   UNL A   1      35.777  21.623  24.909  1.00  0.00     0.012 A 
ATOM     25  N   UNL A   1      34.271  23.962  26.143  1.00  0.00    -0.360 N 
ATOM     26  C   UNL A   1      35.992  23.254  25.828  1.00  0.00     0.046 A 
ATOM     27  C   UNL A   1      37.060  21.003  24.830  1.00  0.00     0.011 A 
ATOM     28  H   UNL A   1      34.100  24.834  26.567  1.00  0.00     0.166 HD
ATOM     29  C   UNL A   1      37.199  23.821  26.188  1.00  0.00     0.027 A 
ATOM     30  C   UNL A   1      38.206  21.676  25.420  1.00  0.00     0.001 A 
ATOM     31  C   UNL A   1      38.280  22.977  26.021  1.00  0.00     0.002 A 
ENDBRANCH  19  22
ENDBRANCH  16  18
ENDBRANCH  13  16
ENDBRANCH  10  13
ENDBRANCH   3   5
ENDBRANCH   2   3
ENDBRANCH   1   2
BRANCH   1  32
ATOM     32  C   UNL A   1      33.092  32.651  27.625  1.00  0.00     0.275 C 
BRANCH  32  33
ATOM     33  O   UNL A   1      33.913  33.775  27.954  1.00  0.00    -0.458 OA
BRANCH  33  34
ATOM     34  C   UNL A   1      33.753  34.204  29.222  1.00  0.00     0.338 C 
ATOM     35  O   UNL A   1      32.784  34.748  29.723  1.00  0.00    -0.246 OA
BRANCH  34  36
ATOM     36  C   UNL A   1      34.885  33.718  29.996  1.00  0.00     0.060 A 
ATOM     37  C   UNL A   1      36.142  34.022  29.502  1.00  0.00     0.016 A 
ATOM     38  C   UNL A   1      34.725  32.844  31.058  1.00  0.00     0.016 A 
ATOM     39  C   UNL A   1      37.230  33.287  29.894  1.00  0.00     0.010 A 
ATOM     40  C   UNL A   1      35.856  32.227  31.581  1.00  0.00     0.010 A 
ATOM     41  C   UNL A   1      37.090  32.374  30.931  1.00  0.00    -0.014 A 
BRANCH  41  42
ATOM     42  C   UNL A   1      38.165  31.392  31.128  1.00  0.00     0.031 A 
ATOM     43  C   UNL A   1      38.343  30.433  29.974  1.00  0.00     0.074 A 
ATOM     44  C   UNL A   1      39.107  31.562  32.114  1.00  0.00     0.049 A 
ATOM     45  N   UNL A   1      39.434  29.778  29.899  1.00  0.00    -0.248 NA
ATOM     46  C   UNL A   1      37.513  30.279  28.779  1.00  0.00     0.031 C 
ATOM     47  C   UNL A   1      39.111  32.706  33.044  1.00  0.00     0.029 A 
ATOM     48  N   UNL A   1      40.273  30.880  32.481  1.00  0.00    -0.354 N 
ATOM     49  C   UNL A   1      39.663  29.052  28.450  1.00  0.00     0.074 A 
ATOM     50  C   UNL A   1      38.214  29.520  27.914  1.00  0.00     0.031 C 
ATOM     51  C   UNL A   1      40.223  32.693  33.789  1.00  0.00     0.029 A 
ATOM     52  C   UNL A   1      40.956  31.456  33.551  1.00  0.00     0.049 A 
ATOM     53  H   UNL A   1      40.583  30.066  32.025  1.00  0.00     0.167 HD
ATOM     54  C   UNL A   1      41.148  27.843  28.085  1.00  0.00     0.031 A 
ATOM     55  C   UNL A   1      41.998  31.081  34.341  1.00  0.00     0.031 A 
ATOM     56  C   UNL A   1      42.496  27.360  29.099  1.00  0.00     0.049 A 
ATOM     57  C   UNL A   1      42.727  29.783  34.099  1.00  0.00     0.074 A 
ATOM     58  C   UNL A   1      43.349  26.260  28.930  1.00  0.00     0.029 A 
ATOM     59  N   UNL A   1      42.838  27.803  30.417  1.00  0.00    -0.354 N 
ATOM     60  N   UNL A   1      42.751  29.034  33.024  1.00  0.00    -0.248 NA
ATOM     61  C   UNL A   1      43.563  29.278  35.203  1.00  0.00     0.031 C 
ATOM     62  C   UNL A   1      43.843  25.852  30.190  1.00  0.00     0.029 A 
ATOM     63  C   UNL A   1      43.574  26.839  31.114  1.00  0.00     0.049 A 
ATOM     64  H   UNL A   1      42.586  28.680  30.787  1.00  0.00     0.167 HD
ATOM     65  C   UNL A   1      43.604  27.969  33.318  1.00  0.00     0.074 A 
ATOM     66  C   UNL A   1      44.094  28.189  34.665  1.00  0.00     0.031 C 
ATOM     67  C   UNL A   1      43.965  26.929  32.519  1.00  0.00     0.031 A 
BRANCH  54  68
ATOM     68  C   UNL A   1      41.421  26.599  26.813  1.00  0.00    -0.014 A 
ATOM     69  C   UNL A   1      41.066  25.237  26.933  1.00  0.00     0.010 A 
ATOM     70  C   UNL A   1      42.319  26.950  25.768  1.00  0.00     0.010 A 
ATOM     71  C   UNL A   1      41.850  24.264  26.292  1.00  0.00     0.020 A 
ATOM     72  C   UNL A   1      43.058  25.985  25.086  1.00  0.00     0.020 A 
ATOM     73  C   UNL A   1      42.885  24.651  25.431  1.00  0.00     0.054 A 
BRANCH  73  74
ATOM     74  S   UNL A   1      44.120  23.418  24.935  1.00  0.00     0.124 S 
ATOM     75  O   UNL A   1      44.352  22.708  26.192  1.00  0.00    -0.237 OA
ATOM     76  O   UNL A   1      43.417  22.661  23.905  1.00  0.00    -0.237 OA
ATOM     77  O   UNL A   1      45.250  24.217  24.465  1.00  0.00    -0.744 OA
ENDBRANCH  73  74
ENDBRANCH  54  68
BRANCH  55  78
ATOM     78  C   UNL A   1      42.348  31.890  35.576  1.00  0.00    -0.014 A 
ATOM     79  C   UNL A   1      43.396  32.831  35.595  1.00  0.00     0.010 A 
ATOM     80  C   UNL A   1      41.639  31.671  36.778  1.00  0.00     0.010 A 
ATOM     81  C   UNL A   1      43.706  33.542  36.770  1.00  0.00     0.020 A 
ATOM     82  C   UNL A   1      41.915  32.405  37.938  1.00  0.00     0.020 A 
ATOM     83  C   UNL A   1      42.954  33.333  37.930  1.00  0.00     0.054 A 
BRANCH  83  84
ATOM     84  S   UNL A   1      43.317  34.311  39.421  1.00  0.00     0.124 S 
ATOM     85  O   UNL A   1      42.184  35.230  39.467  1.00  0.00    -0.237 OA
ATOM     86  O   UNL A   1      43.350  33.291  40.466  1.00  0.00    -0.237 OA
ATOM     87  O   UNL A   1      44.608  34.926  39.121  1.00  0.00    -0.744 OA
ENDBRANCH  83  84
ENDBRANCH  55  78
BRANCH  67  88
ATOM     88  C   UNL A   1      44.908  25.879  33.111  1.00  0.00    -0.014 A 
ATOM     89  C   UNL A   1      44.463  24.693  33.737  1.00  0.00     0.010 A 
ATOM     90  C   UNL A   1      46.297  26.092  33.038  1.00  0.00     0.010 A 
ATOM     91  C   UNL A   1      45.373  23.782  34.304  1.00  0.00     0.020 A 
ATOM     92  C   UNL A   1      47.211  25.168  33.560  1.00  0.00     0.020 A 
ATOM     93  C   UNL A   1      46.745  24.024  34.207  1.00  0.00     0.054 A 
BRANCH  93  94
ATOM     94  S   UNL A   1      47.916  22.820  34.902  1.00  0.00     0.124 S 
ATOM     95  O   UNL A   1      47.339  21.547  34.480  1.00  0.00    -0.237 OA
ATOM     96  O   UNL A   1      49.173  23.184  34.254  1.00  0.00    -0.237 OA
ATOM     97  O   UNL A   1      47.867  23.077  36.340  1.00  0.00    -0.744 OA
ENDBRANCH  93  94
ENDBRANCH  67  88
ENDBRANCH  41  42
ENDBRANCH  34  36
ENDBRANCH  33  34
ENDBRANCH  32  33
ENDBRANCH   1  32
TORSDOF 18
ENDMDL
MODEL 2
REMARK VINA RESULT:     -13.0      2.649      9.932
REMARK SMILES Cc1cc(C(=O)OCCOC(=O)c2ccc(-c3c4nc(c(-c5ccc(S(=O)(=O)[O-])cc5)c5ccc([nH]5)c(-c5ccc(S(=O)(=O)[O-])cc5)c5nc(c(-c6ccc(S(=O)(=O)[O-])cc6)c6ccc3[nH]6)C=C5)C=C4)cc2)cc(S(=O)(=O)NNC(=O)c2c[nH]c3ccccc23)c1C
REMARK SMILES IDX 8 1 7 2 5 3 6 4 4 5 1 6 2 7 3 8 91 9 74 10 92 11 73 12 75 13
REMARK SMILES IDX 76 14 77 15 78 16 79 18 80 19 81 21 82 22 83 23 90 24 84 25
REMARK SMILES IDX 85 26 89 27 86 29 88 30 87 31 9 32 10 33 11 34 12 35 13 36
REMARK SMILES IDX 14 37 72 38 15 39 71 40 16 41 17 42 18 43 65 44 19 45 70 46
REMARK SMILES IDX 64 47 66 48 20 49 69 50 63 51 62 52 21 54 51 55 32 56 50 57
REMARK SMILES IDX 33 58 36 59 49 60 67 61 34 62 35 63 48 65 68 66 37 67 22 68
REMARK SMILES IDX 23 69 31 70 24 71 30 72 25 73 26 74 27 75 28 76 29 77 52 78
REMARK SMILES IDX 53 79 61 80 54 81 60 82 55 83 56 84 57 85 58 86 59 87 38 88
REMARK SMILES IDX 39 89 47 90 40 91 46 92 41 93 42 94 43 95 44 96 45 97
REMARK H PARENT 78 17 79 20 84 28 66 53 36 64
REMARK Flexibility Score: inf
ROOT
ATOM      1  C   UNL A   1      44.244  19.821  25.422  1.00  0.00     0.275 C 
ENDROOT
BRANCH   1   2
ATOM      2  O   UNL A   1      42.800  19.973  25.378  1.00  0.00    -0.458 OA
BRANCH   2   3
ATOM      3  C   UNL A   1      42.102  19.854  26.547  1.00  0.00     0.338 C 
ATOM      4  O   UNL A   1      42.322  19.044  27.431  1.00  0.00    -0.246 OA
BRANCH   3   5
ATOM      5  C   UNL A   1      41.003  20.872  26.636  1.00  0.00     0.061 A 
ATOM      6  C   UNL A   1      40.846  24.167  28.458  1.00  0.00     0.044 C 
ATOM      7  C   UNL A   1      40.406  23.025  27.567  1.00  0.00    -0.046 A 
ATOM      8  C   UNL A   1      41.256  21.924  27.516  1.00  0.00     0.019 A 
ATOM      9  C   UNL A   1      39.231  23.043  26.745  1.00  0.00    -0.028 A 
ATOM     10  C   UNL A   1      38.903  21.923  25.880  1.00  0.00     0.088 A 
ATOM     11  C   UNL A   1      38.381  24.294  26.763  1.00  0.00     0.046 C 
ATOM     12  C   UNL A   1      39.828  20.872  25.807  1.00  0.00     0.037 A 
BRANCH  10  13
ATOM     13  S   UNL A   1      37.272  21.972  24.952  1.00  0.00     0.257 S 
ATOM     14  O   UNL A   1      37.266  20.712  24.230  1.00  0.00    -0.205 OA
ATOM     15  O   UNL A   1      36.280  22.252  25.971  1.00  0.00    -0.205 OA
BRANCH  13  16
ATOM     16  N   UNL A   1      36.966  23.252  23.652  1.00  0.00    -0.123 NA
ATOM     17  H   UNL A   1      37.505  23.016  22.819  1.00  0.00     0.167 HD
BRANCH  16  18
ATOM     18  N   UNL A   1      35.536  23.320  23.300  1.00  0.00    -0.273 N 
ATOM     19  C   UNL A   1      34.191  23.028  23.163  1.00  0.00     0.268 C 
ATOM     20  H   UNL A   1      35.544  24.186  22.830  1.00  0.00     0.186 HD
ATOM     21  O   UNL A   1      33.999  24.087  22.471  1.00  0.00    -0.268 OA
BRANCH  19  22
ATOM     22  C   UNL A   1      32.739  21.942  23.315  1.00  0.00     0.066 A 
ATOM     23  C   UNL A   1      32.817  22.568  25.076  1.00  0.00     0.097 A 
ATOM     24  C   UNL A   1      32.630  19.827  23.549  1.00  0.00     0.012 A 
ATOM     25  N   UNL A   1      33.068  21.141  26.259  1.00  0.00    -0.360 N 
ATOM     26  C   UNL A   1      32.900  19.478  25.381  1.00  0.00     0.046 A 
ATOM     27  C   UNL A   1      32.326  18.584  22.916  1.00  0.00     0.011 A 
ATOM     28  H   UNL A   1      33.264  21.243  27.218  1.00  0.00     0.166 HD
ATOM     29  C   UNL A   1      32.973  18.225  25.959  1.00  0.00     0.027 A 
ATOM     30  C   UNL A   1      32.280  17.375  23.723  1.00  0.00     0.001 A 
ATOM     31  C   UNL A   1      32.600  17.201  25.111  1.00  0.00     0.002 A 
ENDBRANCH  19  22
ENDBRANCH  16  18
ENDBRANCH  13  16
ENDBRANCH  10  13
ENDBRANCH   3   5
ENDBRANCH   2   3
ENDBRANCH   1   2
BRANCH   1  32
ATOM     32  C   UNL A   1      44.908  20.335  24.139  1.00  0.00     0.275 C 
BRANCH  32  33
ATOM     33  O   UNL A   1      44.487  21.676  23.873  1.00  0.00    -0.458 OA
BRANCH  33  34
ATOM     34  C   UNL A   1      45.424  22.600  24.160  1.00  0.00     0.338 C 
ATOM     35  O   UNL A   1      46.609  22.594  23.876  1.00  0.00    -0.246 OA
BRANCH  34  36
ATOM     36  C   UNL A   1      44.741  23.762  24.711  1.00  0.00     0.060 A 
ATOM     37  C   UNL A   1      45.543  24.828  25.079  1.00  0.00     0.016 A 
ATOM     38  C   UNL A   1      43.392  23.737  25.024  1.00  0.00     0.016 A 
ATOM     39  C   UNL A   1      45.078  25.764  25.965  1.00  0.00     0.010 A 
ATOM     40  C   UNL A   1      42.872  24.785  25.778  1.00  0.00     0.010 A 
ATOM     41  C   UNL A   1      43.738  25.740  26.330  1.00  0.00    -0.014 A 
BRANCH  41  42
ATOM     42  C   UNL A   1      43.331  26.539  27.493  1.00  0.00     0.031 A 
ATOM     43  C   UNL A   1      42.249  27.552  27.197  1.00  0.00     0.074 A 
ATOM     44  C   UNL A   1      43.673  26.159  28.769  1.00  0.00     0.049 A 
ATOM     45  N   UNL A   1      41.605  28.048  28.178  1.00  0.00    -0.248 NA
ATOM     46  C   UNL A   1      41.671  27.918  25.904  1.00  0.00     0.031 C 
ATOM     47  C   UNL A   1      44.469  24.956  29.070  1.00  0.00     0.029 A 
ATOM     48  N   UNL A   1      43.365  26.636  30.048  1.00  0.00    -0.354 N 
ATOM     49  C   UNL A   1      40.248  28.847  27.733  1.00  0.00     0.074 A 
ATOM     50  C   UNL A   1      40.561  28.635  26.164  1.00  0.00     0.031 C 
ATOM     51  C   UNL A   1      44.516  24.751  30.392  1.00  0.00     0.029 A 
ATOM     52  C   UNL A   1      43.917  25.885  31.085  1.00  0.00     0.049 A 
ATOM     53  H   UNL A   1      42.807  27.432  30.202  1.00  0.00     0.167 HD
ATOM     54  C   UNL A   1      39.145  29.857  28.984  1.00  0.00     0.031 A 
ATOM     55  C   UNL A   1      44.036  26.044  32.430  1.00  0.00     0.031 A 
ATOM     56  C   UNL A   1      39.291  30.061  30.720  1.00  0.00     0.049 A 
ATOM     57  C   UNL A   1      43.435  27.240  33.126  1.00  0.00     0.074 A 
ATOM     58  C   UNL A   1      38.689  31.038  31.525  1.00  0.00     0.029 A 
ATOM     59  N   UNL A   1      40.234  29.470  31.621  1.00  0.00    -0.354 N 
ATOM     60  N   UNL A   1      42.504  28.061  32.707  1.00  0.00    -0.248 NA
ATOM     61  C   UNL A   1      43.928  27.531  34.484  1.00  0.00     0.031 C 
ATOM     62  C   UNL A   1      39.496  31.270  32.663  1.00  0.00     0.029 A 
ATOM     63  C   UNL A   1      40.430  30.261  32.758  1.00  0.00     0.049 A 
ATOM     64  H   UNL A   1      40.688  28.612  31.461  1.00  0.00     0.167 HD
ATOM     65  C   UNL A   1      42.296  28.966  33.749  1.00  0.00     0.074 A 
ATOM     66  C   UNL A   1      43.182  28.572  34.826  1.00  0.00     0.031 C 
ATOM     67  C   UNL A   1      41.418  30.005  33.804  1.00  0.00     0.031 A 
BRANCH  54  68
ATOM     68  C   UNL A   1      37.911  31.147  28.751  1.00  0.00    -0.014 A 
ATOM     69  C   UNL A   1      38.137  32.524  28.973  1.00  0.00     0.010 A 
ATOM     70  C   UNL A   1      36.559  30.716  28.641  1.00  0.00     0.010 A 
ATOM     71  C   UNL A   1      37.079  33.329  29.424  1.00  0.00     0.020 A 
ATOM     72  C   UNL A   1      35.499  31.533  29.032  1.00  0.00     0.020 A 
ATOM     73  C   UNL A   1      35.784  32.802  29.518  1.00  0.00     0.054 A 
BRANCH  73  74
ATOM     74  S   UNL A   1      34.532  33.714  30.462  1.00  0.00     0.124 S 
ATOM     75  O   UNL A   1      33.603  34.119  29.408  1.00  0.00    -0.237 OA
ATOM     76  O   UNL A   1      34.032  32.703  31.386  1.00  0.00    -0.237 OA
ATOM     77  O   UNL A   1      35.279  34.811  31.075  1.00  0.00    -0.744 OA
ENDBRANCH  73  74
ENDBRANCH  54  68
BRANCH  55  78
ATOM     78  C   UNL A   1      44.906  25.098  33.235  1.00  0.00    -0.014 A 
ATOM     79  C   UNL A   1      44.383  23.991  33.931  1.00  0.00     0.010 A 
ATOM     80  C   UNL A   1      46.293  25.346  33.344  1.00  0.00     0.010 A 
ATOM     81  C   UNL A   1      45.221  23.153  34.690  1.00  0.00     0.020 A 
ATOM     82  C   UNL A   1      47.138  24.492  34.062  1.00  0.00     0.020 A 
ATOM     83  C   UNL A   1      46.596  23.402  34.739  1.00  0.00     0.054 A 
BRANCH  83  84
ATOM     84  S   UNL A   1      47.680  22.269  35.662  1.00  0.00     0.124 S 
ATOM     85  O   UNL A   1      46.738  21.255  36.126  1.00  0.00    -0.237 OA
ATOM     86  O   UNL A   1      48.626  21.834  34.638  1.00  0.00    -0.237 OA
ATOM     87  O   UNL A   1      48.250  23.116  36.707  1.00  0.00    -0.744 OA
ENDBRANCH  83  84
ENDBRANCH  55  78
BRANCH  67  88
ATOM     88  C   UNL A   1      41.415  30.859  35.074  1.00  0.00    -0.014 A 
ATOM     89  C   UNL A   1      42.514  31.645  35.490  1.00  0.00     0.010 A 
ATOM     90  C   UNL A   1      40.264  30.872  35.884  1.00  0.00     0.010 A 
ATOM     91  C   UNL A   1      42.473  32.378  36.690  1.00  0.00     0.020 A 
ATOM     92  C   UNL A   1      40.200  31.635  37.057  1.00  0.00     0.020 A 
ATOM     93  C   UNL A   1      41.312  32.372  37.465  1.00  0.00     0.054 A 
BRANCH  93  94
ATOM     94  S   UNL A   1      41.251  33.357  38.992  1.00  0.00     0.124 S 
ATOM     95  O   UNL A   1      39.975  34.053  38.861  1.00  0.00    -0.237 OA
ATOM     96  O   UNL A   1      41.306  32.336  40.035  1.00  0.00    -0.237 OA
ATOM     97  O   UNL A   1      42.435  34.210  38.902  1.00  0.00    -0.744 OA
ENDBRANCH  93  94
ENDBRANCH  67  88
ENDBRANCH  41  42
ENDBRANCH  34  36
ENDBRANCH  33  34
ENDBRANCH  32  33
ENDBRANCH   1  32
TORSDOF 18
ENDMDL
MODEL 3
REMARK VINA RESULT:     -12.7      1.561      2.415
REMARK SMILES Cc1cc(C(=O)OCCOC(=O)c2ccc(-c3c4nc(c(-c5ccc(S(=O)(=O)[O-])cc5)c5ccc([nH]5)c(-c5ccc(S(=O)(=O)[O-])cc5)c5nc(c(-c6ccc(S(=O)(=O)[O-])cc6)c6ccc3[nH]6)C=C5)C=C4)cc2)cc(S(=O)(=O)NNC(=O)c2c[nH]c3ccccc23)c1C
REMARK SMILES IDX 8 1 7 2 5 3 6 4 4 5 1 6 2 7 3 8 91 9 74 10 92 11 73 12 75 13
REMARK SMILES IDX 76 14 77 15 78 16 79 18 80 19 81 21 82 22 83 23 90 24 84 25
REMARK SMILES IDX 85 26 89 27 86 29 88 30 87 31 9 32 10 33 11 34 12 35 13 36
REMARK SMILES IDX 14 37 72 38 15 39 71 40 16 41 17 42 18 43 65 44 19 45 70 46
REMARK SMILES IDX 64 47 66 48 20 49 69 50 63 51 62 52 21 54 51 55 32 56 50 57
REMARK SMILES IDX 33 58 36 59 49 60 67 61 34 62 35 63 48 65 68 66 37 67 22 68
REMARK SMILES IDX 23 69 31 70 24 71 30 72 25 73 26 74 27 75 28 76 29 77 52 78
REMARK SMILES IDX 53 79 61 80 54 81 60 82 55 83 56 84 57 85 58 86 59 87 38 88
REMARK SMILES IDX 39 89 47 90 40 91 46 92 41 93 42 94 43 95 44 96 45 97
REMARK H PARENT 78 17 79 20 84 28 66 53 36 64
REMARK Flexibility Score: inf
ROOT
ATOM      1  C   UNL A   1      33.671  31.180  27.631  1.00  0.00     0.275 C 
ENDROOT
BRANCH   1   2
ATOM      2  O   UNL A   1      32.787  30.107  27.211  1.00  0.00    -0.458 OA
BRANCH   2   3
ATOM      3  C   UNL A   1      33.325  29.063  26.512  1.00  0.00     0.338 C 
ATOM      4  O   UNL A   1      34.514  28.859  26.335  1.00  0.00    -0.246 OA
BRANCH   3   5
ATOM      5  C   UNL A   1      32.259  28.153  25.975  1.00  0.00     0.061 A 
ATOM      6  C   UNL A   1      29.998  28.514  22.983  1.00  0.00     0.044 C 
ATOM      7  C   UNL A   1      30.635  27.881  24.202  1.00  0.00    -0.046 A 
ATOM      8  C   UNL A   1      31.530  28.679  24.909  1.00  0.00     0.019 A 
ATOM      9  C   UNL A   1      30.424  26.525  24.617  1.00  0.00    -0.028 A 
ATOM     10  C   UNL A   1      31.110  25.979  25.774  1.00  0.00     0.088 A 
ATOM     11  C   UNL A   1      29.510  25.667  23.770  1.00  0.00     0.046 C 
ATOM     12  C   UNL A   1      32.059  26.796  26.407  1.00  0.00     0.037 A 
BRANCH  10  13
ATOM     13  S   UNL A   1      30.663  24.242  26.329  1.00  0.00     0.257 S 
ATOM     14  O   UNL A   1      29.381  24.426  26.985  1.00  0.00    -0.205 OA
ATOM     15  O   UNL A   1      30.779  23.435  25.130  1.00  0.00    -0.205 OA
BRANCH  13  16
ATOM     16  N   UNL A   1      31.701  23.357  27.578  1.00  0.00    -0.123 NA
ATOM     17  H   UNL A   1      31.252  22.472  27.817  1.00  0.00     0.167 HD
BRANCH  16  18
ATOM     18  N   UNL A   1      33.050  23.085  27.050  1.00  0.00    -0.273 N 
ATOM     19  C   UNL A   1      34.104  22.609  26.290  1.00  0.00     0.268 C 
ATOM     20  H   UNL A   1      33.568  23.623  27.692  1.00  0.00     0.186 HD
ATOM     21  O   UNL A   1      34.955  23.189  27.049  1.00  0.00    -0.268 OA
BRANCH  19  22
ATOM     22  C   UNL A   1      34.829  21.561  24.992  1.00  0.00     0.066 A 
ATOM     23  C   UNL A   1      33.556  22.461  23.959  1.00  0.00     0.097 A 
ATOM     24  C   UNL A   1      34.476  19.511  24.532  1.00  0.00     0.012 A 
ATOM     25  N   UNL A   1      32.347  21.242  23.216  1.00  0.00    -0.360 N 
ATOM     26  C   UNL A   1      32.906  19.460  23.491  1.00  0.00     0.046 A 
ATOM     27  C   UNL A   1      34.996  18.182  24.589  1.00  0.00     0.011 A 
ATOM     28  H   UNL A   1      31.523  21.497  22.742  1.00  0.00     0.166 HD
ATOM     29  C   UNL A   1      32.282  18.316  23.031  1.00  0.00     0.027 A 
ATOM     30  C   UNL A   1      34.288  17.118  23.894  1.00  0.00     0.001 A 
ATOM     31  C   UNL A   1      33.033  17.169  23.202  1.00  0.00     0.002 A 
ENDBRANCH  19  22
ENDBRANCH  16  18
ENDBRANCH  13  16
ENDBRANCH  10  13
ENDBRANCH   3   5
ENDBRANCH   2   3
ENDBRANCH   1   2
BRANCH   1  32
ATOM     32  C   UNL A   1      32.949  32.533  27.657  1.00  0.00     0.275 C 
BRANCH  32  33
ATOM     33  O   UNL A   1      33.889  33.585  27.894  1.00  0.00    -0.458 OA
BRANCH  33  34
ATOM     34  C   UNL A   1      33.784  34.131  29.121  1.00  0.00     0.338 C 
ATOM     35  O   UNL A   1      32.867  34.785  29.586  1.00  0.00    -0.246 OA
BRANCH  34  36
ATOM     36  C   UNL A   1      34.894  33.632  29.920  1.00  0.00     0.060 A 
ATOM     37  C   UNL A   1      36.165  33.953  29.474  1.00  0.00     0.016 A 
ATOM     38  C   UNL A   1      34.704  32.734  30.957  1.00  0.00     0.016 A 
ATOM     39  C   UNL A   1      37.243  33.214  29.883  1.00  0.00     0.010 A 
ATOM     40  C   UNL A   1      35.821  32.110  31.502  1.00  0.00     0.010 A 
ATOM     41  C   UNL A   1      37.075  32.276  30.894  1.00  0.00    -0.014 A 
BRANCH  41  42
ATOM     42  C   UNL A   1      38.147  31.295  31.103  1.00  0.00     0.031 A 
ATOM     43  C   UNL A   1      38.327  30.325  29.959  1.00  0.00     0.074 A 
ATOM     44  C   UNL A   1      39.087  31.472  32.090  1.00  0.00     0.049 A 
ATOM     45  N   UNL A   1      39.416  29.667  29.893  1.00  0.00    -0.248 NA
ATOM     46  C   UNL A   1      37.499  30.160  28.763  1.00  0.00     0.031 C 
ATOM     47  C   UNL A   1      39.091  32.626  33.009  1.00  0.00     0.029 A 
ATOM     48  N   UNL A   1      40.251  30.793  32.466  1.00  0.00    -0.354 N 
ATOM     49  C   UNL A   1      39.648  28.927  28.452  1.00  0.00     0.074 A 
ATOM     50  C   UNL A   1      38.201  29.392  27.908  1.00  0.00     0.031 C 
ATOM     51  C   UNL A   1      40.201  32.618  33.757  1.00  0.00     0.029 A 
ATOM     52  C   UNL A   1      40.933  31.377  33.533  1.00  0.00     0.049 A 
ATOM     53  H   UNL A   1      40.561  29.973  32.018  1.00  0.00     0.167 HD
ATOM     54  C   UNL A   1      41.132  27.712  28.102  1.00  0.00     0.031 A 
ATOM     55  C   UNL A   1      41.972  31.008  34.328  1.00  0.00     0.031 A 
ATOM     56  C   UNL A   1      42.477  27.236  29.123  1.00  0.00     0.049 A 
ATOM     57  C   UNL A   1      42.700  29.707  34.100  1.00  0.00     0.074 A 
ATOM     58  C   UNL A   1      43.329  26.134  28.967  1.00  0.00     0.029 A 
ATOM     59  N   UNL A   1      42.816  27.692  30.437  1.00  0.00    -0.354 N 
ATOM     60  N   UNL A   1      42.725  28.947  33.033  1.00  0.00    -0.248 NA
ATOM     61  C   UNL A   1      43.532  29.211  35.211  1.00  0.00     0.031 C 
ATOM     62  C   UNL A   1      43.819  25.737  30.232  1.00  0.00     0.029 A 
ATOM     63  C   UNL A   1      43.549  26.733  31.145  1.00  0.00     0.049 A 
ATOM     64  H   UNL A   1      42.565  28.572  30.799  1.00  0.00     0.167 HD
ATOM     65  C   UNL A   1      43.575  27.884  33.339  1.00  0.00     0.074 A 
ATOM     66  C   UNL A   1      44.063  28.117  34.684  1.00  0.00     0.031 C 
ATOM     67  C   UNL A   1      43.937  26.836  32.550  1.00  0.00     0.031 A 
BRANCH  54  68
ATOM     68  C   UNL A   1      41.406  26.456  26.842  1.00  0.00    -0.014 A 
ATOM     69  C   UNL A   1      41.116  25.082  27.002  1.00  0.00     0.010 A 
ATOM     70  C   UNL A   1      42.243  26.824  25.752  1.00  0.00     0.010 A 
ATOM     71  C   UNL A   1      41.915  24.132  26.346  1.00  0.00     0.020 A 
ATOM     72  C   UNL A   1      42.994  25.878  25.057  1.00  0.00     0.020 A 
ATOM     73  C   UNL A   1      42.895  24.545  25.434  1.00  0.00     0.054 A 
BRANCH  73  74
ATOM     74  S   UNL A   1      44.162  23.357  24.908  1.00  0.00     0.124 S 
ATOM     75  O   UNL A   1      45.266  24.244  24.543  1.00  0.00    -0.237 OA
ATOM     76  O   UNL A   1      44.367  22.559  26.111  1.00  0.00    -0.237 OA
ATOM     77  O   UNL A   1      43.544  22.655  23.785  1.00  0.00    -0.744 OA
ENDBRANCH  73  74
ENDBRANCH  54  68
BRANCH  55  78
ATOM     78  C   UNL A   1      42.321  31.828  35.556  1.00  0.00    -0.014 A 
ATOM     79  C   UNL A   1      41.613  31.719  36.769  1.00  0.00     0.010 A 
ATOM     80  C   UNL A   1      43.362  32.781  35.487  1.00  0.00     0.010 A 
ATOM     81  C   UNL A   1      41.950  32.518  37.877  1.00  0.00     0.020 A 
ATOM     82  C   UNL A   1      43.730  33.549  36.598  1.00  0.00     0.020 A 
ATOM     83  C   UNL A   1      43.017  33.419  37.787  1.00  0.00     0.054 A 
BRANCH  83  84
ATOM     84  S   UNL A   1      43.491  34.394  39.248  1.00  0.00     0.124 S 
ATOM     85  O   UNL A   1      43.039  35.733  38.883  1.00  0.00    -0.237 OA
ATOM     86  O   UNL A   1      42.741  33.742  40.319  1.00  0.00    -0.237 OA
ATOM     87  O   UNL A   1      44.940  34.222  39.319  1.00  0.00    -0.744 OA
ENDBRANCH  83  84
ENDBRANCH  55  78
BRANCH  67  88
ATOM     88  C   UNL A   1      44.877  25.790  33.154  1.00  0.00    -0.014 A 
ATOM     89  C   UNL A   1      44.428  24.642  33.845  1.00  0.00     0.010 A 
ATOM     90  C   UNL A   1      46.267  25.968  33.027  1.00  0.00     0.010 A 
ATOM     91  C   UNL A   1      45.338  23.734  34.419  1.00  0.00     0.020 A 
ATOM     92  C   UNL A   1      47.178  25.046  33.556  1.00  0.00     0.020 A 
ATOM     93  C   UNL A   1      46.710  23.940  34.267  1.00  0.00     0.054 A 
BRANCH  93  94
ATOM     94  S   UNL A   1      47.878  22.740  34.972  1.00  0.00     0.124 S 
ATOM     95  O   UNL A   1      49.168  23.288  34.567  1.00  0.00    -0.237 OA
ATOM     96  O   UNL A   1      47.586  22.811  36.402  1.00  0.00    -0.237 OA
ATOM     97  O   UNL A   1      47.510  21.479  34.331  1.00  0.00    -0.744 OA
ENDBRANCH  93  94
ENDBRANCH  67  88
ENDBRANCH  41  42
ENDBRANCH  34  36
ENDBRANCH  33  34
ENDBRANCH  32  33
ENDBRANCH   1  32
TORSDOF 18
ENDMDL
