MODEL 1
REMARK VINA RESULT:     -11.2      0.000      0.000
REMARK SMILES O=C(OCCOC(=O)c1ccnc(-c2ccnc(COc3ccccc3)n2)c1)c1ccc(-c2c3nc(c(-c4ccc(S(=O)(=O)[O-])cc4)c4ccc([nH]4)c(-c4ccc(S(=O)(=O)[O-])cc4)c4nc(c(-c5ccc(S(=O)(=O)[O-])cc5)c5ccc2[nH]5)C=C4)C=C3)cc1
REMARK SMILES IDX 5 1 4 2 3 3 2 4 1 5 29 6 30 7 88 8 31 9 87 10 32 11 33 12
REMARK SMILES IDX 34 13 81 14 35 15 86 16 80 17 82 18 36 19 85 20 79 21 78 22
REMARK SMILES IDX 37 24 67 25 48 26 66 27 49 28 52 29 65 30 83 31 50 32 51 33
REMARK SMILES IDX 64 35 84 36 53 37 38 38 39 39 47 40 40 41 46 42 41 43 42 44
REMARK SMILES IDX 43 45 44 46 45 47 68 48 69 49 77 50 70 51 76 52 71 53 72 54
REMARK SMILES IDX 73 55 74 56 75 57 54 58 55 59 63 60 56 61 62 62 57 63 58 64
REMARK SMILES IDX 59 65 60 66 61 67 6 68 7 69 8 70 9 71 10 72 28 73 11 74
REMARK SMILES IDX 13 75 12 76 14 77 15 78 27 79 16 80 18 81 17 82 19 83 20 84
REMARK SMILES IDX 21 85 22 86 26 87 23 88 25 89 24 90
REMARK H PARENT 82 23 52 34
REMARK Flexibility Score: inf
ROOT
ATOM      1  C   UNL A   1      32.140  29.510  25.374  1.00  0.00     0.275 C 
ENDROOT
BRANCH   1   2
ATOM      2  C   UNL A   1      32.210  30.114  26.779  1.00  0.00     0.275 C 
BRANCH   2   3
ATOM      3  O   UNL A   1      33.408  29.810  27.510  1.00  0.00    -0.458 OA
BRANCH   3   4
ATOM      4  C   UNL A   1      34.423  30.622  27.880  1.00  0.00     0.338 C 
ATOM      5  O   UNL A   1      34.282  31.837  27.738  1.00  0.00    -0.246 OA
BRANCH   4   6
ATOM      6  C   UNL A   1      35.771  30.130  28.315  1.00  0.00     0.060 A 
ATOM      7  C   UNL A   1      36.130  29.639  29.569  1.00  0.00     0.016 A 
ATOM      8  C   UNL A   1      36.773  30.193  27.333  1.00  0.00     0.016 A 
ATOM      9  C   UNL A   1      37.424  29.164  29.814  1.00  0.00     0.010 A 
ATOM     10  C   UNL A   1      38.055  29.688  27.553  1.00  0.00     0.010 A 
ATOM     11  C   UNL A   1      38.395  29.182  28.809  1.00  0.00    -0.014 A 
BRANCH  11  12
ATOM     12  C   UNL A   1      39.796  28.810  29.113  1.00  0.00     0.031 A 
ATOM     13  C   UNL A   1      40.696  29.842  29.734  1.00  0.00     0.074 A 
ATOM     14  C   UNL A   1      40.250  27.570  28.853  1.00  0.00     0.049 A 
ATOM     15  N   UNL A   1      41.934  29.721  30.132  1.00  0.00    -0.248 NA
ATOM     16  C   UNL A   1      40.120  31.181  29.951  1.00  0.00     0.031 C 
ATOM     17  C   UNL A   1      39.457  26.483  28.280  1.00  0.00     0.029 A 
ATOM     18  N   UNL A   1      41.493  27.016  29.021  1.00  0.00    -0.354 N 
ATOM     19  C   UNL A   1      42.274  30.955  30.672  1.00  0.00     0.074 A 
ATOM     20  C   UNL A   1      41.142  31.833  30.482  1.00  0.00     0.031 C 
ATOM     21  C   UNL A   1      40.244  25.408  28.095  1.00  0.00     0.029 A 
ATOM     22  C   UNL A   1      41.592  25.726  28.553  1.00  0.00     0.049 A 
ATOM     23  H   UNL A   1      42.245  27.497  29.438  1.00  0.00     0.167 HD
ATOM     24  C   UNL A   1      43.412  31.313  31.309  1.00  0.00     0.031 A 
ATOM     25  C   UNL A   1      42.652  24.895  28.506  1.00  0.00     0.031 A 
ATOM     26  C   UNL A   1      44.540  30.439  31.470  1.00  0.00     0.049 A 
ATOM     27  C   UNL A   1      43.944  25.344  29.133  1.00  0.00     0.074 A 
ATOM     28  C   UNL A   1      45.738  30.685  32.115  1.00  0.00     0.029 A 
ATOM     29  N   UNL A   1      44.610  29.149  30.965  1.00  0.00    -0.354 N 
ATOM     30  N   UNL A   1      44.218  26.488  29.716  1.00  0.00    -0.248 NA
ATOM     31  C   UNL A   1      45.051  24.381  29.139  1.00  0.00     0.031 C 
ATOM     32  C   UNL A   1      46.551  29.557  31.959  1.00  0.00     0.029 A 
ATOM     33  C   UNL A   1      45.839  28.590  31.263  1.00  0.00     0.049 A 
ATOM     34  H   UNL A   1      43.890  28.697  30.468  1.00  0.00     0.167 HD
ATOM     35  C   UNL A   1      45.514  26.364  30.201  1.00  0.00     0.074 A 
ATOM     36  C   UNL A   1      45.968  25.035  29.840  1.00  0.00     0.031 C 
ATOM     37  C   UNL A   1      46.258  27.261  30.897  1.00  0.00     0.031 A 
BRANCH  24  38
ATOM     38  C   UNL A   1      43.471  32.708  31.867  1.00  0.00    -0.014 A 
ATOM     39  C   UNL A   1      43.967  33.773  31.090  1.00  0.00     0.010 A 
ATOM     40  C   UNL A   1      43.048  32.961  33.183  1.00  0.00     0.010 A 
ATOM     41  C   UNL A   1      44.089  35.052  31.636  1.00  0.00     0.020 A 
ATOM     42  C   UNL A   1      43.144  34.245  33.725  1.00  0.00     0.020 A 
ATOM     43  C   UNL A   1      43.685  35.279  32.955  1.00  0.00     0.054 A 
BRANCH  43  44
ATOM     44  S   UNL A   1      43.864  36.947  33.642  1.00  0.00     0.124 S 
ATOM     45  O   UNL A   1      42.617  37.098  34.390  1.00  0.00    -0.237 OA
ATOM     46  O   UNL A   1      45.073  36.832  34.454  1.00  0.00    -0.237 OA
ATOM     47  O   UNL A   1      43.988  37.797  32.461  1.00  0.00    -0.744 OA
ENDBRANCH  43  44
ENDBRANCH  24  38
BRANCH  25  48
ATOM     48  C   UNL A   1      42.522  23.552  27.876  1.00  0.00    -0.014 A 
ATOM     49  C   UNL A   1      42.770  23.369  26.505  1.00  0.00     0.010 A 
ATOM     50  C   UNL A   1      42.156  22.438  28.656  1.00  0.00     0.010 A 
ATOM     51  C   UNL A   1      42.636  22.105  25.921  1.00  0.00     0.020 A 
ATOM     52  C   UNL A   1      42.042  21.168  28.080  1.00  0.00     0.020 A 
ATOM     53  C   UNL A   1      42.274  21.011  26.714  1.00  0.00     0.054 A 
BRANCH  53  54
ATOM     54  S   UNL A   1      42.153  19.374  25.938  1.00  0.00     0.124 S 
ATOM     55  O   UNL A   1      43.013  19.526  24.768  1.00  0.00    -0.237 OA
ATOM     56  O   UNL A   1      42.662  18.494  26.988  1.00  0.00    -0.237 OA
ATOM     57  O   UNL A   1      40.727  19.232  25.655  1.00  0.00    -0.744 OA
ENDBRANCH  53  54
ENDBRANCH  25  48
BRANCH  37  58
ATOM     58  C   UNL A   1      47.619  26.818  31.355  1.00  0.00    -0.014 A 
ATOM     59  C   UNL A   1      47.817  26.276  32.636  1.00  0.00     0.010 A 
ATOM     60  C   UNL A   1      48.700  26.884  30.457  1.00  0.00     0.010 A 
ATOM     61  C   UNL A   1      49.083  25.829  33.021  1.00  0.00     0.020 A 
ATOM     62  C   UNL A   1      49.961  26.413  30.829  1.00  0.00     0.020 A 
ATOM     63  C   UNL A   1      50.146  25.900  32.113  1.00  0.00     0.054 A 
BRANCH  63  64
ATOM     64  S   UNL A   1      51.767  25.260  32.615  1.00  0.00     0.124 S 
ATOM     65  O   UNL A   1      51.683  23.863  32.199  1.00  0.00    -0.237 OA
ATOM     66  O   UNL A   1      52.692  26.089  31.846  1.00  0.00    -0.237 OA
ATOM     67  O   UNL A   1      51.794  25.482  34.058  1.00  0.00    -0.744 OA
ENDBRANCH  63  64
ENDBRANCH  37  58
ENDBRANCH  11  12
ENDBRANCH   4   6
ENDBRANCH   3   4
ENDBRANCH   2   3
ENDBRANCH   1   2
BRANCH   1  68
ATOM     68  O   UNL A   1      31.154  28.477  25.233  1.00  0.00    -0.458 OA
BRANCH  68  69
ATOM     69  C   UNL A   1      30.871  28.119  23.951  1.00  0.00     0.338 C 
ATOM     70  O   UNL A   1      29.967  28.552  23.256  1.00  0.00    -0.246 OA
BRANCH  69  71
ATOM     71  C   UNL A   1      31.911  27.200  23.449  1.00  0.00     0.063 A 
ATOM     72  C   UNL A   1      32.534  27.419  22.225  1.00  0.00     0.036 A 
ATOM     73  C   UNL A   1      32.251  26.092  24.231  1.00  0.00     0.046 A 
ATOM     74  C   UNL A   1      33.475  26.492  21.821  1.00  0.00     0.112 A 
ATOM     75  C   UNL A   1      33.186  25.194  23.733  1.00  0.00     0.090 A 
ATOM     76  N   UNL A   1      33.792  25.391  22.535  1.00  0.00    -0.255 NA
BRANCH  75  77
ATOM     77  C   UNL A   1      33.530  23.938  24.422  1.00  0.00     0.092 A 
ATOM     78  C   UNL A   1      34.238  23.925  25.610  1.00  0.00     0.051 A 
ATOM     79  N   UNL A   1      33.048  22.800  23.879  1.00  0.00    -0.228 NA
ATOM     80  C   UNL A   1      34.431  22.705  26.210  1.00  0.00     0.115 A 
ATOM     81  C   UNL A   1      33.232  21.658  24.570  1.00  0.00     0.166 A 
ATOM     82  N   UNL A   1      33.950  21.560  25.709  1.00  0.00    -0.238 NA
BRANCH  81  83
ATOM     83  C   UNL A   1      32.469  20.429  24.134  1.00  0.00     0.306 C 
BRANCH  83  84
ATOM     84  O   UNL A   1      32.283  19.444  25.166  1.00  0.00    -0.486 OA
BRANCH  84  85
ATOM     85  C   UNL A   1      32.913  18.250  24.943  1.00  0.00     0.119 A 
ATOM     86  C   UNL A   1      32.423  17.146  25.639  1.00  0.00     0.046 A 
ATOM     87  C   UNL A   1      34.071  18.117  24.174  1.00  0.00     0.046 A 
ATOM     88  C   UNL A   1      33.060  15.908  25.534  1.00  0.00     0.004 A 
ATOM     89  C   UNL A   1      34.705  16.878  24.062  1.00  0.00     0.004 A 
ATOM     90  C   UNL A   1      34.199  15.773  24.740  1.00  0.00     0.000 A 
ENDBRANCH  84  85
ENDBRANCH  83  84
ENDBRANCH  81  83
ENDBRANCH  75  77
ENDBRANCH  69  71
ENDBRANCH  68  69
ENDBRANCH   1  68
TORSDOF 18
ENDMDL
MODEL 2
REMARK VINA RESULT:     -11.1      2.621      3.712
REMARK SMILES O=C(OCCOC(=O)c1ccnc(-c2ccnc(COc3ccccc3)n2)c1)c1ccc(-c2c3nc(c(-c4ccc(S(=O)(=O)[O-])cc4)c4ccc([nH]4)c(-c4ccc(S(=O)(=O)[O-])cc4)c4nc(c(-c5ccc(S(=O)(=O)[O-])cc5)c5ccc2[nH]5)C=C4)C=C3)cc1
REMARK SMILES IDX 5 1 4 2 3 3 2 4 1 5 29 6 30 7 88 8 31 9 87 10 32 11 33 12
REMARK SMILES IDX 34 13 81 14 35 15 86 16 80 17 82 18 36 19 85 20 79 21 78 22
REMARK SMILES IDX 37 24 67 25 48 26 66 27 49 28 52 29 65 30 83 31 50 32 51 33
REMARK SMILES IDX 64 35 84 36 53 37 38 38 39 39 47 40 40 41 46 42 41 43 42 44
REMARK SMILES IDX 43 45 44 46 45 47 68 48 69 49 77 50 70 51 76 52 71 53 72 54
REMARK SMILES IDX 73 55 74 56 75 57 54 58 55 59 63 60 56 61 62 62 57 63 58 64
REMARK SMILES IDX 59 65 60 66 61 67 6 68 7 69 8 70 9 71 10 72 28 73 11 74
REMARK SMILES IDX 13 75 12 76 14 77 15 78 27 79 16 80 18 81 17 82 19 83 20 84
REMARK SMILES IDX 21 85 22 86 26 87 23 88 25 89 24 90
REMARK H PARENT 82 23 52 34
REMARK Flexibility Score: inf
ROOT
ATOM      1  C   UNL A   1      31.741  28.605  25.226  1.00  0.00     0.275 C 
ENDROOT
BRANCH   1   2
ATOM      2  C   UNL A   1      32.774  28.550  26.354  1.00  0.00     0.275 C 
BRANCH   2   3
ATOM      3  O   UNL A   1      33.747  29.605  26.336  1.00  0.00    -0.458 OA
BRANCH   3   4
ATOM      4  C   UNL A   1      34.266  30.317  27.361  1.00  0.00     0.338 C 
ATOM      5  O   UNL A   1      33.640  31.293  27.773  1.00  0.00    -0.246 OA
BRANCH   4   6
ATOM      6  C   UNL A   1      35.633  30.083  27.932  1.00  0.00     0.060 A 
ATOM      7  C   UNL A   1      36.862  30.332  27.321  1.00  0.00     0.016 A 
ATOM      8  C   UNL A   1      35.652  29.538  29.226  1.00  0.00     0.016 A 
ATOM      9  C   UNL A   1      38.064  30.109  28.004  1.00  0.00     0.010 A 
ATOM     10  C   UNL A   1      36.843  29.348  29.930  1.00  0.00     0.010 A 
ATOM     11  C   UNL A   1      38.065  29.619  29.312  1.00  0.00    -0.014 A 
BRANCH  11  12
ATOM     12  C   UNL A   1      39.337  29.255  29.977  1.00  0.00     0.031 A 
ATOM     13  C   UNL A   1      39.781  30.057  31.168  1.00  0.00     0.074 A 
ATOM     14  C   UNL A   1      40.072  28.218  29.534  1.00  0.00     0.049 A 
ATOM     15  N   UNL A   1      40.824  29.884  31.934  1.00  0.00    -0.248 NA
ATOM     16  C   UNL A   1      38.929  31.194  31.559  1.00  0.00     0.031 C 
ATOM     17  C   UNL A   1      39.721  27.354  28.408  1.00  0.00     0.029 A 
ATOM     18  N   UNL A   1      41.274  27.721  29.967  1.00  0.00    -0.354 N 
ATOM     19  C   UNL A   1      40.737  30.867  32.911  1.00  0.00     0.074 A 
ATOM     20  C   UNL A   1      39.585  31.681  32.600  1.00  0.00     0.031 C 
ATOM     21  C   UNL A   1      40.710  26.466  28.203  1.00  0.00     0.029 A 
ATOM     22  C   UNL A   1      41.756  26.688  29.197  1.00  0.00     0.049 A 
ATOM     23  H   UNL A   1      41.749  28.071  30.756  1.00  0.00     0.167 HD
ATOM     24  C   UNL A   1      41.524  31.050  33.997  1.00  0.00     0.031 A 
ATOM     25  C   UNL A   1      42.908  25.996  29.288  1.00  0.00     0.031 A 
ATOM     26  C   UNL A   1      42.681  30.249  34.283  1.00  0.00     0.049 A 
ATOM     27  C   UNL A   1      43.823  26.278  30.450  1.00  0.00     0.074 A 
ATOM     28  C   UNL A   1      43.540  30.328  35.364  1.00  0.00     0.029 A 
ATOM     29  N   UNL A   1      43.147  29.227  33.470  1.00  0.00    -0.354 N 
ATOM     30  N   UNL A   1      43.678  27.158  31.413  1.00  0.00    -0.248 NA
ATOM     31  C   UNL A   1      45.028  25.447  30.565  1.00  0.00     0.031 C 
ATOM     32  C   UNL A   1      44.554  29.382  35.178  1.00  0.00     0.029 A 
ATOM     33  C   UNL A   1      44.296  28.679  34.010  1.00  0.00     0.049 A 
ATOM     34  H   UNL A   1      42.722  28.934  32.631  1.00  0.00     0.167 HD
ATOM     35  C   UNL A   1      44.748  26.955  32.275  1.00  0.00     0.074 A 
ATOM     36  C   UNL A   1      45.533  25.869  31.717  1.00  0.00     0.031 C 
ATOM     37  C   UNL A   1      45.049  27.594  33.434  1.00  0.00     0.031 A 
BRANCH  24  38
ATOM     38  C   UNL A   1      41.140  32.160  34.937  1.00  0.00    -0.014 A 
ATOM     39  C   UNL A   1      41.661  33.457  34.768  1.00  0.00     0.010 A 
ATOM     40  C   UNL A   1      40.268  31.907  36.009  1.00  0.00     0.010 A 
ATOM     41  C   UNL A   1      41.361  34.466  35.685  1.00  0.00     0.020 A 
ATOM     42  C   UNL A   1      39.945  32.921  36.916  1.00  0.00     0.020 A 
ATOM     43  C   UNL A   1      40.511  34.189  36.759  1.00  0.00     0.054 A 
BRANCH  43  44
ATOM     44  S   UNL A   1      40.147  35.515  37.941  1.00  0.00     0.124 S 
ATOM     45  O   UNL A   1      41.365  35.541  38.748  1.00  0.00    -0.237 OA
ATOM     46  O   UNL A   1      39.945  36.672  37.073  1.00  0.00    -0.237 OA
ATOM     47  O   UNL A   1      38.950  35.042  38.634  1.00  0.00    -0.744 OA
ENDBRANCH  43  44
ENDBRANCH  24  38
BRANCH  25  48
ATOM     48  C   UNL A   1      43.239  24.957  28.276  1.00  0.00    -0.014 A 
ATOM     49  C   UNL A   1      42.888  23.610  28.479  1.00  0.00     0.010 A 
ATOM     50  C   UNL A   1      43.904  25.314  27.087  1.00  0.00     0.010 A 
ATOM     51  C   UNL A   1      43.212  22.640  27.525  1.00  0.00     0.020 A 
ATOM     52  C   UNL A   1      44.210  24.350  26.121  1.00  0.00     0.020 A 
ATOM     53  C   UNL A   1      43.871  23.016  26.351  1.00  0.00     0.054 A 
BRANCH  53  54
ATOM     54  S   UNL A   1      44.237  21.743  25.109  1.00  0.00     0.124 S 
ATOM     55  O   UNL A   1      45.612  21.381  25.439  1.00  0.00    -0.237 OA
ATOM     56  O   UNL A   1      43.228  20.727  25.397  1.00  0.00    -0.237 OA
ATOM     57  O   UNL A   1      44.060  22.442  23.838  1.00  0.00    -0.744 OA
ENDBRANCH  53  54
ENDBRANCH  25  48
BRANCH  37  58
ATOM     58  C   UNL A   1      46.247  27.107  34.198  1.00  0.00    -0.014 A 
ATOM     59  C   UNL A   1      47.515  27.684  34.012  1.00  0.00     0.010 A 
ATOM     60  C   UNL A   1      46.081  26.100  35.167  1.00  0.00     0.010 A 
ATOM     61  C   UNL A   1      48.604  27.245  34.769  1.00  0.00     0.020 A 
ATOM     62  C   UNL A   1      47.162  25.678  35.944  1.00  0.00     0.020 A 
ATOM     63  C   UNL A   1      48.419  26.245  35.730  1.00  0.00     0.054 A 
BRANCH  63  64
ATOM     64  S   UNL A   1      49.834  25.732  36.740  1.00  0.00     0.124 S 
ATOM     65  O   UNL A   1      49.383  24.445  37.263  1.00  0.00    -0.237 OA
ATOM     66  O   UNL A   1      50.920  25.666  35.763  1.00  0.00    -0.237 OA
ATOM     67  O   UNL A   1      49.958  26.799  37.729  1.00  0.00    -0.744 OA
ENDBRANCH  63  64
ENDBRANCH  37  58
ENDBRANCH  11  12
ENDBRANCH   4   6
ENDBRANCH   3   4
ENDBRANCH   2   3
ENDBRANCH   1   2
BRANCH   1  68
ATOM     68  O   UNL A   1      30.925  27.428  25.124  1.00  0.00    -0.458 OA
BRANCH  68  69
ATOM     69  C   UNL A   1      30.451  27.160  23.878  1.00  0.00     0.338 C 
ATOM     70  O   UNL A   1      29.465  27.648  23.352  1.00  0.00    -0.246 OA
BRANCH  69  71
ATOM     71  C   UNL A   1      31.387  26.265  23.169  1.00  0.00     0.063 A 
ATOM     72  C   UNL A   1      31.970  26.641  21.965  1.00  0.00     0.036 A 
ATOM     73  C   UNL A   1      31.667  25.017  23.736  1.00  0.00     0.046 A 
ATOM     74  C   UNL A   1      32.811  25.729  21.358  1.00  0.00     0.112 A 
ATOM     75  C   UNL A   1      32.501  24.150  23.042  1.00  0.00     0.090 A 
ATOM     76  N   UNL A   1      33.066  24.502  21.860  1.00  0.00    -0.255 NA
BRANCH  75  77
ATOM     77  C   UNL A   1      32.770  22.773  23.492  1.00  0.00     0.092 A 
ATOM     78  C   UNL A   1      32.056  21.692  23.008  1.00  0.00     0.051 A 
ATOM     79  N   UNL A   1      33.807  22.607  24.341  1.00  0.00    -0.228 NA
ATOM     80  C   UNL A   1      32.445  20.445  23.430  1.00  0.00     0.115 A 
ATOM     81  C   UNL A   1      34.155  21.343  24.652  1.00  0.00     0.166 A 
ATOM     82  N   UNL A   1      33.479  20.243  24.256  1.00  0.00    -0.238 NA
BRANCH  81  83
ATOM     83  C   UNL A   1      35.469  21.119  25.364  1.00  0.00     0.306 C 
BRANCH  83  84
ATOM     84  O   UNL A   1      36.633  21.474  24.596  1.00  0.00    -0.486 OA
BRANCH  84  85
ATOM     85  C   UNL A   1      37.584  22.179  25.284  1.00  0.00     0.119 A 
ATOM     86  C   UNL A   1      38.694  21.460  25.727  1.00  0.00     0.046 A 
ATOM     87  C   UNL A   1      37.435  23.514  25.663  1.00  0.00     0.046 A 
ATOM     88  C   UNL A   1      39.669  22.083  26.508  1.00  0.00     0.004 A 
ATOM     89  C   UNL A   1      38.413  24.140  26.438  1.00  0.00     0.004 A 
ATOM     90  C   UNL A   1      39.531  23.426  26.859  1.00  0.00     0.000 A 
ENDBRANCH  84  85
ENDBRANCH  83  84
ENDBRANCH  81  83
ENDBRANCH  75  77
ENDBRANCH  69  71
ENDBRANCH  68  69
ENDBRANCH   1  68
TORSDOF 18
ENDMDL
MODEL 3
REMARK VINA RESULT:     -11.1      3.486      4.291
REMARK SMILES O=C(OCCOC(=O)c1ccnc(-c2ccnc(COc3ccccc3)n2)c1)c1ccc(-c2c3nc(c(-c4ccc(S(=O)(=O)[O-])cc4)c4ccc([nH]4)c(-c4ccc(S(=O)(=O)[O-])cc4)c4nc(c(-c5ccc(S(=O)(=O)[O-])cc5)c5ccc2[nH]5)C=C4)C=C3)cc1
REMARK SMILES IDX 5 1 4 2 3 3 2 4 1 5 29 6 30 7 88 8 31 9 87 10 32 11 33 12
REMARK SMILES IDX 34 13 81 14 35 15 86 16 80 17 82 18 36 19 85 20 79 21 78 22
REMARK SMILES IDX 37 24 67 25 48 26 66 27 49 28 52 29 65 30 83 31 50 32 51 33
REMARK SMILES IDX 64 35 84 36 53 37 38 38 39 39 47 40 40 41 46 42 41 43 42 44
REMARK SMILES IDX 43 45 44 46 45 47 68 48 69 49 77 50 70 51 76 52 71 53 72 54
REMARK SMILES IDX 73 55 74 56 75 57 54 58 55 59 63 60 56 61 62 62 57 63 58 64
REMARK SMILES IDX 59 65 60 66 61 67 6 68 7 69 8 70 9 71 10 72 28 73 11 74
REMARK SMILES IDX 13 75 12 76 14 77 15 78 27 79 16 80 18 81 17 82 19 83 20 84
REMARK SMILES IDX 21 85 22 86 26 87 23 88 25 89 24 90
REMARK H PARENT 82 23 52 34
REMARK Flexibility Score: inf
ROOT
ATOM      1  C   UNL A   1      33.928  29.838  26.855  1.00  0.00     0.275 C 
ENDROOT
BRANCH   1   2
ATOM      2  C   UNL A   1      34.738  30.051  28.136  1.00  0.00     0.275 C 
BRANCH   2   3
ATOM      3  O   UNL A   1      36.097  29.593  28.077  1.00  0.00    -0.458 OA
BRANCH   3   4
ATOM      4  C   UNL A   1      36.998  29.432  29.072  1.00  0.00     0.338 C 
ATOM      5  O   UNL A   1      36.631  29.627  30.231  1.00  0.00    -0.246 OA
BRANCH   4   6
ATOM      6  C   UNL A   1      38.457  29.175  28.844  1.00  0.00     0.060 A 
ATOM      7  C   UNL A   1      39.418  28.838  29.797  1.00  0.00     0.016 A 
ATOM      8  C   UNL A   1      38.884  29.306  27.513  1.00  0.00     0.016 A 
ATOM      9  C   UNL A   1      40.742  28.576  29.424  1.00  0.00     0.010 A 
ATOM     10  C   UNL A   1      40.192  29.010  27.124  1.00  0.00     0.010 A 
ATOM     11  C   UNL A   1      41.139  28.657  28.087  1.00  0.00    -0.014 A 
BRANCH  11  12
ATOM     12  C   UNL A   1      42.566  28.516  27.717  1.00  0.00     0.031 A 
ATOM     13  C   UNL A   1      43.463  29.715  27.843  1.00  0.00     0.074 A 
ATOM     14  C   UNL A   1      43.053  27.335  27.293  1.00  0.00     0.049 A 
ATOM     15  N   UNL A   1      44.749  29.808  27.630  1.00  0.00    -0.248 NA
ATOM     16  C   UNL A   1      42.834  30.973  28.284  1.00  0.00     0.031 C 
ATOM     17  C   UNL A   1      42.280  26.100  27.162  1.00  0.00     0.029 A 
ATOM     18  N   UNL A   1      44.311  26.980  26.879  1.00  0.00    -0.354 N 
ATOM     19  C   UNL A   1      45.085  31.119  27.938  1.00  0.00     0.074 A 
ATOM     20  C   UNL A   1      43.861  31.807  28.278  1.00  0.00     0.031 C 
ATOM     21  C   UNL A   1      43.066  25.136  26.649  1.00  0.00     0.029 A 
ATOM     22  C   UNL A   1      44.402  25.682  26.433  1.00  0.00     0.049 A 
ATOM     23  H   UNL A   1      45.079  27.598  26.898  1.00  0.00     0.167 HD
ATOM     24  C   UNL A   1      46.311  31.690  27.976  1.00  0.00     0.031 A 
ATOM     25  C   UNL A   1      45.448  25.009  25.915  1.00  0.00     0.031 A 
ATOM     26  C   UNL A   1      47.518  31.002  27.612  1.00  0.00     0.049 A 
ATOM     27  C   UNL A   1      46.788  25.691  25.873  1.00  0.00     0.074 A 
ATOM     28  C   UNL A   1      48.818  31.471  27.632  1.00  0.00     0.029 A 
ATOM     29  N   UNL A   1      47.566  29.696  27.147  1.00  0.00    -0.354 N 
ATOM     30  N   UNL A   1      47.101  26.908  26.251  1.00  0.00    -0.248 NA
ATOM     31  C   UNL A   1      47.923  24.898  25.382  1.00  0.00     0.031 C 
ATOM     32  C   UNL A   1      49.649  30.461  27.134  1.00  0.00     0.029 A 
ATOM     33  C   UNL A   1      48.871  29.346  26.854  1.00  0.00     0.049 A 
ATOM     34  H   UNL A   1      46.786  29.105  27.042  1.00  0.00     0.167 HD
ATOM     35  C   UNL A   1      48.478  27.013  26.088  1.00  0.00     0.074 A 
ATOM     36  C   UNL A   1      48.934  25.735  25.575  1.00  0.00     0.031 C 
ATOM     37  C   UNL A   1      49.294  28.063  26.353  1.00  0.00     0.031 A 
BRANCH  24  38
ATOM     38  C   UNL A   1      46.382  33.123  28.427  1.00  0.00    -0.014 A 
ATOM     39  C   UNL A   1      46.576  33.439  29.786  1.00  0.00     0.010 A 
ATOM     40  C   UNL A   1      46.237  34.164  27.496  1.00  0.00     0.010 A 
ATOM     41  C   UNL A   1      46.569  34.769  30.212  1.00  0.00     0.020 A 
ATOM     42  C   UNL A   1      46.253  35.498  27.915  1.00  0.00     0.020 A 
ATOM     43  C   UNL A   1      46.398  35.791  29.274  1.00  0.00     0.054 A 
BRANCH  43  44
ATOM     44  S   UNL A   1      46.382  37.508  29.855  1.00  0.00     0.124 S 
ATOM     45  O   UNL A   1      45.027  37.930  29.507  1.00  0.00    -0.237 OA
ATOM     46  O   UNL A   1      46.646  37.365  31.285  1.00  0.00    -0.237 OA
ATOM     47  O   UNL A   1      47.449  38.144  29.087  1.00  0.00    -0.744 OA
ENDBRANCH  43  44
ENDBRANCH  24  38
BRANCH  25  48
ATOM     48  C   UNL A   1      45.273  23.611  25.432  1.00  0.00    -0.014 A 
ATOM     49  C   UNL A   1      45.556  22.516  26.267  1.00  0.00     0.010 A 
ATOM     50  C   UNL A   1      44.809  23.368  24.125  1.00  0.00     0.010 A 
ATOM     51  C   UNL A   1      45.397  21.207  25.800  1.00  0.00     0.020 A 
ATOM     52  C   UNL A   1      44.628  22.061  23.661  1.00  0.00     0.020 A 
ATOM     53  C   UNL A   1      44.932  20.988  24.499  1.00  0.00     0.054 A 
BRANCH  53  54
ATOM     54  S   UNL A   1      44.691  19.279  23.935  1.00  0.00     0.124 S 
ATOM     55  O   UNL A   1      43.487  18.886  24.662  1.00  0.00    -0.237 OA
ATOM     56  O   UNL A   1      44.533  19.446  22.493  1.00  0.00    -0.237 OA
ATOM     57  O   UNL A   1      45.920  18.605  24.346  1.00  0.00    -0.744 OA
ENDBRANCH  53  54
ENDBRANCH  25  48
BRANCH  37  58
ATOM     58  C   UNL A   1      50.768  27.860  26.140  1.00  0.00    -0.014 A 
ATOM     59  C   UNL A   1      51.595  27.385  27.171  1.00  0.00     0.010 A 
ATOM     60  C   UNL A   1      51.314  28.085  24.863  1.00  0.00     0.010 A 
ATOM     61  C   UNL A   1      52.953  27.160  26.934  1.00  0.00     0.020 A 
ATOM     62  C   UNL A   1      52.665  27.836  24.616  1.00  0.00     0.020 A 
ATOM     63  C   UNL A   1      53.479  27.386  25.657  1.00  0.00     0.054 A 
BRANCH  63  64
ATOM     64  S   UNL A   1      55.232  27.033  25.358  1.00  0.00     0.124 S 
ATOM     65  O   UNL A   1      55.575  26.206  26.511  1.00  0.00    -0.237 OA
ATOM     66  O   UNL A   1      55.205  26.338  24.073  1.00  0.00    -0.237 OA
ATOM     67  O   UNL A   1      55.851  28.355  25.332  1.00  0.00    -0.744 OA
ENDBRANCH  63  64
ENDBRANCH  37  58
ENDBRANCH  11  12
ENDBRANCH   4   6
ENDBRANCH   3   4
ENDBRANCH   2   3
ENDBRANCH   1   2
BRANCH   1  68
ATOM     68  O   UNL A   1      32.510  29.780  27.064  1.00  0.00    -0.458 OA
BRANCH  68  69
ATOM     69  C   UNL A   1      31.996  28.528  27.195  1.00  0.00     0.338 C 
ATOM     70  O   UNL A   1      31.398  28.082  28.161  1.00  0.00    -0.246 OA
BRANCH  69  71
ATOM     71  C   UNL A   1      32.148  27.790  25.926  1.00  0.00     0.063 A 
ATOM     72  C   UNL A   1      31.616  28.281  24.740  1.00  0.00     0.036 A 
ATOM     73  C   UNL A   1      32.835  26.572  25.946  1.00  0.00     0.046 A 
ATOM     74  C   UNL A   1      31.782  27.510  23.606  1.00  0.00     0.112 A 
ATOM     75  C   UNL A   1      32.930  25.847  24.765  1.00  0.00     0.090 A 
ATOM     76  N   UNL A   1      32.403  26.312  23.604  1.00  0.00    -0.255 NA
BRANCH  75  77
ATOM     77  C   UNL A   1      33.531  24.504  24.701  1.00  0.00     0.092 A 
ATOM     78  C   UNL A   1      34.792  24.241  25.203  1.00  0.00     0.051 A 
ATOM     79  N   UNL A   1      32.754  23.519  24.200  1.00  0.00    -0.228 NA
ATOM     80  C   UNL A   1      35.220  22.937  25.168  1.00  0.00     0.115 A 
ATOM     81  C   UNL A   1      33.233  22.261  24.263  1.00  0.00     0.166 A 
ATOM     82  N   UNL A   1      34.470  21.933  24.696  1.00  0.00    -0.238 NA
BRANCH  81  83
ATOM     83  C   UNL A   1      32.285  21.121  23.975  1.00  0.00     0.306 C 
BRANCH  83  84
ATOM     84  O   UNL A   1      32.130  20.185  25.057  1.00  0.00    -0.486 OA
BRANCH  84  85
ATOM     85  C   UNL A   1      32.611  18.928  24.804  1.00  0.00     0.119 A 
ATOM     86  C   UNL A   1      32.873  18.617  23.470  1.00  0.00     0.046 A 
ATOM     87  C   UNL A   1      32.725  17.933  25.776  1.00  0.00     0.046 A 
ATOM     88  C   UNL A   1      33.286  17.331  23.116  1.00  0.00     0.004 A 
ATOM     89  C   UNL A   1      33.146  16.649  25.424  1.00  0.00     0.004 A 
ATOM     90  C   UNL A   1      33.428  16.348  24.095  1.00  0.00     0.000 A 
ENDBRANCH  84  85
ENDBRANCH  83  84
ENDBRANCH  81  83
ENDBRANCH  75  77
ENDBRANCH  69  71
ENDBRANCH  68  69
ENDBRANCH   1  68
TORSDOF 18
ENDMDL
