MODEL 1
REMARK VINA RESULT:      -9.5      0.000      0.000
REMARK SMILES O=C(CCCNC(=O)N1CC[C@@H](C(=O)OCCOC(=O)c2ccc(-c3c4nc(c(-c5ccc(S(=O)(=O)[O-])cc5)c5ccc([nH]5)c(-c5ccc(S(=O)(=O)[O-])cc5)c5nc(c(-c6ccc(S(=O)(=O)[O-])cc6)c6ccc3[nH]6)C=C5)C=C4)cc2)C1)NC1CC1
REMARK SMILES IDX 15 1 13 2 14 3 12 4 9 5 10 6 81 7 11 8 7 9 6 10 8 12 5 13
REMARK SMILES IDX 4 14 3 15 2 16 1 17 82 18 83 20 84 21 85 22 16 23 17 24
REMARK SMILES IDX 18 25 19 26 20 27 21 28 22 29 80 30 23 31 79 32 24 33 25 34
REMARK SMILES IDX 26 35 73 36 27 37 78 38 72 39 74 40 28 41 77 42 71 43 70 44
REMARK SMILES IDX 29 46 59 47 40 48 58 49 41 50 44 51 57 52 75 53 42 54 43 55
REMARK SMILES IDX 56 57 76 58 45 59 30 60 31 61 39 62 32 63 38 64 33 65 34 66
REMARK SMILES IDX 35 67 36 68 37 69 60 70 61 71 69 72 62 73 68 74 63 75 64 76
REMARK SMILES IDX 65 77 66 78 67 79 46 80 47 81 55 82 48 83 54 84 49 85 50 86
REMARK SMILES IDX 51 87 52 88 53 89
REMARK H PARENT 6 11 82 19 74 45 44 56
REMARK Flexibility Score: inf
ROOT
ATOM      1  O   UNL A   1      35.022  21.615  24.346  1.00  0.00    -0.462 OA
ENDROOT
BRANCH   1   2
ATOM      2  C   UNL A   1      35.125  22.754  23.607  1.00  0.00     0.310 C 
ATOM      3  O   UNL A   1      36.061  23.027  22.869  1.00  0.00    -0.252 OA
BRANCH   2   4
ATOM      4  C   UNL A   1      33.894  23.616  23.775  1.00  0.00     0.120 C 
ATOM      5  N   UNL A   1      32.891  23.962  25.889  1.00  0.00    -0.324 N 
ATOM      6  C   UNL A   1      34.087  24.775  25.854  1.00  0.00     0.122 C 
ATOM      7  C   UNL A   1      32.914  23.012  24.786  1.00  0.00     0.136 C 
ATOM      8  C   UNL A   1      34.260  24.990  24.369  1.00  0.00     0.039 C 
BRANCH   5   9
ATOM      9  C   UNL A   1      31.898  23.964  26.812  1.00  0.00     0.317 C 
ATOM     10  N   UNL A   1      31.017  24.998  26.836  1.00  0.00    -0.338 N 
ATOM     11  H   UNL A   1      30.601  25.192  27.707  1.00  0.00     0.165 HD
ATOM     12  O   UNL A   1      31.724  23.038  27.603  1.00  0.00    -0.249 OA
BRANCH  10  13
ATOM     13  C   UNL A   1      30.614  25.853  25.728  1.00  0.00     0.118 C 
BRANCH  13  14
ATOM     14  C   UNL A   1      31.168  27.274  25.835  1.00  0.00     0.031 C 
BRANCH  14  15
ATOM     15  C   UNL A   1      31.917  27.597  27.126  1.00  0.00     0.102 C 
BRANCH  15  16
ATOM     16  C   UNL A   1      33.158  28.435  26.906  1.00  0.00     0.220 C 
ATOM     17  O   UNL A   1      34.133  27.992  26.307  1.00  0.00    -0.275 OA
ATOM     18  N   UNL A   1      33.076  29.713  27.419  1.00  0.00    -0.353 N 
ATOM     19  H   UNL A   1      32.244  29.989  27.868  1.00  0.00     0.163 HD
BRANCH  18  20
ATOM     20  C   UNL A   1      34.147  30.653  27.325  1.00  0.00     0.082 C 
ATOM     21  C   UNL A   1      34.306  31.720  28.376  1.00  0.00     0.027 C 
ATOM     22  C   UNL A   1      35.316  30.617  28.268  1.00  0.00     0.027 C 
ENDBRANCH  18  20
ENDBRANCH  15  16
ENDBRANCH  14  15
ENDBRANCH  13  14
ENDBRANCH  10  13
ENDBRANCH   5   9
ENDBRANCH   2   4
ENDBRANCH   1   2
BRANCH   1  23
ATOM     23  C   UNL A   1      35.784  21.592  25.569  1.00  0.00     0.274 C 
BRANCH  23  24
ATOM     24  C   UNL A   1      37.259  21.273  25.301  1.00  0.00     0.275 C 
BRANCH  24  25
ATOM     25  O   UNL A   1      38.106  22.423  25.492  1.00  0.00    -0.458 OA
BRANCH  25  26
ATOM     26  C   UNL A   1      39.232  22.196  26.212  1.00  0.00     0.338 C 
ATOM     27  O   UNL A   1      39.874  21.161  26.261  1.00  0.00    -0.246 OA
BRANCH  26  28
ATOM     28  C   UNL A   1      39.703  23.454  26.817  1.00  0.00     0.060 A 
ATOM     29  C   UNL A   1      39.613  24.604  26.032  1.00  0.00     0.016 A 
ATOM     30  C   UNL A   1      40.306  23.509  28.073  1.00  0.00     0.016 A 
ATOM     31  C   UNL A   1      40.096  25.824  26.499  1.00  0.00     0.010 A 
ATOM     32  C   UNL A   1      40.810  24.733  28.538  1.00  0.00     0.010 A 
ATOM     33  C   UNL A   1      40.712  25.898  27.753  1.00  0.00    -0.014 A 
BRANCH  33  34
ATOM     34  C   UNL A   1      41.330  27.178  28.188  1.00  0.00     0.031 A 
ATOM     35  C   UNL A   1      42.814  27.373  28.046  1.00  0.00     0.074 A 
ATOM     36  C   UNL A   1      40.565  28.188  28.646  1.00  0.00     0.049 A 
ATOM     37  N   UNL A   1      43.560  28.368  28.453  1.00  0.00    -0.248 NA
ATOM     38  C   UNL A   1      43.555  26.311  27.345  1.00  0.00     0.031 C 
ATOM     39  C   UNL A   1      39.106  28.170  28.747  1.00  0.00     0.029 A 
ATOM     40  N   UNL A   1      40.916  29.436  29.103  1.00  0.00    -0.354 N 
ATOM     41  C   UNL A   1      44.860  28.043  28.082  1.00  0.00     0.074 A 
ATOM     42  C   UNL A   1      44.802  26.756  27.422  1.00  0.00     0.031 C 
ATOM     43  C   UNL A   1      38.684  29.354  29.225  1.00  0.00     0.029 A 
ATOM     44  C   UNL A   1      39.845  30.192  29.517  1.00  0.00     0.049 A 
ATOM     45  H   UNL A   1      41.845  29.757  29.132  1.00  0.00     0.167 HD
ATOM     46  C   UNL A   1      45.999  28.751  28.274  1.00  0.00     0.031 A 
ATOM     47  C   UNL A   1      39.804  31.408  30.097  1.00  0.00     0.031 A 
ATOM     48  C   UNL A   1      46.060  30.032  28.926  1.00  0.00     0.049 A 
ATOM     49  C   UNL A   1      41.092  32.135  30.385  1.00  0.00     0.074 A 
ATOM     50  C   UNL A   1      47.174  30.805  29.205  1.00  0.00     0.029 A 
ATOM     51  N   UNL A   1      44.959  30.736  29.388  1.00  0.00    -0.354 N 
ATOM     52  N   UNL A   1      42.321  31.780  30.094  1.00  0.00    -0.248 NA
ATOM     53  C   UNL A   1      40.987  33.420  31.092  1.00  0.00     0.031 C 
ATOM     54  C   UNL A   1      46.749  31.963  29.867  1.00  0.00     0.029 A 
ATOM     55  C   UNL A   1      45.367  31.930  29.958  1.00  0.00     0.049 A 
ATOM     56  H   UNL A   1      44.025  30.431  29.322  1.00  0.00     0.167 HD
ATOM     57  C   UNL A   1      43.132  32.807  30.566  1.00  0.00     0.074 A 
ATOM     58  C   UNL A   1      42.255  33.802  31.147  1.00  0.00     0.031 C 
ATOM     59  C   UNL A   1      44.483  32.914  30.526  1.00  0.00     0.031 A 
BRANCH  46  60
ATOM     60  C   UNL A   1      47.286  28.129  27.805  1.00  0.00    -0.014 A 
ATOM     61  C   UNL A   1      48.043  27.299  28.649  1.00  0.00     0.010 A 
ATOM     62  C   UNL A   1      47.725  28.354  26.487  1.00  0.00     0.010 A 
ATOM     63  C   UNL A   1      49.237  26.732  28.194  1.00  0.00     0.020 A 
ATOM     64  C   UNL A   1      48.906  27.772  26.022  1.00  0.00     0.020 A 
ATOM     65  C   UNL A   1      49.664  26.978  26.885  1.00  0.00     0.054 A 
BRANCH  65  66
ATOM     66  S   UNL A   1      51.210  26.219  26.313  1.00  0.00     0.124 S 
ATOM     67  O   UNL A   1      51.054  26.278  24.863  1.00  0.00    -0.237 OA
ATOM     68  O   UNL A   1      52.230  27.104  26.871  1.00  0.00    -0.237 OA
ATOM     69  O   UNL A   1      51.170  24.877  26.890  1.00  0.00    -0.744 OA
ENDBRANCH  65  66
ENDBRANCH  46  60
BRANCH  47  70
ATOM     70  C   UNL A   1      38.501  32.005  30.500  1.00  0.00    -0.014 A 
ATOM     71  C   UNL A   1      37.914  33.028  29.735  1.00  0.00     0.010 A 
ATOM     72  C   UNL A   1      37.856  31.571  31.672  1.00  0.00     0.010 A 
ATOM     73  C   UNL A   1      36.715  33.620  30.146  1.00  0.00     0.020 A 
ATOM     74  C   UNL A   1      36.645  32.140  32.073  1.00  0.00     0.020 A 
ATOM     75  C   UNL A   1      36.089  33.173  31.315  1.00  0.00     0.054 A 
BRANCH  75  76
ATOM     76  S   UNL A   1      34.516  33.926  31.817  1.00  0.00     0.124 S 
ATOM     77  O   UNL A   1      34.966  35.049  32.632  1.00  0.00    -0.237 OA
ATOM     78  O   UNL A   1      33.906  34.275  30.536  1.00  0.00    -0.237 OA
ATOM     79  O   UNL A   1      33.845  32.851  32.544  1.00  0.00    -0.744 OA
ENDBRANCH  75  76
ENDBRANCH  47  70
BRANCH  59  80
ATOM     80  C   UNL A   1      45.094  34.166  31.092  1.00  0.00    -0.014 A 
ATOM     81  C   UNL A   1      45.501  34.233  32.436  1.00  0.00     0.010 A 
ATOM     82  C   UNL A   1      45.307  35.275  30.253  1.00  0.00     0.010 A 
ATOM     83  C   UNL A   1      46.085  35.399  32.938  1.00  0.00     0.020 A 
ATOM     84  C   UNL A   1      45.911  36.434  30.746  1.00  0.00     0.020 A 
ATOM     85  C   UNL A   1      46.283  36.494  32.090  1.00  0.00     0.054 A 
BRANCH  85  86
ATOM     86  S   UNL A   1      47.084  37.982  32.752  1.00  0.00     0.124 S 
ATOM     87  O   UNL A   1      48.393  37.934  32.106  1.00  0.00    -0.237 OA
ATOM     88  O   UNL A   1      46.199  39.053  32.301  1.00  0.00    -0.237 OA
ATOM     89  O   UNL A   1      47.092  37.757  34.195  1.00  0.00    -0.744 OA
ENDBRANCH  85  86
ENDBRANCH  59  80
ENDBRANCH  33  34
ENDBRANCH  26  28
ENDBRANCH  25  26
ENDBRANCH  24  25
ENDBRANCH  23  24
ENDBRANCH   1  23
TORSDOF 20
ENDMDL
MODEL 2
REMARK VINA RESULT:      -9.3      2.933      9.194
REMARK SMILES O=C(CCCNC(=O)N1CC[C@@H](C(=O)OCCOC(=O)c2ccc(-c3c4nc(c(-c5ccc(S(=O)(=O)[O-])cc5)c5ccc([nH]5)c(-c5ccc(S(=O)(=O)[O-])cc5)c5nc(c(-c6ccc(S(=O)(=O)[O-])cc6)c6ccc3[nH]6)C=C5)C=C4)cc2)C1)NC1CC1
REMARK SMILES IDX 15 1 13 2 14 3 12 4 9 5 10 6 81 7 11 8 7 9 6 10 8 12 5 13
REMARK SMILES IDX 4 14 3 15 2 16 1 17 82 18 83 20 84 21 85 22 16 23 17 24
REMARK SMILES IDX 18 25 19 26 20 27 21 28 22 29 80 30 23 31 79 32 24 33 25 34
REMARK SMILES IDX 26 35 73 36 27 37 78 38 72 39 74 40 28 41 77 42 71 43 70 44
REMARK SMILES IDX 29 46 59 47 40 48 58 49 41 50 44 51 57 52 75 53 42 54 43 55
REMARK SMILES IDX 56 57 76 58 45 59 30 60 31 61 39 62 32 63 38 64 33 65 34 66
REMARK SMILES IDX 35 67 36 68 37 69 60 70 61 71 69 72 62 73 68 74 63 75 64 76
REMARK SMILES IDX 65 77 66 78 67 79 46 80 47 81 55 82 48 83 54 84 49 85 50 86
REMARK SMILES IDX 51 87 52 88 53 89
REMARK H PARENT 6 11 82 19 74 45 44 56
REMARK Flexibility Score: inf
ROOT
ATOM      1  O   UNL A   1      31.597  27.835  25.085  1.00  0.00    -0.462 OA
ENDROOT
BRANCH   1   2
ATOM      2  C   UNL A   1      31.494  26.844  26.011  1.00  0.00     0.310 C 
ATOM      3  O   UNL A   1      31.089  26.995  27.156  1.00  0.00    -0.252 OA
BRANCH   2   4
ATOM      4  C   UNL A   1      31.894  25.511  25.418  1.00  0.00     0.120 C 
ATOM      5  N   UNL A   1      32.023  23.549  26.732  1.00  0.00    -0.324 N 
ATOM      6  C   UNL A   1      30.618  23.812  26.507  1.00  0.00     0.122 C 
ATOM      7  C   UNL A   1      32.804  24.722  26.364  1.00  0.00     0.136 C 
ATOM      8  C   UNL A   1      30.663  24.605  25.222  1.00  0.00     0.039 C 
BRANCH   5   9
ATOM      9  C   UNL A   1      32.598  22.446  27.272  1.00  0.00     0.317 C 
ATOM     10  N   UNL A   1      32.571  21.278  26.578  1.00  0.00    -0.338 N 
ATOM     11  H   UNL A   1      32.603  20.455  27.117  1.00  0.00     0.165 HD
ATOM     12  O   UNL A   1      33.195  22.467  28.347  1.00  0.00    -0.249 OA
BRANCH  10  13
ATOM     13  C   UNL A   1      32.501  21.098  25.135  1.00  0.00     0.118 C 
BRANCH  13  14
ATOM     14  C   UNL A   1      33.868  21.171  24.456  1.00  0.00     0.031 C 
BRANCH  14  15
ATOM     15  C   UNL A   1      34.876  20.104  24.880  1.00  0.00     0.102 C 
BRANCH  15  16
ATOM     16  C   UNL A   1      36.300  20.614  24.938  1.00  0.00     0.220 C 
ATOM     17  O   UNL A   1      37.258  19.847  24.915  1.00  0.00    -0.275 OA
ATOM     18  N   UNL A   1      36.406  21.988  25.004  1.00  0.00    -0.353 N 
ATOM     19  H   UNL A   1      35.582  22.526  24.998  1.00  0.00     0.163 HD
BRANCH  18  20
ATOM     20  C   UNL A   1      37.662  22.662  25.080  1.00  0.00     0.082 C 
ATOM     21  C   UNL A   1      37.890  23.715  26.133  1.00  0.00     0.027 C 
ATOM     22  C   UNL A   1      38.628  22.412  26.203  1.00  0.00     0.027 C 
ENDBRANCH  18  20
ENDBRANCH  15  16
ENDBRANCH  14  15
ENDBRANCH  13  14
ENDBRANCH  10  13
ENDBRANCH   5   9
ENDBRANCH   2   4
ENDBRANCH   1   2
BRANCH   1  23
ATOM     23  C   UNL A   1      32.923  28.356  24.870  1.00  0.00     0.274 C 
BRANCH  23  24
ATOM     24  C   UNL A   1      33.205  29.557  25.780  1.00  0.00     0.275 C 
BRANCH  24  25
ATOM     25  O   UNL A   1      34.136  29.236  26.832  1.00  0.00    -0.458 OA
BRANCH  25  26
ATOM     26  C   UNL A   1      34.537  30.287  27.587  1.00  0.00     0.338 C 
ATOM     27  O   UNL A   1      33.865  31.246  27.926  1.00  0.00    -0.246 OA
BRANCH  26  28
ATOM     28  C   UNL A   1      35.890  30.038  28.115  1.00  0.00     0.060 A 
ATOM     29  C   UNL A   1      36.949  30.143  27.214  1.00  0.00     0.016 A 
ATOM     30  C   UNL A   1      36.124  29.620  29.425  1.00  0.00     0.016 A 
ATOM     31  C   UNL A   1      38.253  29.859  27.612  1.00  0.00     0.010 A 
ATOM     32  C   UNL A   1      37.434  29.315  29.823  1.00  0.00     0.010 A 
ATOM     33  C   UNL A   1      38.508  29.430  28.918  1.00  0.00    -0.014 A 
BRANCH  33  34
ATOM     34  C   UNL A   1      39.885  29.016  29.295  1.00  0.00     0.031 A 
ATOM     35  C   UNL A   1      40.739  29.942  30.117  1.00  0.00     0.074 A 
ATOM     36  C   UNL A   1      40.349  27.796  28.965  1.00  0.00     0.049 A 
ATOM     37  N   UNL A   1      41.994  29.815  30.467  1.00  0.00    -0.248 NA
ATOM     38  C   UNL A   1      40.093  31.165  30.620  1.00  0.00     0.031 C 
ATOM     39  C   UNL A   1      39.595  26.764  28.253  1.00  0.00     0.029 A 
ATOM     40  N   UNL A   1      41.572  27.214  29.198  1.00  0.00    -0.354 N 
ATOM     41  C   UNL A   1      42.297  30.953  31.208  1.00  0.00     0.074 A 
ATOM     42  C   UNL A   1      41.096  31.760  31.252  1.00  0.00     0.031 C 
ATOM     43  C   UNL A   1      40.367  25.672  28.116  1.00  0.00     0.029 A 
ATOM     44  C   UNL A   1      41.687  25.945  28.680  1.00  0.00     0.049 A 
ATOM     45  H   UNL A   1      42.297  27.662  29.690  1.00  0.00     0.167 HD
ATOM     46  C   UNL A   1      43.468  31.295  31.796  1.00  0.00     0.031 A 
ATOM     47  C   UNL A   1      42.745  25.111  28.633  1.00  0.00     0.031 A 
ATOM     48  C   UNL A   1      44.662  30.494  31.757  1.00  0.00     0.049 A 
ATOM     49  C   UNL A   1      44.063  25.554  29.213  1.00  0.00     0.074 A 
ATOM     50  C   UNL A   1      45.909  30.778  32.287  1.00  0.00     0.029 A 
ATOM     51  N   UNL A   1      44.754  29.243  31.167  1.00  0.00    -0.354 N 
ATOM     52  N   UNL A   1      44.353  26.666  29.846  1.00  0.00    -0.248 NA
ATOM     53  C   UNL A   1      45.200  24.633  29.059  1.00  0.00     0.031 C 
ATOM     54  C   UNL A   1      46.766  29.713  31.988  1.00  0.00     0.029 A 
ATOM     55  C   UNL A   1      46.039  28.746  31.311  1.00  0.00     0.049 A 
ATOM     56  H   UNL A   1      44.017  28.777  30.711  1.00  0.00     0.167 HD
ATOM     57  C   UNL A   1      45.699  26.569  30.181  1.00  0.00     0.074 A 
ATOM     58  C   UNL A   1      46.162  25.286  29.695  1.00  0.00     0.031 C 
ATOM     59  C   UNL A   1      46.484  27.465  30.829  1.00  0.00     0.031 A 
BRANCH  46  60
ATOM     60  C   UNL A   1      43.524  32.622  32.502  1.00  0.00    -0.014 A 
ATOM     61  C   UNL A   1      43.206  32.734  33.866  1.00  0.00     0.010 A 
ATOM     62  C   UNL A   1      43.933  33.767  31.794  1.00  0.00     0.010 A 
ATOM     63  C   UNL A   1      43.263  33.977  34.503  1.00  0.00     0.020 A 
ATOM     64  C   UNL A   1      44.012  35.007  32.433  1.00  0.00     0.020 A 
ATOM     65  C   UNL A   1      43.660  35.107  33.780  1.00  0.00     0.054 A 
BRANCH  65  66
ATOM     66  S   UNL A   1      43.740  36.707  34.632  1.00  0.00     0.124 S 
ATOM     67  O   UNL A   1      42.764  37.494  33.884  1.00  0.00    -0.237 OA
ATOM     68  O   UNL A   1      43.355  36.364  36.000  1.00  0.00    -0.237 OA
ATOM     69  O   UNL A   1      45.132  37.118  34.466  1.00  0.00    -0.744 OA
ENDBRANCH  65  66
ENDBRANCH  46  60
BRANCH  47  70
ATOM     70  C   UNL A   1      42.627  23.786  27.966  1.00  0.00    -0.014 A 
ATOM     71  C   UNL A   1      42.930  23.641  26.600  1.00  0.00     0.010 A 
ATOM     72  C   UNL A   1      42.181  22.666  28.690  1.00  0.00     0.010 A 
ATOM     73  C   UNL A   1      42.770  22.404  25.967  1.00  0.00     0.020 A 
ATOM     74  C   UNL A   1      42.044  21.422  28.068  1.00  0.00     0.020 A 
ATOM     75  C   UNL A   1      42.324  21.303  26.706  1.00  0.00     0.054 A 
BRANCH  75  76
ATOM     76  S   UNL A   1      42.155  19.697  25.879  1.00  0.00     0.124 S 
ATOM     77  O   UNL A   1      42.413  18.765  26.972  1.00  0.00    -0.237 OA
ATOM     78  O   UNL A   1      40.779  19.733  25.388  1.00  0.00    -0.237 OA
ATOM     79  O   UNL A   1      43.179  19.743  24.838  1.00  0.00    -0.744 OA
ENDBRANCH  75  76
ENDBRANCH  47  70
BRANCH  59  80
ATOM     80  C   UNL A   1      47.913  27.074  31.085  1.00  0.00    -0.014 A 
ATOM     81  C   UNL A   1      48.970  27.678  30.381  1.00  0.00     0.010 A 
ATOM     82  C   UNL A   1      48.205  26.122  32.079  1.00  0.00     0.010 A 
ATOM     83  C   UNL A   1      50.293  27.316  30.648  1.00  0.00     0.020 A 
ATOM     84  C   UNL A   1      49.528  25.774  32.363  1.00  0.00     0.020 A 
ATOM     85  C   UNL A   1      50.563  26.363  31.635  1.00  0.00     0.054 A 
BRANCH  85  86
ATOM     86  S   UNL A   1      52.290  25.939  31.995  1.00  0.00     0.124 S 
ATOM     87  O   UNL A   1      52.718  27.074  32.808  1.00  0.00    -0.237 OA
ATOM     88  O   UNL A   1      52.170  24.667  32.705  1.00  0.00    -0.237 OA
ATOM     89  O   UNL A   1      52.907  25.851  30.674  1.00  0.00    -0.744 OA
ENDBRANCH  85  86
ENDBRANCH  59  80
ENDBRANCH  33  34
ENDBRANCH  26  28
ENDBRANCH  25  26
ENDBRANCH  24  25
ENDBRANCH  23  24
ENDBRANCH   1  23
TORSDOF 20
ENDMDL
MODEL 3
REMARK VINA RESULT:      -9.2      2.991      9.687
REMARK SMILES O=C(CCCNC(=O)N1CC[C@@H](C(=O)OCCOC(=O)c2ccc(-c3c4nc(c(-c5ccc(S(=O)(=O)[O-])cc5)c5ccc([nH]5)c(-c5ccc(S(=O)(=O)[O-])cc5)c5nc(c(-c6ccc(S(=O)(=O)[O-])cc6)c6ccc3[nH]6)C=C5)C=C4)cc2)C1)NC1CC1
REMARK SMILES IDX 15 1 13 2 14 3 12 4 9 5 10 6 81 7 11 8 7 9 6 10 8 12 5 13
REMARK SMILES IDX 4 14 3 15 2 16 1 17 82 18 83 20 84 21 85 22 16 23 17 24
REMARK SMILES IDX 18 25 19 26 20 27 21 28 22 29 80 30 23 31 79 32 24 33 25 34
REMARK SMILES IDX 26 35 73 36 27 37 78 38 72 39 74 40 28 41 77 42 71 43 70 44
REMARK SMILES IDX 29 46 59 47 40 48 58 49 41 50 44 51 57 52 75 53 42 54 43 55
REMARK SMILES IDX 56 57 76 58 45 59 30 60 31 61 39 62 32 63 38 64 33 65 34 66
REMARK SMILES IDX 35 67 36 68 37 69 60 70 61 71 69 72 62 73 68 74 63 75 64 76
REMARK SMILES IDX 65 77 66 78 67 79 46 80 47 81 55 82 48 83 54 84 49 85 50 86
REMARK SMILES IDX 51 87 52 88 53 89
REMARK H PARENT 6 11 82 19 74 45 44 56
REMARK Flexibility Score: inf
ROOT
ATOM      1  O   UNL A   1      33.510  29.263  25.557  1.00  0.00    -0.462 OA
ENDROOT
BRANCH   1   2
ATOM      2  C   UNL A   1      32.374  28.627  25.161  1.00  0.00     0.310 C 
ATOM      3  O   UNL A   1      31.798  28.818  24.099  1.00  0.00    -0.252 OA
BRANCH   2   4
ATOM      4  C   UNL A   1      31.947  27.603  26.189  1.00  0.00     0.120 C 
ATOM      5  N   UNL A   1      31.485  25.360  25.600  1.00  0.00    -0.324 N 
ATOM      6  C   UNL A   1      32.924  25.508  25.589  1.00  0.00     0.122 C 
ATOM      7  C   UNL A   1      30.859  26.673  25.644  1.00  0.00     0.136 C 
ATOM      8  C   UNL A   1      33.114  26.661  26.546  1.00  0.00     0.039 C 
BRANCH   5   9
ATOM      9  C   UNL A   1      30.755  24.221  25.505  1.00  0.00     0.317 C 
ATOM     10  N   UNL A   1      30.533  23.677  24.281  1.00  0.00    -0.338 N 
ATOM     11  H   UNL A   1      29.712  23.140  24.188  1.00  0.00     0.165 HD
ATOM     12  O   UNL A   1      30.327  23.622  26.491  1.00  0.00    -0.249 OA
BRANCH  10  13
ATOM     13  C   UNL A   1      31.363  23.789  23.089  1.00  0.00     0.118 C 
BRANCH  13  14
ATOM     14  C   UNL A   1      32.445  22.713  23.010  1.00  0.00     0.031 C 
BRANCH  14  15
ATOM     15  C   UNL A   1      31.946  21.287  22.784  1.00  0.00     0.102 C 
BRANCH  15  16
ATOM     16  C   UNL A   1      32.476  20.299  23.801  1.00  0.00     0.220 C 
ATOM     17  O   UNL A   1      32.695  20.629  24.963  1.00  0.00    -0.275 OA
ATOM     18  N   UNL A   1      32.668  19.026  23.306  1.00  0.00    -0.353 N 
ATOM     19  H   UNL A   1      32.446  18.847  22.364  1.00  0.00     0.163 HD
BRANCH  18  20
ATOM     20  C   UNL A   1      33.175  17.956  24.104  1.00  0.00     0.082 C 
ATOM     21  C   UNL A   1      33.785  16.748  23.443  1.00  0.00     0.027 C 
ATOM     22  C   UNL A   1      34.648  17.689  24.228  1.00  0.00     0.027 C 
ENDBRANCH  18  20
ENDBRANCH  15  16
ENDBRANCH  14  15
ENDBRANCH  13  14
ENDBRANCH  10  13
ENDBRANCH   5   9
ENDBRANCH   2   4
ENDBRANCH   1   2
BRANCH   1  23
ATOM     23  C   UNL A   1      33.463  29.876  26.860  1.00  0.00     0.274 C 
BRANCH  23  24
ATOM     24  C   UNL A   1      34.838  30.409  27.276  1.00  0.00     0.275 C 
BRANCH  24  25
ATOM     25  O   UNL A   1      35.541  29.489  28.134  1.00  0.00    -0.458 OA
BRANCH  25  26
ATOM     26  C   UNL A   1      36.225  30.062  29.154  1.00  0.00     0.338 C 
ATOM     27  O   UNL A   1      35.755  30.585  30.150  1.00  0.00    -0.246 OA
BRANCH  26  28
ATOM     28  C   UNL A   1      37.668  29.812  28.993  1.00  0.00     0.060 A 
ATOM     29  C   UNL A   1      38.150  29.711  27.688  1.00  0.00     0.016 A 
ATOM     30  C   UNL A   1      38.520  29.585  30.074  1.00  0.00     0.016 A 
ATOM     31  C   UNL A   1      39.488  29.411  27.444  1.00  0.00     0.010 A 
ATOM     32  C   UNL A   1      39.865  29.264  29.831  1.00  0.00     0.010 A 
ATOM     33  C   UNL A   1      40.357  29.171  28.514  1.00  0.00    -0.014 A 
BRANCH  33  34
ATOM     34  C   UNL A   1      41.750  28.735  28.238  1.00  0.00     0.031 A 
ATOM     35  C   UNL A   1      42.871  29.736  28.313  1.00  0.00     0.074 A 
ATOM     36  C   UNL A   1      42.028  27.441  27.987  1.00  0.00     0.049 A 
ATOM     37  N   UNL A   1      44.136  29.584  28.015  1.00  0.00    -0.248 NA
ATOM     38  C   UNL A   1      42.523  31.082  28.799  1.00  0.00     0.031 C 
ATOM     39  C   UNL A   1      41.053  26.350  27.977  1.00  0.00     0.029 A 
ATOM     40  N   UNL A   1      43.222  26.823  27.702  1.00  0.00    -0.354 N 
ATOM     41  C   UNL A   1      44.731  30.819  28.249  1.00  0.00     0.074 A 
ATOM     42  C   UNL A   1      43.687  31.710  28.710  1.00  0.00     0.031 C 
ATOM     43  C   UNL A   1      41.689  25.196  27.711  1.00  0.00     0.029 A 
ATOM     44  C   UNL A   1      43.103  25.472  27.475  1.00  0.00     0.049 A 
ATOM     45  H   UNL A   1      44.080  27.303  27.663  1.00  0.00     0.167 HD
ATOM     46  C   UNL A   1      46.027  31.179  28.094  1.00  0.00     0.031 A 
ATOM     47  C   UNL A   1      44.023  24.566  27.089  1.00  0.00     0.031 A 
ATOM     48  C   UNL A   1      47.067  30.296  27.640  1.00  0.00     0.049 A 
ATOM     49  C   UNL A   1      45.440  25.011  26.832  1.00  0.00     0.074 A 
ATOM     50  C   UNL A   1      48.403  30.582  27.410  1.00  0.00     0.029 A 
ATOM     51  N   UNL A   1      46.894  28.950  27.360  1.00  0.00    -0.354 N 
ATOM     52  N   UNL A   1      45.970  26.200  26.988  1.00  0.00    -0.248 NA
ATOM     53  C   UNL A   1      46.377  23.993  26.335  1.00  0.00     0.031 C 
ATOM     54  C   UNL A   1      49.029  29.415  26.959  1.00  0.00     0.029 A 
ATOM     55  C   UNL A   1      48.094  28.393  26.952  1.00  0.00     0.049 A 
ATOM     56  H   UNL A   1      46.043  28.461  27.439  1.00  0.00     0.167 HD
ATOM     57  C   UNL A   1      47.306  26.068  26.625  1.00  0.00     0.074 A 
ATOM     58  C   UNL A   1      47.506  24.681  26.258  1.00  0.00     0.031 C 
ATOM     59  C   UNL A   1      48.280  27.011  26.595  1.00  0.00     0.031 A 
BRANCH  46  60
ATOM     60  C   UNL A   1      46.385  32.611  28.382  1.00  0.00    -0.014 A 
ATOM     61  C   UNL A   1      46.822  33.010  29.657  1.00  0.00     0.010 A 
ATOM     62  C   UNL A   1      46.313  33.565  27.349  1.00  0.00     0.010 A 
ATOM     63  C   UNL A   1      47.149  34.347  29.903  1.00  0.00     0.020 A 
ATOM     64  C   UNL A   1      46.659  34.897  27.587  1.00  0.00     0.020 A 
ATOM     65  C   UNL A   1      47.059  35.283  28.868  1.00  0.00     0.054 A 
BRANCH  65  66
ATOM     66  S   UNL A   1      47.502  37.009  29.209  1.00  0.00     0.124 S 
ATOM     67  O   UNL A   1      47.448  37.601  27.876  1.00  0.00    -0.237 OA
ATOM     68  O   UNL A   1      46.449  37.437  30.129  1.00  0.00    -0.237 OA
ATOM     69  O   UNL A   1      48.836  36.914  29.796  1.00  0.00    -0.744 OA
ENDBRANCH  65  66
ENDBRANCH  46  60
BRANCH  47  70
ATOM     70  C   UNL A   1      43.631  23.147  26.864  1.00  0.00    -0.014 A 
ATOM     71  C   UNL A   1      43.884  22.520  25.631  1.00  0.00     0.010 A 
ATOM     72  C   UNL A   1      42.973  22.426  27.876  1.00  0.00     0.010 A 
ATOM     73  C   UNL A   1      43.469  21.204  25.408  1.00  0.00     0.020 A 
ATOM     74  C   UNL A   1      42.580  21.101  27.667  1.00  0.00     0.020 A 
ATOM     75  C   UNL A   1      42.816  20.503  26.428  1.00  0.00     0.054 A 
BRANCH  75  76
ATOM     76  S   UNL A   1      42.314  18.784  26.137  1.00  0.00     0.124 S 
ATOM     77  O   UNL A   1      42.540  18.178  27.444  1.00  0.00    -0.237 OA
ATOM     78  O   UNL A   1      40.917  18.923  25.735  1.00  0.00    -0.237 OA
ATOM     79  O   UNL A   1      43.218  18.345  25.075  1.00  0.00    -0.744 OA
ENDBRANCH  75  76
ENDBRANCH  47  70
BRANCH  59  80
ATOM     80  C   UNL A   1      49.658  26.568  26.187  1.00  0.00    -0.014 A 
ATOM     81  C   UNL A   1      50.140  26.797  24.886  1.00  0.00     0.010 A 
ATOM     82  C   UNL A   1      50.500  25.957  27.134  1.00  0.00     0.010 A 
ATOM     83  C   UNL A   1      51.430  26.397  24.531  1.00  0.00     0.020 A 
ATOM     84  C   UNL A   1      51.799  25.576  26.788  1.00  0.00     0.020 A 
ATOM     85  C   UNL A   1      52.251  25.785  25.484  1.00  0.00     0.054 A 
BRANCH  85  86
ATOM     86  S   UNL A   1      53.939  25.313  25.015  1.00  0.00     0.124 S 
ATOM     87  O   UNL A   1      54.095  25.984  23.727  1.00  0.00    -0.237 OA
ATOM     88  O   UNL A   1      54.743  25.854  26.108  1.00  0.00    -0.237 OA
ATOM     89  O   UNL A   1      53.885  23.854  24.955  1.00  0.00    -0.744 OA
ENDBRANCH  85  86
ENDBRANCH  59  80
ENDBRANCH  33  34
ENDBRANCH  26  28
ENDBRANCH  25  26
ENDBRANCH  24  25
ENDBRANCH  23  24
ENDBRANCH   1  23
TORSDOF 20
ENDMDL
