MODEL 1
REMARK VINA RESULT:     -11.0      0.000      0.000
REMARK SMILES O=C(CC[C@@H]1CN(c2ccncc2)CC[C@@H]1[NH+]1CCOCC1)OCCOC(=O)c1ccc(-c2c3nc(c(-c4ccc(S(=O)(=O)[O-])cc4)c4ccc([nH]4)c(-c4ccc(S(=O)(=O)[O-])cc4)c4nc(c(-c5ccc(S(=O)(=O)[O-])cc5)c5ccc2[nH]5)C=C4)C=C3)cc1
REMARK SMILES IDX 24 1 23 2 2 3 1 4 3 5 4 6 5 7 6 8 16 9 7 10 15 11 14 12
REMARK SMILES IDX 17 13 18 14 22 15 19 17 21 18 20 19 8 20 9 21 13 22 10 23
REMARK SMILES IDX 12 24 11 25 25 26 26 27 27 28 28 29 29 30 30 31 88 32 31 33
REMARK SMILES IDX 87 34 32 35 33 36 34 37 81 38 35 39 86 40 80 41 82 42 36 43
REMARK SMILES IDX 85 44 79 45 78 46 37 48 67 49 48 50 66 51 49 52 52 53 65 54
REMARK SMILES IDX 83 55 50 56 51 57 64 59 84 60 53 61 38 62 39 63 47 64 40 65
REMARK SMILES IDX 46 66 41 67 42 68 43 69 44 70 45 71 68 72 69 73 77 74 70 75
REMARK SMILES IDX 76 76 71 77 72 78 73 79 74 80 75 81 54 82 55 83 63 84 56 85
REMARK SMILES IDX 62 86 57 87 58 88 59 89 60 90 61 91
REMARK H PARENT 17 16 82 47 52 58
REMARK Flexibility Score: inf
ROOT
ATOM      1  C   UNL A   1      39.846  22.437  26.869  1.00  0.00     0.274 C 
ENDROOT
BRANCH   1   2
ATOM      2  O   UNL A   1      39.085  22.227  25.668  1.00  0.00    -0.462 OA
BRANCH   2   3
ATOM      3  C   UNL A   1      37.773  22.581  25.649  1.00  0.00     0.305 C 
ATOM      4  O   UNL A   1      37.437  23.751  25.497  1.00  0.00    -0.252 OA
BRANCH   3   5
ATOM      5  C   UNL A   1      36.775  21.484  25.977  1.00  0.00     0.123 C 
BRANCH   5   6
ATOM      6  C   UNL A   1      36.144  20.847  24.741  1.00  0.00     0.023 C 
BRANCH   6   7
ATOM      7  C   UNL A   1      34.639  21.146  24.618  1.00  0.00     0.067 C 
ATOM      8  C   UNL A   1      34.146  21.998  25.788  1.00  0.00     0.126 C 
ATOM      9  C   UNL A   1      33.716  19.906  24.327  1.00  0.00     0.190 C 
ATOM     10  N   UNL A   1      32.757  22.360  25.519  1.00  0.00    -0.371 N 
ATOM     11  C   UNL A   1      32.252  20.372  24.230  1.00  0.00     0.087 C 
ATOM     12  C   UNL A   1      31.799  21.280  25.370  1.00  0.00     0.122 C 
BRANCH   9  13
ATOM     13  N   UNL A   1      34.016  18.683  25.091  1.00  0.00    -0.328 N 
ATOM     14  C   UNL A   1      34.806  17.668  24.354  1.00  0.00     0.291 C 
ATOM     15  C   UNL A   1      32.950  18.010  25.843  1.00  0.00     0.291 C 
ATOM     16  H   UNL A   1      34.583  19.130  25.811  1.00  0.00     0.348 HD
ATOM     17  C   UNL A   1      33.980  16.615  23.596  1.00  0.00     0.221 C 
ATOM     18  C   UNL A   1      32.166  16.940  25.059  1.00  0.00     0.221 C 
ATOM     19  O   UNL A   1      33.032  15.975  24.454  1.00  0.00    -0.370 OA
ENDBRANCH   9  13
BRANCH  10  20
ATOM     20  C   UNL A   1      32.330  23.658  25.706  1.00  0.00     0.040 A 
ATOM     21  C   UNL A   1      30.979  23.996  25.690  1.00  0.00     0.046 A 
ATOM     22  C   UNL A   1      33.253  24.690  25.883  1.00  0.00     0.046 A 
ATOM     23  C   UNL A   1      30.613  25.325  25.840  1.00  0.00     0.113 A 
ATOM     24  C   UNL A   1      32.797  25.993  26.003  1.00  0.00     0.113 A 
ATOM     25  N   UNL A   1      31.492  26.338  25.982  1.00  0.00    -0.265 NA
ENDBRANCH  10  20
ENDBRANCH   6   7
ENDBRANCH   5   6
ENDBRANCH   3   5
ENDBRANCH   2   3
ENDBRANCH   1   2
BRANCH   1  26
ATOM     26  C   UNL A   1      40.691  23.714  26.836  1.00  0.00     0.275 C 
BRANCH  26  27
ATOM     27  O   UNL A   1      39.873  24.888  26.923  1.00  0.00    -0.458 OA
BRANCH  27  28
ATOM     28  C   UNL A   1      40.552  26.048  26.709  1.00  0.00     0.338 C 
ATOM     29  O   UNL A   1      41.157  26.357  25.701  1.00  0.00    -0.246 OA
BRANCH  28  30
ATOM     30  C   UNL A   1      40.295  26.984  27.826  1.00  0.00     0.060 A 
ATOM     31  C   UNL A   1      40.881  28.255  27.756  1.00  0.00     0.016 A 
ATOM     32  C   UNL A   1      39.495  26.634  28.917  1.00  0.00     0.016 A 
ATOM     33  C   UNL A   1      40.708  29.164  28.800  1.00  0.00     0.010 A 
ATOM     34  C   UNL A   1      39.330  27.540  29.966  1.00  0.00     0.010 A 
ATOM     35  C   UNL A   1      39.966  28.794  29.927  1.00  0.00    -0.014 A 
BRANCH  35  36
ATOM     36  C   UNL A   1      40.015  29.624  31.153  1.00  0.00     0.031 A 
ATOM     37  C   UNL A   1      41.103  29.351  32.153  1.00  0.00     0.074 A 
ATOM     38  C   UNL A   1      39.100  30.579  31.394  1.00  0.00     0.049 A 
ATOM     39  N   UNL A   1      41.311  29.897  33.322  1.00  0.00    -0.248 NA
ATOM     40  C   UNL A   1      42.081  28.315  31.785  1.00  0.00     0.031 C 
ATOM     41  C   UNL A   1      38.011  30.954  30.495  1.00  0.00     0.029 A 
ATOM     42  N   UNL A   1      38.934  31.391  32.488  1.00  0.00    -0.354 N 
ATOM     43  C   UNL A   1      42.436  29.264  33.835  1.00  0.00     0.074 A 
ATOM     44  C   UNL A   1      42.850  28.277  32.862  1.00  0.00     0.031 C 
ATOM     45  C   UNL A   1      37.271  31.907  31.088  1.00  0.00     0.029 A 
ATOM     46  C   UNL A   1      37.817  32.185  32.417  1.00  0.00     0.049 A 
ATOM     47  H   UNL A   1      39.557  31.402  33.251  1.00  0.00     0.167 HD
ATOM     48  C   UNL A   1      43.068  29.479  35.013  1.00  0.00     0.031 A 
ATOM     49  C   UNL A   1      37.279  33.020  33.330  1.00  0.00     0.031 A 
ATOM     50  C   UNL A   1      42.638  30.436  35.995  1.00  0.00     0.049 A 
ATOM     51  C   UNL A   1      37.961  33.209  34.660  1.00  0.00     0.074 A 
ATOM     52  C   UNL A   1      43.224  30.745  37.209  1.00  0.00     0.029 A 
ATOM     53  N   UNL A   1      41.502  31.222  35.885  1.00  0.00    -0.354 N 
ATOM     54  N   UNL A   1      39.056  32.644  35.111  1.00  0.00    -0.248 NA
ATOM     55  C   UNL A   1      37.341  34.155  35.600  1.00  0.00     0.031 C 
ATOM     56  C   UNL A   1      42.409  31.678  37.859  1.00  0.00     0.029 A 
ATOM     57  C   UNL A   1      41.350  31.995  37.023  1.00  0.00     0.049 A 
ATOM     58  H   UNL A   1      40.893  31.231  35.110  1.00  0.00     0.167 HD
ATOM     59  C   UNL A   1      39.270  33.184  36.376  1.00  0.00     0.074 A 
ATOM     60  C   UNL A   1      38.194  34.123  36.617  1.00  0.00     0.031 C 
ATOM     61  C   UNL A   1      40.274  32.929  37.253  1.00  0.00     0.031 A 
BRANCH  48  62
ATOM     62  C   UNL A   1      44.258  28.612  35.314  1.00  0.00    -0.014 A 
ATOM     63  C   UNL A   1      44.118  27.385  35.991  1.00  0.00     0.010 A 
ATOM     64  C   UNL A   1      45.543  29.045  34.938  1.00  0.00     0.010 A 
ATOM     65  C   UNL A   1      45.247  26.642  36.343  1.00  0.00     0.020 A 
ATOM     66  C   UNL A   1      46.672  28.291  35.265  1.00  0.00     0.020 A 
ATOM     67  C   UNL A   1      46.518  27.107  35.991  1.00  0.00     0.054 A 
BRANCH  67  68
ATOM     68  S   UNL A   1      47.971  26.146  36.492  1.00  0.00     0.124 S 
ATOM     69  O   UNL A   1      47.817  26.107  37.945  1.00  0.00    -0.237 OA
ATOM     70  O   UNL A   1      47.768  24.872  35.806  1.00  0.00    -0.237 OA
ATOM     71  O   UNL A   1      49.097  26.940  36.006  1.00  0.00    -0.744 OA
ENDBRANCH  67  68
ENDBRANCH  48  62
BRANCH  49  72
ATOM     72  C   UNL A   1      36.007  33.723  33.012  1.00  0.00    -0.014 A 
ATOM     73  C   UNL A   1      34.766  33.117  33.267  1.00  0.00     0.010 A 
ATOM     74  C   UNL A   1      36.039  35.031  32.493  1.00  0.00     0.010 A 
ATOM     75  C   UNL A   1      33.577  33.812  33.016  1.00  0.00     0.020 A 
ATOM     76  C   UNL A   1      34.855  35.735  32.263  1.00  0.00     0.020 A 
ATOM     77  C   UNL A   1      33.630  35.120  32.525  1.00  0.00     0.054 A 
BRANCH  77  78
ATOM     78  S   UNL A   1      32.079  36.036  32.300  1.00  0.00     0.124 S 
ATOM     79  O   UNL A   1      31.079  35.032  32.649  1.00  0.00    -0.237 OA
ATOM     80  O   UNL A   1      32.225  37.140  33.245  1.00  0.00    -0.237 OA
ATOM     81  O   UNL A   1      32.113  36.424  30.892  1.00  0.00    -0.744 OA
ENDBRANCH  77  78
ENDBRANCH  49  72
BRANCH  61  82
ATOM     82  C   UNL A   1      40.292  33.693  38.550  1.00  0.00    -0.014 A 
ATOM     83  C   UNL A   1      40.916  34.948  38.649  1.00  0.00     0.010 A 
ATOM     84  C   UNL A   1      39.579  33.191  39.655  1.00  0.00     0.010 A 
ATOM     85  C   UNL A   1      40.832  35.686  39.834  1.00  0.00     0.020 A 
ATOM     86  C   UNL A   1      39.473  33.936  40.832  1.00  0.00     0.020 A 
ATOM     87  C   UNL A   1      40.105  35.178  40.916  1.00  0.00     0.054 A 
BRANCH  87  88
ATOM     88  S   UNL A   1      39.940  36.190  42.414  1.00  0.00     0.124 S 
ATOM     89  O   UNL A   1      41.202  35.930  43.100  1.00  0.00    -0.237 OA
ATOM     90  O   UNL A   1      39.785  37.539  41.874  1.00  0.00    -0.237 OA
ATOM     91  O   UNL A   1      38.751  35.649  43.068  1.00  0.00    -0.744 OA
ENDBRANCH  87  88
ENDBRANCH  61  82
ENDBRANCH  35  36
ENDBRANCH  28  30
ENDBRANCH  27  28
ENDBRANCH  26  27
ENDBRANCH   1  26
TORSDOF 18
ENDMDL
MODEL 2
REMARK VINA RESULT:     -10.8      1.729      8.677
REMARK SMILES O=C(CC[C@@H]1CN(c2ccncc2)CC[C@@H]1[NH+]1CCOCC1)OCCOC(=O)c1ccc(-c2c3nc(c(-c4ccc(S(=O)(=O)[O-])cc4)c4ccc([nH]4)c(-c4ccc(S(=O)(=O)[O-])cc4)c4nc(c(-c5ccc(S(=O)(=O)[O-])cc5)c5ccc2[nH]5)C=C4)C=C3)cc1
REMARK SMILES IDX 24 1 23 2 2 3 1 4 3 5 4 6 5 7 6 8 16 9 7 10 15 11 14 12
REMARK SMILES IDX 17 13 18 14 22 15 19 17 21 18 20 19 8 20 9 21 13 22 10 23
REMARK SMILES IDX 12 24 11 25 25 26 26 27 27 28 28 29 29 30 30 31 88 32 31 33
REMARK SMILES IDX 87 34 32 35 33 36 34 37 81 38 35 39 86 40 80 41 82 42 36 43
REMARK SMILES IDX 85 44 79 45 78 46 37 48 67 49 48 50 66 51 49 52 52 53 65 54
REMARK SMILES IDX 83 55 50 56 51 57 64 59 84 60 53 61 38 62 39 63 47 64 40 65
REMARK SMILES IDX 46 66 41 67 42 68 43 69 44 70 45 71 68 72 69 73 77 74 70 75
REMARK SMILES IDX 76 76 71 77 72 78 73 79 74 80 75 81 54 82 55 83 63 84 56 85
REMARK SMILES IDX 62 86 57 87 58 88 59 89 60 90 61 91
REMARK H PARENT 17 16 82 47 52 58
REMARK Flexibility Score: inf
ROOT
ATOM      1  C   UNL A   1      40.812  22.372  26.866  1.00  0.00     0.274 C 
ENDROOT
BRANCH   1   2
ATOM      2  O   UNL A   1      39.530  22.622  26.265  1.00  0.00    -0.462 OA
BRANCH   2   3
ATOM      3  C   UNL A   1      38.801  21.570  25.809  1.00  0.00     0.305 C 
ATOM      4  O   UNL A   1      39.264  20.434  25.805  1.00  0.00    -0.252 OA
BRANCH   3   5
ATOM      5  C   UNL A   1      37.462  21.904  25.173  1.00  0.00     0.123 C 
BRANCH   5   6
ATOM      6  C   UNL A   1      36.364  22.209  26.190  1.00  0.00     0.023 C 
BRANCH   6   7
ATOM      7  C   UNL A   1      34.996  21.636  25.781  1.00  0.00     0.067 C 
ATOM      8  C   UNL A   1      35.154  20.454  24.823  1.00  0.00     0.126 C 
ATOM      9  C   UNL A   1      33.931  22.686  25.294  1.00  0.00     0.190 C 
ATOM     10  N   UNL A   1      33.830  19.879  24.606  1.00  0.00    -0.371 N 
ATOM     11  C   UNL A   1      32.625  21.956  24.929  1.00  0.00     0.087 C 
ATOM     12  C   UNL A   1      32.811  20.738  24.029  1.00  0.00     0.122 C 
BRANCH   9  13
ATOM     13  N   UNL A   1      34.427  23.737  24.389  1.00  0.00    -0.328 N 
ATOM     14  C   UNL A   1      34.270  25.120  24.899  1.00  0.00     0.291 C 
ATOM     15  C   UNL A   1      34.069  23.706  22.966  1.00  0.00     0.291 C 
ATOM     16  H   UNL A   1      35.406  23.454  24.405  1.00  0.00     0.348 HD
ATOM     17  C   UNL A   1      32.964  25.826  24.496  1.00  0.00     0.221 C 
ATOM     18  C   UNL A   1      32.772  24.450  22.597  1.00  0.00     0.221 C 
ATOM     19  O   UNL A   1      32.769  25.797  23.080  1.00  0.00    -0.370 OA
ENDBRANCH   9  13
BRANCH  10  20
ATOM     20  C   UNL A   1      33.650  18.513  24.658  1.00  0.00     0.040 A 
ATOM     21  C   UNL A   1      32.933  17.904  25.686  1.00  0.00     0.046 A 
ATOM     22  C   UNL A   1      34.219  17.685  23.688  1.00  0.00     0.046 A 
ATOM     23  C   UNL A   1      32.824  16.523  25.708  1.00  0.00     0.113 A 
ATOM     24  C   UNL A   1      34.076  16.311  23.803  1.00  0.00     0.113 A 
ATOM     25  N   UNL A   1      33.392  15.707  24.797  1.00  0.00    -0.265 NA
ENDBRANCH  10  20
ENDBRANCH   6   7
ENDBRANCH   5   6
ENDBRANCH   3   5
ENDBRANCH   2   3
ENDBRANCH   1   2
BRANCH   1  26
ATOM     26  C   UNL A   1      41.977  22.985  26.084  1.00  0.00     0.275 C 
BRANCH  26  27
ATOM     27  O   UNL A   1      42.479  24.163  26.728  1.00  0.00    -0.458 OA
BRANCH  27  28
ATOM     28  C   UNL A   1      42.007  25.323  26.196  1.00  0.00     0.338 C 
ATOM     29  O   UNL A   1      41.812  25.553  25.018  1.00  0.00    -0.246 OA
BRANCH  28  30
ATOM     30  C   UNL A   1      41.577  26.227  27.286  1.00  0.00     0.060 A 
ATOM     31  C   UNL A   1      42.278  27.429  27.448  1.00  0.00     0.016 A 
ATOM     32  C   UNL A   1      40.508  25.913  28.130  1.00  0.00     0.016 A 
ATOM     33  C   UNL A   1      41.945  28.300  28.485  1.00  0.00     0.010 A 
ATOM     34  C   UNL A   1      40.181  26.780  29.174  1.00  0.00     0.010 A 
ATOM     35  C   UNL A   1      40.921  27.959  29.377  1.00  0.00    -0.014 A 
BRANCH  35  36
ATOM     36  C   UNL A   1      40.750  28.719  30.637  1.00  0.00     0.031 A 
ATOM     37  C   UNL A   1      39.681  29.774  30.691  1.00  0.00     0.074 A 
ATOM     38  C   UNL A   1      41.542  28.504  31.701  1.00  0.00     0.049 A 
ATOM     39  N   UNL A   1      39.387  30.608  31.653  1.00  0.00    -0.248 NA
ATOM     40  C   UNL A   1      38.839  29.910  29.491  1.00  0.00     0.031 C 
ATOM     41  C   UNL A   1      42.597  27.497  31.783  1.00  0.00     0.029 A 
ATOM     42  N   UNL A   1      41.589  29.146  32.914  1.00  0.00    -0.354 N 
ATOM     43  C   UNL A   1      38.334  31.376  31.172  1.00  0.00     0.074 A 
ATOM     44  C   UNL A   1      38.058  30.925  29.825  1.00  0.00     0.031 C 
ATOM     45  C   UNL A   1      43.209  27.608  32.975  1.00  0.00     0.029 A 
ATOM     46  C   UNL A   1      42.607  28.710  33.726  1.00  0.00     0.049 A 
ATOM     47  H   UNL A   1      40.954  29.852  33.176  1.00  0.00     0.167 HD
ATOM     48  C   UNL A   1      37.657  32.371  31.793  1.00  0.00     0.031 A 
ATOM     49  C   UNL A   1      43.024  29.166  34.924  1.00  0.00     0.031 A 
ATOM     50  C   UNL A   1      37.952  32.841  33.118  1.00  0.00     0.049 A 
ATOM     51  C   UNL A   1      42.297  30.312  35.580  1.00  0.00     0.074 A 
ATOM     52  C   UNL A   1      37.309  33.829  33.843  1.00  0.00     0.029 A 
ATOM     53  N   UNL A   1      38.990  32.373  33.908  1.00  0.00    -0.354 N 
ATOM     54  N   UNL A   1      41.267  30.994  35.138  1.00  0.00    -0.248 NA
ATOM     55  C   UNL A   1      42.783  30.743  36.899  1.00  0.00     0.031 C 
ATOM     56  C   UNL A   1      37.995  33.996  35.050  1.00  0.00     0.029 A 
ATOM     57  C   UNL A   1      39.027  33.072  35.102  1.00  0.00     0.049 A 
ATOM     58  H   UNL A   1      39.609  31.649  33.658  1.00  0.00     0.167 HD
ATOM     59  C   UNL A   1      40.966  31.918  36.134  1.00  0.00     0.074 A 
ATOM     60  C   UNL A   1      41.919  31.705  37.204  1.00  0.00     0.031 C 
ATOM     61  C   UNL A   1      39.981  32.851  36.162  1.00  0.00     0.031 A 
BRANCH  48  62
ATOM     62  C   UNL A   1      36.571  33.048  31.004  1.00  0.00    -0.014 A 
ATOM     63  C   UNL A   1      36.870  33.869  29.901  1.00  0.00     0.010 A 
ATOM     64  C   UNL A   1      35.229  32.882  31.392  1.00  0.00     0.010 A 
ATOM     65  C   UNL A   1      35.852  34.563  29.242  1.00  0.00     0.020 A 
ATOM     66  C   UNL A   1      34.206  33.553  30.718  1.00  0.00     0.020 A 
ATOM     67  C   UNL A   1      34.528  34.412  29.665  1.00  0.00     0.054 A 
BRANCH  67  68
ATOM     68  S   UNL A   1      33.228  35.352  28.820  1.00  0.00     0.124 S 
ATOM     69  O   UNL A   1      32.561  34.309  28.044  1.00  0.00    -0.237 OA
ATOM     70  O   UNL A   1      32.454  35.901  29.931  1.00  0.00    -0.237 OA
ATOM     71  O   UNL A   1      33.968  36.337  28.034  1.00  0.00    -0.744 OA
ENDBRANCH  67  68
ENDBRANCH  48  62
BRANCH  49  72
ATOM     72  C   UNL A   1      44.211  28.541  35.567  1.00  0.00    -0.014 A 
ATOM     73  C   UNL A   1      45.502  29.047  35.343  1.00  0.00     0.010 A 
ATOM     74  C   UNL A   1      44.041  27.458  36.451  1.00  0.00     0.010 A 
ATOM     75  C   UNL A   1      46.603  28.485  35.999  1.00  0.00     0.020 A 
ATOM     76  C   UNL A   1      45.136  26.910  37.123  1.00  0.00     0.020 A 
ATOM     77  C   UNL A   1      46.412  27.426  36.891  1.00  0.00     0.054 A 
BRANCH  77  78
ATOM     78  S   UNL A   1      47.841  26.779  37.804  1.00  0.00     0.124 S 
ATOM     79  O   UNL A   1      47.202  26.052  38.895  1.00  0.00    -0.237 OA
ATOM     80  O   UNL A   1      48.509  25.954  36.800  1.00  0.00    -0.237 OA
ATOM     81  O   UNL A   1      48.571  27.983  38.194  1.00  0.00    -0.744 OA
ENDBRANCH  77  78
ENDBRANCH  49  72
BRANCH  61  82
ATOM     82  C   UNL A   1      39.847  33.703  37.397  1.00  0.00    -0.014 A 
ATOM     83  C   UNL A   1      40.448  34.971  37.478  1.00  0.00     0.010 A 
ATOM     84  C   UNL A   1      39.015  33.268  38.445  1.00  0.00     0.010 A 
ATOM     85  C   UNL A   1      40.223  35.786  38.591  1.00  0.00     0.020 A 
ATOM     86  C   UNL A   1      38.771  34.090  39.548  1.00  0.00     0.020 A 
ATOM     87  C   UNL A   1      39.381  35.344  39.617  1.00  0.00     0.054 A 
BRANCH  87  88
ATOM     88  S   UNL A   1      39.039  36.454  41.011  1.00  0.00     0.124 S 
ATOM     89  O   UNL A   1      37.979  35.740  41.717  1.00  0.00    -0.237 OA
ATOM     90  O   UNL A   1      40.326  36.509  41.701  1.00  0.00    -0.237 OA
ATOM     91  O   UNL A   1      38.632  37.701  40.369  1.00  0.00    -0.744 OA
ENDBRANCH  87  88
ENDBRANCH  61  82
ENDBRANCH  35  36
ENDBRANCH  28  30
ENDBRANCH  27  28
ENDBRANCH  26  27
ENDBRANCH   1  26
TORSDOF 18
ENDMDL
MODEL 3
REMARK VINA RESULT:     -10.8      1.817      8.271
REMARK SMILES O=C(CC[C@@H]1CN(c2ccncc2)CC[C@@H]1[NH+]1CCOCC1)OCCOC(=O)c1ccc(-c2c3nc(c(-c4ccc(S(=O)(=O)[O-])cc4)c4ccc([nH]4)c(-c4ccc(S(=O)(=O)[O-])cc4)c4nc(c(-c5ccc(S(=O)(=O)[O-])cc5)c5ccc2[nH]5)C=C4)C=C3)cc1
REMARK SMILES IDX 24 1 23 2 2 3 1 4 3 5 4 6 5 7 6 8 16 9 7 10 15 11 14 12
REMARK SMILES IDX 17 13 18 14 22 15 19 17 21 18 20 19 8 20 9 21 13 22 10 23
REMARK SMILES IDX 12 24 11 25 25 26 26 27 27 28 28 29 29 30 30 31 88 32 31 33
REMARK SMILES IDX 87 34 32 35 33 36 34 37 81 38 35 39 86 40 80 41 82 42 36 43
REMARK SMILES IDX 85 44 79 45 78 46 37 48 67 49 48 50 66 51 49 52 52 53 65 54
REMARK SMILES IDX 83 55 50 56 51 57 64 59 84 60 53 61 38 62 39 63 47 64 40 65
REMARK SMILES IDX 46 66 41 67 42 68 43 69 44 70 45 71 68 72 69 73 77 74 70 75
REMARK SMILES IDX 76 76 71 77 72 78 73 79 74 80 75 81 54 82 55 83 63 84 56 85
REMARK SMILES IDX 62 86 57 87 58 88 59 89 60 90 61 91
REMARK H PARENT 17 16 82 47 52 58
REMARK Flexibility Score: inf
ROOT
ATOM      1  C   UNL A   1      40.151  22.521  27.093  1.00  0.00     0.274 C 
ENDROOT
BRANCH   1   2
ATOM      2  O   UNL A   1      39.420  21.486  26.412  1.00  0.00    -0.462 OA
BRANCH   2   3
ATOM      3  C   UNL A   1      38.334  21.827  25.670  1.00  0.00     0.305 C 
ATOM      4  O   UNL A   1      37.761  20.998  24.971  1.00  0.00    -0.252 OA
BRANCH   3   5
ATOM      5  C   UNL A   1      37.976  23.304  25.639  1.00  0.00     0.123 C 
BRANCH   5   6
ATOM      6  C   UNL A   1      36.557  23.595  26.120  1.00  0.00     0.023 C 
BRANCH   6   7
ATOM      7  C   UNL A   1      35.577  23.862  24.964  1.00  0.00     0.067 C 
ATOM      8  C   UNL A   1      34.570  24.953  25.331  1.00  0.00     0.126 C 
ATOM      9  C   UNL A   1      34.903  22.590  24.330  1.00  0.00     0.190 C 
ATOM     10  N   UNL A   1      33.781  25.248  24.138  1.00  0.00    -0.371 N 
ATOM     11  C   UNL A   1      33.961  23.025  23.192  1.00  0.00     0.087 C 
ATOM     12  C   UNL A   1      33.012  24.163  23.556  1.00  0.00     0.122 C 
BRANCH   9  13
ATOM     13  N   UNL A   1      34.434  21.565  25.279  1.00  0.00    -0.328 N 
ATOM     14  C   UNL A   1      34.289  20.207  24.704  1.00  0.00     0.291 C 
ATOM     15  C   UNL A   1      33.286  21.845  26.149  1.00  0.00     0.291 C 
ATOM     16  H   UNL A   1      35.238  21.609  25.905  1.00  0.00     0.348 HD
ATOM     17  C   UNL A   1      32.895  19.876  24.143  1.00  0.00     0.221 C 
ATOM     18  C   UNL A   1      31.911  21.472  25.565  1.00  0.00     0.221 C 
ATOM     19  O   UNL A   1      31.870  20.116  25.111  1.00  0.00    -0.370 OA
ENDBRANCH   9  13
BRANCH  10  20
ATOM     20  C   UNL A   1      33.540  26.556  23.773  1.00  0.00     0.040 A 
ATOM     21  C   UNL A   1      33.666  26.986  22.454  1.00  0.00     0.046 A 
ATOM     22  C   UNL A   1      33.190  27.507  24.734  1.00  0.00     0.046 A 
ATOM     23  C   UNL A   1      33.452  28.323  22.156  1.00  0.00     0.113 A 
ATOM     24  C   UNL A   1      33.017  28.827  24.346  1.00  0.00     0.113 A 
ATOM     25  N   UNL A   1      33.144  29.261  23.075  1.00  0.00    -0.265 NA
ENDBRANCH  10  20
ENDBRANCH   6   7
ENDBRANCH   5   6
ENDBRANCH   3   5
ENDBRANCH   2   3
ENDBRANCH   1   2
BRANCH   1  26
ATOM     26  C   UNL A   1      41.451  22.912  26.383  1.00  0.00     0.275 C 
BRANCH  26  27
ATOM     27  O   UNL A   1      42.097  24.010  27.039  1.00  0.00    -0.458 OA
BRANCH  27  28
ATOM     28  C   UNL A   1      41.827  25.221  26.479  1.00  0.00     0.338 C 
ATOM     29  O   UNL A   1      41.766  25.471  25.291  1.00  0.00    -0.246 OA
BRANCH  28  30
ATOM     30  C   UNL A   1      41.424  26.176  27.536  1.00  0.00     0.060 A 
ATOM     31  C   UNL A   1      42.157  27.364  27.650  1.00  0.00     0.016 A 
ATOM     32  C   UNL A   1      40.352  25.920  28.395  1.00  0.00     0.016 A 
ATOM     33  C   UNL A   1      41.850  28.282  28.655  1.00  0.00     0.010 A 
ATOM     34  C   UNL A   1      40.051  26.834  29.407  1.00  0.00     0.010 A 
ATOM     35  C   UNL A   1      40.822  28.000  29.563  1.00  0.00    -0.014 A 
BRANCH  35  36
ATOM     36  C   UNL A   1      40.676  28.811  30.794  1.00  0.00     0.031 A 
ATOM     37  C   UNL A   1      39.620  29.881  30.819  1.00  0.00     0.074 A 
ATOM     38  C   UNL A   1      41.478  28.628  31.856  1.00  0.00     0.049 A 
ATOM     39  N   UNL A   1      39.347  30.755  31.751  1.00  0.00    -0.248 NA
ATOM     40  C   UNL A   1      38.764  29.980  29.625  1.00  0.00     0.031 C 
ATOM     41  C   UNL A   1      42.522  27.612  31.964  1.00  0.00     0.029 A 
ATOM     42  N   UNL A   1      41.548  29.316  33.042  1.00  0.00    -0.354 N 
ATOM     43  C   UNL A   1      38.297  31.516  31.253  1.00  0.00     0.074 A 
ATOM     44  C   UNL A   1      38.000  31.017  29.928  1.00  0.00     0.031 C 
ATOM     45  C   UNL A   1      43.150  27.762  33.144  1.00  0.00     0.029 A 
ATOM     46  C   UNL A   1      42.570  28.900  33.858  1.00  0.00     0.049 A 
ATOM     47  H   UNL A   1      40.925  30.040  33.283  1.00  0.00     0.167 HD
ATOM     48  C   UNL A   1      37.641  32.543  31.842  1.00  0.00     0.031 A 
ATOM     49  C   UNL A   1      43.008  29.398  35.032  1.00  0.00     0.031 A 
ATOM     50  C   UNL A   1      37.957  33.061  33.144  1.00  0.00     0.049 A 
ATOM     51  C   UNL A   1      42.303  30.577  35.652  1.00  0.00     0.074 A 
ATOM     52  C   UNL A   1      37.335  34.084  33.837  1.00  0.00     0.029 A 
ATOM     53  N   UNL A   1      39.000  32.612  33.940  1.00  0.00    -0.354 N 
ATOM     54  N   UNL A   1      41.276  31.254  35.195  1.00  0.00    -0.248 NA
ATOM     55  C   UNL A   1      42.810  31.054  36.947  1.00  0.00     0.031 C 
ATOM     56  C   UNL A   1      38.038  34.290  35.029  1.00  0.00     0.029 A 
ATOM     57  C   UNL A   1      39.060  33.357  35.105  1.00  0.00     0.049 A 
ATOM     58  H   UNL A   1      39.607  31.871  33.711  1.00  0.00     0.167 HD
ATOM     59  C   UNL A   1      40.998  32.219  36.158  1.00  0.00     0.074 A 
ATOM     60  C   UNL A   1      41.962  32.037  37.224  1.00  0.00     0.031 C 
ATOM     61  C   UNL A   1      40.025  33.165  36.161  1.00  0.00     0.031 A 
BRANCH  48  62
ATOM     62  C   UNL A   1      36.552  33.202  31.041  1.00  0.00    -0.014 A 
ATOM     63  C   UNL A   1      36.847  33.973  29.901  1.00  0.00     0.010 A 
ATOM     64  C   UNL A   1      35.214  33.071  31.453  1.00  0.00     0.010 A 
ATOM     65  C   UNL A   1      35.829  34.653  29.227  1.00  0.00     0.020 A 
ATOM     66  C   UNL A   1      34.191  33.727  30.765  1.00  0.00     0.020 A 
ATOM     67  C   UNL A   1      34.509  34.537  29.673  1.00  0.00     0.054 A 
BRANCH  67  68
ATOM     68  S   UNL A   1      33.211  35.460  28.808  1.00  0.00     0.124 S 
ATOM     69  O   UNL A   1      32.455  36.029  29.922  1.00  0.00    -0.237 OA
ATOM     70  O   UNL A   1      33.972  36.419  28.011  1.00  0.00    -0.237 OA
ATOM     71  O   UNL A   1      32.510  34.434  28.039  1.00  0.00    -0.744 OA
ENDBRANCH  67  68
ENDBRANCH  48  62
BRANCH  49  72
ATOM     72  C   UNL A   1      44.196  28.783  35.685  1.00  0.00    -0.014 A 
ATOM     73  C   UNL A   1      45.487  29.281  35.446  1.00  0.00     0.010 A 
ATOM     74  C   UNL A   1      44.026  27.721  36.592  1.00  0.00     0.010 A 
ATOM     75  C   UNL A   1      46.589  28.731  36.110  1.00  0.00     0.020 A 
ATOM     76  C   UNL A   1      45.122  27.184  37.273  1.00  0.00     0.020 A 
ATOM     77  C   UNL A   1      46.398  27.692  37.026  1.00  0.00     0.054 A 
BRANCH  77  78
ATOM     78  S   UNL A   1      47.828  27.061  37.948  1.00  0.00     0.124 S 
ATOM     79  O   UNL A   1      48.655  26.503  36.883  1.00  0.00    -0.237 OA
ATOM     80  O   UNL A   1      48.348  28.266  38.588  1.00  0.00    -0.237 OA
ATOM     81  O   UNL A   1      47.241  26.085  38.863  1.00  0.00    -0.744 OA
ENDBRANCH  77  78
ENDBRANCH  49  72
BRANCH  61  82
ATOM     82  C   UNL A   1      39.916  34.066  37.363  1.00  0.00    -0.014 A 
ATOM     83  C   UNL A   1      40.348  35.402  37.315  1.00  0.00     0.010 A 
ATOM     84  C   UNL A   1      39.270  33.594  38.521  1.00  0.00     0.010 A 
ATOM     85  C   UNL A   1      40.142  36.249  38.408  1.00  0.00     0.020 A 
ATOM     86  C   UNL A   1      39.042  34.443  39.606  1.00  0.00     0.020 A 
ATOM     87  C   UNL A   1      39.485  35.766  39.545  1.00  0.00     0.054 A 
BRANCH  87  88
ATOM     88  S   UNL A   1      39.155  36.907  40.918  1.00  0.00     0.124 S 
ATOM     89  O   UNL A   1      40.503  37.266  41.347  1.00  0.00    -0.237 OA
ATOM     90  O   UNL A   1      38.395  37.974  40.273  1.00  0.00    -0.237 OA
ATOM     91  O   UNL A   1      38.394  36.096  41.866  1.00  0.00    -0.744 OA
ENDBRANCH  87  88
ENDBRANCH  61  82
ENDBRANCH  35  36
ENDBRANCH  28  30
ENDBRANCH  27  28
ENDBRANCH  26  27
ENDBRANCH   1  26
TORSDOF 18
ENDMDL
