MODEL 1
REMARK VINA RESULT:     -12.9      0.000      0.000
REMARK SMILES COc1ccc(-n2c(SCc3cn(-c4ccc(C(=O)OCCOC(=O)c5ccc(-c6c7nc(c(-c8ccc(S(=O)(=O)[O-])cc8)c8ccc([nH]8)c(-c8ccc(S(=O)(=O)[O-])cc8)c8nc(c(-c9ccc(S(=O)(=O)[O-])cc9)c9ccc6[nH]9)C=C8)C=C7)cc5)cc4)nn3)nc3ccccc3c2=O)cc1
REMARK SMILES IDX 20 1 18 2 19 3 17 4 14 5 15 6 87 7 16 8 86 9 13 10 11 11
REMARK SMILES IDX 12 12 89 13 88 14 10 15 9 16 8 17 7 18 97 19 90 20 96 21
REMARK SMILES IDX 98 22 91 23 95 24 92 25 94 26 93 27 6 28 3 29 4 30 100 31
REMARK SMILES IDX 5 32 99 33 2 34 1 35 21 36 22 37 23 38 24 39 25 40 26 41
REMARK SMILES IDX 27 42 85 43 28 44 84 45 29 46 30 47 31 48 78 49 32 50 83 51
REMARK SMILES IDX 77 52 79 53 33 54 82 55 76 56 75 57 34 59 64 60 45 61 63 62
REMARK SMILES IDX 46 63 49 64 62 65 80 66 47 67 48 68 61 70 81 71 50 72 35 73
REMARK SMILES IDX 36 74 44 75 37 76 43 77 38 78 39 79 40 80 41 81 42 82 65 83
REMARK SMILES IDX 66 84 74 85 67 86 73 87 68 88 69 89 70 90 71 91 72 92 51 93
REMARK SMILES IDX 52 94 60 95 53 96 59 97 54 98 55 99 56 100 57 101 58 102
REMARK H PARENT 79 58 49 69
REMARK Flexibility Score: inf
ROOT
ATOM      1  O   UNL A   1      42.229  19.095  25.444  1.00  0.00    -0.458 OA
ENDROOT
BRANCH   1   2
ATOM      2  C   UNL A   1      41.691  19.567  26.604  1.00  0.00     0.338 C 
ATOM      3  O   UNL A   1      42.109  19.376  27.719  1.00  0.00    -0.246 OA
BRANCH   2   4
ATOM      4  C   UNL A   1      40.555  20.479  26.299  1.00  0.00     0.060 A 
ATOM      5  C   UNL A   1      38.347  22.055  25.746  1.00  0.00     0.066 A 
ATOM      6  C   UNL A   1      38.333  20.712  25.369  1.00  0.00     0.029 A 
ATOM      7  C   UNL A   1      39.437  22.622  26.412  1.00  0.00     0.029 A 
ATOM      8  C   UNL A   1      39.432  19.917  25.673  1.00  0.00     0.018 A 
ATOM      9  C   UNL A   1      40.554  21.831  26.668  1.00  0.00     0.018 A 
BRANCH   5  10
ATOM     10  N   UNL A   1      37.330  22.887  25.271  1.00  0.00    -0.220 N 
ATOM     11  C   UNL A   1      35.452  23.971  25.225  1.00  0.00     0.093 A 
ATOM     12  C   UNL A   1      36.423  23.513  26.081  1.00  0.00     0.141 A 
ATOM     13  N   UNL A   1      35.820  23.661  23.940  1.00  0.00    -0.134 NA
ATOM     14  N   UNL A   1      36.937  22.948  23.988  1.00  0.00    -0.062 NA
BRANCH  11  15
ATOM     15  C   UNL A   1      34.145  24.602  25.473  1.00  0.00     0.138 C 
BRANCH  15  16
ATOM     16  S   UNL A   1      33.019  23.697  26.513  1.00  0.00    -0.081 SA
BRANCH  16  17
ATOM     17  C   UNL A   1      31.920  22.778  25.457  1.00  0.00     0.176 A 
ATOM     18  N   UNL A   1      32.516  22.076  24.420  1.00  0.00    -0.255 N 
ATOM     19  C   UNL A   1      32.312  22.541  23.126  1.00  0.00     0.266 A 
ATOM     20  N   UNL A   1      30.777  23.371  25.278  1.00  0.00    -0.223 NA
ATOM     21  C   UNL A   1      31.690  23.891  23.083  1.00  0.00     0.066 A 
ATOM     22  O   UNL A   1      32.619  21.974  22.082  1.00  0.00    -0.268 OA
ATOM     23  C   UNL A   1      30.850  24.220  24.157  1.00  0.00     0.079 A 
ATOM     24  C   UNL A   1      32.110  24.865  22.180  1.00  0.00     0.016 A 
ATOM     25  C   UNL A   1      30.362  25.519  24.284  1.00  0.00     0.029 A 
ATOM     26  C   UNL A   1      31.690  26.183  22.370  1.00  0.00     0.001 A 
ATOM     27  C   UNL A   1      30.804  26.506  23.406  1.00  0.00     0.002 A 
BRANCH  18  28
ATOM     28  C   UNL A   1      32.986  20.762  24.661  1.00  0.00     0.052 A 
ATOM     29  C   UNL A   1      34.040  18.216  24.275  1.00  0.00     0.119 A 
ATOM     30  C   UNL A   1      34.870  19.236  24.734  1.00  0.00     0.048 A 
ATOM     31  C   UNL A   1      32.664  18.422  24.184  1.00  0.00     0.048 A 
ATOM     32  C   UNL A   1      34.349  20.523  24.903  1.00  0.00     0.030 A 
ATOM     33  C   UNL A   1      32.131  19.692  24.405  1.00  0.00     0.030 A 
BRANCH  29  34
ATOM     34  O   UNL A   1      34.599  17.012  23.946  1.00  0.00    -0.497 OA
ATOM     35  C   UNL A   1      35.004  16.284  25.115  1.00  0.00     0.278 C 
ENDBRANCH  29  34
ENDBRANCH  18  28
ENDBRANCH  16  17
ENDBRANCH  15  16
ENDBRANCH  11  15
ENDBRANCH   5  10
ENDBRANCH   2   4
ENDBRANCH   1   2
BRANCH   1  36
ATOM     36  C   UNL A   1      43.497  18.441  25.588  1.00  0.00     0.275 C 
BRANCH  36  37
ATOM     37  C   UNL A   1      44.513  19.027  24.618  1.00  0.00     0.275 C 
BRANCH  37  38
ATOM     38  O   UNL A   1      44.110  20.312  24.140  1.00  0.00    -0.458 OA
BRANCH  38  39
ATOM     39  C   UNL A   1      44.966  21.318  24.439  1.00  0.00     0.338 C 
ATOM     40  O   UNL A   1      46.169  21.341  24.241  1.00  0.00    -0.246 OA
BRANCH  39  41
ATOM     41  C   UNL A   1      44.282  22.305  25.277  1.00  0.00     0.060 A 
ATOM     42  C   UNL A   1      43.533  23.298  24.639  1.00  0.00     0.016 A 
ATOM     43  C   UNL A   1      44.632  22.399  26.632  1.00  0.00     0.016 A 
ATOM     44  C   UNL A   1      43.255  24.460  25.331  1.00  0.00     0.010 A 
ATOM     45  C   UNL A   1      44.375  23.566  27.310  1.00  0.00     0.010 A 
ATOM     46  C   UNL A   1      43.745  24.607  26.634  1.00  0.00    -0.014 A 
BRANCH  46  47
ATOM     47  C   UNL A   1      43.493  25.850  27.330  1.00  0.00     0.031 A 
ATOM     48  C   UNL A   1      44.502  26.895  27.055  1.00  0.00     0.074 A 
ATOM     49  C   UNL A   1      42.372  26.086  28.035  1.00  0.00     0.049 A 
ATOM     50  N   UNL A   1      45.393  27.360  27.864  1.00  0.00    -0.248 NA
ATOM     51  C   UNL A   1      44.640  27.360  25.667  1.00  0.00     0.031 C 
ATOM     52  C   UNL A   1      41.161  25.267  28.114  1.00  0.00     0.029 A 
ATOM     53  N   UNL A   1      42.040  27.199  28.739  1.00  0.00    -0.354 N 
ATOM     54  C   UNL A   1      46.078  28.330  27.143  1.00  0.00     0.074 A 
ATOM     55  C   UNL A   1      45.709  28.148  25.762  1.00  0.00     0.031 C 
ATOM     56  C   UNL A   1      40.156  26.016  28.624  1.00  0.00     0.029 A 
ATOM     57  C   UNL A   1      40.687  27.310  29.025  1.00  0.00     0.049 A 
ATOM     58  H   UNL A   1      42.703  27.870  29.023  1.00  0.00     0.167 HD
ATOM     59  C   UNL A   1      46.705  29.370  27.758  1.00  0.00     0.031 A 
ATOM     60  C   UNL A   1      40.053  28.421  29.478  1.00  0.00     0.031 A 
ATOM     61  C   UNL A   1      46.825  29.163  29.177  1.00  0.00     0.049 A 
ATOM     62  C   UNL A   1      41.088  29.316  30.059  1.00  0.00     0.074 A 
ATOM     63  C   UNL A   1      47.438  28.216  29.973  1.00  0.00     0.029 A 
ATOM     64  N   UNL A   1      45.909  29.805  29.978  1.00  0.00    -0.354 N 
ATOM     65  N   UNL A   1      41.762  29.030  31.138  1.00  0.00    -0.248 NA
ATOM     66  C   UNL A   1      41.694  30.322  29.200  1.00  0.00     0.031 C 
ATOM     67  C   UNL A   1      46.548  28.026  31.071  1.00  0.00     0.029 A 
ATOM     68  C   UNL A   1      45.474  28.905  30.916  1.00  0.00     0.049 A 
ATOM     69  H   UNL A   1      45.619  30.743  29.893  1.00  0.00     0.167 HD
ATOM     70  C   UNL A   1      43.050  29.480  30.886  1.00  0.00     0.074 A 
ATOM     71  C   UNL A   1      42.923  30.358  29.725  1.00  0.00     0.031 C 
ATOM     72  C   UNL A   1      44.134  28.884  31.466  1.00  0.00     0.031 A 
BRANCH  59  73
ATOM     73  C   UNL A   1      46.839  30.736  27.139  1.00  0.00    -0.014 A 
ATOM     74  C   UNL A   1      48.105  31.353  27.124  1.00  0.00     0.010 A 
ATOM     75  C   UNL A   1      45.727  31.541  26.820  1.00  0.00     0.010 A 
ATOM     76  C   UNL A   1      48.239  32.722  26.862  1.00  0.00     0.020 A 
ATOM     77  C   UNL A   1      45.854  32.894  26.511  1.00  0.00     0.020 A 
ATOM     78  C   UNL A   1      47.107  33.485  26.568  1.00  0.00     0.054 A 
BRANCH  78  79
ATOM     79  S   UNL A   1      47.276  35.268  26.331  1.00  0.00     0.124 S 
ATOM     80  O   UNL A   1      48.220  35.335  25.219  1.00  0.00    -0.237 OA
ATOM     81  O   UNL A   1      45.906  35.671  26.027  1.00  0.00    -0.237 OA
ATOM     82  O   UNL A   1      47.788  35.737  27.617  1.00  0.00    -0.744 OA
ENDBRANCH  78  79
ENDBRANCH  59  73
BRANCH  60  83
ATOM     83  C   UNL A   1      38.686  28.892  29.141  1.00  0.00    -0.014 A 
ATOM     84  C   UNL A   1      37.723  29.096  30.147  1.00  0.00     0.010 A 
ATOM     85  C   UNL A   1      38.412  29.414  27.859  1.00  0.00     0.010 A 
ATOM     86  C   UNL A   1      36.564  29.853  29.899  1.00  0.00     0.020 A 
ATOM     87  C   UNL A   1      37.255  30.160  27.601  1.00  0.00     0.020 A 
ATOM     88  C   UNL A   1      36.349  30.399  28.631  1.00  0.00     0.054 A 
BRANCH  88  89
ATOM     89  S   UNL A   1      34.954  31.534  28.368  1.00  0.00     0.124 S 
ATOM     90  O   UNL A   1      34.626  31.945  29.730  1.00  0.00    -0.237 OA
ATOM     91  O   UNL A   1      35.540  32.566  27.518  1.00  0.00    -0.237 OA
ATOM     92  O   UNL A   1      33.948  30.697  27.714  1.00  0.00    -0.744 OA
ENDBRANCH  88  89
ENDBRANCH  60  83
BRANCH  72  93
ATOM     93  C   UNL A   1      43.904  27.940  32.623  1.00  0.00    -0.014 A 
ATOM     94  C   UNL A   1      43.830  26.539  32.493  1.00  0.00     0.010 A 
ATOM     95  C   UNL A   1      43.917  28.493  33.916  1.00  0.00     0.010 A 
ATOM     96  C   UNL A   1      43.744  25.718  33.628  1.00  0.00     0.020 A 
ATOM     97  C   UNL A   1      43.851  27.681  35.050  1.00  0.00     0.020 A 
ATOM     98  C   UNL A   1      43.756  26.297  34.901  1.00  0.00     0.054 A 
BRANCH  98  99
ATOM     99  S   UNL A   1      43.690  25.231  36.368  1.00  0.00     0.124 S 
ATOM    100  O   UNL A   1      43.238  26.150  37.408  1.00  0.00    -0.237 OA
ATOM    101  O   UNL A   1      42.732  24.199  35.979  1.00  0.00    -0.237 OA
ATOM    102  O   UNL A   1      45.067  24.759  36.518  1.00  0.00    -0.744 OA
ENDBRANCH  98  99
ENDBRANCH  72  93
ENDBRANCH  46  47
ENDBRANCH  39  41
ENDBRANCH  38  39
ENDBRANCH  37  38
ENDBRANCH  36  37
ENDBRANCH   1  36
TORSDOF 20
ENDMDL
MODEL 2
REMARK VINA RESULT:     -12.3      1.562      3.616
REMARK SMILES COc1ccc(-n2c(SCc3cn(-c4ccc(C(=O)OCCOC(=O)c5ccc(-c6c7nc(c(-c8ccc(S(=O)(=O)[O-])cc8)c8ccc([nH]8)c(-c8ccc(S(=O)(=O)[O-])cc8)c8nc(c(-c9ccc(S(=O)(=O)[O-])cc9)c9ccc6[nH]9)C=C8)C=C7)cc5)cc4)nn3)nc3ccccc3c2=O)cc1
REMARK SMILES IDX 20 1 18 2 19 3 17 4 14 5 15 6 87 7 16 8 86 9 13 10 11 11
REMARK SMILES IDX 12 12 89 13 88 14 10 15 9 16 8 17 7 18 97 19 90 20 96 21
REMARK SMILES IDX 98 22 91 23 95 24 92 25 94 26 93 27 6 28 3 29 4 30 100 31
REMARK SMILES IDX 5 32 99 33 2 34 1 35 21 36 22 37 23 38 24 39 25 40 26 41
REMARK SMILES IDX 27 42 85 43 28 44 84 45 29 46 30 47 31 48 78 49 32 50 83 51
REMARK SMILES IDX 77 52 79 53 33 54 82 55 76 56 75 57 34 59 64 60 45 61 63 62
REMARK SMILES IDX 46 63 49 64 62 65 80 66 47 67 48 68 61 70 81 71 50 72 35 73
REMARK SMILES IDX 36 74 44 75 37 76 43 77 38 78 39 79 40 80 41 81 42 82 65 83
REMARK SMILES IDX 66 84 74 85 67 86 73 87 68 88 69 89 70 90 71 91 72 92 51 93
REMARK SMILES IDX 52 94 60 95 53 96 59 97 54 98 55 99 56 100 57 101 58 102
REMARK H PARENT 79 58 49 69
REMARK Flexibility Score: inf
ROOT
ATOM      1  O   UNL A   1      42.532  19.768  26.227  1.00  0.00    -0.458 OA
ENDROOT
BRANCH   1   2
ATOM      2  C   UNL A   1      41.450  19.743  27.056  1.00  0.00     0.338 C 
ATOM      3  O   UNL A   1      41.392  19.228  28.145  1.00  0.00    -0.246 OA
BRANCH   2   4
ATOM      4  C   UNL A   1      40.353  20.565  26.478  1.00  0.00     0.060 A 
ATOM      5  C   UNL A   1      38.221  21.969  25.406  1.00  0.00     0.066 A 
ATOM      6  C   UNL A   1      38.353  20.611  25.116  1.00  0.00     0.029 A 
ATOM      7  C   UNL A   1      39.125  22.636  26.237  1.00  0.00     0.029 A 
ATOM      8  C   UNL A   1      39.408  19.903  25.678  1.00  0.00     0.018 A 
ATOM      9  C   UNL A   1      40.207  21.931  26.756  1.00  0.00     0.018 A 
BRANCH   5  10
ATOM     10  N   UNL A   1      37.278  22.711  24.689  1.00  0.00    -0.220 N 
ATOM     11  C   UNL A   1      35.613  24.048  24.309  1.00  0.00     0.093 A 
ATOM     12  C   UNL A   1      36.636  23.809  25.193  1.00  0.00     0.141 A 
ATOM     13  N   UNL A   1      35.696  23.137  23.286  1.00  0.00    -0.134 NA
ATOM     14  N   UNL A   1      36.680  22.291  23.562  1.00  0.00    -0.062 NA
BRANCH  11  15
ATOM     15  C   UNL A   1      34.484  24.992  24.349  1.00  0.00     0.138 C 
BRANCH  15  16
ATOM     16  S   UNL A   1      33.407  24.993  22.933  1.00  0.00    -0.081 SA
BRANCH  16  17
ATOM     17  C   UNL A   1      31.776  24.550  23.488  1.00  0.00     0.176 A 
ATOM     18  N   UNL A   1      31.337  25.171  24.647  1.00  0.00    -0.255 N 
ATOM     19  C   UNL A   1      31.224  24.392  25.793  1.00  0.00     0.266 A 
ATOM     20  N   UNL A   1      31.484  23.305  23.257  1.00  0.00    -0.223 NA
ATOM     21  C   UNL A   1      31.853  23.052  25.650  1.00  0.00     0.066 A 
ATOM     22  O   UNL A   1      30.711  24.716  26.858  1.00  0.00    -0.268 OA
ATOM     23  C   UNL A   1      31.873  22.512  24.355  1.00  0.00     0.079 A 
ATOM     24  C   UNL A   1      32.603  22.479  26.674  1.00  0.00     0.016 A 
ATOM     25  C   UNL A   1      32.589  21.345  24.100  1.00  0.00     0.029 A 
ATOM     26  C   UNL A   1      33.391  21.362  26.385  1.00  0.00     0.001 A 
ATOM     27  C   UNL A   1      33.369  20.785  25.110  1.00  0.00     0.002 A 
BRANCH  18  28
ATOM     28  C   UNL A   1      30.696  26.430  24.552  1.00  0.00     0.052 A 
ATOM     29  C   UNL A   1      29.964  28.967  23.675  1.00  0.00     0.119 A 
ATOM     30  C   UNL A   1      29.173  27.873  23.334  1.00  0.00     0.048 A 
ATOM     31  C   UNL A   1      31.004  28.820  24.592  1.00  0.00     0.048 A 
ATOM     32  C   UNL A   1      29.553  26.594  23.752  1.00  0.00     0.030 A 
ATOM     33  C   UNL A   1      31.355  27.552  25.054  1.00  0.00     0.030 A 
BRANCH  29  34
ATOM     34  O   UNL A   1      29.680  30.183  23.115  1.00  0.00    -0.497 OA
ATOM     35  C   UNL A   1      29.367  30.057  21.719  1.00  0.00     0.278 C 
ENDBRANCH  29  34
ENDBRANCH  18  28
ENDBRANCH  16  17
ENDBRANCH  15  16
ENDBRANCH  11  15
ENDBRANCH   5  10
ENDBRANCH   2   4
ENDBRANCH   1   2
BRANCH   1  36
ATOM     36  C   UNL A   1      43.013  18.478  25.824  1.00  0.00     0.275 C 
BRANCH  36  37
ATOM     37  C   UNL A   1      44.423  18.587  25.260  1.00  0.00     0.275 C 
BRANCH  37  38
ATOM     38  O   UNL A   1      44.945  19.912  25.388  1.00  0.00    -0.458 OA
BRANCH  38  39
ATOM     39  C   UNL A   1      44.672  20.727  24.342  1.00  0.00     0.338 C 
ATOM     40  O   UNL A   1      44.581  20.410  23.168  1.00  0.00    -0.246 OA
BRANCH  39  41
ATOM     41  C   UNL A   1      44.744  22.123  24.781  1.00  0.00     0.060 A 
ATOM     42  C   UNL A   1      45.639  22.440  25.807  1.00  0.00     0.016 A 
ATOM     43  C   UNL A   1      43.734  23.009  24.381  1.00  0.00     0.016 A 
ATOM     44  C   UNL A   1      45.429  23.597  26.530  1.00  0.00     0.010 A 
ATOM     45  C   UNL A   1      43.513  24.148  25.118  1.00  0.00     0.010 A 
ATOM     46  C   UNL A   1      44.323  24.397  26.221  1.00  0.00    -0.014 A 
BRANCH  46  47
ATOM     47  C   UNL A   1      44.082  25.580  27.020  1.00  0.00     0.031 A 
ATOM     48  C   UNL A   1      45.086  26.645  26.816  1.00  0.00     0.074 A 
ATOM     49  C   UNL A   1      42.971  25.757  27.758  1.00  0.00     0.049 A 
ATOM     50  N   UNL A   1      45.989  27.044  27.646  1.00  0.00    -0.248 NA
ATOM     51  C   UNL A   1      45.203  27.221  25.467  1.00  0.00     0.031 C 
ATOM     52  C   UNL A   1      41.762  24.932  27.789  1.00  0.00     0.029 A 
ATOM     53  N   UNL A   1      42.649  26.808  28.555  1.00  0.00    -0.354 N 
ATOM     54  C   UNL A   1      46.663  28.070  26.996  1.00  0.00     0.074 A 
ATOM     55  C   UNL A   1      46.274  28.001  25.610  1.00  0.00     0.031 C 
ATOM     56  C   UNL A   1      40.764  25.637  28.372  1.00  0.00     0.029 A 
ATOM     57  C   UNL A   1      41.301  26.894  28.869  1.00  0.00     0.049 A 
ATOM     58  H   UNL A   1      43.316  27.455  28.882  1.00  0.00     0.167 HD
ATOM     59  C   UNL A   1      47.299  29.057  27.684  1.00  0.00     0.031 A 
ATOM     60  C   UNL A   1      40.673  27.965  29.419  1.00  0.00     0.031 A 
ATOM     61  C   UNL A   1      47.440  28.736  29.079  1.00  0.00     0.049 A 
ATOM     62  C   UNL A   1      41.717  28.810  30.056  1.00  0.00     0.074 A 
ATOM     63  C   UNL A   1      48.065  27.730  29.787  1.00  0.00     0.029 A 
ATOM     64  N   UNL A   1      46.536  29.311  29.943  1.00  0.00    -0.354 N 
ATOM     65  N   UNL A   1      42.407  28.439  31.098  1.00  0.00    -0.248 NA
ATOM     66  C   UNL A   1      42.310  29.884  29.272  1.00  0.00     0.031 C 
ATOM     67  C   UNL A   1      47.192  27.450  30.879  1.00  0.00     0.029 A 
ATOM     68  C   UNL A   1      46.115  28.337  30.811  1.00  0.00     0.049 A 
ATOM     69  H   UNL A   1      46.245  30.252  29.939  1.00  0.00     0.167 HD
ATOM     70  C   UNL A   1      43.691  28.910  30.864  1.00  0.00     0.074 A 
ATOM     71  C   UNL A   1      43.547  29.878  29.780  1.00  0.00     0.031 C 
ATOM     72  C   UNL A   1      44.784  28.270  31.378  1.00  0.00     0.031 A 
BRANCH  59  73
ATOM     73  C   UNL A   1      47.424  30.469  27.176  1.00  0.00    -0.014 A 
ATOM     74  C   UNL A   1      48.664  31.125  27.291  1.00  0.00     0.010 A 
ATOM     75  C   UNL A   1      46.306  31.260  26.840  1.00  0.00     0.010 A 
ATOM     76  C   UNL A   1      48.766  32.514  27.139  1.00  0.00     0.020 A 
ATOM     77  C   UNL A   1      46.404  32.636  26.638  1.00  0.00     0.020 A 
ATOM     78  C   UNL A   1      47.629  33.260  26.823  1.00  0.00     0.054 A 
BRANCH  78  79
ATOM     79  S   UNL A   1      47.748  35.061  26.728  1.00  0.00     0.124 S 
ATOM     80  O   UNL A   1      49.186  35.258  26.567  1.00  0.00    -0.237 OA
ATOM     81  O   UNL A   1      46.930  35.363  25.556  1.00  0.00    -0.237 OA
ATOM     82  O   UNL A   1      47.192  35.509  28.003  1.00  0.00    -0.744 OA
ENDBRANCH  78  79
ENDBRANCH  59  73
BRANCH  60  83
ATOM     83  C   UNL A   1      39.301  28.460  29.142  1.00  0.00    -0.014 A 
ATOM     84  C   UNL A   1      38.367  28.620  30.182  1.00  0.00     0.010 A 
ATOM     85  C   UNL A   1      38.998  29.044  27.895  1.00  0.00     0.010 A 
ATOM     86  C   UNL A   1      37.208  29.395  30.001  1.00  0.00     0.020 A 
ATOM     87  C   UNL A   1      37.840  29.808  27.703  1.00  0.00     0.020 A 
ATOM     88  C   UNL A   1      36.963  30.003  28.767  1.00  0.00     0.054 A 
BRANCH  88  89
ATOM     89  S   UNL A   1      35.570  31.158  28.596  1.00  0.00     0.124 S 
ATOM     90  O   UNL A   1      36.157  32.239  27.810  1.00  0.00    -0.237 OA
ATOM     91  O   UNL A   1      34.568  30.348  27.910  1.00  0.00    -0.237 OA
ATOM     92  O   UNL A   1      35.239  31.505  29.978  1.00  0.00    -0.744 OA
ENDBRANCH  88  89
ENDBRANCH  60  83
BRANCH  72  93
ATOM     93  C   UNL A   1      44.570  27.235  32.458  1.00  0.00    -0.014 A 
ATOM     94  C   UNL A   1      44.272  27.548  33.799  1.00  0.00     0.010 A 
ATOM     95  C   UNL A   1      44.519  25.889  32.057  1.00  0.00     0.010 A 
ATOM     96  C   UNL A   1      43.960  26.535  34.718  1.00  0.00     0.020 A 
ATOM     97  C   UNL A   1      44.190  24.878  32.962  1.00  0.00     0.020 A 
ATOM     98  C   UNL A   1      43.920  25.204  34.291  1.00  0.00     0.054 A 
BRANCH  98  99
ATOM     99  S   UNL A   1      43.471  23.899  35.470  1.00  0.00     0.124 S 
ATOM    100  O   UNL A   1      42.054  24.158  35.705  1.00  0.00    -0.237 OA
ATOM    101  O   UNL A   1      43.774  22.675  34.733  1.00  0.00    -0.237 OA
ATOM    102  O   UNL A   1      44.343  24.151  36.617  1.00  0.00    -0.744 OA
ENDBRANCH  98  99
ENDBRANCH  72  93
ENDBRANCH  46  47
ENDBRANCH  39  41
ENDBRANCH  38  39
ENDBRANCH  37  38
ENDBRANCH  36  37
ENDBRANCH   1  36
TORSDOF 20
ENDMDL
MODEL 3
REMARK VINA RESULT:     -12.3      2.924      9.885
REMARK SMILES COc1ccc(-n2c(SCc3cn(-c4ccc(C(=O)OCCOC(=O)c5ccc(-c6c7nc(c(-c8ccc(S(=O)(=O)[O-])cc8)c8ccc([nH]8)c(-c8ccc(S(=O)(=O)[O-])cc8)c8nc(c(-c9ccc(S(=O)(=O)[O-])cc9)c9ccc6[nH]9)C=C8)C=C7)cc5)cc4)nn3)nc3ccccc3c2=O)cc1
REMARK SMILES IDX 20 1 18 2 19 3 17 4 14 5 15 6 87 7 16 8 86 9 13 10 11 11
REMARK SMILES IDX 12 12 89 13 88 14 10 15 9 16 8 17 7 18 97 19 90 20 96 21
REMARK SMILES IDX 98 22 91 23 95 24 92 25 94 26 93 27 6 28 3 29 4 30 100 31
REMARK SMILES IDX 5 32 99 33 2 34 1 35 21 36 22 37 23 38 24 39 25 40 26 41
REMARK SMILES IDX 27 42 85 43 28 44 84 45 29 46 30 47 31 48 78 49 32 50 83 51
REMARK SMILES IDX 77 52 79 53 33 54 82 55 76 56 75 57 34 59 64 60 45 61 63 62
REMARK SMILES IDX 46 63 49 64 62 65 80 66 47 67 48 68 61 70 81 71 50 72 35 73
REMARK SMILES IDX 36 74 44 75 37 76 43 77 38 78 39 79 40 80 41 81 42 82 65 83
REMARK SMILES IDX 66 84 74 85 67 86 73 87 68 88 69 89 70 90 71 91 72 92 51 93
REMARK SMILES IDX 52 94 60 95 53 96 59 97 54 98 55 99 56 100 57 101 58 102
REMARK H PARENT 79 58 49 69
REMARK Flexibility Score: inf
ROOT
ATOM      1  O   UNL A   1      32.759  35.024  28.751  1.00  0.00    -0.458 OA
ENDROOT
BRANCH   1   2
ATOM      2  C   UNL A   1      33.781  34.509  28.012  1.00  0.00     0.338 C 
ATOM      3  O   UNL A   1      34.772  35.094  27.652  1.00  0.00    -0.246 OA
BRANCH   2   4
ATOM      4  C   UNL A   1      33.569  33.051  27.804  1.00  0.00     0.060 A 
ATOM      5  C   UNL A   1      33.076  30.373  27.301  1.00  0.00     0.066 A 
ATOM      6  C   UNL A   1      32.065  31.305  27.065  1.00  0.00     0.029 A 
ATOM      7  C   UNL A   1      34.337  30.757  27.766  1.00  0.00     0.029 A 
ATOM      8  C   UNL A   1      32.324  32.651  27.292  1.00  0.00     0.018 A 
ATOM      9  C   UNL A   1      34.573  32.102  28.038  1.00  0.00     0.018 A 
BRANCH   5  10
ATOM     10  N   UNL A   1      32.750  29.015  27.255  1.00  0.00    -0.220 N 
ATOM     11  C   UNL A   1      32.794  26.939  26.631  1.00  0.00     0.093 A 
ATOM     12  C   UNL A   1      33.588  28.051  26.765  1.00  0.00     0.141 A 
ATOM     13  N   UNL A   1      31.535  27.242  27.085  1.00  0.00    -0.134 NA
ATOM     14  N   UNL A   1      31.508  28.527  27.407  1.00  0.00    -0.062 NA
BRANCH  11  15
ATOM     15  C   UNL A   1      33.051  25.619  26.031  1.00  0.00     0.138 C 
BRANCH  15  16
ATOM     16  S   UNL A   1      31.675  24.491  25.990  1.00  0.00    -0.081 SA
BRANCH  16  17
ATOM     17  C   UNL A   1      31.343  24.097  24.286  1.00  0.00     0.176 A 
ATOM     18  N   UNL A   1      32.447  23.794  23.505  1.00  0.00    -0.255 N 
ATOM     19  C   UNL A   1      32.822  24.716  22.534  1.00  0.00     0.266 A 
ATOM     20  N   UNL A   1      30.355  24.781  23.792  1.00  0.00    -0.223 NA
ATOM     21  C   UNL A   1      32.122  26.021  22.669  1.00  0.00     0.066 A 
ATOM     22  O   UNL A   1      33.661  24.559  21.653  1.00  0.00    -0.268 OA
ATOM     23  C   UNL A   1      30.837  25.979  23.230  1.00  0.00     0.079 A 
ATOM     24  C   UNL A   1      32.786  27.233  22.495  1.00  0.00     0.016 A 
ATOM     25  C   UNL A   1      30.179  27.165  23.548  1.00  0.00     0.029 A 
ATOM     26  C   UNL A   1      32.155  28.410  22.904  1.00  0.00     0.001 A 
ATOM     27  C   UNL A   1      30.850  28.379  23.410  1.00  0.00     0.002 A 
BRANCH  18  28
ATOM     28  C   UNL A   1      32.917  22.458  23.467  1.00  0.00     0.052 A 
ATOM     29  C   UNL A   1      33.397  19.802  24.142  1.00  0.00     0.119 A 
ATOM     30  C   UNL A   1      32.392  20.103  23.226  1.00  0.00     0.048 A 
ATOM     31  C   UNL A   1      34.269  20.800  24.576  1.00  0.00     0.048 A 
ATOM     32  C   UNL A   1      32.132  21.439  22.905  1.00  0.00     0.030 A 
ATOM     33  C   UNL A   1      34.046  22.129  24.215  1.00  0.00     0.030 A 
BRANCH  29  34
ATOM     34  O   UNL A   1      33.523  18.512  24.579  1.00  0.00    -0.497 OA
ATOM     35  C   UNL A   1      32.637  18.241  25.676  1.00  0.00     0.278 C 
ENDBRANCH  29  34
ENDBRANCH  18  28
ENDBRANCH  16  17
ENDBRANCH  15  16
ENDBRANCH  11  15
ENDBRANCH   5  10
ENDBRANCH   2   4
ENDBRANCH   1   2
BRANCH   1  36
ATOM     36  C   UNL A   1      33.089  36.200  29.503  1.00  0.00     0.275 C 
BRANCH  36  37
ATOM     37  C   UNL A   1      33.080  35.900  30.995  1.00  0.00     0.275 C 
BRANCH  37  38
ATOM     38  O   UNL A   1      34.320  35.340  31.432  1.00  0.00    -0.458 OA
BRANCH  38  39
ATOM     39  C   UNL A   1      34.226  34.085  31.929  1.00  0.00     0.338 C 
ATOM     40  O   UNL A   1      33.535  33.714  32.863  1.00  0.00    -0.246 OA
BRANCH  39  41
ATOM     41  C   UNL A   1      35.277  33.249  31.342  1.00  0.00     0.060 A 
ATOM     42  C   UNL A   1      35.200  31.868  31.537  1.00  0.00     0.016 A 
ATOM     43  C   UNL A   1      36.447  33.866  30.876  1.00  0.00     0.016 A 
ATOM     44  C   UNL A   1      36.350  31.117  31.397  1.00  0.00     0.010 A 
ATOM     45  C   UNL A   1      37.596  33.120  30.760  1.00  0.00     0.010 A 
ATOM     46  C   UNL A   1      37.549  31.767  31.082  1.00  0.00    -0.014 A 
BRANCH  46  47
ATOM     47  C   UNL A   1      38.758  30.978  30.990  1.00  0.00     0.031 A 
ATOM     48  C   UNL A   1      39.425  30.766  32.292  1.00  0.00     0.074 A 
ATOM     49  C   UNL A   1      39.155  30.367  29.860  1.00  0.00     0.049 A 
ATOM     50  N   UNL A   1      40.542  31.270  32.695  1.00  0.00    -0.248 NA
ATOM     51  C   UNL A   1      38.678  30.037  33.329  1.00  0.00     0.031 C 
ATOM     52  C   UNL A   1      38.424  30.227  28.599  1.00  0.00     0.029 A 
ATOM     53  N   UNL A   1      40.273  29.623  29.653  1.00  0.00    -0.354 N 
ATOM     54  C   UNL A   1      40.743  30.755  33.970  1.00  0.00     0.074 A 
ATOM     55  C   UNL A   1      39.489  30.173  34.377  1.00  0.00     0.031 C 
ATOM     56  C   UNL A   1      39.007  29.256  27.857  1.00  0.00     0.029 A 
ATOM     57  C   UNL A   1      40.218  28.811  28.530  1.00  0.00     0.049 A 
ATOM     58  H   UNL A   1      41.056  29.657  30.251  1.00  0.00     0.167 HD
ATOM     59  C   UNL A   1      41.989  30.622  34.500  1.00  0.00     0.031 A 
ATOM     60  C   UNL A   1      41.068  27.794  28.235  1.00  0.00     0.031 A 
ATOM     61  C   UNL A   1      42.977  31.338  33.738  1.00  0.00     0.049 A 
ATOM     62  C   UNL A   1      42.303  28.004  29.033  1.00  0.00     0.074 A 
ATOM     63  C   UNL A   1      43.174  32.662  33.401  1.00  0.00     0.029 A 
ATOM     64  N   UNL A   1      43.742  30.600  32.864  1.00  0.00    -0.354 N 
ATOM     65  N   UNL A   1      43.125  28.998  28.840  1.00  0.00    -0.248 NA
ATOM     66  C   UNL A   1      42.401  27.366  30.338  1.00  0.00     0.031 C 
ATOM     67  C   UNL A   1      43.674  32.632  32.067  1.00  0.00     0.029 A 
ATOM     68  C   UNL A   1      43.811  31.295  31.684  1.00  0.00     0.049 A 
ATOM     69  H   UNL A   1      44.164  29.730  33.052  1.00  0.00     0.167 HD
ATOM     70  C   UNL A   1      43.524  29.385  30.111  1.00  0.00     0.074 A 
ATOM     71  C   UNL A   1      43.131  28.282  30.983  1.00  0.00     0.031 C 
ATOM     72  C   UNL A   1      43.882  30.677  30.376  1.00  0.00     0.031 A 
BRANCH  59  73
ATOM     73  C   UNL A   1      42.366  29.525  35.460  1.00  0.00    -0.014 A 
ATOM     74  C   UNL A   1      43.257  29.817  36.509  1.00  0.00     0.010 A 
ATOM     75  C   UNL A   1      42.090  28.165  35.208  1.00  0.00     0.010 A 
ATOM     76  C   UNL A   1      43.888  28.793  37.229  1.00  0.00     0.020 A 
ATOM     77  C   UNL A   1      42.675  27.139  35.950  1.00  0.00     0.020 A 
ATOM     78  C   UNL A   1      43.598  27.460  36.934  1.00  0.00     0.054 A 
BRANCH  78  79
ATOM     79  S   UNL A   1      44.490  26.147  37.798  1.00  0.00     0.124 S 
ATOM     80  O   UNL A   1      45.825  26.258  37.216  1.00  0.00    -0.237 OA
ATOM     81  O   UNL A   1      44.368  26.556  39.194  1.00  0.00    -0.237 OA
ATOM     82  O   UNL A   1      43.749  24.938  37.441  1.00  0.00    -0.744 OA
ENDBRANCH  78  79
ENDBRANCH  59  73
BRANCH  60  83
ATOM     83  C   UNL A   1      40.749  26.501  27.577  1.00  0.00    -0.014 A 
ATOM     84  C   UNL A   1      41.699  25.847  26.770  1.00  0.00     0.010 A 
ATOM     85  C   UNL A   1      39.610  25.768  27.971  1.00  0.00     0.010 A 
ATOM     86  C   UNL A   1      41.549  24.492  26.430  1.00  0.00     0.020 A 
ATOM     87  C   UNL A   1      39.448  24.421  27.627  1.00  0.00     0.020 A 
ATOM     88  C   UNL A   1      40.434  23.780  26.880  1.00  0.00     0.054 A 
BRANCH  88  89
ATOM     89  S   UNL A   1      40.341  21.986  26.603  1.00  0.00     0.124 S 
ATOM     90  O   UNL A   1      38.984  21.820  26.090  1.00  0.00    -0.237 OA
ATOM     91  O   UNL A   1      41.414  21.757  25.640  1.00  0.00    -0.237 OA
ATOM     92  O   UNL A   1      40.576  21.420  27.931  1.00  0.00    -0.744 OA
ENDBRANCH  88  89
ENDBRANCH  60  83
BRANCH  72  93
ATOM     93  C   UNL A   1      44.144  31.606  29.214  1.00  0.00    -0.014 A 
ATOM     94  C   UNL A   1      45.197  32.540  29.175  1.00  0.00     0.010 A 
ATOM     95  C   UNL A   1      43.379  31.410  28.050  1.00  0.00     0.010 A 
ATOM     96  C   UNL A   1      45.458  33.279  28.011  1.00  0.00     0.020 A 
ATOM     97  C   UNL A   1      43.645  32.127  26.882  1.00  0.00     0.020 A 
ATOM     98  C   UNL A   1      44.677  33.065  26.870  1.00  0.00     0.054 A 
BRANCH  98  99
ATOM     99  S   UNL A   1      45.044  33.987  25.350  1.00  0.00     0.124 S 
ATOM    100  O   UNL A   1      46.494  34.144  25.415  1.00  0.00    -0.237 OA
ATOM    101  O   UNL A   1      44.554  33.096  24.301  1.00  0.00    -0.237 OA
ATOM    102  O   UNL A   1      44.282  35.226  25.502  1.00  0.00    -0.744 OA
ENDBRANCH  98  99
ENDBRANCH  72  93
ENDBRANCH  46  47
ENDBRANCH  39  41
ENDBRANCH  38  39
ENDBRANCH  37  38
ENDBRANCH  36  37
ENDBRANCH   1  36
TORSDOF 20
ENDMDL
