MODEL 1
REMARK VINA RESULT:      -8.6      0.000      0.000
REMARK SMILES O=C(Cc1ccn(C(F)F)c(=O)c1)OCCOC(=O)c1ccc(-c2c3nc(c(-c4ccc(S(=O)(=O)[O-])cc4)c4ccc([nH]4)c(-c4ccc(S(=O)(=O)[O-])cc4)c4nc(c(-c5ccc(S(=O)(=O)[O-])cc5)c5ccc2[nH]5)C=C4)C=C3)cc1
REMARK SMILES IDX 16 1 15 2 14 3 2 4 1 5 3 6 4 7 5 8 13 9 6 10 11 11 7 12
REMARK SMILES IDX 12 13 8 14 9 15 10 16 17 17 18 18 19 19 20 20 21 21 79 22
REMARK SMILES IDX 22 23 78 24 23 25 24 26 25 27 72 28 26 29 77 30 71 31 73 32
REMARK SMILES IDX 27 33 76 34 70 35 69 36 28 38 58 39 39 40 57 41 40 42 43 43
REMARK SMILES IDX 56 44 74 45 41 46 42 47 55 49 75 50 44 51 29 52 30 53 38 54
REMARK SMILES IDX 31 55 37 56 32 57 33 58 34 59 35 60 36 61 59 62 60 63 68 64
REMARK SMILES IDX 61 65 67 66 62 67 63 68 64 69 65 70 66 71 45 72 46 73 54 74
REMARK SMILES IDX 47 75 53 76 48 77 49 78 50 79 51 80 52 81
REMARK H PARENT 73 37 43 48
REMARK Flexibility Score: inf
ROOT
ATOM      1  C   UNL A   1      33.664  32.468  28.055  1.00  0.00     0.275 C 
ENDROOT
BRANCH   1   2
ATOM      2  C   UNL A   1      34.485  33.088  29.188  1.00  0.00     0.274 C 
BRANCH   2   3
ATOM      3  O   UNL A   1      35.836  33.395  28.789  1.00  0.00    -0.462 OA
BRANCH   3   4
ATOM      4  C   UNL A   1      36.802  33.647  29.715  1.00  0.00     0.310 C 
ATOM      5  O   UNL A   1      37.990  33.531  29.428  1.00  0.00    -0.252 OA
BRANCH   4   6
ATOM      6  C   UNL A   1      36.335  33.906  31.140  1.00  0.00     0.158 C 
BRANCH   6   7
ATOM      7  C   UNL A   1      36.934  33.002  32.177  1.00  0.00    -0.030 A 
ATOM      8  C   UNL A   1      37.934  33.542  33.076  1.00  0.00     0.023 A 
ATOM      9  C   UNL A   1      36.687  31.681  32.199  1.00  0.00     0.076 A 
ATOM     10  C   UNL A   1      38.636  32.725  33.874  1.00  0.00     0.095 A 
ATOM     11  C   UNL A   1      37.401  30.773  33.133  1.00  0.00     0.255 A 
ATOM     12  N   UNL A   1      38.394  31.361  33.894  1.00  0.00    -0.258 N 
ATOM     13  O   UNL A   1      37.078  29.589  33.138  1.00  0.00    -0.269 OA
BRANCH  12  14
ATOM     14  C   UNL A   1      39.152  30.492  34.756  1.00  0.00     0.451 C 
ATOM     15  F   UNL A   1      40.077  29.808  34.038  1.00  0.00    -0.185 F 
ATOM     16  F   UNL A   1      39.813  31.210  35.698  1.00  0.00    -0.185 F 
ENDBRANCH  12  14
ENDBRANCH   6   7
ENDBRANCH   4   6
ENDBRANCH   3   4
ENDBRANCH   2   3
ENDBRANCH   1   2
BRANCH   1  17
ATOM     17  O   UNL A   1      34.504  31.688  27.188  1.00  0.00    -0.458 OA
BRANCH  17  18
ATOM     18  C   UNL A   1      34.495  30.349  27.426  1.00  0.00     0.338 C 
ATOM     19  O   UNL A   1      33.644  29.556  27.079  1.00  0.00    -0.246 OA
BRANCH  18  20
ATOM     20  C   UNL A   1      35.813  29.958  27.983  1.00  0.00     0.060 A 
ATOM     21  C   UNL A   1      35.957  29.477  29.289  1.00  0.00     0.016 A 
ATOM     22  C   UNL A   1      36.941  30.149  27.175  1.00  0.00     0.016 A 
ATOM     23  C   UNL A   1      37.233  29.183  29.783  1.00  0.00     0.010 A 
ATOM     24  C   UNL A   1      38.215  29.866  27.674  1.00  0.00     0.010 A 
ATOM     25  C   UNL A   1      38.369  29.376  28.978  1.00  0.00    -0.014 A 
BRANCH  25  26
ATOM     26  C   UNL A   1      39.703  28.934  29.445  1.00  0.00     0.031 A 
ATOM     27  C   UNL A   1      40.563  29.797  30.316  1.00  0.00     0.074 A 
ATOM     28  C   UNL A   1      40.155  27.735  29.035  1.00  0.00     0.049 A 
ATOM     29  N   UNL A   1      41.729  29.517  30.841  1.00  0.00    -0.248 NA
ATOM     30  C   UNL A   1      40.059  31.138  30.643  1.00  0.00     0.031 C 
ATOM     31  C   UNL A   1      39.409  26.813  28.179  1.00  0.00     0.029 A 
ATOM     32  N   UNL A   1      41.341  27.090  29.276  1.00  0.00    -0.354 N 
ATOM     33  C   UNL A   1      42.096  30.637  31.573  1.00  0.00     0.074 A 
ATOM     34  C   UNL A   1      41.042  31.616  31.397  1.00  0.00     0.031 C 
ATOM     35  C   UNL A   1      40.151  25.716  27.972  1.00  0.00     0.029 A 
ATOM     36  C   UNL A   1      41.434  25.867  28.659  1.00  0.00     0.049 A 
ATOM     37  H   UNL A   1      42.057  27.466  29.839  1.00  0.00     0.167 HD
ATOM     38  C   UNL A   1      43.204  30.819  32.331  1.00  0.00     0.031 A 
ATOM     39  C   UNL A   1      42.432  24.960  28.640  1.00  0.00     0.031 A 
ATOM     40  C   UNL A   1      44.255  29.845  32.484  1.00  0.00     0.049 A 
ATOM     41  C   UNL A   1      43.681  25.211  29.430  1.00  0.00     0.074 A 
ATOM     42  C   UNL A   1      45.373  29.919  33.298  1.00  0.00     0.029 A 
ATOM     43  N   UNL A   1      44.341  28.644  31.797  1.00  0.00    -0.354 N 
ATOM     44  N   UNL A   1      43.967  26.234  30.198  1.00  0.00    -0.248 NA
ATOM     45  C   UNL A   1      44.734  24.190  29.366  1.00  0.00     0.031 C 
ATOM     46  C   UNL A   1      46.173  28.802  33.043  1.00  0.00     0.029 A 
ATOM     47  C   UNL A   1      45.520  27.994  32.126  1.00  0.00     0.049 A 
ATOM     48  H   UNL A   1      43.665  28.303  31.167  1.00  0.00     0.167 HD
ATOM     49  C   UNL A   1      45.227  25.973  30.724  1.00  0.00     0.074 A 
ATOM     50  C   UNL A   1      45.647  24.693  30.190  1.00  0.00     0.031 C 
ATOM     51  C   UNL A   1      45.955  26.729  31.581  1.00  0.00     0.031 A 
BRANCH  38  52
ATOM     52  C   UNL A   1      43.356  32.122  33.070  1.00  0.00    -0.014 A 
ATOM     53  C   UNL A   1      42.720  32.297  34.314  1.00  0.00     0.010 A 
ATOM     54  C   UNL A   1      44.019  33.211  32.480  1.00  0.00     0.010 A 
ATOM     55  C   UNL A   1      42.733  33.543  34.948  1.00  0.00     0.020 A 
ATOM     56  C   UNL A   1      44.055  34.452  33.122  1.00  0.00     0.020 A 
ATOM     57  C   UNL A   1      43.397  34.613  34.345  1.00  0.00     0.054 A 
BRANCH  57  58
ATOM     58  S   UNL A   1      43.425  36.220  35.186  1.00  0.00     0.124 S 
ATOM     59  O   UNL A   1      42.653  37.060  34.276  1.00  0.00    -0.237 OA
ATOM     60  O   UNL A   1      42.790  35.922  36.468  1.00  0.00    -0.237 OA
ATOM     61  O   UNL A   1      44.852  36.528  35.271  1.00  0.00    -0.744 OA
ENDBRANCH  57  58
ENDBRANCH  38  52
BRANCH  39  62
ATOM     62  C   UNL A   1      42.220  23.710  27.866  1.00  0.00    -0.014 A 
ATOM     63  C   UNL A   1      41.617  22.593  28.477  1.00  0.00     0.010 A 
ATOM     64  C   UNL A   1      42.778  23.576  26.583  1.00  0.00     0.010 A 
ATOM     65  C   UNL A   1      41.654  21.344  27.855  1.00  0.00     0.020 A 
ATOM     66  C   UNL A   1      42.795  22.332  25.948  1.00  0.00     0.020 A 
ATOM     67  C   UNL A   1      42.269  21.217  26.606  1.00  0.00     0.054 A 
BRANCH  67  68
ATOM     68  S   UNL A   1      42.426  19.564  25.878  1.00  0.00     0.124 S 
ATOM     69  O   UNL A   1      43.466  19.779  24.874  1.00  0.00    -0.237 OA
ATOM     70  O   UNL A   1      42.816  18.745  27.023  1.00  0.00    -0.237 OA
ATOM     71  O   UNL A   1      41.092  19.295  25.348  1.00  0.00    -0.744 OA
ENDBRANCH  67  68
ENDBRANCH  39  62
BRANCH  51  72
ATOM     72  C   UNL A   1      47.312  26.232  32.008  1.00  0.00    -0.014 A 
ATOM     73  C   UNL A   1      48.394  26.295  31.109  1.00  0.00     0.010 A 
ATOM     74  C   UNL A   1      47.475  25.554  33.229  1.00  0.00     0.010 A 
ATOM     75  C   UNL A   1      49.594  25.641  31.396  1.00  0.00     0.020 A 
ATOM     76  C   UNL A   1      48.686  24.921  33.531  1.00  0.00     0.020 A 
ATOM     77  C   UNL A   1      49.726  24.942  32.598  1.00  0.00     0.054 A 
BRANCH  77  78
ATOM     78  S   UNL A   1      51.265  24.036  32.919  1.00  0.00     0.124 S 
ATOM     79  O   UNL A   1      51.185  23.794  34.357  1.00  0.00    -0.237 OA
ATOM     80  O   UNL A   1      51.124  22.853  32.073  1.00  0.00    -0.237 OA
ATOM     81  O   UNL A   1      52.307  24.970  32.502  1.00  0.00    -0.744 OA
ENDBRANCH  77  78
ENDBRANCH  51  72
ENDBRANCH  25  26
ENDBRANCH  18  20
ENDBRANCH  17  18
ENDBRANCH   1  17
TORSDOF 16
ENDMDL
MODEL 2
REMARK VINA RESULT:      -8.5      5.007     11.642
REMARK SMILES O=C(Cc1ccn(C(F)F)c(=O)c1)OCCOC(=O)c1ccc(-c2c3nc(c(-c4ccc(S(=O)(=O)[O-])cc4)c4ccc([nH]4)c(-c4ccc(S(=O)(=O)[O-])cc4)c4nc(c(-c5ccc(S(=O)(=O)[O-])cc5)c5ccc2[nH]5)C=C4)C=C3)cc1
REMARK SMILES IDX 16 1 15 2 14 3 2 4 1 5 3 6 4 7 5 8 13 9 6 10 11 11 7 12
REMARK SMILES IDX 12 13 8 14 9 15 10 16 17 17 18 18 19 19 20 20 21 21 79 22
REMARK SMILES IDX 22 23 78 24 23 25 24 26 25 27 72 28 26 29 77 30 71 31 73 32
REMARK SMILES IDX 27 33 76 34 70 35 69 36 28 38 58 39 39 40 57 41 40 42 43 43
REMARK SMILES IDX 56 44 74 45 41 46 42 47 55 49 75 50 44 51 29 52 30 53 38 54
REMARK SMILES IDX 31 55 37 56 32 57 33 58 34 59 35 60 36 61 59 62 60 63 68 64
REMARK SMILES IDX 61 65 67 66 62 67 63 68 64 69 65 70 66 71 45 72 46 73 54 74
REMARK SMILES IDX 47 75 53 76 48 77 49 78 50 79 51 80 52 81
REMARK H PARENT 73 37 43 48
REMARK Flexibility Score: inf
ROOT
ATOM      1  C   UNL A   1      41.985  22.904  25.760  1.00  0.00     0.275 C 
ENDROOT
BRANCH   1   2
ATOM      2  C   UNL A   1      40.937  21.907  26.260  1.00  0.00     0.274 C 
BRANCH   2   3
ATOM      3  O   UNL A   1      39.828  22.551  26.919  1.00  0.00    -0.462 OA
BRANCH   3   4
ATOM      4  C   UNL A   1      38.710  22.907  26.228  1.00  0.00     0.310 C 
ATOM      5  O   UNL A   1      38.117  23.950  26.490  1.00  0.00    -0.252 OA
BRANCH   4   6
ATOM      6  C   UNL A   1      38.152  21.881  25.253  1.00  0.00     0.158 C 
BRANCH   6   7
ATOM      7  C   UNL A   1      36.695  22.043  24.929  1.00  0.00    -0.030 A 
ATOM      8  C   UNL A   1      35.719  21.358  25.751  1.00  0.00     0.023 A 
ATOM      9  C   UNL A   1      36.280  22.674  23.818  1.00  0.00     0.076 A 
ATOM     10  C   UNL A   1      34.434  21.311  25.375  1.00  0.00     0.095 A 
ATOM     11  C   UNL A   1      34.846  22.699  23.428  1.00  0.00     0.255 A 
ATOM     12  N   UNL A   1      34.000  21.951  24.225  1.00  0.00    -0.258 N 
ATOM     13  O   UNL A   1      34.535  23.347  22.434  1.00  0.00    -0.269 OA
BRANCH  12  14
ATOM     14  C   UNL A   1      32.616  21.897  23.830  1.00  0.00     0.451 C 
ATOM     15  F   UNL A   1      32.045  20.749  24.275  1.00  0.00    -0.185 F 
ATOM     16  F   UNL A   1      31.924  22.933  24.365  1.00  0.00    -0.185 F 
ENDBRANCH  12  14
ENDBRANCH   6   7
ENDBRANCH   4   6
ENDBRANCH   3   4
ENDBRANCH   2   3
ENDBRANCH   1   2
BRANCH   1  17
ATOM     17  O   UNL A   1      42.162  23.971  26.707  1.00  0.00    -0.458 OA
BRANCH  17  18
ATOM     18  C   UNL A   1      41.903  25.217  26.228  1.00  0.00     0.338 C 
ATOM     19  O   UNL A   1      41.772  25.534  25.064  1.00  0.00    -0.246 OA
BRANCH  18  20
ATOM     20  C   UNL A   1      41.572  26.104  27.370  1.00  0.00     0.060 A 
ATOM     21  C   UNL A   1      40.492  25.850  28.222  1.00  0.00     0.016 A 
ATOM     22  C   UNL A   1      42.344  27.261  27.537  1.00  0.00     0.016 A 
ATOM     23  C   UNL A   1      40.188  26.756  29.245  1.00  0.00     0.010 A 
ATOM     24  C   UNL A   1      42.031  28.169  28.551  1.00  0.00     0.010 A 
ATOM     25  C   UNL A   1      40.956  27.920  29.416  1.00  0.00    -0.014 A 
BRANCH  25  26
ATOM     26  C   UNL A   1      40.727  28.807  30.579  1.00  0.00     0.031 A 
ATOM     27  C   UNL A   1      41.544  28.700  31.830  1.00  0.00     0.074 A 
ATOM     28  C   UNL A   1      39.728  29.705  30.507  1.00  0.00     0.049 A 
ATOM     29  N   UNL A   1      41.488  29.444  32.905  1.00  0.00    -0.248 NA
ATOM     30  C   UNL A   1      42.550  27.629  31.887  1.00  0.00     0.031 C 
ATOM     31  C   UNL A   1      38.861  29.894  29.344  1.00  0.00     0.029 A 
ATOM     32  N   UNL A   1      39.271  30.619  31.422  1.00  0.00    -0.354 N 
ATOM     33  C   UNL A   1      42.458  28.947  33.764  1.00  0.00     0.074 A 
ATOM     34  C   UNL A   1      43.066  27.813  33.097  1.00  0.00     0.031 C 
ATOM     35  C   UNL A   1      37.981  30.869  29.612  1.00  0.00     0.029 A 
ATOM     36  C   UNL A   1      38.205  31.358  30.972  1.00  0.00     0.049 A 
ATOM     37  H   UNL A   1      39.670  30.736  32.315  1.00  0.00     0.167 HD
ATOM     38  C   UNL A   1      42.812  29.408  34.987  1.00  0.00     0.031 A 
ATOM     39  C   UNL A   1      37.480  32.321  31.576  1.00  0.00     0.031 A 
ATOM     40  C   UNL A   1      42.186  30.525  35.648  1.00  0.00     0.049 A 
ATOM     41  C   UNL A   1      37.844  32.770  32.959  1.00  0.00     0.074 A 
ATOM     42  C   UNL A   1      42.539  31.107  36.855  1.00  0.00     0.029 A 
ATOM     43  N   UNL A   1      41.072  31.209  35.188  1.00  0.00    -0.354 N 
ATOM     44  N   UNL A   1      38.830  32.355  33.718  1.00  0.00    -0.248 NA
ATOM     45  C   UNL A   1      37.015  33.819  33.566  1.00  0.00     0.031 C 
ATOM     46  C   UNL A   1      41.591  32.088  37.161  1.00  0.00     0.029 A 
ATOM     47  C   UNL A   1      40.691  32.170  36.111  1.00  0.00     0.049 A 
ATOM     48  H   UNL A   1      40.618  31.038  34.331  1.00  0.00     0.167 HD
ATOM     49  C   UNL A   1      38.752  33.104  34.885  1.00  0.00     0.074 A 
ATOM     50  C   UNL A   1      37.623  34.001  34.733  1.00  0.00     0.031 C 
ATOM     51  C   UNL A   1      39.555  33.051  35.975  1.00  0.00     0.031 A 
BRANCH  38  52
ATOM     52  C   UNL A   1      43.934  28.715  35.713  1.00  0.00    -0.014 A 
ATOM     53  C   UNL A   1      43.642  27.697  36.639  1.00  0.00     0.010 A 
ATOM     54  C   UNL A   1      45.262  29.155  35.573  1.00  0.00     0.010 A 
ATOM     55  C   UNL A   1      44.657  27.139  37.423  1.00  0.00     0.020 A 
ATOM     56  C   UNL A   1      46.282  28.584  36.338  1.00  0.00     0.020 A 
ATOM     57  C   UNL A   1      45.969  27.590  37.271  1.00  0.00     0.054 A 
BRANCH  57  58
ATOM     58  S   UNL A   1      47.280  26.846  38.279  1.00  0.00     0.124 S 
ATOM     59  O   UNL A   1      47.537  25.592  37.577  1.00  0.00    -0.237 OA
ATOM     60  O   UNL A   1      48.345  27.843  38.208  1.00  0.00    -0.237 OA
ATOM     61  O   UNL A   1      46.656  26.715  39.595  1.00  0.00    -0.744 OA
ENDBRANCH  57  58
ENDBRANCH  38  52
BRANCH  39  62
ATOM     62  C   UNL A   1      36.369  32.940  30.807  1.00  0.00    -0.014 A 
ATOM     63  C   UNL A   1      36.646  33.716  29.665  1.00  0.00     0.010 A 
ATOM     64  C   UNL A   1      35.060  32.902  31.315  1.00  0.00     0.010 A 
ATOM     65  C   UNL A   1      35.650  34.513  29.096  1.00  0.00     0.020 A 
ATOM     66  C   UNL A   1      34.056  33.680  30.733  1.00  0.00     0.020 A 
ATOM     67  C   UNL A   1      34.368  34.511  29.653  1.00  0.00     0.054 A 
BRANCH  67  68
ATOM     68  S   UNL A   1      33.128  35.652  28.985  1.00  0.00     0.124 S 
ATOM     69  O   UNL A   1      32.389  34.785  28.070  1.00  0.00    -0.237 OA
ATOM     70  O   UNL A   1      32.401  36.070  30.181  1.00  0.00    -0.237 OA
ATOM     71  O   UNL A   1      33.929  36.695  28.349  1.00  0.00    -0.744 OA
ENDBRANCH  67  68
ENDBRANCH  39  62
BRANCH  51  72
ATOM     72  C   UNL A   1      39.262  33.970  37.133  1.00  0.00    -0.014 A 
ATOM     73  C   UNL A   1      39.786  35.277  37.139  1.00  0.00     0.010 A 
ATOM     74  C   UNL A   1      38.614  33.488  38.285  1.00  0.00     0.010 A 
ATOM     75  C   UNL A   1      39.719  36.064  38.290  1.00  0.00     0.020 A 
ATOM     76  C   UNL A   1      38.522  34.285  39.431  1.00  0.00     0.020 A 
ATOM     77  C   UNL A   1      39.103  35.555  39.436  1.00  0.00     0.054 A 
BRANCH  77  78
ATOM     78  S   UNL A   1      39.095  36.563  40.945  1.00  0.00     0.124 S 
ATOM     79  O   UNL A   1      38.711  37.877  40.435  1.00  0.00    -0.237 OA
ATOM     80  O   UNL A   1      38.094  35.894  41.773  1.00  0.00    -0.237 OA
ATOM     81  O   UNL A   1      40.467  36.461  41.435  1.00  0.00    -0.744 OA
ENDBRANCH  77  78
ENDBRANCH  51  72
ENDBRANCH  25  26
ENDBRANCH  18  20
ENDBRANCH  17  18
ENDBRANCH   1  17
TORSDOF 16
ENDMDL
MODEL 3
REMARK VINA RESULT:      -8.5      4.158     10.359
REMARK SMILES O=C(Cc1ccn(C(F)F)c(=O)c1)OCCOC(=O)c1ccc(-c2c3nc(c(-c4ccc(S(=O)(=O)[O-])cc4)c4ccc([nH]4)c(-c4ccc(S(=O)(=O)[O-])cc4)c4nc(c(-c5ccc(S(=O)(=O)[O-])cc5)c5ccc2[nH]5)C=C4)C=C3)cc1
REMARK SMILES IDX 16 1 15 2 14 3 2 4 1 5 3 6 4 7 5 8 13 9 6 10 11 11 7 12
REMARK SMILES IDX 12 13 8 14 9 15 10 16 17 17 18 18 19 19 20 20 21 21 79 22
REMARK SMILES IDX 22 23 78 24 23 25 24 26 25 27 72 28 26 29 77 30 71 31 73 32
REMARK SMILES IDX 27 33 76 34 70 35 69 36 28 38 58 39 39 40 57 41 40 42 43 43
REMARK SMILES IDX 56 44 74 45 41 46 42 47 55 49 75 50 44 51 29 52 30 53 38 54
REMARK SMILES IDX 31 55 37 56 32 57 33 58 34 59 35 60 36 61 59 62 60 63 68 64
REMARK SMILES IDX 61 65 67 66 62 67 63 68 64 69 65 70 66 71 45 72 46 73 54 74
REMARK SMILES IDX 47 75 53 76 48 77 49 78 50 79 51 80 52 81
REMARK H PARENT 73 37 43 48
REMARK Flexibility Score: inf
ROOT
ATOM      1  C   UNL A   1      33.169  28.788  26.463  1.00  0.00     0.275 C 
ENDROOT
BRANCH   1   2
ATOM      2  C   UNL A   1      31.978  27.858  26.711  1.00  0.00     0.274 C 
BRANCH   2   3
ATOM      3  O   UNL A   1      31.840  26.850  25.690  1.00  0.00    -0.462 OA
BRANCH   3   4
ATOM      4  C   UNL A   1      30.689  26.134  25.560  1.00  0.00     0.310 C 
ATOM      5  O   UNL A   1      30.172  25.597  26.536  1.00  0.00    -0.252 OA
BRANCH   4   6
ATOM      6  C   UNL A   1      30.186  25.898  24.144  1.00  0.00     0.158 C 
BRANCH   6   7
ATOM      7  C   UNL A   1      29.521  27.082  23.503  1.00  0.00    -0.030 A 
ATOM      8  C   UNL A   1      30.349  28.076  22.851  1.00  0.00     0.023 A 
ATOM      9  C   UNL A   1      28.207  27.323  23.645  1.00  0.00     0.076 A 
ATOM     10  C   UNL A   1      29.818  29.238  22.450  1.00  0.00     0.095 A 
ATOM     11  C   UNL A   1      27.588  28.574  23.135  1.00  0.00     0.255 A 
ATOM     12  N   UNL A   1      28.466  29.499  22.603  1.00  0.00    -0.258 N 
ATOM     13  O   UNL A   1      26.372  28.697  23.247  1.00  0.00    -0.269 OA
BRANCH  12  14
ATOM     14  C   UNL A   1      27.904  30.751  22.166  1.00  0.00     0.451 C 
ATOM     15  F   UNL A   1      27.317  31.392  23.207  1.00  0.00    -0.185 F 
ATOM     16  F   UNL A   1      28.872  31.565  21.675  1.00  0.00    -0.185 F 
ENDBRANCH  12  14
ENDBRANCH   6   7
ENDBRANCH   4   6
ENDBRANCH   3   4
ENDBRANCH   2   3
ENDBRANCH   1   2
BRANCH   1  17
ATOM     17  O   UNL A   1      33.859  29.066  27.692  1.00  0.00    -0.458 OA
BRANCH  17  18
ATOM     18  C   UNL A   1      34.632  30.184  27.680  1.00  0.00     0.338 C 
ATOM     19  O   UNL A   1      34.254  31.326  27.510  1.00  0.00    -0.246 OA
BRANCH  18  20
ATOM     20  C   UNL A   1      35.996  29.824  28.141  1.00  0.00     0.060 A 
ATOM     21  C   UNL A   1      36.256  29.426  29.457  1.00  0.00     0.016 A 
ATOM     22  C   UNL A   1      37.047  29.958  27.226  1.00  0.00     0.016 A 
ATOM     23  C   UNL A   1      37.571  29.159  29.853  1.00  0.00     0.010 A 
ATOM     24  C   UNL A   1      38.360  29.703  27.626  1.00  0.00     0.010 A 
ATOM     25  C   UNL A   1      38.630  29.296  28.940  1.00  0.00    -0.014 A 
BRANCH  25  26
ATOM     26  C   UNL A   1      40.002  28.880  29.314  1.00  0.00     0.031 A 
ATOM     27  C   UNL A   1      40.550  27.535  28.946  1.00  0.00     0.074 A 
ATOM     28  C   UNL A   1      40.751  29.733  30.035  1.00  0.00     0.049 A 
ATOM     29  N   UNL A   1      41.749  27.058  29.162  1.00  0.00    -0.248 NA
ATOM     30  C   UNL A   1      39.646  26.608  28.250  1.00  0.00     0.031 C 
ATOM     31  C   UNL A   1      40.320  31.066  30.458  1.00  0.00     0.029 A 
ATOM     32  N   UNL A   1      42.020  29.611  30.541  1.00  0.00    -0.354 N 
ATOM     33  C   UNL A   1      41.756  25.782  28.617  1.00  0.00     0.074 A 
ATOM     34  C   UNL A   1      40.427  25.545  28.090  1.00  0.00     0.031 C 
ATOM     35  C   UNL A   1      41.310  31.642  31.153  1.00  0.00     0.029 A 
ATOM     36  C   UNL A   1      42.436  30.713  31.246  1.00  0.00     0.049 A 
ATOM     37  H   UNL A   1      42.579  28.811  30.410  1.00  0.00     0.167 HD
ATOM     38  C   UNL A   1      42.783  24.902  28.554  1.00  0.00     0.031 A 
ATOM     39  C   UNL A   1      43.589  30.960  31.899  1.00  0.00     0.031 A 
ATOM     40  C   UNL A   1      44.095  25.141  29.099  1.00  0.00     0.049 A 
ATOM     41  C   UNL A   1      44.690  29.943  31.877  1.00  0.00     0.074 A 
ATOM     42  C   UNL A   1      45.216  24.333  29.007  1.00  0.00     0.029 A 
ATOM     43  N   UNL A   1      44.460  26.243  29.858  1.00  0.00    -0.354 N 
ATOM     44  N   UNL A   1      44.714  28.781  31.271  1.00  0.00    -0.248 NA
ATOM     45  C   UNL A   1      45.921  30.266  32.610  1.00  0.00     0.031 C 
ATOM     46  C   UNL A   1      46.233  24.906  29.776  1.00  0.00     0.029 A 
ATOM     47  C   UNL A   1      45.771  26.109  30.286  1.00  0.00     0.049 A 
ATOM     48  H   UNL A   1      43.875  27.007  30.062  1.00  0.00     0.167 HD
ATOM     49  C   UNL A   1      45.967  28.240  31.533  1.00  0.00     0.074 A 
ATOM     50  C   UNL A   1      46.675  29.204  32.351  1.00  0.00     0.031 C 
ATOM     51  C   UNL A   1      46.476  27.055  31.120  1.00  0.00     0.031 A 
BRANCH  38  52
ATOM     52  C   UNL A   1      42.549  23.582  27.869  1.00  0.00    -0.014 A 
ATOM     53  C   UNL A   1      41.915  22.537  28.565  1.00  0.00     0.010 A 
ATOM     54  C   UNL A   1      43.068  23.335  26.586  1.00  0.00     0.010 A 
ATOM     55  C   UNL A   1      41.813  21.263  27.997  1.00  0.00     0.020 A 
ATOM     56  C   UNL A   1      42.949  22.069  26.005  1.00  0.00     0.020 A 
ATOM     57  C   UNL A   1      42.336  21.037  26.722  1.00  0.00     0.054 A 
BRANCH  57  58
ATOM     58  S   UNL A   1      42.182  19.387  25.986  1.00  0.00     0.124 S 
ATOM     59  O   UNL A   1      43.017  19.500  24.794  1.00  0.00    -0.237 OA
ATOM     60  O   UNL A   1      42.694  18.516  27.040  1.00  0.00    -0.237 OA
ATOM     61  O   UNL A   1      40.745  19.263  25.739  1.00  0.00    -0.744 OA
ENDBRANCH  57  58
ENDBRANCH  38  52
BRANCH  39  62
ATOM     62  C   UNL A   1      43.737  32.275  32.576  1.00  0.00    -0.014 A 
ATOM     63  C   UNL A   1      43.212  32.468  33.868  1.00  0.00     0.010 A 
ATOM     64  C   UNL A   1      44.241  33.377  31.864  1.00  0.00     0.010 A 
ATOM     65  C   UNL A   1      43.109  33.754  34.402  1.00  0.00     0.020 A 
ATOM     66  C   UNL A   1      44.160  34.662  32.407  1.00  0.00     0.020 A 
ATOM     67  C   UNL A   1      43.558  34.846  33.654  1.00  0.00     0.054 A 
BRANCH  67  68
ATOM     68  S   UNL A   1      43.290  36.516  34.306  1.00  0.00     0.124 S 
ATOM     69  O   UNL A   1      44.468  36.696  35.152  1.00  0.00    -0.237 OA
ATOM     70  O   UNL A   1      43.255  37.331  33.095  1.00  0.00    -0.237 OA
ATOM     71  O   UNL A   1      42.020  36.407  35.019  1.00  0.00    -0.744 OA
ENDBRANCH  67  68
ENDBRANCH  39  62
BRANCH  51  72
ATOM     72  C   UNL A   1      47.873  26.682  31.544  1.00  0.00    -0.014 A 
ATOM     73  C   UNL A   1      48.933  26.781  30.623  1.00  0.00     0.010 A 
ATOM     74  C   UNL A   1      48.106  26.080  32.793  1.00  0.00     0.010 A 
ATOM     75  C   UNL A   1      50.184  26.234  30.918  1.00  0.00     0.020 A 
ATOM     76  C   UNL A   1      49.365  25.555  33.102  1.00  0.00     0.020 A 
ATOM     77  C   UNL A   1      50.386  25.607  32.150  1.00  0.00     0.054 A 
BRANCH  77  78
ATOM     78  S   UNL A   1      51.995  24.835  32.484  1.00  0.00     0.124 S 
ATOM     79  O   UNL A   1      52.187  25.128  33.902  1.00  0.00    -0.237 OA
ATOM     80  O   UNL A   1      51.751  23.431  32.159  1.00  0.00    -0.237 OA
ATOM     81  O   UNL A   1      52.904  25.529  31.576  1.00  0.00    -0.744 OA
ENDBRANCH  77  78
ENDBRANCH  51  72
ENDBRANCH  25  26
ENDBRANCH  18  20
ENDBRANCH  17  18
ENDBRANCH   1  17
TORSDOF 16
ENDMDL
