MODEL 1
REMARK VINA RESULT:     -12.0      0.000      0.000
REMARK SMILES C[C@H]1CN(S(=O)(=O)c2cccc(C(=O)NC3(C(=O)OCCOC(=O)c4ccc(-c5c6nc(c(-c7ccc(S(=O)(=O)[O-])cc7)c7ccc([nH]7)c(-c7ccc(S(=O)(=O)[O-])cc7)c7nc(c(-c8ccc(S(=O)(=O)[O-])cc8)c8ccc5[nH]8)C=C7)C=C6)cc4)CCCCC3)c2)C[C@H](C)O1
REMARK SMILES IDX 20 1 19 2 17 3 18 4 16 5 85 6 89 7 86 8 88 9 87 10 15 11
REMARK SMILES IDX 13 12 14 13 12 15 8 16 9 17 90 18 10 19 11 20 5 21 6 22 7 23
REMARK SMILES IDX 4 24 1 25 2 26 3 27 94 28 92 29 91 30 93 31 21 32 22 33
REMARK SMILES IDX 23 34 24 35 25 36 26 37 84 38 27 39 83 40 28 41 29 42 30 43
REMARK SMILES IDX 77 44 31 45 82 46 76 47 78 48 32 49 81 50 75 51 74 52 33 54
REMARK SMILES IDX 63 55 44 56 62 57 45 58 48 59 61 60 79 61 46 62 47 63 60 65
REMARK SMILES IDX 80 66 49 67 34 68 35 69 43 70 36 71 42 72 37 73 38 74 39 75
REMARK SMILES IDX 40 76 41 77 64 78 65 79 73 80 66 81 72 82 67 83 68 84 69 85
REMARK SMILES IDX 70 86 71 87 50 88 51 89 59 90 52 91 58 92 53 93 54 94 55 95
REMARK SMILES IDX 56 96 57 97
REMARK H PARENT 15 14 78 53 48 64
REMARK Flexibility Score: inf
ROOT
ATOM      1  C   UNL A   1      34.118  29.261  26.754  1.00  0.00     0.274 C 
ENDROOT
BRANCH   1   2
ATOM      2  O   UNL A   1      32.935  29.751  26.073  1.00  0.00    -0.460 OA
BRANCH   2   3
ATOM      3  C   UNL A   1      31.925  28.848  25.968  1.00  0.00     0.331 C 
ATOM      4  O   UNL A   1      31.404  28.316  26.946  1.00  0.00    -0.249 OA
BRANCH   3   5
ATOM      5  C   UNL A   1      31.435  28.583  24.507  1.00  0.00     0.138 C 
ATOM      6  C   UNL A   1      30.579  29.880  24.240  1.00  0.00     0.040 C 
ATOM      7  C   UNL A   1      30.500  27.395  24.251  1.00  0.00     0.040 C 
ATOM      8  C   UNL A   1      29.772  29.913  22.945  1.00  0.00     0.003 C 
ATOM      9  C   UNL A   1      29.852  27.440  22.863  1.00  0.00     0.003 C 
ATOM     10  C   UNL A   1      28.954  28.651  22.744  1.00  0.00     0.000 C 
BRANCH   5  11
ATOM     11  N   UNL A   1      32.570  28.543  23.547  1.00  0.00    -0.336 N 
ATOM     12  C   UNL A   1      33.251  27.622  22.786  1.00  0.00     0.252 C 
ATOM     13  O   UNL A   1      33.994  28.121  21.932  1.00  0.00    -0.269 OA
ATOM     14  H   UNL A   1      32.947  29.443  23.419  1.00  0.00     0.165 HD
BRANCH  12  15
ATOM     15  C   UNL A   1      33.215  26.124  22.857  1.00  0.00     0.041 A 
ATOM     16  C   UNL A   1      33.153  23.946  23.965  1.00  0.00     0.083 A 
ATOM     17  C   UNL A   1      32.958  23.291  22.752  1.00  0.00     0.022 A 
ATOM     18  C   UNL A   1      33.346  25.338  23.997  1.00  0.00     0.035 A 
ATOM     19  C   UNL A   1      32.904  24.044  21.583  1.00  0.00     0.002 A 
ATOM     20  C   UNL A   1      33.008  25.440  21.641  1.00  0.00     0.014 A 
BRANCH  16  21
ATOM     21  S   UNL A   1      33.305  23.003  25.471  1.00  0.00     0.243 S 
ATOM     22  O   UNL A   1      32.509  21.796  25.313  1.00  0.00    -0.207 OA
ATOM     23  O   UNL A   1      33.066  23.894  26.583  1.00  0.00    -0.207 OA
BRANCH  21  24
ATOM     24  N   UNL A   1      34.966  22.510  25.573  1.00  0.00    -0.193 NA
ATOM     25  C   UNL A   1      38.251  24.381  26.465  1.00  0.00     0.040 C 
ATOM     26  C   UNL A   1      37.387  23.178  26.096  1.00  0.00     0.130 C 
ATOM     27  C   UNL A   1      35.882  23.494  26.245  1.00  0.00     0.134 C 
ATOM     28  O   UNL A   1      37.753  22.827  24.759  1.00  0.00    -0.373 OA
ATOM     29  C   UNL A   1      36.958  21.754  24.244  1.00  0.00     0.130 C 
ATOM     30  C   UNL A   1      35.485  22.174  24.201  1.00  0.00     0.134 C 
ATOM     31  C   UNL A   1      37.201  20.450  25.001  1.00  0.00     0.040 C 
ENDBRANCH  21  24
ENDBRANCH  16  21
ENDBRANCH  12  15
ENDBRANCH   5  11
ENDBRANCH   3   5
ENDBRANCH   2   3
ENDBRANCH   1   2
BRANCH   1  32
ATOM     32  C   UNL A   1      34.804  30.345  27.601  1.00  0.00     0.275 C 
BRANCH  32  33
ATOM     33  O   UNL A   1      35.404  29.761  28.770  1.00  0.00    -0.458 OA
BRANCH  33  34
ATOM     34  C   UNL A   1      36.270  30.545  29.455  1.00  0.00     0.338 C 
ATOM     35  O   UNL A   1      35.968  31.488  30.170  1.00  0.00    -0.246 OA
BRANCH  34  36
ATOM     36  C   UNL A   1      37.667  30.056  29.294  1.00  0.00     0.060 A 
ATOM     37  C   UNL A   1      38.531  29.940  30.383  1.00  0.00     0.016 A 
ATOM     38  C   UNL A   1      38.163  29.811  28.010  1.00  0.00     0.016 A 
ATOM     39  C   UNL A   1      39.891  29.698  30.188  1.00  0.00     0.010 A 
ATOM     40  C   UNL A   1      39.508  29.457  27.825  1.00  0.00     0.010 A 
ATOM     41  C   UNL A   1      40.395  29.415  28.912  1.00  0.00    -0.014 A 
BRANCH  41  42
ATOM     42  C   UNL A   1      41.813  28.991  28.736  1.00  0.00     0.031 A 
ATOM     43  C   UNL A   1      42.945  29.986  28.792  1.00  0.00     0.074 A 
ATOM     44  C   UNL A   1      42.076  27.695  28.465  1.00  0.00     0.049 A 
ATOM     45  N   UNL A   1      44.192  29.832  28.420  1.00  0.00    -0.248 NA
ATOM     46  C   UNL A   1      42.641  31.327  29.314  1.00  0.00     0.031 C 
ATOM     47  C   UNL A   1      41.076  26.623  28.397  1.00  0.00     0.029 A 
ATOM     48  N   UNL A   1      43.257  27.056  28.179  1.00  0.00    -0.354 N 
ATOM     49  C   UNL A   1      44.804  31.068  28.601  1.00  0.00     0.074 A 
ATOM     50  C   UNL A   1      43.795  31.960  29.134  1.00  0.00     0.031 C 
ATOM     51  C   UNL A   1      41.683  25.465  28.111  1.00  0.00     0.029 A 
ATOM     52  C   UNL A   1      43.095  25.726  27.867  1.00  0.00     0.049 A 
ATOM     53  H   UNL A   1      44.133  27.505  28.195  1.00  0.00     0.167 HD
ATOM     54  C   UNL A   1      46.086  31.420  28.333  1.00  0.00     0.031 A 
ATOM     55  C   UNL A   1      43.955  24.821  27.367  1.00  0.00     0.031 A 
ATOM     56  C   UNL A   1      47.094  30.505  27.855  1.00  0.00     0.049 A 
ATOM     57  C   UNL A   1      45.360  25.240  27.067  1.00  0.00     0.074 A 
ATOM     58  C   UNL A   1      48.434  30.756  27.607  1.00  0.00     0.029 A 
ATOM     59  N   UNL A   1      46.880  29.168  27.557  1.00  0.00    -0.354 N 
ATOM     60  N   UNL A   1      45.912  26.419  27.219  1.00  0.00    -0.248 NA
ATOM     61  C   UNL A   1      46.254  24.214  26.517  1.00  0.00     0.031 C 
ATOM     62  C   UNL A   1      49.018  29.584  27.116  1.00  0.00     0.029 A 
ATOM     63  C   UNL A   1      48.055  28.590  27.106  1.00  0.00     0.049 A 
ATOM     64  H   UNL A   1      46.020  28.699  27.654  1.00  0.00     0.167 HD
ATOM     65  C   UNL A   1      47.220  26.278  26.780  1.00  0.00     0.074 A 
ATOM     66  C   UNL A   1      47.385  24.893  26.387  1.00  0.00     0.031 C 
ATOM     67  C   UNL A   1      48.197  27.214  26.705  1.00  0.00     0.031 A 
BRANCH  54  68
ATOM     68  C   UNL A   1      46.494  32.862  28.504  1.00  0.00    -0.014 A 
ATOM     69  C   UNL A   1      46.325  33.807  27.478  1.00  0.00     0.010 A 
ATOM     70  C   UNL A   1      46.924  33.303  29.772  1.00  0.00     0.010 A 
ATOM     71  C   UNL A   1      46.581  35.163  27.716  1.00  0.00     0.020 A 
ATOM     72  C   UNL A   1      47.163  34.658  30.018  1.00  0.00     0.020 A 
ATOM     73  C   UNL A   1      46.994  35.581  28.986  1.00  0.00     0.054 A 
BRANCH  73  74
ATOM     74  S   UNL A   1      47.239  37.355  29.290  1.00  0.00     0.124 S 
ATOM     75  O   UNL A   1      45.864  37.839  29.383  1.00  0.00    -0.237 OA
ATOM     76  O   UNL A   1      47.994  37.366  30.540  1.00  0.00    -0.237 OA
ATOM     77  O   UNL A   1      47.980  37.810  28.116  1.00  0.00    -0.744 OA
ENDBRANCH  73  74
ENDBRANCH  54  68
BRANCH  55  78
ATOM     78  C   UNL A   1      43.466  23.456  27.036  1.00  0.00    -0.014 A 
ATOM     79  C   UNL A   1      43.413  23.011  25.705  1.00  0.00     0.010 A 
ATOM     80  C   UNL A   1      43.102  22.573  28.071  1.00  0.00     0.010 A 
ATOM     81  C   UNL A   1      42.999  21.707  25.415  1.00  0.00     0.020 A 
ATOM     82  C   UNL A   1      42.719  21.261  27.787  1.00  0.00     0.020 A 
ATOM     83  C   UNL A   1      42.659  20.839  26.458  1.00  0.00     0.054 A 
BRANCH  83  84
ATOM     84  S   UNL A   1      42.199  19.128  26.072  1.00  0.00     0.124 S 
ATOM     85  O   UNL A   1      43.047  18.840  24.921  1.00  0.00    -0.237 OA
ATOM     86  O   UNL A   1      42.538  18.418  27.303  1.00  0.00    -0.237 OA
ATOM     87  O   UNL A   1      40.768  19.218  25.792  1.00  0.00    -0.744 OA
ENDBRANCH  83  84
ENDBRANCH  55  78
BRANCH  67  88
ATOM     88  C   UNL A   1      49.533  26.755  26.194  1.00  0.00    -0.014 A 
ATOM     89  C   UNL A   1      49.917  26.991  24.862  1.00  0.00     0.010 A 
ATOM     90  C   UNL A   1      50.413  26.080  27.057  1.00  0.00     0.010 A 
ATOM     91  C   UNL A   1      51.144  26.520  24.389  1.00  0.00     0.020 A 
ATOM     92  C   UNL A   1      51.652  25.629  26.595  1.00  0.00     0.020 A 
ATOM     93  C   UNL A   1      52.001  25.835  25.258  1.00  0.00     0.054 A 
BRANCH  93  94
ATOM     94  S   UNL A   1      53.592  25.237  24.628  1.00  0.00     0.124 S 
ATOM     95  O   UNL A   1      53.528  23.813  24.940  1.00  0.00    -0.237 OA
ATOM     96  O   UNL A   1      53.524  25.574  23.208  1.00  0.00    -0.237 OA
ATOM     97  O   UNL A   1      54.575  25.999  25.395  1.00  0.00    -0.744 OA
ENDBRANCH  93  94
ENDBRANCH  67  88
ENDBRANCH  41  42
ENDBRANCH  34  36
ENDBRANCH  33  34
ENDBRANCH  32  33
ENDBRANCH   1  32
TORSDOF 18
ENDMDL
MODEL 2
REMARK VINA RESULT:     -11.4      1.312      2.162
REMARK SMILES C[C@H]1CN(S(=O)(=O)c2cccc(C(=O)NC3(C(=O)OCCOC(=O)c4ccc(-c5c6nc(c(-c7ccc(S(=O)(=O)[O-])cc7)c7ccc([nH]7)c(-c7ccc(S(=O)(=O)[O-])cc7)c7nc(c(-c8ccc(S(=O)(=O)[O-])cc8)c8ccc5[nH]8)C=C7)C=C6)cc4)CCCCC3)c2)C[C@H](C)O1
REMARK SMILES IDX 20 1 19 2 17 3 18 4 16 5 85 6 89 7 86 8 88 9 87 10 15 11
REMARK SMILES IDX 13 12 14 13 12 15 8 16 9 17 90 18 10 19 11 20 5 21 6 22 7 23
REMARK SMILES IDX 4 24 1 25 2 26 3 27 94 28 92 29 91 30 93 31 21 32 22 33
REMARK SMILES IDX 23 34 24 35 25 36 26 37 84 38 27 39 83 40 28 41 29 42 30 43
REMARK SMILES IDX 77 44 31 45 82 46 76 47 78 48 32 49 81 50 75 51 74 52 33 54
REMARK SMILES IDX 63 55 44 56 62 57 45 58 48 59 61 60 79 61 46 62 47 63 60 65
REMARK SMILES IDX 80 66 49 67 34 68 35 69 43 70 36 71 42 72 37 73 38 74 39 75
REMARK SMILES IDX 40 76 41 77 64 78 65 79 73 80 66 81 72 82 67 83 68 84 69 85
REMARK SMILES IDX 70 86 71 87 50 88 51 89 59 90 52 91 58 92 53 93 54 94 55 95
REMARK SMILES IDX 56 96 57 97
REMARK H PARENT 15 14 78 53 48 64
REMARK Flexibility Score: inf
ROOT
ATOM      1  C   UNL A   1      33.316  31.089  27.164  1.00  0.00     0.274 C 
ENDROOT
BRANCH   1   2
ATOM      2  O   UNL A   1      32.088  30.981  26.400  1.00  0.00    -0.460 OA
BRANCH   2   3
ATOM      3  C   UNL A   1      31.626  29.714  26.242  1.00  0.00     0.331 C 
ATOM      4  O   UNL A   1      31.508  28.927  27.180  1.00  0.00    -0.249 OA
BRANCH   3   5
ATOM      5  C   UNL A   1      31.199  29.350  24.783  1.00  0.00     0.138 C 
ATOM      6  C   UNL A   1      30.252  30.563  24.438  1.00  0.00     0.040 C 
ATOM      7  C   UNL A   1      30.367  28.082  24.556  1.00  0.00     0.040 C 
ATOM      8  C   UNL A   1      29.481  30.478  23.124  1.00  0.00     0.003 C 
ATOM      9  C   UNL A   1      29.756  28.018  23.152  1.00  0.00     0.003 C 
ATOM     10  C   UNL A   1      28.770  29.148  22.958  1.00  0.00     0.000 C 
BRANCH   5  11
ATOM     11  N   UNL A   1      32.360  29.360  23.853  1.00  0.00    -0.336 N 
ATOM     12  C   UNL A   1      33.321  28.494  23.387  1.00  0.00     0.252 C 
ATOM     13  O   UNL A   1      33.948  28.912  22.407  1.00  0.00    -0.269 OA
ATOM     14  H   UNL A   1      32.476  30.251  23.453  1.00  0.00     0.165 HD
BRANCH  12  15
ATOM     15  C   UNL A   1      33.704  27.139  23.905  1.00  0.00     0.041 A 
ATOM     16  C   UNL A   1      34.267  24.766  23.738  1.00  0.00     0.083 A 
ATOM     17  C   UNL A   1      34.615  24.714  25.086  1.00  0.00     0.022 A 
ATOM     18  C   UNL A   1      33.755  25.951  23.183  1.00  0.00     0.035 A 
ATOM     19  C   UNL A   1      34.497  25.868  25.856  1.00  0.00     0.002 A 
ATOM     20  C   UNL A   1      34.070  27.065  25.265  1.00  0.00     0.014 A 
BRANCH  16  21
ATOM     21  S   UNL A   1      34.333  23.286  22.745  1.00  0.00     0.243 S 
ATOM     22  O   UNL A   1      35.702  22.797  22.781  1.00  0.00    -0.207 OA
ATOM     23  O   UNL A   1      33.692  23.567  21.482  1.00  0.00    -0.207 OA
BRANCH  21  24
ATOM     24  N   UNL A   1      33.347  22.110  23.556  1.00  0.00    -0.193 NA
ATOM     25  C   UNL A   1      30.510  22.374  26.195  1.00  0.00     0.040 C 
ATOM     26  C   UNL A   1      31.447  21.665  25.221  1.00  0.00     0.130 C 
ATOM     27  C   UNL A   1      32.161  22.670  24.288  1.00  0.00     0.134 C 
ATOM     28  O   UNL A   1      32.356  20.913  26.029  1.00  0.00    -0.373 OA
ATOM     29  C   UNL A   1      33.356  20.253  25.246  1.00  0.00     0.130 C 
ATOM     30  C   UNL A   1      34.194  21.291  24.492  1.00  0.00     0.134 C 
ATOM     31  C   UNL A   1      32.756  19.178  24.343  1.00  0.00     0.040 C 
ENDBRANCH  21  24
ENDBRANCH  16  21
ENDBRANCH  12  15
ENDBRANCH   5  11
ENDBRANCH   3   5
ENDBRANCH   2   3
ENDBRANCH   1   2
BRANCH   1  32
ATOM     32  C   UNL A   1      33.962  29.723  27.441  1.00  0.00     0.275 C 
BRANCH  32  33
ATOM     33  O   UNL A   1      35.395  29.834  27.417  1.00  0.00    -0.458 OA
BRANCH  33  34
ATOM     34  C   UNL A   1      35.998  30.082  28.605  1.00  0.00     0.338 C 
ATOM     35  O   UNL A   1      35.462  30.561  29.591  1.00  0.00    -0.246 OA
BRANCH  34  36
ATOM     36  C   UNL A   1      37.411  29.611  28.589  1.00  0.00     0.060 A 
ATOM     37  C   UNL A   1      38.054  29.191  29.753  1.00  0.00     0.016 A 
ATOM     38  C   UNL A   1      38.147  29.693  27.404  1.00  0.00     0.016 A 
ATOM     39  C   UNL A   1      39.431  28.969  29.763  1.00  0.00     0.010 A 
ATOM     40  C   UNL A   1      39.510  29.360  27.391  1.00  0.00     0.010 A 
ATOM     41  C   UNL A   1      40.175  29.013  28.577  1.00  0.00    -0.014 A 
BRANCH  41  42
ATOM     42  C   UNL A   1      41.609  28.608  28.568  1.00  0.00     0.031 A 
ATOM     43  C   UNL A   1      42.713  29.617  28.756  1.00  0.00     0.074 A 
ATOM     44  C   UNL A   1      41.919  27.316  28.331  1.00  0.00     0.049 A 
ATOM     45  N   UNL A   1      43.997  29.481  28.533  1.00  0.00    -0.248 NA
ATOM     46  C   UNL A   1      42.332  30.954  29.238  1.00  0.00     0.031 C 
ATOM     47  C   UNL A   1      40.949  26.231  28.147  1.00  0.00     0.029 A 
ATOM     48  N   UNL A   1      43.134  26.692  28.185  1.00  0.00    -0.354 N 
ATOM     49  C   UNL A   1      44.567  30.725  28.782  1.00  0.00     0.074 A 
ATOM     50  C   UNL A   1      43.491  31.602  29.194  1.00  0.00     0.031 C 
ATOM     51  C   UNL A   1      41.601  25.081  27.934  1.00  0.00     0.029 A 
ATOM     52  C   UNL A   1      43.028  25.361  27.857  1.00  0.00     0.049 A 
ATOM     53  H   UNL A   1      43.996  27.154  28.304  1.00  0.00     0.167 HD
ATOM     54  C   UNL A   1      45.866  31.095  28.666  1.00  0.00     0.031 A 
ATOM     55  C   UNL A   1      43.953  24.468  27.461  1.00  0.00     0.031 A 
ATOM     56  C   UNL A   1      46.936  30.194  28.310  1.00  0.00     0.049 A 
ATOM     57  C   UNL A   1      45.377  24.906  27.328  1.00  0.00     0.074 A 
ATOM     58  C   UNL A   1      48.292  30.463  28.220  1.00  0.00     0.029 A 
ATOM     59  N   UNL A   1      46.776  28.854  27.990  1.00  0.00    -0.354 N 
ATOM     60  N   UNL A   1      45.892  26.093  27.542  1.00  0.00    -0.248 NA
ATOM     61  C   UNL A   1      46.343  23.893  26.886  1.00  0.00     0.031 C 
ATOM     62  C   UNL A   1      48.946  29.300  27.801  1.00  0.00     0.029 A 
ATOM     63  C   UNL A   1      48.004  28.292  27.679  1.00  0.00     0.049 A 
ATOM     64  H   UNL A   1      45.917  28.373  27.986  1.00  0.00     0.167 HD
ATOM     65  C   UNL A   1      47.244  25.970  27.260  1.00  0.00     0.074 A 
ATOM     66  C   UNL A   1      47.473  24.587  26.889  1.00  0.00     0.031 C 
ATOM     67  C   UNL A   1      48.210  26.919  27.298  1.00  0.00     0.031 A 
BRANCH  54  68
ATOM     68  C   UNL A   1      46.232  32.542  28.883  1.00  0.00    -0.014 A 
ATOM     69  C   UNL A   1      46.652  33.020  30.136  1.00  0.00     0.010 A 
ATOM     70  C   UNL A   1      46.291  33.405  27.770  1.00  0.00     0.010 A 
ATOM     71  C   UNL A   1      47.120  34.332  30.272  1.00  0.00     0.020 A 
ATOM     72  C   UNL A   1      46.774  34.710  27.899  1.00  0.00     0.020 A 
ATOM     73  C   UNL A   1      47.183  35.168  29.151  1.00  0.00     0.054 A 
BRANCH  73  74
ATOM     74  S   UNL A   1      47.871  36.839  29.339  1.00  0.00     0.124 S 
ATOM     75  O   UNL A   1      47.848  37.331  27.964  1.00  0.00    -0.237 OA
ATOM     76  O   UNL A   1      46.926  37.477  30.251  1.00  0.00    -0.237 OA
ATOM     77  O   UNL A   1      49.203  36.606  29.893  1.00  0.00    -0.744 OA
ENDBRANCH  73  74
ENDBRANCH  54  68
BRANCH  55  78
ATOM     78  C   UNL A   1      43.524  23.097  27.076  1.00  0.00    -0.014 A 
ATOM     79  C   UNL A   1      43.906  22.540  25.845  1.00  0.00     0.010 A 
ATOM     80  C   UNL A   1      42.771  22.320  27.978  1.00  0.00     0.010 A 
ATOM     81  C   UNL A   1      43.537  21.231  25.520  1.00  0.00     0.020 A 
ATOM     82  C   UNL A   1      42.430  21.002  27.671  1.00  0.00     0.020 A 
ATOM     83  C   UNL A   1      42.806  20.469  26.436  1.00  0.00     0.054 A 
BRANCH  83  84
ATOM     84  S   UNL A   1      42.402  18.747  26.034  1.00  0.00     0.124 S 
ATOM     85  O   UNL A   1      42.743  18.060  27.273  1.00  0.00    -0.237 OA
ATOM     86  O   UNL A   1      40.977  18.817  25.718  1.00  0.00    -0.237 OA
ATOM     87  O   UNL A   1      43.267  18.455  24.893  1.00  0.00    -0.744 OA
ENDBRANCH  83  84
ENDBRANCH  55  78
BRANCH  67  88
ATOM     88  C   UNL A   1      49.603  26.478  26.947  1.00  0.00    -0.014 A 
ATOM     89  C   UNL A   1      50.502  26.062  27.945  1.00  0.00     0.010 A 
ATOM     90  C   UNL A   1      50.016  26.481  25.604  1.00  0.00     0.010 A 
ATOM     91  C   UNL A   1      51.807  25.697  27.608  1.00  0.00     0.020 A 
ATOM     92  C   UNL A   1      51.312  26.093  25.260  1.00  0.00     0.020 A 
ATOM     93  C   UNL A   1      52.206  25.722  26.267  1.00  0.00     0.054 A 
BRANCH  93  94
ATOM     94  S   UNL A   1      53.902  25.237  25.849  1.00  0.00     0.124 S 
ATOM     95  O   UNL A   1      53.702  23.927  25.238  1.00  0.00    -0.237 OA
ATOM     96  O   UNL A   1      54.326  26.298  24.938  1.00  0.00    -0.237 OA
ATOM     97  O   UNL A   1      54.586  25.224  27.140  1.00  0.00    -0.744 OA
ENDBRANCH  93  94
ENDBRANCH  67  88
ENDBRANCH  41  42
ENDBRANCH  34  36
ENDBRANCH  33  34
ENDBRANCH  32  33
ENDBRANCH   1  32
TORSDOF 18
ENDMDL
MODEL 3
REMARK VINA RESULT:     -11.2      2.387      8.653
REMARK SMILES C[C@H]1CN(S(=O)(=O)c2cccc(C(=O)NC3(C(=O)OCCOC(=O)c4ccc(-c5c6nc(c(-c7ccc(S(=O)(=O)[O-])cc7)c7ccc([nH]7)c(-c7ccc(S(=O)(=O)[O-])cc7)c7nc(c(-c8ccc(S(=O)(=O)[O-])cc8)c8ccc5[nH]8)C=C7)C=C6)cc4)CCCCC3)c2)C[C@H](C)O1
REMARK SMILES IDX 20 1 19 2 17 3 18 4 16 5 85 6 89 7 86 8 88 9 87 10 15 11
REMARK SMILES IDX 13 12 14 13 12 15 8 16 9 17 90 18 10 19 11 20 5 21 6 22 7 23
REMARK SMILES IDX 4 24 1 25 2 26 3 27 94 28 92 29 91 30 93 31 21 32 22 33
REMARK SMILES IDX 23 34 24 35 25 36 26 37 84 38 27 39 83 40 28 41 29 42 30 43
REMARK SMILES IDX 77 44 31 45 82 46 76 47 78 48 32 49 81 50 75 51 74 52 33 54
REMARK SMILES IDX 63 55 44 56 62 57 45 58 48 59 61 60 79 61 46 62 47 63 60 65
REMARK SMILES IDX 80 66 49 67 34 68 35 69 43 70 36 71 42 72 37 73 38 74 39 75
REMARK SMILES IDX 40 76 41 77 64 78 65 79 73 80 66 81 72 82 67 83 68 84 69 85
REMARK SMILES IDX 70 86 71 87 50 88 51 89 59 90 52 91 58 92 53 93 54 94 55 95
REMARK SMILES IDX 56 96 57 97
REMARK H PARENT 15 14 78 53 48 64
REMARK Flexibility Score: inf
ROOT
ATOM      1  C   UNL A   1      37.495  22.552  25.144  1.00  0.00     0.274 C 
ENDROOT
BRANCH   1   2
ATOM      2  O   UNL A   1      36.286  22.821  25.899  1.00  0.00    -0.460 OA
BRANCH   2   3
ATOM      3  C   UNL A   1      35.239  23.264  25.156  1.00  0.00     0.331 C 
ATOM      4  O   UNL A   1      35.045  24.455  24.922  1.00  0.00    -0.249 OA
BRANCH   3   5
ATOM      5  C   UNL A   1      34.332  22.134  24.568  1.00  0.00     0.138 C 
ATOM      6  C   UNL A   1      33.027  22.320  25.431  1.00  0.00     0.040 C 
ATOM      7  C   UNL A   1      34.763  20.674  24.755  1.00  0.00     0.040 C 
ATOM      8  C   UNL A   1      31.940  21.261  25.267  1.00  0.00     0.003 C 
ATOM      9  C   UNL A   1      33.647  19.679  24.421  1.00  0.00     0.003 C 
ATOM     10  C   UNL A   1      32.489  19.850  25.379  1.00  0.00     0.000 C 
BRANCH   5  11
ATOM     11  N   UNL A   1      34.009  22.380  23.137  1.00  0.00    -0.336 N 
ATOM     12  C   UNL A   1      33.331  23.299  22.371  1.00  0.00     0.252 C 
ATOM     13  O   UNL A   1      33.551  23.208  21.157  1.00  0.00    -0.269 OA
ATOM     14  H   UNL A   1      34.394  21.675  22.569  1.00  0.00     0.165 HD
BRANCH  12  15
ATOM     15  C   UNL A   1      32.375  24.370  22.805  1.00  0.00     0.041 A 
ATOM     16  C   UNL A   1      31.584  26.664  23.105  1.00  0.00     0.083 A 
ATOM     17  C   UNL A   1      30.336  26.218  23.535  1.00  0.00     0.022 A 
ATOM     18  C   UNL A   1      32.604  25.742  22.812  1.00  0.00     0.035 A 
ATOM     19  C   UNL A   1      30.103  24.848  23.616  1.00  0.00     0.002 A 
ATOM     20  C   UNL A   1      31.101  23.943  23.234  1.00  0.00     0.014 A 
BRANCH  16  21
ATOM     21  S   UNL A   1      31.939  28.411  23.065  1.00  0.00     0.243 S 
ATOM     22  O   UNL A   1      30.751  29.087  22.568  1.00  0.00    -0.207 OA
ATOM     23  O   UNL A   1      33.211  28.594  22.406  1.00  0.00    -0.207 OA
BRANCH  21  24
ATOM     24  N   UNL A   1      32.156  28.903  24.716  1.00  0.00    -0.193 NA
ATOM     25  C   UNL A   1      31.282  32.147  26.665  1.00  0.00     0.040 C 
ATOM     26  C   UNL A   1      31.800  30.723  26.489  1.00  0.00     0.130 C 
ATOM     27  C   UNL A   1      31.400  30.139  25.115  1.00  0.00     0.134 C 
ATOM     28  O   UNL A   1      33.216  30.794  26.673  1.00  0.00    -0.373 OA
ATOM     29  C   UNL A   1      33.855  29.532  26.454  1.00  0.00     0.130 C 
ATOM     30  C   UNL A   1      33.622  29.075  25.010  1.00  0.00     0.134 C 
ATOM     31  C   UNL A   1      33.443  28.496  27.498  1.00  0.00     0.040 C 
ENDBRANCH  21  24
ENDBRANCH  16  21
ENDBRANCH  12  15
ENDBRANCH   5  11
ENDBRANCH   3   5
ENDBRANCH   2   3
ENDBRANCH   1   2
BRANCH   1  32
ATOM     32  C   UNL A   1      38.295  21.368  25.712  1.00  0.00     0.275 C 
BRANCH  32  33
ATOM     33  O   UNL A   1      39.700  21.672  25.720  1.00  0.00    -0.458 OA
BRANCH  33  34
ATOM     34  C   UNL A   1      40.334  21.547  26.911  1.00  0.00     0.338 C 
ATOM     35  O   UNL A   1      40.440  20.517  27.558  1.00  0.00    -0.246 OA
BRANCH  34  36
ATOM     36  C   UNL A   1      40.975  22.832  27.306  1.00  0.00     0.060 A 
ATOM     37  C   UNL A   1      41.776  22.929  28.443  1.00  0.00     0.016 A 
ATOM     38  C   UNL A   1      40.682  23.993  26.586  1.00  0.00     0.016 A 
ATOM     39  C   UNL A   1      42.182  24.175  28.922  1.00  0.00     0.010 A 
ATOM     40  C   UNL A   1      41.185  25.234  27.006  1.00  0.00     0.010 A 
ATOM     41  C   UNL A   1      41.926  25.343  28.193  1.00  0.00    -0.014 A 
BRANCH  41  42
ATOM     42  C   UNL A   1      42.509  26.646  28.622  1.00  0.00     0.031 A 
ATOM     43  C   UNL A   1      41.640  27.765  29.137  1.00  0.00     0.074 A 
ATOM     44  C   UNL A   1      43.838  26.839  28.492  1.00  0.00     0.049 A 
ATOM     45  N   UNL A   1      41.947  29.027  29.316  1.00  0.00    -0.248 NA
ATOM     46  C   UNL A   1      40.247  27.438  29.479  1.00  0.00     0.031 C 
ATOM     47  C   UNL A   1      44.799  25.834  28.021  1.00  0.00     0.029 A 
ATOM     48  N   UNL A   1      44.615  27.947  28.723  1.00  0.00    -0.354 N 
ATOM     49  C   UNL A   1      40.775  29.655  29.727  1.00  0.00     0.074 A 
ATOM     50  C   UNL A   1      39.753  28.631  29.790  1.00  0.00     0.031 C 
ATOM     51  C   UNL A   1      46.029  26.362  28.018  1.00  0.00     0.029 A 
ATOM     52  C   UNL A   1      45.935  27.769  28.379  1.00  0.00     0.049 A 
ATOM     53  H   UNL A   1      44.262  28.786  29.099  1.00  0.00     0.167 HD
ATOM     54  C   UNL A   1      40.577  30.965  30.013  1.00  0.00     0.031 A 
ATOM     55  C   UNL A   1      46.953  28.643  28.285  1.00  0.00     0.031 A 
ATOM     56  C   UNL A   1      41.620  31.963  30.000  1.00  0.00     0.049 A 
ATOM     57  C   UNL A   1      46.704  30.086  28.593  1.00  0.00     0.074 A 
ATOM     58  C   UNL A   1      41.528  33.306  30.328  1.00  0.00     0.029 A 
ATOM     59  N   UNL A   1      42.941  31.731  29.647  1.00  0.00    -0.354 N 
ATOM     60  N   UNL A   1      45.584  30.665  28.953  1.00  0.00    -0.248 NA
ATOM     61  C   UNL A   1      47.849  30.997  28.467  1.00  0.00     0.031 C 
ATOM     62  C   UNL A   1      42.781  33.895  30.129  1.00  0.00     0.029 A 
ATOM     63  C   UNL A   1      43.666  32.909  29.726  1.00  0.00     0.049 A 
ATOM     64  H   UNL A   1      43.309  30.858  29.382  1.00  0.00     0.167 HD
ATOM     65  C   UNL A   1      45.889  32.010  29.097  1.00  0.00     0.074 A 
ATOM     66  C   UNL A   1      47.303  32.154  28.814  1.00  0.00     0.031 C 
ATOM     67  C   UNL A   1      45.069  33.037  29.428  1.00  0.00     0.031 A 
BRANCH  54  68
ATOM     68  C   UNL A   1      39.181  31.437  30.330  1.00  0.00    -0.014 A 
ATOM     69  C   UNL A   1      38.757  31.661  31.651  1.00  0.00     0.010 A 
ATOM     70  C   UNL A   1      38.326  31.799  29.270  1.00  0.00     0.010 A 
ATOM     71  C   UNL A   1      37.505  32.234  31.905  1.00  0.00     0.020 A 
ATOM     72  C   UNL A   1      37.082  32.387  29.518  1.00  0.00     0.020 A 
ATOM     73  C   UNL A   1      36.677  32.598  30.837  1.00  0.00     0.054 A 
BRANCH  73  74
ATOM     74  S   UNL A   1      35.093  33.414  31.191  1.00  0.00     0.124 S 
ATOM     75  O   UNL A   1      34.665  33.834  29.860  1.00  0.00    -0.237 OA
ATOM     76  O   UNL A   1      34.306  32.342  31.795  1.00  0.00    -0.237 OA
ATOM     77  O   UNL A   1      35.457  34.500  32.098  1.00  0.00    -0.744 OA
ENDBRANCH  73  74
ENDBRANCH  54  68
BRANCH  55  78
ATOM     78  C   UNL A   1      48.274  28.173  27.789  1.00  0.00    -0.014 A 
ATOM     79  C   UNL A   1      49.254  27.705  28.678  1.00  0.00     0.010 A 
ATOM     80  C   UNL A   1      48.531  28.144  26.404  1.00  0.00     0.010 A 
ATOM     81  C   UNL A   1      50.472  27.219  28.190  1.00  0.00     0.020 A 
ATOM     82  C   UNL A   1      49.732  27.629  25.913  1.00  0.00     0.020 A 
ATOM     83  C   UNL A   1      50.701  27.180  26.811  1.00  0.00     0.054 A 
BRANCH  83  84
ATOM     84  S   UNL A   1      52.253  26.476  26.190  1.00  0.00     0.124 S 
ATOM     85  O   UNL A   1      52.070  25.055  26.463  1.00  0.00    -0.237 OA
ATOM     86  O   UNL A   1      52.237  26.858  24.780  1.00  0.00    -0.237 OA
ATOM     87  O   UNL A   1      53.273  27.145  26.995  1.00  0.00    -0.744 OA
ENDBRANCH  83  84
ENDBRANCH  55  78
BRANCH  67  88
ATOM     88  C   UNL A   1      45.696  34.399  29.518  1.00  0.00    -0.014 A 
ATOM     89  C   UNL A   1      45.647  35.290  28.432  1.00  0.00     0.010 A 
ATOM     90  C   UNL A   1      46.340  34.790  30.705  1.00  0.00     0.010 A 
ATOM     91  C   UNL A   1      46.272  36.536  28.516  1.00  0.00     0.020 A 
ATOM     92  C   UNL A   1      46.945  36.045  30.802  1.00  0.00     0.020 A 
ATOM     93  C   UNL A   1      46.924  36.903  29.699  1.00  0.00     0.054 A 
BRANCH  93  94
ATOM     94  S   UNL A   1      47.723  38.527  29.791  1.00  0.00     0.124 S 
ATOM     95  O   UNL A   1      48.183  38.562  31.176  1.00  0.00    -0.237 OA
ATOM     96  O   UNL A   1      48.775  38.428  28.782  1.00  0.00    -0.237 OA
ATOM     97  O   UNL A   1      46.646  39.461  29.469  1.00  0.00    -0.744 OA
ENDBRANCH  93  94
ENDBRANCH  67  88
ENDBRANCH  41  42
ENDBRANCH  34  36
ENDBRANCH  33  34
ENDBRANCH  32  33
ENDBRANCH   1  32
TORSDOF 18
ENDMDL
