MODEL 1
REMARK VINA RESULT:     -10.2      0.000      0.000
REMARK SMILES C[C@@H](C(=O)OCCOC(=O)c1ccc(-c2c3nc(c(-c4ccc(S(=O)(=O)[O-])cc4)c4ccc([nH]4)c(-c4ccc(S(=O)(=O)[O-])cc4)c4nc(c(-c5ccc(S(=O)(=O)[O-])cc5)c5ccc2[nH]5)C=C4)C=C3)cc1)c1ccc(C[C@@H]2CCC[C@@H]2O)cc1F
REMARK SMILES IDX 6 1 5 2 3 3 4 4 2 5 1 6 71 7 72 8 83 9 73 10 82 11 84 12
REMARK SMILES IDX 74 13 75 14 76 15 77 16 80 17 78 18 79 19 81 20 7 22 8 23
REMARK SMILES IDX 9 24 10 25 11 26 12 27 70 28 13 29 69 30 14 31 15 32 16 33
REMARK SMILES IDX 63 34 17 35 68 36 62 37 64 38 18 39 67 40 61 41 60 42 19 44
REMARK SMILES IDX 49 45 30 46 48 47 31 48 34 49 47 50 65 51 32 52 33 53 46 55
REMARK SMILES IDX 66 56 35 57 20 58 21 59 29 60 22 61 28 62 23 63 24 64 25 65
REMARK SMILES IDX 26 66 27 67 50 68 51 69 59 70 52 71 58 72 53 73 54 74 55 75
REMARK SMILES IDX 56 76 57 77 36 78 37 79 45 80 38 81 44 82 39 83 40 84 41 85
REMARK SMILES IDX 42 86 43 87
REMARK H PARENT 81 21 64 43 34 54
REMARK Flexibility Score: inf
ROOT
ATOM      1  C   UNL A   1      31.803  30.374  25.700  1.00  0.00     0.274 C 
ENDROOT
BRANCH   1   2
ATOM      2  O   UNL A   1      31.460  29.100  25.121  1.00  0.00    -0.462 OA
BRANCH   2   3
ATOM      3  C   UNL A   1      31.960  28.854  23.878  1.00  0.00     0.313 C 
ATOM      4  O   UNL A   1      31.339  29.044  22.839  1.00  0.00    -0.252 OA
BRANCH   3   5
ATOM      5  C   UNL A   1      33.417  28.387  23.928  1.00  0.00     0.129 C 
ATOM      6  C   UNL A   1      34.187  28.864  22.689  1.00  0.00     0.025 C 
BRANCH   5   7
ATOM      7  C   UNL A   1      33.589  26.892  24.151  1.00  0.00     0.002 A 
ATOM      8  C   UNL A   1      33.481  25.962  23.116  1.00  0.00     0.008 A 
ATOM      9  C   UNL A   1      33.891  26.393  25.422  1.00  0.00     0.127 A 
ATOM     10  C   UNL A   1      33.718  24.602  23.341  1.00  0.00     0.004 A 
ATOM     11  C   UNL A   1      34.115  25.031  25.654  1.00  0.00     0.043 A 
ATOM     12  F   UNL A   1      33.979  27.236  26.462  1.00  0.00    -0.207 F 
ATOM     13  C   UNL A   1      34.031  24.105  24.606  1.00  0.00    -0.045 A 
BRANCH  13  14
ATOM     14  C   UNL A   1      34.365  22.646  24.837  1.00  0.00     0.041 C 
BRANCH  14  15
ATOM     15  C   UNL A   1      33.365  21.698  25.542  1.00  0.00     0.022 C 
ATOM     16  C   UNL A   1      31.888  22.092  25.441  1.00  0.00     0.007 C 
ATOM     17  C   UNL A   1      33.559  21.432  27.036  1.00  0.00     0.117 C 
ATOM     18  C   UNL A   1      31.459  22.601  26.821  1.00  0.00     0.003 C 
ATOM     19  C   UNL A   1      32.670  22.453  27.733  1.00  0.00     0.032 C 
BRANCH  17  20
ATOM     20  O   UNL A   1      34.906  21.502  27.460  1.00  0.00    -0.393 OA
ATOM     21  H   UNL A   1      35.220  20.612  27.688  1.00  0.00     0.210 HD
ENDBRANCH  17  20
ENDBRANCH  14  15
ENDBRANCH  13  14
ENDBRANCH   5   7
ENDBRANCH   3   5
ENDBRANCH   2   3
ENDBRANCH   1   2
BRANCH   1  22
ATOM     22  C   UNL A   1      32.413  30.125  27.077  1.00  0.00     0.275 C 
BRANCH  22  23
ATOM     23  O   UNL A   1      33.842  30.266  26.957  1.00  0.00    -0.458 OA
BRANCH  23  24
ATOM     24  C   UNL A   1      34.422  31.285  27.631  1.00  0.00     0.338 C 
ATOM     25  O   UNL A   1      33.963  32.411  27.787  1.00  0.00    -0.246 OA
BRANCH  24  26
ATOM     26  C   UNL A   1      35.726  30.841  28.182  1.00  0.00     0.060 A 
ATOM     27  C   UNL A   1      35.899  29.529  28.615  1.00  0.00     0.016 A 
ATOM     28  C   UNL A   1      36.772  31.754  28.344  1.00  0.00     0.016 A 
ATOM     29  C   UNL A   1      37.066  29.163  29.287  1.00  0.00     0.010 A 
ATOM     30  C   UNL A   1      37.978  31.352  28.945  1.00  0.00     0.010 A 
ATOM     31  C   UNL A   1      38.127  30.059  29.475  1.00  0.00    -0.014 A 
BRANCH  31  32
ATOM     32  C   UNL A   1      39.305  29.653  30.313  1.00  0.00     0.031 A 
ATOM     33  C   UNL A   1      40.376  28.750  29.739  1.00  0.00     0.074 A 
ATOM     34  C   UNL A   1      39.504  30.170  31.547  1.00  0.00     0.049 A 
ATOM     35  N   UNL A   1      41.397  28.197  30.347  1.00  0.00    -0.248 NA
ATOM     36  C   UNL A   1      40.283  28.406  28.310  1.00  0.00     0.031 C 
ATOM     37  C   UNL A   1      38.614  31.109  32.233  1.00  0.00     0.029 A 
ATOM     38  N   UNL A   1      40.570  30.053  32.410  1.00  0.00    -0.354 N 
ATOM     39  C   UNL A   1      41.974  27.336  29.418  1.00  0.00     0.074 A 
ATOM     40  C   UNL A   1      41.237  27.493  28.184  1.00  0.00     0.031 C 
ATOM     41  C   UNL A   1      39.249  31.620  33.300  1.00  0.00     0.029 A 
ATOM     42  C   UNL A   1      40.536  30.949  33.456  1.00  0.00     0.049 A 
ATOM     43  H   UNL A   1      41.289  29.391  32.290  1.00  0.00     0.167 HD
ATOM     44  C   UNL A   1      42.995  26.463  29.596  1.00  0.00     0.031 A 
ATOM     45  C   UNL A   1      41.438  31.206  34.426  1.00  0.00     0.031 A 
ATOM     46  C   UNL A   1      43.788  26.378  30.793  1.00  0.00     0.049 A 
ATOM     47  C   UNL A   1      42.638  30.308  34.561  1.00  0.00     0.074 A 
ATOM     48  C   UNL A   1      44.782  25.469  31.111  1.00  0.00     0.029 A 
ATOM     49  N   UNL A   1      43.710  27.270  31.848  1.00  0.00    -0.354 N 
ATOM     50  N   UNL A   1      43.054  29.363  33.755  1.00  0.00    -0.248 NA
ATOM     51  C   UNL A   1      43.449  30.467  35.778  1.00  0.00     0.031 C 
ATOM     52  C   UNL A   1      45.290  25.800  32.375  1.00  0.00     0.029 A 
ATOM     53  C   UNL A   1      44.639  26.939  32.819  1.00  0.00     0.049 A 
ATOM     54  H   UNL A   1      43.085  28.030  31.901  1.00  0.00     0.167 HD
ATOM     55  C   UNL A   1      44.140  28.777  34.396  1.00  0.00     0.074 A 
ATOM     56  C   UNL A   1      44.369  29.527  35.613  1.00  0.00     0.031 C 
ATOM     57  C   UNL A   1      44.849  27.680  34.033  1.00  0.00     0.031 A 
BRANCH  44  58
ATOM     58  C   UNL A   1      43.229  25.442  28.516  1.00  0.00    -0.014 A 
ATOM     59  C   UNL A   1      44.150  25.636  27.476  1.00  0.00     0.010 A 
ATOM     60  C   UNL A   1      42.504  24.234  28.576  1.00  0.00     0.010 A 
ATOM     61  C   UNL A   1      44.317  24.653  26.493  1.00  0.00     0.020 A 
ATOM     62  C   UNL A   1      42.685  23.242  27.611  1.00  0.00     0.020 A 
ATOM     63  C   UNL A   1      43.578  23.466  26.563  1.00  0.00     0.054 A 
BRANCH  63  64
ATOM     64  S   UNL A   1      43.813  22.200  25.285  1.00  0.00     0.124 S 
ATOM     65  O   UNL A   1      45.149  21.702  25.599  1.00  0.00    -0.237 OA
ATOM     66  O   UNL A   1      42.718  21.269  25.546  1.00  0.00    -0.237 OA
ATOM     67  O   UNL A   1      43.704  22.946  24.034  1.00  0.00    -0.744 OA
ENDBRANCH  63  64
ENDBRANCH  44  58
BRANCH  45  68
ATOM     68  C   UNL A   1      41.248  32.344  35.373  1.00  0.00    -0.014 A 
ATOM     69  C   UNL A   1      41.602  33.647  34.972  1.00  0.00     0.010 A 
ATOM     70  C   UNL A   1      40.741  32.147  36.668  1.00  0.00     0.010 A 
ATOM     71  C   UNL A   1      41.461  34.727  35.850  1.00  0.00     0.020 A 
ATOM     72  C   UNL A   1      40.565  33.228  37.537  1.00  0.00     0.020 A 
ATOM     73  C   UNL A   1      40.941  34.510  37.127  1.00  0.00     0.054 A 
BRANCH  73  74
ATOM     74  S   UNL A   1      40.701  35.919  38.246  1.00  0.00     0.124 S 
ATOM     75  O   UNL A   1      42.075  36.325  38.519  1.00  0.00    -0.237 OA
ATOM     76  O   UNL A   1      39.914  36.847  37.437  1.00  0.00    -0.237 OA
ATOM     77  O   UNL A   1      39.982  35.327  39.373  1.00  0.00    -0.744 OA
ENDBRANCH  73  74
ENDBRANCH  45  68
BRANCH  57  78
ATOM     78  C   UNL A   1      45.903  27.191  34.987  1.00  0.00    -0.014 A 
ATOM     79  C   UNL A   1      47.220  27.678  34.895  1.00  0.00     0.010 A 
ATOM     80  C   UNL A   1      45.571  26.295  36.017  1.00  0.00     0.010 A 
ATOM     81  C   UNL A   1      48.194  27.257  35.803  1.00  0.00     0.020 A 
ATOM     82  C   UNL A   1      46.541  25.887  36.938  1.00  0.00     0.020 A 
ATOM     83  C   UNL A   1      47.849  26.362  36.818  1.00  0.00     0.054 A 
BRANCH  83  84
ATOM     84  S   UNL A   1      49.120  25.868  38.014  1.00  0.00     0.124 S 
ATOM     85  O   UNL A   1      49.486  27.147  38.615  1.00  0.00    -0.237 OA
ATOM     86  O   UNL A   1      48.399  24.946  38.889  1.00  0.00    -0.237 OA
ATOM     87  O   UNL A   1      50.153  25.250  37.185  1.00  0.00    -0.744 OA
ENDBRANCH  83  84
ENDBRANCH  57  78
ENDBRANCH  31  32
ENDBRANCH  24  26
ENDBRANCH  23  24
ENDBRANCH  22  23
ENDBRANCH   1  22
TORSDOF 18
ENDMDL
MODEL 2
REMARK VINA RESULT:     -10.2      4.769      7.480
REMARK SMILES C[C@@H](C(=O)OCCOC(=O)c1ccc(-c2c3nc(c(-c4ccc(S(=O)(=O)[O-])cc4)c4ccc([nH]4)c(-c4ccc(S(=O)(=O)[O-])cc4)c4nc(c(-c5ccc(S(=O)(=O)[O-])cc5)c5ccc2[nH]5)C=C4)C=C3)cc1)c1ccc(C[C@@H]2CCC[C@@H]2O)cc1F
REMARK SMILES IDX 6 1 5 2 3 3 4 4 2 5 1 6 71 7 72 8 83 9 73 10 82 11 84 12
REMARK SMILES IDX 74 13 75 14 76 15 77 16 80 17 78 18 79 19 81 20 7 22 8 23
REMARK SMILES IDX 9 24 10 25 11 26 12 27 70 28 13 29 69 30 14 31 15 32 16 33
REMARK SMILES IDX 63 34 17 35 68 36 62 37 64 38 18 39 67 40 61 41 60 42 19 44
REMARK SMILES IDX 49 45 30 46 48 47 31 48 34 49 47 50 65 51 32 52 33 53 46 55
REMARK SMILES IDX 66 56 35 57 20 58 21 59 29 60 22 61 28 62 23 63 24 64 25 65
REMARK SMILES IDX 26 66 27 67 50 68 51 69 59 70 52 71 58 72 53 73 54 74 55 75
REMARK SMILES IDX 56 76 57 77 36 78 37 79 45 80 38 81 44 82 39 83 40 84 41 85
REMARK SMILES IDX 42 86 43 87
REMARK H PARENT 81 21 64 43 34 54
REMARK Flexibility Score: inf
ROOT
ATOM      1  C   UNL A   1      36.010  21.426  25.731  1.00  0.00     0.274 C 
ENDROOT
BRANCH   1   2
ATOM      2  O   UNL A   1      34.975  21.434  24.730  1.00  0.00    -0.462 OA
BRANCH   2   3
ATOM      3  C   UNL A   1      33.694  21.406  25.193  1.00  0.00     0.313 C 
ATOM      4  O   UNL A   1      33.326  20.736  26.150  1.00  0.00    -0.252 OA
BRANCH   3   5
ATOM      5  C   UNL A   1      32.786  22.373  24.429  1.00  0.00     0.129 C 
ATOM      6  C   UNL A   1      33.226  22.493  22.963  1.00  0.00     0.025 C 
BRANCH   5   7
ATOM      7  C   UNL A   1      32.635  23.739  25.080  1.00  0.00     0.002 A 
ATOM      8  C   UNL A   1      33.683  24.658  25.146  1.00  0.00     0.008 A 
ATOM      9  C   UNL A   1      31.408  24.136  25.623  1.00  0.00     0.127 A 
ATOM     10  C   UNL A   1      33.490  25.934  25.686  1.00  0.00     0.004 A 
ATOM     11  C   UNL A   1      31.216  25.407  26.176  1.00  0.00     0.043 A 
ATOM     12  F   UNL A   1      30.372  23.284  25.613  1.00  0.00    -0.207 F 
ATOM     13  C   UNL A   1      32.265  26.334  26.217  1.00  0.00    -0.045 A 
BRANCH  13  14
ATOM     14  C   UNL A   1      32.031  27.741  26.730  1.00  0.00     0.041 C 
BRANCH  14  15
ATOM     15  C   UNL A   1      31.741  28.909  25.757  1.00  0.00     0.022 C 
ATOM     16  C   UNL A   1      30.920  28.554  24.514  1.00  0.00     0.007 C 
ATOM     17  C   UNL A   1      32.932  29.680  25.186  1.00  0.00     0.117 C 
ATOM     18  C   UNL A   1      31.875  28.581  23.317  1.00  0.00     0.003 C 
ATOM     19  C   UNL A   1      33.235  29.002  23.856  1.00  0.00     0.032 C 
BRANCH  17  20
ATOM     20  O   UNL A   1      34.054  29.721  26.045  1.00  0.00    -0.393 OA
ATOM     21  H   UNL A   1      34.394  30.629  26.092  1.00  0.00     0.210 HD
ENDBRANCH  17  20
ENDBRANCH  14  15
ENDBRANCH  13  14
ENDBRANCH   5   7
ENDBRANCH   3   5
ENDBRANCH   2   3
ENDBRANCH   1   2
BRANCH   1  22
ATOM     22  C   UNL A   1      37.334  21.090  25.048  1.00  0.00     0.275 C 
BRANCH  22  23
ATOM     23  O   UNL A   1      38.255  22.163  25.321  1.00  0.00    -0.458 OA
BRANCH  23  24
ATOM     24  C   UNL A   1      39.334  21.874  26.084  1.00  0.00     0.338 C 
ATOM     25  O   UNL A   1      39.882  20.783  26.186  1.00  0.00    -0.246 OA
BRANCH  24  26
ATOM     26  C   UNL A   1      39.783  23.096  26.795  1.00  0.00     0.060 A 
ATOM     27  C   UNL A   1      39.216  24.333  26.502  1.00  0.00     0.016 A 
ATOM     28  C   UNL A   1      40.835  23.032  27.714  1.00  0.00     0.016 A 
ATOM     29  C   UNL A   1      39.758  25.498  27.046  1.00  0.00     0.010 A 
ATOM     30  C   UNL A   1      41.318  24.203  28.324  1.00  0.00     0.010 A 
ATOM     31  C   UNL A   1      40.820  25.466  27.960  1.00  0.00    -0.014 A 
BRANCH  31  32
ATOM     32  C   UNL A   1      41.447  26.752  28.418  1.00  0.00     0.031 A 
ATOM     33  C   UNL A   1      42.868  27.092  28.024  1.00  0.00     0.074 A 
ATOM     34  C   UNL A   1      40.731  27.685  29.087  1.00  0.00     0.049 A 
ATOM     35  N   UNL A   1      43.615  28.092  28.424  1.00  0.00    -0.248 NA
ATOM     36  C   UNL A   1      43.547  26.191  27.078  1.00  0.00     0.031 C 
ATOM     37  C   UNL A   1      39.329  27.559  29.490  1.00  0.00     0.029 A 
ATOM     38  N   UNL A   1      41.058  28.968  29.464  1.00  0.00    -0.354 N 
ATOM     39  C   UNL A   1      44.881  27.859  27.897  1.00  0.00     0.074 A 
ATOM     40  C   UNL A   1      44.786  26.664  27.088  1.00  0.00     0.031 C 
ATOM     41  C   UNL A   1      38.871  28.762  29.876  1.00  0.00     0.029 A 
ATOM     42  C   UNL A   1      39.976  29.715  29.878  1.00  0.00     0.049 A 
ATOM     43  H   UNL A   1      41.977  29.319  29.439  1.00  0.00     0.167 HD
ATOM     44  C   UNL A   1      46.025  28.553  28.108  1.00  0.00     0.031 A 
ATOM     45  C   UNL A   1      39.882  31.018  30.216  1.00  0.00     0.031 A 
ATOM     46  C   UNL A   1      46.097  29.794  28.832  1.00  0.00     0.049 A 
ATOM     47  C   UNL A   1      41.143  31.830  30.342  1.00  0.00     0.074 A 
ATOM     48  C   UNL A   1      47.216  30.530  29.182  1.00  0.00     0.029 A 
ATOM     49  N   UNL A   1      44.996  30.509  29.271  1.00  0.00    -0.354 N 
ATOM     50  N   UNL A   1      42.369  31.506  30.011  1.00  0.00    -0.248 NA
ATOM     51  C   UNL A   1      41.014  33.160  30.958  1.00  0.00     0.031 C 
ATOM     52  C   UNL A   1      46.790  31.681  29.857  1.00  0.00     0.029 A 
ATOM     53  C   UNL A   1      45.405  31.679  29.887  1.00  0.00     0.049 A 
ATOM     54  H   UNL A   1      44.058  30.226  29.162  1.00  0.00     0.167 HD
ATOM     55  C   UNL A   1      43.163  32.568  30.431  1.00  0.00     0.074 A 
ATOM     56  C   UNL A   1      42.272  33.578  30.962  1.00  0.00     0.031 C 
ATOM     57  C   UNL A   1      44.514  32.671  30.425  1.00  0.00     0.031 A 
BRANCH  44  58
ATOM     58  C   UNL A   1      47.313  27.919  27.657  1.00  0.00    -0.014 A 
ATOM     59  C   UNL A   1      47.958  26.909  28.388  1.00  0.00     0.010 A 
ATOM     60  C   UNL A   1      47.872  28.347  26.437  1.00  0.00     0.010 A 
ATOM     61  C   UNL A   1      49.161  26.364  27.922  1.00  0.00     0.020 A 
ATOM     62  C   UNL A   1      49.058  27.790  25.957  1.00  0.00     0.020 A 
ATOM     63  C   UNL A   1      49.707  26.814  26.714  1.00  0.00     0.054 A 
BRANCH  63  64
ATOM     64  S   UNL A   1      51.262  26.090  26.122  1.00  0.00     0.124 S 
ATOM     65  O   UNL A   1      52.243  27.068  26.585  1.00  0.00    -0.237 OA
ATOM     66  O   UNL A   1      51.296  24.797  26.801  1.00  0.00    -0.237 OA
ATOM     67  O   UNL A   1      51.084  26.024  24.674  1.00  0.00    -0.744 OA
ENDBRANCH  63  64
ENDBRANCH  44  58
BRANCH  45  68
ATOM     68  C   UNL A   1      38.559  31.650  30.488  1.00  0.00    -0.014 A 
ATOM     69  C   UNL A   1      37.937  32.417  29.484  1.00  0.00     0.010 A 
ATOM     70  C   UNL A   1      37.921  31.516  31.732  1.00  0.00     0.010 A 
ATOM     71  C   UNL A   1      36.709  33.044  29.723  1.00  0.00     0.020 A 
ATOM     72  C   UNL A   1      36.677  32.111  31.964  1.00  0.00     0.020 A 
ATOM     73  C   UNL A   1      36.086  32.885  30.962  1.00  0.00     0.054 A 
BRANCH  73  74
ATOM     74  S   UNL A   1      34.464  33.647  31.252  1.00  0.00     0.124 S 
ATOM     75  O   UNL A   1      33.879  33.628  29.915  1.00  0.00    -0.237 OA
ATOM     76  O   UNL A   1      33.851  32.748  32.226  1.00  0.00    -0.237 OA
ATOM     77  O   UNL A   1      34.809  34.970  31.770  1.00  0.00    -0.744 OA
ENDBRANCH  73  74
ENDBRANCH  45  68
BRANCH  57  78
ATOM     78  C   UNL A   1      45.116  33.893  31.061  1.00  0.00    -0.014 A 
ATOM     79  C   UNL A   1      45.570  33.846  32.391  1.00  0.00     0.010 A 
ATOM     80  C   UNL A   1      45.290  35.071  30.316  1.00  0.00     0.010 A 
ATOM     81  C   UNL A   1      46.165  34.966  32.976  1.00  0.00     0.020 A 
ATOM     82  C   UNL A   1      45.903  36.188  30.892  1.00  0.00     0.020 A 
ATOM     83  C   UNL A   1      46.326  36.131  32.223  1.00  0.00     0.054 A 
BRANCH  83  84
ATOM     84  S   UNL A   1      47.147  37.557  32.988  1.00  0.00     0.124 S 
ATOM     85  O   UNL A   1      48.329  36.943  33.585  1.00  0.00    -0.237 OA
ATOM     86  O   UNL A   1      47.402  38.432  31.846  1.00  0.00    -0.237 OA
ATOM     87  O   UNL A   1      46.156  38.057  33.938  1.00  0.00    -0.744 OA
ENDBRANCH  83  84
ENDBRANCH  57  78
ENDBRANCH  31  32
ENDBRANCH  24  26
ENDBRANCH  23  24
ENDBRANCH  22  23
ENDBRANCH   1  22
TORSDOF 18
ENDMDL
MODEL 3
REMARK VINA RESULT:     -10.2      5.400      9.785
REMARK SMILES C[C@@H](C(=O)OCCOC(=O)c1ccc(-c2c3nc(c(-c4ccc(S(=O)(=O)[O-])cc4)c4ccc([nH]4)c(-c4ccc(S(=O)(=O)[O-])cc4)c4nc(c(-c5ccc(S(=O)(=O)[O-])cc5)c5ccc2[nH]5)C=C4)C=C3)cc1)c1ccc(C[C@@H]2CCC[C@@H]2O)cc1F
REMARK SMILES IDX 6 1 5 2 3 3 4 4 2 5 1 6 71 7 72 8 83 9 73 10 82 11 84 12
REMARK SMILES IDX 74 13 75 14 76 15 77 16 80 17 78 18 79 19 81 20 7 22 8 23
REMARK SMILES IDX 9 24 10 25 11 26 12 27 70 28 13 29 69 30 14 31 15 32 16 33
REMARK SMILES IDX 63 34 17 35 68 36 62 37 64 38 18 39 67 40 61 41 60 42 19 44
REMARK SMILES IDX 49 45 30 46 48 47 31 48 34 49 47 50 65 51 32 52 33 53 46 55
REMARK SMILES IDX 66 56 35 57 20 58 21 59 29 60 22 61 28 62 23 63 24 64 25 65
REMARK SMILES IDX 26 66 27 67 50 68 51 69 59 70 52 71 58 72 53 73 54 74 55 75
REMARK SMILES IDX 56 76 57 77 36 78 37 79 45 80 38 81 44 82 39 83 40 84 41 85
REMARK SMILES IDX 42 86 43 87
REMARK H PARENT 81 21 64 43 34 54
REMARK Flexibility Score: inf
ROOT
ATOM      1  C   UNL A   1      33.422  31.280  27.563  1.00  0.00     0.274 C 
ENDROOT
BRANCH   1   2
ATOM      2  O   UNL A   1      33.284  30.306  26.512  1.00  0.00    -0.462 OA
BRANCH   2   3
ATOM      3  C   UNL A   1      32.095  30.306  25.847  1.00  0.00     0.313 C 
ATOM      4  O   UNL A   1      31.200  31.119  26.045  1.00  0.00    -0.252 OA
BRANCH   3   5
ATOM      5  C   UNL A   1      32.039  29.220  24.770  1.00  0.00     0.129 C 
ATOM      6  C   UNL A   1      30.665  29.196  24.088  1.00  0.00     0.025 C 
BRANCH   5   7
ATOM      7  C   UNL A   1      32.448  27.836  25.253  1.00  0.00     0.002 A 
ATOM      8  C   UNL A   1      31.648  27.073  26.104  1.00  0.00     0.008 A 
ATOM      9  C   UNL A   1      33.651  27.262  24.829  1.00  0.00     0.127 A 
ATOM     10  C   UNL A   1      32.019  25.775  26.470  1.00  0.00     0.004 A 
ATOM     11  C   UNL A   1      34.031  25.968  25.204  1.00  0.00     0.043 A 
ATOM     12  F   UNL A   1      34.474  27.960  24.032  1.00  0.00    -0.207 F 
ATOM     13  C   UNL A   1      33.212  25.198  26.039  1.00  0.00    -0.045 A 
BRANCH  13  14
ATOM     14  C   UNL A   1      33.578  23.765  26.369  1.00  0.00     0.041 C 
BRANCH  14  15
ATOM     15  C   UNL A   1      33.779  22.713  25.251  1.00  0.00     0.022 C 
ATOM     16  C   UNL A   1      32.515  22.293  24.495  1.00  0.00     0.007 C 
ATOM     17  C   UNL A   1      34.425  21.379  25.630  1.00  0.00     0.117 C 
ATOM     18  C   UNL A   1      32.166  20.872  24.947  1.00  0.00     0.003 C 
ATOM     19  C   UNL A   1      33.255  20.449  25.925  1.00  0.00     0.032 C 
BRANCH  17  20
ATOM     20  O   UNL A   1      35.336  21.467  26.707  1.00  0.00    -0.393 OA
ATOM     21  H   UNL A   1      35.887  20.668  26.732  1.00  0.00     0.210 HD
ENDBRANCH  17  20
ENDBRANCH  14  15
ENDBRANCH  13  14
ENDBRANCH   5   7
ENDBRANCH   3   5
ENDBRANCH   2   3
ENDBRANCH   1   2
BRANCH   1  22
ATOM     22  C   UNL A   1      34.902  31.395  27.919  1.00  0.00     0.275 C 
BRANCH  22  23
ATOM     23  O   UNL A   1      35.421  30.061  28.077  1.00  0.00    -0.458 OA
BRANCH  23  24
ATOM     24  C   UNL A   1      36.064  29.780  29.234  1.00  0.00     0.338 C 
ATOM     25  O   UNL A   1      35.548  29.619  30.334  1.00  0.00    -0.246 OA
BRANCH  24  26
ATOM     26  C   UNL A   1      37.523  29.680  28.982  1.00  0.00     0.060 A 
ATOM     27  C   UNL A   1      38.018  29.694  27.681  1.00  0.00     0.016 A 
ATOM     28  C   UNL A   1      38.411  29.493  30.045  1.00  0.00     0.016 A 
ATOM     29  C   UNL A   1      39.366  29.429  27.443  1.00  0.00     0.010 A 
ATOM     30  C   UNL A   1      39.784  29.313  29.800  1.00  0.00     0.010 A 
ATOM     31  C   UNL A   1      40.279  29.227  28.487  1.00  0.00    -0.014 A 
BRANCH  31  32
ATOM     32  C   UNL A   1      41.691  28.821  28.174  1.00  0.00     0.031 A 
ATOM     33  C   UNL A   1      42.850  29.698  28.598  1.00  0.00     0.074 A 
ATOM     34  C   UNL A   1      41.972  27.620  27.618  1.00  0.00     0.049 A 
ATOM     35  N   UNL A   1      44.122  29.574  28.310  1.00  0.00    -0.248 NA
ATOM     36  C   UNL A   1      42.546  30.872  29.433  1.00  0.00     0.031 C 
ATOM     37  C   UNL A   1      40.987  26.617  27.209  1.00  0.00     0.029 A 
ATOM     38  N   UNL A   1      43.177  26.997  27.387  1.00  0.00    -0.354 N 
ATOM     39  C   UNL A   1      44.739  30.720  28.802  1.00  0.00     0.074 A 
ATOM     40  C   UNL A   1      43.717  31.493  29.471  1.00  0.00     0.031 C 
ATOM     41  C   UNL A   1      41.616  25.455  26.963  1.00  0.00     0.029 A 
ATOM     42  C   UNL A   1      43.057  25.662  27.064  1.00  0.00     0.049 A 
ATOM     43  H   UNL A   1      44.043  27.460  27.447  1.00  0.00     0.167 HD
ATOM     44  C   UNL A   1      46.029  31.110  28.665  1.00  0.00     0.031 A 
ATOM     45  C   UNL A   1      43.997  24.713  26.875  1.00  0.00     0.031 A 
ATOM     46  C   UNL A   1      47.064  30.296  28.085  1.00  0.00     0.049 A 
ATOM     47  C   UNL A   1      45.445  25.120  26.836  1.00  0.00     0.074 A 
ATOM     48  C   UNL A   1      48.380  30.629  27.815  1.00  0.00     0.029 A 
ATOM     49  N   UNL A   1      46.909  28.966  27.734  1.00  0.00    -0.354 N 
ATOM     50  N   UNL A   1      45.983  26.280  27.123  1.00  0.00    -0.248 NA
ATOM     51  C   UNL A   1      46.404  24.105  26.375  1.00  0.00     0.031 C 
ATOM     52  C   UNL A   1      49.015  29.502  27.277  1.00  0.00     0.029 A 
ATOM     53  C   UNL A   1      48.103  28.460  27.253  1.00  0.00     0.049 A 
ATOM     54  H   UNL A   1      46.070  28.454  27.815  1.00  0.00     0.167 HD
ATOM     55  C   UNL A   1      47.335  26.150  26.822  1.00  0.00     0.074 A 
ATOM     56  C   UNL A   1      47.547  24.777  26.412  1.00  0.00     0.031 C 
ATOM     57  C   UNL A   1      48.302  27.099  26.833  1.00  0.00     0.031 A 
BRANCH  44  58
ATOM     58  C   UNL A   1      46.367  32.528  29.036  1.00  0.00    -0.014 A 
ATOM     59  C   UNL A   1      46.872  32.883  30.297  1.00  0.00     0.010 A 
ATOM     60  C   UNL A   1      46.188  33.530  28.061  1.00  0.00     0.010 A 
ATOM     61  C   UNL A   1      47.158  34.222  30.587  1.00  0.00     0.020 A 
ATOM     62  C   UNL A   1      46.494  34.863  28.338  1.00  0.00     0.020 A 
ATOM     63  C   UNL A   1      46.960  35.204  29.609  1.00  0.00     0.054 A 
BRANCH  63  64
ATOM     64  S   UNL A   1      47.345  36.933  30.000  1.00  0.00     0.124 S 
ATOM     65  O   UNL A   1      46.193  37.320  30.810  1.00  0.00    -0.237 OA
ATOM     66  O   UNL A   1      48.612  36.829  30.720  1.00  0.00    -0.237 OA
ATOM     67  O   UNL A   1      47.429  37.575  28.691  1.00  0.00    -0.744 OA
ENDBRANCH  63  64
ENDBRANCH  44  58
BRANCH  45  68
ATOM     68  C   UNL A   1      43.619  23.283  26.682  1.00  0.00    -0.014 A 
ATOM     69  C   UNL A   1      43.017  22.575  27.740  1.00  0.00     0.010 A 
ATOM     70  C   UNL A   1      43.868  22.613  25.472  1.00  0.00     0.010 A 
ATOM     71  C   UNL A   1      42.679  21.225  27.594  1.00  0.00     0.020 A 
ATOM     72  C   UNL A   1      43.500  21.274  25.310  1.00  0.00     0.020 A 
ATOM     73  C   UNL A   1      42.921  20.584  26.379  1.00  0.00     0.054 A 
BRANCH  73  74
ATOM     74  S   UNL A   1      42.428  18.850  26.168  1.00  0.00     0.124 S 
ATOM     75  O   UNL A   1      42.604  18.321  27.517  1.00  0.00    -0.237 OA
ATOM     76  O   UNL A   1      41.047  18.957  25.705  1.00  0.00    -0.237 OA
ATOM     77  O   UNL A   1      43.374  18.356  25.169  1.00  0.00    -0.744 OA
ENDBRANCH  73  74
ENDBRANCH  45  68
BRANCH  57  78
ATOM     78  C   UNL A   1      49.664  26.703  26.337  1.00  0.00    -0.014 A 
ATOM     79  C   UNL A   1      50.559  26.032  27.190  1.00  0.00     0.010 A 
ATOM     80  C   UNL A   1      50.035  26.942  25.003  1.00  0.00     0.010 A 
ATOM     81  C   UNL A   1      51.812  25.627  26.724  1.00  0.00     0.020 A 
ATOM     82  C   UNL A   1      51.281  26.521  24.528  1.00  0.00     0.020 A 
ATOM     83  C   UNL A   1      52.166  25.876  25.396  1.00  0.00     0.054 A 
BRANCH  83  84
ATOM     84  S   UNL A   1      53.779  25.298  24.801  1.00  0.00     0.124 S 
ATOM     85  O   UNL A   1      53.598  23.849  24.793  1.00  0.00    -0.237 OA
ATOM     86  O   UNL A   1      53.881  25.925  23.485  1.00  0.00    -0.237 OA
ATOM     87  O   UNL A   1      54.718  25.804  25.799  1.00  0.00    -0.744 OA
ENDBRANCH  83  84
ENDBRANCH  57  78
ENDBRANCH  31  32
ENDBRANCH  24  26
ENDBRANCH  23  24
ENDBRANCH  22  23
ENDBRANCH   1  22
TORSDOF 18
ENDMDL
