MODEL 1
REMARK VINA RESULT:     -10.2      0.000      0.000
REMARK SMILES O=C(CNC(=O)c1cccs1)N[C@@H]1C=C[C@H](C(=O)OCCOC(=O)c2ccc(-c3c4nc(c(-c5ccc(S(=O)(=O)[O-])cc5)c5ccc([nH]5)c(-c5ccc(S(=O)(=O)[O-])cc5)c5nc(c(-c6ccc(S(=O)(=O)[O-])cc6)c6ccc3[nH]6)C=C5)C=C4)cc2)C1
REMARK SMILES IDX 20 1 19 2 17 3 18 4 16 5 13 6 14 7 85 8 15 9 12 10 1 11 2 12
REMARK SMILES IDX 3 14 4 15 5 16 6 18 7 19 8 20 11 21 9 22 10 23 21 24 22 25
REMARK SMILES IDX 23 26 24 27 25 28 26 29 84 30 27 31 83 32 28 33 29 34 30 35
REMARK SMILES IDX 77 36 31 37 82 38 76 39 78 40 32 41 81 42 75 43 74 44 33 46
REMARK SMILES IDX 63 47 44 48 62 49 45 50 48 51 61 52 79 53 46 54 47 55 60 57
REMARK SMILES IDX 80 58 49 59 34 60 35 61 43 62 36 63 42 64 37 65 38 66 39 67
REMARK SMILES IDX 40 68 41 69 64 70 65 71 73 72 66 73 72 74 67 75 68 76 69 77
REMARK SMILES IDX 70 78 71 79 50 80 51 81 59 82 52 83 58 84 53 85 54 86 55 87
REMARK SMILES IDX 56 88 57 89
REMARK H PARENT 12 13 4 17 78 45 48 56
REMARK Flexibility Score: inf
ROOT
ATOM      1  C   UNL A   1      33.631  28.990  24.902  1.00  0.00     0.274 C 
ENDROOT
BRANCH   1   2
ATOM      2  O   UNL A   1      32.890  29.189  23.690  1.00  0.00    -0.462 OA
BRANCH   2   3
ATOM      3  C   UNL A   1      32.069  28.153  23.343  1.00  0.00     0.312 C 
ATOM      4  O   UNL A   1      32.290  27.377  22.418  1.00  0.00    -0.252 OA
BRANCH   3   5
ATOM      5  C   UNL A   1      30.786  28.161  24.183  1.00  0.00     0.124 C 
ATOM      6  C   UNL A   1      29.649  26.006  24.582  1.00  0.00     0.106 C 
ATOM      7  C   UNL A   1      28.923  26.830  23.577  1.00  0.00    -0.006 C 
ATOM      8  C   UNL A   1      30.666  26.987  25.166  1.00  0.00     0.048 C 
ATOM      9  C   UNL A   1      29.535  28.001  23.359  1.00  0.00    -0.014 C 
BRANCH   6  10
ATOM     10  N   UNL A   1      30.157  24.790  23.973  1.00  0.00    -0.348 N 
ATOM     11  O   UNL A   1      30.837  23.587  25.805  1.00  0.00    -0.273 OA
ATOM     12  C   UNL A   1      30.788  23.738  24.591  1.00  0.00     0.239 C 
ATOM     13  H   UNL A   1      30.033  24.709  22.999  1.00  0.00     0.164 HD
BRANCH  12  14
ATOM     14  C   UNL A   1      31.461  22.729  23.653  1.00  0.00     0.216 C 
BRANCH  14  15
ATOM     15  N   UNL A   1      32.559  23.244  22.854  1.00  0.00    -0.342 N 
ATOM     16  C   UNL A   1      33.883  23.351  23.243  1.00  0.00     0.261 C 
ATOM     17  H   UNL A   1      32.338  23.548  21.945  1.00  0.00     0.164 HD
ATOM     18  O   UNL A   1      34.709  23.796  22.449  1.00  0.00    -0.268 OA
BRANCH  16  19
ATOM     19  C   UNL A   1      34.210  22.898  24.574  1.00  0.00     0.092 A 
ATOM     20  C   UNL A   1      34.329  23.649  25.726  1.00  0.00     0.025 A 
ATOM     21  S   UNL A   1      34.503  21.244  24.873  1.00  0.00    -0.139 S 
ATOM     22  C   UNL A   1      34.906  22.904  26.787  1.00  0.00     0.012 A 
ATOM     23  C   UNL A   1      35.103  21.588  26.438  1.00  0.00     0.065 A 
ENDBRANCH  16  19
ENDBRANCH  14  15
ENDBRANCH  12  14
ENDBRANCH   6  10
ENDBRANCH   3   5
ENDBRANCH   2   3
ENDBRANCH   1   2
BRANCH   1  24
ATOM     24  C   UNL A   1      33.070  29.890  26.010  1.00  0.00     0.275 C 
BRANCH  24  25
ATOM     25  O   UNL A   1      33.666  29.588  27.293  1.00  0.00    -0.458 OA
BRANCH  25  26
ATOM     26  C   UNL A   1      34.347  30.607  27.892  1.00  0.00     0.338 C 
ATOM     27  O   UNL A   1      33.926  31.692  28.217  1.00  0.00    -0.246 OA
BRANCH  26  28
ATOM     28  C   UNL A   1      35.700  30.109  28.230  1.00  0.00     0.060 A 
ATOM     29  C   UNL A   1      36.662  30.049  27.218  1.00  0.00     0.016 A 
ATOM     30  C   UNL A   1      36.039  29.739  29.528  1.00  0.00     0.016 A 
ATOM     31  C   UNL A   1      38.004  29.778  27.520  1.00  0.00     0.010 A 
ATOM     32  C   UNL A   1      37.375  29.418  29.817  1.00  0.00     0.010 A 
ATOM     33  C   UNL A   1      38.382  29.493  28.833  1.00  0.00    -0.014 A 
BRANCH  33  34
ATOM     34  C   UNL A   1      39.766  29.043  29.160  1.00  0.00     0.031 A 
ATOM     35  C   UNL A   1      40.712  30.096  29.656  1.00  0.00     0.074 A 
ATOM     36  C   UNL A   1      40.207  27.773  29.021  1.00  0.00     0.049 A 
ATOM     37  N   UNL A   1      42.005  30.037  29.816  1.00  0.00    -0.248 NA
ATOM     38  C   UNL A   1      40.108  31.391  30.016  1.00  0.00     0.031 C 
ATOM     39  C   UNL A   1      39.407  26.627  28.612  1.00  0.00     0.029 A 
ATOM     40  N   UNL A   1      41.469  27.237  29.168  1.00  0.00    -0.354 N 
ATOM     41  C   UNL A   1      42.371  31.286  30.293  1.00  0.00     0.074 A 
ATOM     42  C   UNL A   1      41.176  32.099  30.343  1.00  0.00     0.031 C 
ATOM     43  C   UNL A   1      40.189  25.540  28.479  1.00  0.00     0.029 A 
ATOM     44  C   UNL A   1      41.567  25.924  28.747  1.00  0.00     0.049 A 
ATOM     45  H   UNL A   1      42.228  27.742  29.539  1.00  0.00     0.167 HD
ATOM     46  C   UNL A   1      43.591  31.716  30.685  1.00  0.00     0.031 A 
ATOM     47  C   UNL A   1      42.650  25.150  28.525  1.00  0.00     0.031 A 
ATOM     48  C   UNL A   1      44.779  30.918  30.638  1.00  0.00     0.049 A 
ATOM     49  C   UNL A   1      44.017  25.704  28.802  1.00  0.00     0.074 A 
ATOM     50  C   UNL A   1      46.052  31.245  31.067  1.00  0.00     0.029 A 
ATOM     51  N   UNL A   1      44.842  29.633  30.126  1.00  0.00    -0.354 N 
ATOM     52  N   UNL A   1      44.353  26.906  29.197  1.00  0.00    -0.248 NA
ATOM     53  C   UNL A   1      45.150  24.783  28.615  1.00  0.00     0.031 C 
ATOM     54  C   UNL A   1      46.897  30.166  30.782  1.00  0.00     0.029 A 
ATOM     55  C   UNL A   1      46.135  29.154  30.222  1.00  0.00     0.049 A 
ATOM     56  H   UNL A   1      44.081  29.136  29.749  1.00  0.00     0.167 HD
ATOM     57  C   UNL A   1      45.734  26.875  29.345  1.00  0.00     0.074 A 
ATOM     58  C   UNL A   1      46.174  25.550  28.960  1.00  0.00     0.031 C 
ATOM     59  C   UNL A   1      46.557  27.845  29.804  1.00  0.00     0.031 A 
BRANCH  46  60
ATOM     60  C   UNL A   1      43.672  33.119  31.205  1.00  0.00    -0.014 A 
ATOM     61  C   UNL A   1      43.911  34.192  30.327  1.00  0.00     0.010 A 
ATOM     62  C   UNL A   1      43.528  33.366  32.580  1.00  0.00     0.010 A 
ATOM     63  C   UNL A   1      44.053  35.487  30.824  1.00  0.00     0.020 A 
ATOM     64  C   UNL A   1      43.644  34.665  33.077  1.00  0.00     0.020 A 
ATOM     65  C   UNL A   1      43.925  35.714  32.197  1.00  0.00     0.054 A 
BRANCH  65  66
ATOM     66  S   UNL A   1      44.104  37.408  32.815  1.00  0.00     0.124 S 
ATOM     67  O   UNL A   1      43.996  38.189  31.586  1.00  0.00    -0.237 OA
ATOM     68  O   UNL A   1      42.979  37.533  33.738  1.00  0.00    -0.237 OA
ATOM     69  O   UNL A   1      45.423  37.409  33.442  1.00  0.00    -0.744 OA
ENDBRANCH  65  66
ENDBRANCH  46  60
BRANCH  47  70
ATOM     70  C   UNL A   1      42.546  23.801  27.901  1.00  0.00    -0.014 A 
ATOM     71  C   UNL A   1      42.353  22.639  28.665  1.00  0.00     0.010 A 
ATOM     72  C   UNL A   1      42.764  23.679  26.518  1.00  0.00     0.010 A 
ATOM     73  C   UNL A   1      42.360  21.378  28.051  1.00  0.00     0.020 A 
ATOM     74  C   UNL A   1      42.767  22.425  25.900  1.00  0.00     0.020 A 
ATOM     75  C   UNL A   1      42.563  21.280  26.670  1.00  0.00     0.054 A 
BRANCH  75  76
ATOM     76  S   UNL A   1      42.493  19.667  25.840  1.00  0.00     0.124 S 
ATOM     77  O   UNL A   1      43.473  19.831  24.772  1.00  0.00    -0.237 OA
ATOM     78  O   UNL A   1      42.860  18.730  26.898  1.00  0.00    -0.237 OA
ATOM     79  O   UNL A   1      41.098  19.591  25.411  1.00  0.00    -0.744 OA
ENDBRANCH  75  76
ENDBRANCH  47  70
BRANCH  59  80
ATOM     80  C   UNL A   1      47.999  27.481  29.988  1.00  0.00    -0.014 A 
ATOM     81  C   UNL A   1      48.960  27.749  29.001  1.00  0.00     0.010 A 
ATOM     82  C   UNL A   1      48.393  26.890  31.203  1.00  0.00     0.010 A 
ATOM     83  C   UNL A   1      50.300  27.418  29.224  1.00  0.00     0.020 A 
ATOM     84  C   UNL A   1      49.732  26.579  31.436  1.00  0.00     0.020 A 
ATOM     85  C   UNL A   1      50.676  26.837  30.440  1.00  0.00     0.054 A 
BRANCH  85  86
ATOM     86  S   UNL A   1      52.427  26.473  30.736  1.00  0.00     0.124 S 
ATOM     87  O   UNL A   1      52.879  27.687  31.409  1.00  0.00    -0.237 OA
ATOM     88  O   UNL A   1      52.370  25.274  31.570  1.00  0.00    -0.237 OA
ATOM     89  O   UNL A   1      52.967  26.264  29.395  1.00  0.00    -0.744 OA
ENDBRANCH  85  86
ENDBRANCH  59  80
ENDBRANCH  33  34
ENDBRANCH  26  28
ENDBRANCH  25  26
ENDBRANCH  24  25
ENDBRANCH   1  24
TORSDOF 18
ENDMDL
MODEL 2
REMARK VINA RESULT:     -10.1      1.265      2.133
REMARK SMILES O=C(CNC(=O)c1cccs1)N[C@@H]1C=C[C@H](C(=O)OCCOC(=O)c2ccc(-c3c4nc(c(-c5ccc(S(=O)(=O)[O-])cc5)c5ccc([nH]5)c(-c5ccc(S(=O)(=O)[O-])cc5)c5nc(c(-c6ccc(S(=O)(=O)[O-])cc6)c6ccc3[nH]6)C=C5)C=C4)cc2)C1
REMARK SMILES IDX 20 1 19 2 17 3 18 4 16 5 13 6 14 7 85 8 15 9 12 10 1 11 2 12
REMARK SMILES IDX 3 14 4 15 5 16 6 18 7 19 8 20 11 21 9 22 10 23 21 24 22 25
REMARK SMILES IDX 23 26 24 27 25 28 26 29 84 30 27 31 83 32 28 33 29 34 30 35
REMARK SMILES IDX 77 36 31 37 82 38 76 39 78 40 32 41 81 42 75 43 74 44 33 46
REMARK SMILES IDX 63 47 44 48 62 49 45 50 48 51 61 52 79 53 46 54 47 55 60 57
REMARK SMILES IDX 80 58 49 59 34 60 35 61 43 62 36 63 42 64 37 65 38 66 39 67
REMARK SMILES IDX 40 68 41 69 64 70 65 71 73 72 66 73 72 74 67 75 68 76 69 77
REMARK SMILES IDX 70 78 71 79 50 80 51 81 59 82 52 83 58 84 53 85 54 86 55 87
REMARK SMILES IDX 56 88 57 89
REMARK H PARENT 12 13 4 17 78 45 48 56
REMARK Flexibility Score: inf
ROOT
ATOM      1  C   UNL A   1      31.951  27.966  26.874  1.00  0.00     0.274 C 
ENDROOT
BRANCH   1   2
ATOM      2  O   UNL A   1      31.130  27.840  25.704  1.00  0.00    -0.462 OA
BRANCH   2   3
ATOM      3  C   UNL A   1      30.521  26.625  25.560  1.00  0.00     0.312 C 
ATOM      4  O   UNL A   1      30.447  25.780  26.447  1.00  0.00    -0.252 OA
BRANCH   3   5
ATOM      5  C   UNL A   1      30.048  26.412  24.116  1.00  0.00     0.124 C 
ATOM      6  C   UNL A   1      31.421  24.981  22.647  1.00  0.00     0.106 C 
ATOM      7  C   UNL A   1      31.586  26.422  22.315  1.00  0.00    -0.006 C 
ATOM      8  C   UNL A   1      30.224  24.977  23.598  1.00  0.00     0.048 C 
ATOM      9  C   UNL A   1      30.841  27.202  23.109  1.00  0.00    -0.014 C 
BRANCH   6  10
ATOM     10  N   UNL A   1      32.670  24.423  23.132  1.00  0.00    -0.348 N 
ATOM     11  O   UNL A   1      33.514  23.425  21.245  1.00  0.00    -0.273 OA
ATOM     12  C   UNL A   1      33.558  23.625  22.452  1.00  0.00     0.239 C 
ATOM     13  H   UNL A   1      32.912  24.645  24.061  1.00  0.00     0.164 HD
BRANCH  12  14
ATOM     14  C   UNL A   1      34.641  22.961  23.312  1.00  0.00     0.216 C 
BRANCH  14  15
ATOM     15  N   UNL A   1      34.162  22.084  24.365  1.00  0.00    -0.342 N 
ATOM     16  C   UNL A   1      34.902  21.584  25.423  1.00  0.00     0.261 C 
ATOM     17  H   UNL A   1      33.215  21.819  24.323  1.00  0.00     0.164 HD
ATOM     18  O   UNL A   1      34.355  20.860  26.251  1.00  0.00    -0.268 OA
BRANCH  16  19
ATOM     19  C   UNL A   1      36.289  21.979  25.491  1.00  0.00     0.092 A 
ATOM     20  C   UNL A   1      37.409  21.212  25.238  1.00  0.00     0.025 A 
ATOM     21  S   UNL A   1      36.709  23.574  25.928  1.00  0.00    -0.139 S 
ATOM     22  C   UNL A   1      38.601  21.863  25.649  1.00  0.00     0.012 A 
ATOM     23  C   UNL A   1      38.356  23.140  26.097  1.00  0.00     0.065 A 
ENDBRANCH  16  19
ENDBRANCH  14  15
ENDBRANCH  12  14
ENDBRANCH   6  10
ENDBRANCH   3   5
ENDBRANCH   2   3
ENDBRANCH   1   2
BRANCH   1  24
ATOM     24  C   UNL A   1      32.576  29.366  26.923  1.00  0.00     0.275 C 
BRANCH  24  25
ATOM     25  O   UNL A   1      33.742  29.398  27.777  1.00  0.00    -0.458 OA
BRANCH  25  26
ATOM     26  C   UNL A   1      34.514  30.521  27.697  1.00  0.00     0.338 C 
ATOM     27  O   UNL A   1      34.157  31.654  27.475  1.00  0.00    -0.246 OA
BRANCH  26  28
ATOM     28  C   UNL A   1      35.895  30.148  28.082  1.00  0.00     0.060 A 
ATOM     29  C   UNL A   1      36.132  29.724  29.392  1.00  0.00     0.016 A 
ATOM     30  C   UNL A   1      36.942  30.176  27.166  1.00  0.00     0.016 A 
ATOM     31  C   UNL A   1      37.368  29.173  29.754  1.00  0.00     0.010 A 
ATOM     32  C   UNL A   1      38.194  29.669  27.547  1.00  0.00     0.010 A 
ATOM     33  C   UNL A   1      38.406  29.107  28.822  1.00  0.00    -0.014 A 
BRANCH  33  34
ATOM     34  C   UNL A   1      39.777  28.678  29.220  1.00  0.00     0.031 A 
ATOM     35  C   UNL A   1      40.651  29.725  29.844  1.00  0.00     0.074 A 
ATOM     36  C   UNL A   1      40.269  27.432  29.039  1.00  0.00     0.049 A 
ATOM     37  N   UNL A   1      41.931  29.695  30.093  1.00  0.00    -0.248 NA
ATOM     38  C   UNL A   1      39.981  30.979  30.235  1.00  0.00     0.031 C 
ATOM     39  C   UNL A   1      39.538  26.290  28.508  1.00  0.00     0.029 A 
ATOM     40  N   UNL A   1      41.535  26.925  29.245  1.00  0.00    -0.354 N 
ATOM     41  C   UNL A   1      42.221  30.923  30.667  1.00  0.00     0.074 A 
ATOM     42  C   UNL A   1      40.999  31.695  30.679  1.00  0.00     0.031 C 
ATOM     43  C   UNL A   1      40.363  25.236  28.368  1.00  0.00     0.029 A 
ATOM     44  C   UNL A   1      41.705  25.644  28.756  1.00  0.00     0.049 A 
ATOM     45  H   UNL A   1      42.249  27.428  29.698  1.00  0.00     0.167 HD
ATOM     46  C   UNL A   1      43.395  31.363  31.170  1.00  0.00     0.031 A 
ATOM     47  C   UNL A   1      42.826  24.916  28.567  1.00  0.00     0.031 A 
ATOM     48  C   UNL A   1      44.610  30.603  31.162  1.00  0.00     0.049 A 
ATOM     49  C   UNL A   1      44.151  25.491  28.974  1.00  0.00     0.074 A 
ATOM     50  C   UNL A   1      45.839  30.940  31.700  1.00  0.00     0.029 A 
ATOM     51  N   UNL A   1      44.751  29.354  30.581  1.00  0.00    -0.354 N 
ATOM     52  N   UNL A   1      44.419  26.676  29.462  1.00  0.00    -0.248 NA
ATOM     53  C   UNL A   1      45.324  24.616  28.814  1.00  0.00     0.031 C 
ATOM     54  C   UNL A   1      46.736  29.906  31.414  1.00  0.00     0.029 A 
ATOM     55  C   UNL A   1      46.050  28.908  30.742  1.00  0.00     0.049 A 
ATOM     56  H   UNL A   1      44.035  28.859  30.122  1.00  0.00     0.167 HD
ATOM     57  C   UNL A   1      45.786  26.676  29.706  1.00  0.00     0.074 A 
ATOM     58  C   UNL A   1      46.296  25.390  29.277  1.00  0.00     0.031 C 
ATOM     59  C   UNL A   1      46.543  27.639  30.279  1.00  0.00     0.031 A 
BRANCH  46  60
ATOM     60  C   UNL A   1      43.394  32.733  31.776  1.00  0.00    -0.014 A 
ATOM     61  C   UNL A   1      43.655  33.865  30.981  1.00  0.00     0.010 A 
ATOM     62  C   UNL A   1      43.148  32.892  33.150  1.00  0.00     0.010 A 
ATOM     63  C   UNL A   1      43.719  35.130  31.562  1.00  0.00     0.020 A 
ATOM     64  C   UNL A   1      43.186  34.161  33.729  1.00  0.00     0.020 A 
ATOM     65  C   UNL A   1      43.490  35.269  32.934  1.00  0.00     0.054 A 
BRANCH  65  66
ATOM     66  S   UNL A   1      43.570  36.927  33.662  1.00  0.00     0.124 S 
ATOM     67  O   UNL A   1      44.777  36.837  34.479  1.00  0.00    -0.237 OA
ATOM     68  O   UNL A   1      43.671  37.789  32.487  1.00  0.00    -0.237 OA
ATOM     69  O   UNL A   1      42.319  37.038  34.407  1.00  0.00    -0.744 OA
ENDBRANCH  65  66
ENDBRANCH  46  60
BRANCH  47  70
ATOM     70  C   UNL A   1      42.811  23.605  27.859  1.00  0.00    -0.014 A 
ATOM     71  C   UNL A   1      42.960  23.507  26.467  1.00  0.00     0.010 A 
ATOM     72  C   UNL A   1      42.523  22.443  28.597  1.00  0.00     0.010 A 
ATOM     73  C   UNL A   1      42.840  22.264  25.827  1.00  0.00     0.020 A 
ATOM     74  C   UNL A   1      42.408  21.202  27.966  1.00  0.00     0.020 A 
ATOM     75  C   UNL A   1      42.569  21.118  26.583  1.00  0.00     0.054 A 
BRANCH  75  76
ATOM     76  S   UNL A   1      42.494  19.487  25.790  1.00  0.00     0.124 S 
ATOM     77  O   UNL A   1      42.834  18.595  26.893  1.00  0.00    -0.237 OA
ATOM     78  O   UNL A   1      41.114  19.409  25.317  1.00  0.00    -0.237 OA
ATOM     79  O   UNL A   1      43.498  19.600  24.734  1.00  0.00    -0.744 OA
ENDBRANCH  75  76
ENDBRANCH  47  70
BRANCH  59  80
ATOM     80  C   UNL A   1      47.979  27.307  30.545  1.00  0.00    -0.014 A 
ATOM     81  C   UNL A   1      48.408  26.833  31.795  1.00  0.00     0.010 A 
ATOM     82  C   UNL A   1      48.906  27.440  29.495  1.00  0.00     0.010 A 
ATOM     83  C   UNL A   1      49.753  26.509  31.995  1.00  0.00     0.020 A 
ATOM     84  C   UNL A   1      50.244  27.096  29.685  1.00  0.00     0.020 A 
ATOM     85  C   UNL A   1      50.660  26.641  30.937  1.00  0.00     0.054 A 
BRANCH  85  86
ATOM     86  S   UNL A   1      52.388  26.155  31.196  1.00  0.00     0.124 S 
ATOM     87  O   UNL A   1      52.246  24.802  31.722  1.00  0.00    -0.237 OA
ATOM     88  O   UNL A   1      52.954  26.254  29.853  1.00  0.00    -0.237 OA
ATOM     89  O   UNL A   1      52.886  27.147  32.148  1.00  0.00    -0.744 OA
ENDBRANCH  85  86
ENDBRANCH  59  80
ENDBRANCH  33  34
ENDBRANCH  26  28
ENDBRANCH  25  26
ENDBRANCH  24  25
ENDBRANCH   1  24
TORSDOF 18
ENDMDL
MODEL 3
REMARK VINA RESULT:     -10.1      4.784     10.496
REMARK SMILES O=C(CNC(=O)c1cccs1)N[C@@H]1C=C[C@H](C(=O)OCCOC(=O)c2ccc(-c3c4nc(c(-c5ccc(S(=O)(=O)[O-])cc5)c5ccc([nH]5)c(-c5ccc(S(=O)(=O)[O-])cc5)c5nc(c(-c6ccc(S(=O)(=O)[O-])cc6)c6ccc3[nH]6)C=C5)C=C4)cc2)C1
REMARK SMILES IDX 20 1 19 2 17 3 18 4 16 5 13 6 14 7 85 8 15 9 12 10 1 11 2 12
REMARK SMILES IDX 3 14 4 15 5 16 6 18 7 19 8 20 11 21 9 22 10 23 21 24 22 25
REMARK SMILES IDX 23 26 24 27 25 28 26 29 84 30 27 31 83 32 28 33 29 34 30 35
REMARK SMILES IDX 77 36 31 37 82 38 76 39 78 40 32 41 81 42 75 43 74 44 33 46
REMARK SMILES IDX 63 47 44 48 62 49 45 50 48 51 61 52 79 53 46 54 47 55 60 57
REMARK SMILES IDX 80 58 49 59 34 60 35 61 43 62 36 63 42 64 37 65 38 66 39 67
REMARK SMILES IDX 40 68 41 69 64 70 65 71 73 72 66 73 72 74 67 75 68 76 69 77
REMARK SMILES IDX 70 78 71 79 50 80 51 81 59 82 52 83 58 84 53 85 54 86 55 87
REMARK SMILES IDX 56 88 57 89
REMARK H PARENT 12 13 4 17 78 45 48 56
REMARK Flexibility Score: inf
ROOT
ATOM      1  C   UNL A   1      37.719  22.687  25.357  1.00  0.00     0.274 C 
ENDROOT
BRANCH   1   2
ATOM      2  O   UNL A   1      36.582  22.165  26.059  1.00  0.00    -0.462 OA
BRANCH   2   3
ATOM      3  C   UNL A   1      35.372  22.575  25.575  1.00  0.00     0.312 C 
ATOM      4  O   UNL A   1      34.840  23.643  25.861  1.00  0.00    -0.252 OA
BRANCH   3   5
ATOM      5  C   UNL A   1      34.717  21.478  24.726  1.00  0.00     0.124 C 
ATOM      6  C   UNL A   1      32.325  21.718  24.167  1.00  0.00     0.106 C 
ATOM      7  C   UNL A   1      32.540  20.689  25.219  1.00  0.00    -0.006 C 
ATOM      8  C   UNL A   1      33.741  22.000  23.662  1.00  0.00     0.048 C 
ATOM      9  C   UNL A   1      33.837  20.554  25.524  1.00  0.00    -0.014 C 
BRANCH   6  10
ATOM     10  N   UNL A   1      31.561  22.835  24.694  1.00  0.00    -0.348 N 
ATOM     11  O   UNL A   1      31.349  24.182  22.847  1.00  0.00    -0.273 OA
ATOM     12  C   UNL A   1      31.220  24.000  24.051  1.00  0.00     0.239 C 
ATOM     13  H   UNL A   1      31.250  22.746  25.623  1.00  0.00     0.164 HD
BRANCH  12  14
ATOM     14  C   UNL A   1      30.658  25.109  24.949  1.00  0.00     0.216 C 
BRANCH  14  15
ATOM     15  N   UNL A   1      29.451  25.759  24.471  1.00  0.00    -0.342 N 
ATOM     16  C   UNL A   1      29.372  26.985  23.832  1.00  0.00     0.261 C 
ATOM     17  H   UNL A   1      28.605  25.279  24.616  1.00  0.00     0.164 HD
ATOM     18  O   UNL A   1      28.275  27.404  23.469  1.00  0.00    -0.268 OA
BRANCH  16  19
ATOM     19  C   UNL A   1      30.614  27.686  23.612  1.00  0.00     0.092 A 
ATOM     20  C   UNL A   1      31.452  27.615  22.517  1.00  0.00     0.025 A 
ATOM     21  S   UNL A   1      31.214  28.765  24.790  1.00  0.00    -0.139 S 
ATOM     22  C   UNL A   1      32.699  28.248  22.762  1.00  0.00     0.012 A 
ATOM     23  C   UNL A   1      32.723  28.869  23.989  1.00  0.00     0.065 A 
ENDBRANCH  16  19
ENDBRANCH  14  15
ENDBRANCH  12  14
ENDBRANCH   6  10
ENDBRANCH   3   5
ENDBRANCH   2   3
ENDBRANCH   1   2
BRANCH   1  24
ATOM     24  C   UNL A   1      38.982  22.520  26.212  1.00  0.00     0.275 C 
BRANCH  24  25
ATOM     25  O   UNL A   1      39.198  23.663  27.071  1.00  0.00    -0.458 OA
BRANCH  25  26
ATOM     26  C   UNL A   1      40.419  24.265  26.973  1.00  0.00     0.338 C 
ATOM     27  O   UNL A   1      41.327  23.984  26.228  1.00  0.00    -0.246 OA
BRANCH  26  28
ATOM     28  C   UNL A   1      40.408  25.454  27.856  1.00  0.00     0.060 A 
ATOM     29  C   UNL A   1      39.300  25.666  28.679  1.00  0.00     0.016 A 
ATOM     30  C   UNL A   1      41.484  26.335  27.907  1.00  0.00     0.016 A 
ATOM     31  C   UNL A   1      39.322  26.655  29.671  1.00  0.00     0.010 A 
ATOM     32  C   UNL A   1      41.482  27.357  28.869  1.00  0.00     0.010 A 
ATOM     33  C   UNL A   1      40.432  27.492  29.800  1.00  0.00    -0.014 A 
BRANCH  33  34
ATOM     34  C   UNL A   1      40.420  28.655  30.734  1.00  0.00     0.031 A 
ATOM     35  C   UNL A   1      41.289  28.543  31.952  1.00  0.00     0.074 A 
ATOM     36  C   UNL A   1      39.676  29.769  30.555  1.00  0.00     0.049 A 
ATOM     37  N   UNL A   1      41.319  29.293  33.018  1.00  0.00    -0.248 NA
ATOM     38  C   UNL A   1      42.250  27.426  31.961  1.00  0.00     0.031 C 
ATOM     39  C   UNL A   1      38.832  30.061  29.405  1.00  0.00     0.029 A 
ATOM     40  N   UNL A   1      39.474  30.858  31.377  1.00  0.00    -0.354 N 
ATOM     41  C   UNL A   1      42.299  28.739  33.828  1.00  0.00     0.074 A 
ATOM     42  C   UNL A   1      42.800  27.560  33.156  1.00  0.00     0.031 C 
ATOM     43  C   UNL A   1      38.157  31.208  29.606  1.00  0.00     0.029 A 
ATOM     44  C   UNL A   1      38.484  31.713  30.931  1.00  0.00     0.049 A 
ATOM     45  H   UNL A   1      39.988  31.012  32.202  1.00  0.00     0.167 HD
ATOM     46  C   UNL A   1      42.767  29.187  35.013  1.00  0.00     0.031 A 
ATOM     47  C   UNL A   1      37.856  32.732  31.554  1.00  0.00     0.031 A 
ATOM     48  C   UNL A   1      42.276  30.353  35.685  1.00  0.00     0.049 A 
ATOM     49  C   UNL A   1      38.271  33.109  32.946  1.00  0.00     0.074 A 
ATOM     50  C   UNL A   1      42.725  30.920  36.863  1.00  0.00     0.029 A 
ATOM     51  N   UNL A   1      41.220  31.129  35.238  1.00  0.00    -0.354 N 
ATOM     52  N   UNL A   1      39.160  32.540  33.722  1.00  0.00    -0.248 NA
ATOM     53  C   UNL A   1      37.603  34.279  33.538  1.00  0.00     0.031 C 
ATOM     54  C   UNL A   1      41.916  32.025  37.149  1.00  0.00     0.029 A 
ATOM     55  C   UNL A   1      40.998  32.169  36.122  1.00  0.00     0.049 A 
ATOM     56  H   UNL A   1      40.705  30.966  34.416  1.00  0.00     0.167 HD
ATOM     57  C   UNL A   1      39.186  33.308  34.879  1.00  0.00     0.074 A 
ATOM     58  C   UNL A   1      38.199  34.356  34.719  1.00  0.00     0.031 C 
ATOM     59  C   UNL A   1      39.991  33.182  35.959  1.00  0.00     0.031 A 
BRANCH  46  60
ATOM     60  C   UNL A   1      43.876  28.395  35.638  1.00  0.00    -0.014 A 
ATOM     61  C   UNL A   1      43.591  27.387  36.577  1.00  0.00     0.010 A 
ATOM     62  C   UNL A   1      45.211  28.672  35.301  1.00  0.00     0.010 A 
ATOM     63  C   UNL A   1      44.629  26.701  37.206  1.00  0.00     0.020 A 
ATOM     64  C   UNL A   1      46.250  27.968  35.909  1.00  0.00     0.020 A 
ATOM     65  C   UNL A   1      45.953  27.000  36.872  1.00  0.00     0.054 A 
BRANCH  65  66
ATOM     66  S   UNL A   1      47.282  26.085  37.697  1.00  0.00     0.124 S 
ATOM     67  O   UNL A   1      47.478  26.873  38.911  1.00  0.00    -0.237 OA
ATOM     68  O   UNL A   1      46.688  24.765  37.895  1.00  0.00    -0.237 OA
ATOM     69  O   UNL A   1      48.381  26.133  36.737  1.00  0.00    -0.744 OA
ENDBRANCH  65  66
ENDBRANCH  46  60
BRANCH  47  70
ATOM     70  C   UNL A   1      36.683  33.427  30.953  1.00  0.00    -0.014 A 
ATOM     71  C   UNL A   1      35.386  33.282  31.470  1.00  0.00     0.010 A 
ATOM     72  C   UNL A   1      36.866  34.156  29.765  1.00  0.00     0.010 A 
ATOM     73  C   UNL A   1      34.293  33.872  30.817  1.00  0.00     0.020 A 
ATOM     74  C   UNL A   1      35.782  34.751  29.113  1.00  0.00     0.020 A 
ATOM     75  C   UNL A   1      34.500  34.607  29.644  1.00  0.00     0.054 A 
BRANCH  75  76
ATOM     76  S   UNL A   1      33.115  35.450  28.828  1.00  0.00     0.124 S 
ATOM     77  O   UNL A   1      33.802  36.445  28.012  1.00  0.00    -0.237 OA
ATOM     78  O   UNL A   1      32.456  34.375  28.092  1.00  0.00    -0.237 OA
ATOM     79  O   UNL A   1      32.352  35.976  29.958  1.00  0.00    -0.744 OA
ENDBRANCH  75  76
ENDBRANCH  47  70
BRANCH  59  80
ATOM     80  C   UNL A   1      39.891  34.246  37.008  1.00  0.00    -0.014 A 
ATOM     81  C   UNL A   1      40.507  35.498  36.852  1.00  0.00     0.010 A 
ATOM     82  C   UNL A   1      39.125  33.986  38.159  1.00  0.00     0.010 A 
ATOM     83  C   UNL A   1      40.368  36.473  37.843  1.00  0.00     0.020 A 
ATOM     84  C   UNL A   1      38.966  34.964  39.139  1.00  0.00     0.020 A 
ATOM     85  C   UNL A   1      39.596  36.200  38.979  1.00  0.00     0.054 A 
BRANCH  85  86
ATOM     86  S   UNL A   1      39.374  37.499  40.223  1.00  0.00     0.124 S 
ATOM     87  O   UNL A   1      38.734  36.769  41.312  1.00  0.00    -0.237 OA
ATOM     88  O   UNL A   1      40.744  37.939  40.477  1.00  0.00    -0.237 OA
ATOM     89  O   UNL A   1      38.528  38.481  39.548  1.00  0.00    -0.744 OA
ENDBRANCH  85  86
ENDBRANCH  59  80
ENDBRANCH  33  34
ENDBRANCH  26  28
ENDBRANCH  25  26
ENDBRANCH  24  25
ENDBRANCH   1  24
TORSDOF 18
ENDMDL
