MODEL 1
REMARK VINA RESULT:     -10.2      0.000      0.000
REMARK SMILES Cc1cnc(NC(=O)NC[C@H]2CC[C@H](C(=O)OCCOC(=O)c3ccc(-c4c5nc(c(-c6ccc(S(=O)(=O)[O-])cc6)c6ccc([nH]6)c(-c6ccc(S(=O)(=O)[O-])cc6)c6nc(c(-c7ccc(S(=O)(=O)[O-])cc7)c7ccc4[nH]7)C=C6)C=C5)cc3)O2)s1
REMARK SMILES IDX 18 1 17 2 15 3 16 4 14 5 11 6 12 7 83 8 13 9 10 10 9 11 6 12
REMARK SMILES IDX 7 13 8 15 5 17 1 18 2 19 3 20 84 21 4 22 19 23 20 24 21 25
REMARK SMILES IDX 22 26 23 27 24 28 82 29 25 30 81 31 26 32 27 33 28 34 75 35
REMARK SMILES IDX 29 36 80 37 74 38 76 39 30 40 79 41 73 42 72 43 31 45 61 46
REMARK SMILES IDX 42 47 60 48 43 49 46 50 59 51 77 52 44 53 45 54 58 56 78 57
REMARK SMILES IDX 47 58 32 59 33 60 41 61 34 62 40 63 35 64 36 65 37 66 38 67
REMARK SMILES IDX 39 68 62 69 63 70 71 71 64 72 70 73 65 74 66 75 67 76 68 77
REMARK SMILES IDX 69 78 48 79 49 80 57 81 50 82 56 83 51 84 52 85 53 86 54 87
REMARK SMILES IDX 55 88
REMARK H PARENT 6 14 9 16 76 44 46 55
REMARK Flexibility Score: inf
ROOT
ATOM      1  C   UNL A   1      35.608  22.600  24.316  1.00  0.00     0.274 C 
ENDROOT
BRANCH   1   2
ATOM      2  O   UNL A   1      34.367  23.329  24.358  1.00  0.00    -0.460 OA
BRANCH   2   3
ATOM      3  C   UNL A   1      33.910  23.821  23.171  1.00  0.00     0.335 C 
ATOM      4  O   UNL A   1      34.172  23.335  22.076  1.00  0.00    -0.249 OA
BRANCH   3   5
ATOM      5  C   UNL A   1      33.037  25.074  23.347  1.00  0.00     0.228 C 
ATOM      6  C   UNL A   1      31.082  25.165  24.616  1.00  0.00     0.138 C 
ATOM      7  C   UNL A   1      30.722  24.642  23.236  1.00  0.00     0.037 C 
ATOM      8  O   UNL A   1      32.514  25.171  24.685  1.00  0.00    -0.361 OA
ATOM      9  C   UNL A   1      31.853  25.163  22.391  1.00  0.00     0.047 C 
BRANCH   6  10
ATOM     10  C   UNL A   1      30.488  26.556  24.915  1.00  0.00     0.149 C 
BRANCH  10  11
ATOM     11  N   UNL A   1      30.164  27.387  23.764  1.00  0.00    -0.335 N 
ATOM     12  N   UNL A   1      31.614  29.278  23.473  1.00  0.00    -0.284 N 
ATOM     13  C   UNL A   1      30.650  28.433  23.090  1.00  0.00     0.321 C 
ATOM     14  H   UNL A   1      31.801  29.993  22.823  1.00  0.00     0.174 HD
ATOM     15  O   UNL A   1      30.066  28.704  22.033  1.00  0.00    -0.248 OA
ATOM     16  H   UNL A   1      29.323  27.083  23.354  1.00  0.00     0.165 HD
BRANCH  12  17
ATOM     17  C   UNL A   1      32.382  29.333  24.588  1.00  0.00     0.190 A 
ATOM     18  C   UNL A   1      34.036  30.889  27.648  1.00  0.00     0.058 C 
ATOM     19  C   UNL A   1      33.482  30.018  26.586  1.00  0.00     0.023 A 
ATOM     20  C   UNL A   1      34.058  28.946  25.933  1.00  0.00     0.128 A 
ATOM     21  S   UNL A   1      31.907  30.256  25.941  1.00  0.00    -0.102 S 
ATOM     22  N   UNL A   1      33.377  28.509  24.816  1.00  0.00    -0.228 NA
ENDBRANCH  12  17
ENDBRANCH  10  11
ENDBRANCH   6  10
ENDBRANCH   3   5
ENDBRANCH   2   3
ENDBRANCH   1   2
BRANCH   1  23
ATOM     23  C   UNL A   1      36.425  22.812  25.594  1.00  0.00     0.275 C 
BRANCH  23  24
ATOM     24  O   UNL A   1      37.610  23.589  25.342  1.00  0.00    -0.458 OA
BRANCH  24  25
ATOM     25  C   UNL A   1      38.702  23.229  26.057  1.00  0.00     0.338 C 
ATOM     26  O   UNL A   1      39.277  22.155  26.035  1.00  0.00    -0.246 OA
BRANCH  25  27
ATOM     27  C   UNL A   1      39.212  24.398  26.787  1.00  0.00     0.060 A 
ATOM     28  C   UNL A   1      38.800  24.579  28.110  1.00  0.00     0.016 A 
ATOM     29  C   UNL A   1      40.039  25.334  26.166  1.00  0.00     0.016 A 
ATOM     30  C   UNL A   1      39.228  25.689  28.829  1.00  0.00     0.010 A 
ATOM     31  C   UNL A   1      40.468  26.450  26.890  1.00  0.00     0.010 A 
ATOM     32  C   UNL A   1      40.067  26.633  28.226  1.00  0.00    -0.014 A 
BRANCH  32  33
ATOM     33  C   UNL A   1      40.523  27.818  28.991  1.00  0.00     0.031 A 
ATOM     34  C   UNL A   1      41.843  27.786  29.705  1.00  0.00     0.074 A 
ATOM     35  C   UNL A   1      39.738  28.911  29.054  1.00  0.00     0.049 A 
ATOM     36  N   UNL A   1      42.352  28.659  30.533  1.00  0.00    -0.248 NA
ATOM     37  C   UNL A   1      42.702  26.616  29.458  1.00  0.00     0.031 C 
ATOM     38  C   UNL A   1      38.456  29.071  28.363  1.00  0.00     0.029 A 
ATOM     39  N   UNL A   1      39.895  30.086  29.744  1.00  0.00    -0.354 N 
ATOM     40  C   UNL A   1      43.573  28.133  30.935  1.00  0.00     0.074 A 
ATOM     41  C   UNL A   1      43.730  26.862  30.259  1.00  0.00     0.031 C 
ATOM     42  C   UNL A   1      37.940  30.271  28.674  1.00  0.00     0.029 A 
ATOM     43  C   UNL A   1      38.821  30.936  29.627  1.00  0.00     0.049 A 
ATOM     44  H   UNL A   1      40.699  30.299  30.270  1.00  0.00     0.167 HD
ATOM     45  C   UNL A   1      44.473  28.660  31.798  1.00  0.00     0.031 A 
ATOM     46  C   UNL A   1      38.553  32.099  30.254  1.00  0.00     0.031 A 
ATOM     47  C   UNL A   1      44.312  29.932  32.453  1.00  0.00     0.049 A 
ATOM     48  C   UNL A   1      39.542  32.632  31.255  1.00  0.00     0.074 A 
ATOM     49  C   UNL A   1      45.187  30.573  33.313  1.00  0.00     0.029 A 
ATOM     50  N   UNL A   1      43.200  30.752  32.327  1.00  0.00    -0.354 N 
ATOM     51  N   UNL A   1      40.701  32.131  31.613  1.00  0.00    -0.248 NA
ATOM     52  C   UNL A   1      39.183  33.878  31.946  1.00  0.00     0.031 C 
ATOM     53  C   UNL A   1      44.579  31.755  33.751  1.00  0.00     0.029 A 
ATOM     54  C   UNL A   1      43.348  31.874  33.123  1.00  0.00     0.049 A 
ATOM     55  H   UNL A   1      42.421  30.563  31.755  1.00  0.00     0.167 HD
ATOM     56  C   UNL A   1      41.213  33.006  32.565  1.00  0.00     0.074 A 
ATOM     57  C   UNL A   1      40.248  34.077  32.711  1.00  0.00     0.031 C 
ATOM     58  C   UNL A   1      42.374  32.927  33.258  1.00  0.00     0.031 A 
BRANCH  45  59
ATOM     59  C   UNL A   1      45.693  27.845  32.127  1.00  0.00    -0.014 A 
ATOM     60  C   UNL A   1      45.677  26.873  33.144  1.00  0.00     0.010 A 
ATOM     61  C   UNL A   1      46.861  28.013  31.360  1.00  0.00     0.010 A 
ATOM     62  C   UNL A   1      46.815  26.104  33.403  1.00  0.00     0.020 A 
ATOM     63  C   UNL A   1      47.994  27.232  31.602  1.00  0.00     0.020 A 
ATOM     64  C   UNL A   1      47.968  26.290  32.632  1.00  0.00     0.054 A 
BRANCH  64  65
ATOM     65  S   UNL A   1      49.420  25.255  32.966  1.00  0.00     0.124 S 
ATOM     66  O   UNL A   1      50.280  26.174  33.709  1.00  0.00    -0.237 OA
ATOM     67  O   UNL A   1      48.859  24.154  33.744  1.00  0.00    -0.237 OA
ATOM     68  O   UNL A   1      49.902  24.893  31.636  1.00  0.00    -0.744 OA
ENDBRANCH  64  65
ENDBRANCH  45  59
BRANCH  46  69
ATOM     69  C   UNL A   1      37.262  32.797  30.008  1.00  0.00    -0.014 A 
ATOM     70  C   UNL A   1      36.154  32.582  30.845  1.00  0.00     0.010 A 
ATOM     71  C   UNL A   1      37.139  33.687  28.925  1.00  0.00     0.010 A 
ATOM     72  C   UNL A   1      34.941  33.231  30.593  1.00  0.00     0.020 A 
ATOM     73  C   UNL A   1      35.938  34.359  28.686  1.00  0.00     0.020 A 
ATOM     74  C   UNL A   1      34.841  34.116  29.514  1.00  0.00     0.054 A 
BRANCH  74  75
ATOM     75  S   UNL A   1      33.271  34.980  29.225  1.00  0.00     0.124 S 
ATOM     76  O   UNL A   1      32.642  34.135  28.216  1.00  0.00    -0.237 OA
ATOM     77  O   UNL A   1      32.647  34.958  30.546  1.00  0.00    -0.237 OA
ATOM     78  O   UNL A   1      33.689  36.302  28.764  1.00  0.00    -0.744 OA
ENDBRANCH  74  75
ENDBRANCH  46  69
BRANCH  58  79
ATOM     79  C   UNL A   1      42.675  34.033  34.231  1.00  0.00    -0.014 A 
ATOM     80  C   UNL A   1      42.381  33.889  35.598  1.00  0.00     0.010 A 
ATOM     81  C   UNL A   1      43.327  35.197  33.785  1.00  0.00     0.010 A 
ATOM     82  C   UNL A   1      42.719  34.900  36.502  1.00  0.00     0.020 A 
ATOM     83  C   UNL A   1      43.687  36.199  34.689  1.00  0.00     0.020 A 
ATOM     84  C   UNL A   1      43.372  36.048  36.042  1.00  0.00     0.054 A 
BRANCH  84  85
ATOM     85  S   UNL A   1      43.860  37.315  37.243  1.00  0.00     0.124 S 
ATOM     86  O   UNL A   1      44.992  36.681  37.912  1.00  0.00    -0.237 OA
ATOM     87  O   UNL A   1      44.192  38.456  36.392  1.00  0.00    -0.237 OA
ATOM     88  O   UNL A   1      42.667  37.490  38.068  1.00  0.00    -0.744 OA
ENDBRANCH  84  85
ENDBRANCH  58  79
ENDBRANCH  32  33
ENDBRANCH  25  27
ENDBRANCH  24  25
ENDBRANCH  23  24
ENDBRANCH   1  23
TORSDOF 17
ENDMDL
MODEL 2
REMARK VINA RESULT:     -10.1      3.296      9.408
REMARK SMILES Cc1cnc(NC(=O)NC[C@H]2CC[C@H](C(=O)OCCOC(=O)c3ccc(-c4c5nc(c(-c6ccc(S(=O)(=O)[O-])cc6)c6ccc([nH]6)c(-c6ccc(S(=O)(=O)[O-])cc6)c6nc(c(-c7ccc(S(=O)(=O)[O-])cc7)c7ccc4[nH]7)C=C6)C=C5)cc3)O2)s1
REMARK SMILES IDX 18 1 17 2 15 3 16 4 14 5 11 6 12 7 83 8 13 9 10 10 9 11 6 12
REMARK SMILES IDX 7 13 8 15 5 17 1 18 2 19 3 20 84 21 4 22 19 23 20 24 21 25
REMARK SMILES IDX 22 26 23 27 24 28 82 29 25 30 81 31 26 32 27 33 28 34 75 35
REMARK SMILES IDX 29 36 80 37 74 38 76 39 30 40 79 41 73 42 72 43 31 45 61 46
REMARK SMILES IDX 42 47 60 48 43 49 46 50 59 51 77 52 44 53 45 54 58 56 78 57
REMARK SMILES IDX 47 58 32 59 33 60 41 61 34 62 40 63 35 64 36 65 37 66 38 67
REMARK SMILES IDX 39 68 62 69 63 70 71 71 64 72 70 73 65 74 66 75 67 76 68 77
REMARK SMILES IDX 69 78 48 79 49 80 57 81 50 82 56 83 51 84 52 85 53 86 54 87
REMARK SMILES IDX 55 88
REMARK H PARENT 6 14 9 16 76 44 46 55
REMARK Flexibility Score: inf
ROOT
ATOM      1  C   UNL A   1      32.265  29.645  25.467  1.00  0.00     0.274 C 
ENDROOT
BRANCH   1   2
ATOM      2  O   UNL A   1      31.009  29.096  25.026  1.00  0.00    -0.460 OA
BRANCH   2   3
ATOM      3  C   UNL A   1      30.944  28.696  23.724  1.00  0.00     0.335 C 
ATOM      4  O   UNL A   1      31.138  29.433  22.764  1.00  0.00    -0.249 OA
BRANCH   3   5
ATOM      5  C   UNL A   1      30.582  27.208  23.580  1.00  0.00     0.228 C 
ATOM      6  C   UNL A   1      31.930  25.438  24.279  1.00  0.00     0.138 C 
ATOM      7  C   UNL A   1      32.384  25.854  22.891  1.00  0.00     0.037 C 
ATOM      8  O   UNL A   1      31.013  26.446  24.723  1.00  0.00    -0.361 OA
ATOM      9  C   UNL A   1      31.157  26.531  22.342  1.00  0.00     0.047 C 
BRANCH   6  10
ATOM     10  C   UNL A   1      31.299  24.031  24.319  1.00  0.00     0.149 C 
BRANCH  10  11
ATOM     11  N   UNL A   1      30.480  23.718  25.482  1.00  0.00    -0.335 N 
ATOM     12  N   UNL A   1      31.618  22.459  27.179  1.00  0.00    -0.284 N 
ATOM     13  C   UNL A   1      30.596  23.175  26.696  1.00  0.00     0.321 C 
ATOM     14  H   UNL A   1      31.482  22.139  28.100  1.00  0.00     0.174 HD
ATOM     15  O   UNL A   1      29.595  23.265  27.418  1.00  0.00    -0.248 OA
ATOM     16  H   UNL A   1      29.549  23.992  25.322  1.00  0.00     0.165 HD
BRANCH  12  17
ATOM     17  C   UNL A   1      32.805  22.093  26.639  1.00  0.00     0.190 A 
ATOM     18  C   UNL A   1      36.399  22.493  25.437  1.00  0.00     0.058 C 
ATOM     19  C   UNL A   1      35.059  22.036  25.873  1.00  0.00     0.023 A 
ATOM     20  C   UNL A   1      34.221  21.095  25.309  1.00  0.00     0.128 A 
ATOM     21  S   UNL A   1      34.278  22.690  27.257  1.00  0.00    -0.102 S 
ATOM     22  N   UNL A   1      32.935  21.086  25.808  1.00  0.00    -0.228 NA
ENDBRANCH  12  17
ENDBRANCH  10  11
ENDBRANCH   6  10
ENDBRANCH   3   5
ENDBRANCH   2   3
ENDBRANCH   1   2
BRANCH   1  23
ATOM     23  C   UNL A   1      32.503  29.376  26.955  1.00  0.00     0.275 C 
BRANCH  23  24
ATOM     24  O   UNL A   1      33.905  29.253  27.254  1.00  0.00    -0.458 OA
BRANCH  24  25
ATOM     25  C   UNL A   1      34.469  30.335  27.841  1.00  0.00     0.338 C 
ATOM     26  O   UNL A   1      33.920  31.378  28.149  1.00  0.00    -0.246 OA
BRANCH  25  27
ATOM     27  C   UNL A   1      35.858  30.021  28.207  1.00  0.00     0.060 A 
ATOM     28  C   UNL A   1      36.820  30.018  27.195  1.00  0.00     0.016 A 
ATOM     29  C   UNL A   1      36.202  29.679  29.515  1.00  0.00     0.016 A 
ATOM     30  C   UNL A   1      38.140  29.692  27.486  1.00  0.00     0.010 A 
ATOM     31  C   UNL A   1      37.528  29.350  29.807  1.00  0.00     0.010 A 
ATOM     32  C   UNL A   1      38.506  29.357  28.795  1.00  0.00    -0.014 A 
BRANCH  32  33
ATOM     33  C   UNL A   1      39.912  29.008  29.107  1.00  0.00     0.031 A 
ATOM     34  C   UNL A   1      40.837  30.051  29.664  1.00  0.00     0.074 A 
ATOM     35  C   UNL A   1      40.354  27.758  28.871  1.00  0.00     0.049 A 
ATOM     36  N   UNL A   1      42.126  29.982  29.870  1.00  0.00    -0.248 NA
ATOM     37  C   UNL A   1      40.235  31.342  30.033  1.00  0.00     0.031 C 
ATOM     38  C   UNL A   1      39.533  26.650  28.375  1.00  0.00     0.029 A 
ATOM     39  N   UNL A   1      41.606  27.212  29.002  1.00  0.00    -0.354 N 
ATOM     40  C   UNL A   1      42.497  31.228  30.360  1.00  0.00     0.074 A 
ATOM     41  C   UNL A   1      41.297  32.035  30.421  1.00  0.00     0.031 C 
ATOM     42  C   UNL A   1      40.307  25.562  28.233  1.00  0.00     0.029 A 
ATOM     43  C   UNL A   1      41.683  25.909  28.571  1.00  0.00     0.049 A 
ATOM     44  H   UNL A   1      42.374  27.706  29.370  1.00  0.00     0.167 HD
ATOM     45  C   UNL A   1      43.731  31.658  30.715  1.00  0.00     0.031 A 
ATOM     46  C   UNL A   1      42.749  25.099  28.419  1.00  0.00     0.031 A 
ATOM     47  C   UNL A   1      44.914  30.840  30.664  1.00  0.00     0.049 A 
ATOM     48  C   UNL A   1      44.117  25.623  28.763  1.00  0.00     0.074 A 
ATOM     49  C   UNL A   1      46.204  31.171  31.042  1.00  0.00     0.029 A 
ATOM     50  N   UNL A   1      44.955  29.534  30.199  1.00  0.00    -0.354 N 
ATOM     51  N   UNL A   1      44.452  26.798  29.240  1.00  0.00    -0.248 NA
ATOM     52  C   UNL A   1      45.253  24.718  28.535  1.00  0.00     0.031 C 
ATOM     53  C   UNL A   1      47.035  30.083  30.754  1.00  0.00     0.029 A 
ATOM     54  C   UNL A   1      46.254  29.057  30.244  1.00  0.00     0.049 A 
ATOM     55  H   UNL A   1      44.175  29.022  29.885  1.00  0.00     0.167 HD
ATOM     56  C   UNL A   1      45.835  26.770  29.379  1.00  0.00     0.074 A 
ATOM     57  C   UNL A   1      46.272  25.456  28.954  1.00  0.00     0.031 C 
ATOM     58  C   UNL A   1      46.668  27.747  29.813  1.00  0.00     0.031 A 
BRANCH  45  59
ATOM     59  C   UNL A   1      43.879  33.092  31.145  1.00  0.00    -0.014 A 
ATOM     60  C   UNL A   1      43.690  33.483  32.482  1.00  0.00     0.010 A 
ATOM     61  C   UNL A   1      44.278  34.055  30.199  1.00  0.00     0.010 A 
ATOM     62  C   UNL A   1      43.871  34.817  32.859  1.00  0.00     0.020 A 
ATOM     63  C   UNL A   1      44.481  35.385  30.576  1.00  0.00     0.020 A 
ATOM     64  C   UNL A   1      44.263  35.760  31.903  1.00  0.00     0.054 A 
BRANCH  64  65
ATOM     65  S   UNL A   1      44.525  37.478  32.426  1.00  0.00     0.124 S 
ATOM     66  O   UNL A   1      43.976  38.223  31.295  1.00  0.00    -0.237 OA
ATOM     67  O   UNL A   1      43.754  37.560  33.664  1.00  0.00    -0.237 OA
ATOM     68  O   UNL A   1      45.972  37.575  32.590  1.00  0.00    -0.744 OA
ENDBRANCH  64  65
ENDBRANCH  45  59
BRANCH  46  69
ATOM     69  C   UNL A   1      42.573  23.737  27.848  1.00  0.00    -0.014 A 
ATOM     70  C   UNL A   1      42.320  22.632  28.677  1.00  0.00     0.010 A 
ATOM     71  C   UNL A   1      42.659  23.541  26.456  1.00  0.00     0.010 A 
ATOM     72  C   UNL A   1      42.174  21.354  28.129  1.00  0.00     0.020 A 
ATOM     73  C   UNL A   1      42.486  22.271  25.901  1.00  0.00     0.020 A 
ATOM     74  C   UNL A   1      42.258  21.181  26.743  1.00  0.00     0.054 A 
BRANCH  74  75
ATOM     75  S   UNL A   1      42.027  19.523  26.045  1.00  0.00     0.124 S 
ATOM     76  O   UNL A   1      42.515  18.670  27.123  1.00  0.00    -0.237 OA
ATOM     77  O   UNL A   1      40.587  19.475  25.805  1.00  0.00    -0.237 OA
ATOM     78  O   UNL A   1      42.851  19.542  24.839  1.00  0.00    -0.744 OA
ENDBRANCH  74  75
ENDBRANCH  46  69
BRANCH  58  79
ATOM     79  C   UNL A   1      48.137  27.430  29.864  1.00  0.00    -0.014 A 
ATOM     80  C   UNL A   1      48.979  27.742  28.782  1.00  0.00     0.010 A 
ATOM     81  C   UNL A   1      48.694  26.883  31.034  1.00  0.00     0.010 A 
ATOM     82  C   UNL A   1      50.352  27.496  28.863  1.00  0.00     0.020 A 
ATOM     83  C   UNL A   1      50.069  26.659  31.128  1.00  0.00     0.020 A 
ATOM     84  C   UNL A   1      50.889  26.959  30.037  1.00  0.00     0.054 A 
BRANCH  84  85
ATOM     85  S   UNL A   1      52.682  26.712  30.144  1.00  0.00     0.124 S 
ATOM     86  O   UNL A   1      52.993  26.160  28.830  1.00  0.00    -0.237 OA
ATOM     87  O   UNL A   1      53.179  28.064  30.392  1.00  0.00    -0.237 OA
ATOM     88  O   UNL A   1      52.839  25.785  31.263  1.00  0.00    -0.744 OA
ENDBRANCH  84  85
ENDBRANCH  58  79
ENDBRANCH  32  33
ENDBRANCH  25  27
ENDBRANCH  24  25
ENDBRANCH  23  24
ENDBRANCH   1  23
TORSDOF 17
ENDMDL
MODEL 3
REMARK VINA RESULT:     -10.1      4.727      9.741
REMARK SMILES Cc1cnc(NC(=O)NC[C@H]2CC[C@H](C(=O)OCCOC(=O)c3ccc(-c4c5nc(c(-c6ccc(S(=O)(=O)[O-])cc6)c6ccc([nH]6)c(-c6ccc(S(=O)(=O)[O-])cc6)c6nc(c(-c7ccc(S(=O)(=O)[O-])cc7)c7ccc4[nH]7)C=C6)C=C5)cc3)O2)s1
REMARK SMILES IDX 18 1 17 2 15 3 16 4 14 5 11 6 12 7 83 8 13 9 10 10 9 11 6 12
REMARK SMILES IDX 7 13 8 15 5 17 1 18 2 19 3 20 84 21 4 22 19 23 20 24 21 25
REMARK SMILES IDX 22 26 23 27 24 28 82 29 25 30 81 31 26 32 27 33 28 34 75 35
REMARK SMILES IDX 29 36 80 37 74 38 76 39 30 40 79 41 73 42 72 43 31 45 61 46
REMARK SMILES IDX 42 47 60 48 43 49 46 50 59 51 77 52 44 53 45 54 58 56 78 57
REMARK SMILES IDX 47 58 32 59 33 60 41 61 34 62 40 63 35 64 36 65 37 66 38 67
REMARK SMILES IDX 39 68 62 69 63 70 71 71 64 72 70 73 65 74 66 75 67 76 68 77
REMARK SMILES IDX 69 78 48 79 49 80 57 81 50 82 56 83 51 84 52 85 53 86 54 87
REMARK SMILES IDX 55 88
REMARK H PARENT 6 14 9 16 76 44 46 55
REMARK Flexibility Score: inf
ROOT
ATOM      1  C   UNL A   1      38.718  21.387  25.537  1.00  0.00     0.274 C 
ENDROOT
BRANCH   1   2
ATOM      2  O   UNL A   1      37.306  21.468  25.807  1.00  0.00    -0.460 OA
BRANCH   2   3
ATOM      3  C   UNL A   1      36.530  22.012  24.827  1.00  0.00     0.335 C 
ATOM      4  O   UNL A   1      36.948  22.765  23.954  1.00  0.00    -0.249 OA
BRANCH   3   5
ATOM      5  C   UNL A   1      35.055  21.592  24.939  1.00  0.00     0.228 C 
ATOM      6  C   UNL A   1      33.282  23.057  25.328  1.00  0.00     0.138 C 
ATOM      7  C   UNL A   1      33.886  22.684  26.670  1.00  0.00     0.037 C 
ATOM      8  O   UNL A   1      34.182  22.561  24.328  1.00  0.00    -0.361 OA
ATOM      9  C   UNL A   1      34.562  21.375  26.364  1.00  0.00     0.047 C 
BRANCH   6  10
ATOM     10  C   UNL A   1      31.851  22.517  25.131  1.00  0.00     0.149 C 
BRANCH  10  11
ATOM     11  N   UNL A   1      30.988  22.517  26.304  1.00  0.00    -0.335 N 
ATOM     12  N   UNL A   1      29.744  24.546  26.612  1.00  0.00    -0.284 N 
ATOM     13  C   UNL A   1      30.050  23.272  26.882  1.00  0.00     0.321 C 
ATOM     14  H   UNL A   1      29.025  24.913  27.177  1.00  0.00     0.174 HD
ATOM     15  O   UNL A   1      29.469  22.756  27.845  1.00  0.00    -0.248 OA
ATOM     16  H   UNL A   1      31.146  21.706  26.839  1.00  0.00     0.165 HD
BRANCH  12  17
ATOM     17  C   UNL A   1      30.236  25.426  25.708  1.00  0.00     0.190 A 
ATOM     18  C   UNL A   1      31.360  28.795  24.326  1.00  0.00     0.058 C 
ATOM     19  C   UNL A   1      31.068  27.372  24.616  1.00  0.00     0.023 A 
ATOM     20  C   UNL A   1      30.603  26.378  23.777  1.00  0.00     0.128 A 
ATOM     21  S   UNL A   1      31.261  26.703  26.186  1.00  0.00    -0.102 S 
ATOM     22  N   UNL A   1      30.189  25.226  24.412  1.00  0.00    -0.228 NA
ENDBRANCH  12  17
ENDBRANCH  10  11
ENDBRANCH   6  10
ENDBRANCH   3   5
ENDBRANCH   2   3
ENDBRANCH   1   2
BRANCH   1  23
ATOM     23  C   UNL A   1      39.230  19.949  25.656  1.00  0.00     0.275 C 
BRANCH  23  24
ATOM     24  O   UNL A   1      40.293  19.843  26.620  1.00  0.00    -0.458 OA
BRANCH  24  25
ATOM     25  C   UNL A   1      41.545  19.960  26.118  1.00  0.00     0.338 C 
ATOM     26  O   UNL A   1      42.104  19.202  25.346  1.00  0.00    -0.246 OA
BRANCH  25  27
ATOM     27  C   UNL A   1      42.115  21.251  26.529  1.00  0.00     0.060 A 
ATOM     28  C   UNL A   1      42.400  22.190  25.535  1.00  0.00     0.016 A 
ATOM     29  C   UNL A   1      42.418  21.517  27.864  1.00  0.00     0.016 A 
ATOM     30  C   UNL A   1      42.974  23.412  25.871  1.00  0.00     0.010 A 
ATOM     31  C   UNL A   1      42.995  22.743  28.201  1.00  0.00     0.010 A 
ATOM     32  C   UNL A   1      43.274  23.700  27.207  1.00  0.00    -0.014 A 
BRANCH  32  33
ATOM     33  C   UNL A   1      43.886  25.000  27.567  1.00  0.00     0.031 A 
ATOM     34  C   UNL A   1      43.035  26.096  28.141  1.00  0.00     0.074 A 
ATOM     35  C   UNL A   1      45.203  25.195  27.360  1.00  0.00     0.049 A 
ATOM     36  N   UNL A   1      43.351  27.340  28.387  1.00  0.00    -0.248 NA
ATOM     37  C   UNL A   1      41.644  25.749  28.475  1.00  0.00     0.031 C 
ATOM     38  C   UNL A   1      46.137  24.187  26.852  1.00  0.00     0.029 A 
ATOM     39  N   UNL A   1      45.981  26.311  27.537  1.00  0.00    -0.354 N 
ATOM     40  C   UNL A   1      42.193  27.935  28.874  1.00  0.00     0.074 A 
ATOM     41  C   UNL A   1      41.166  26.915  28.888  1.00  0.00     0.031 C 
ATOM     42  C   UNL A   1      47.357  24.736  26.747  1.00  0.00     0.029 A 
ATOM     43  C   UNL A   1      47.281  26.143  27.124  1.00  0.00     0.049 A 
ATOM     44  H   UNL A   1      45.640  27.151  27.922  1.00  0.00     0.167 HD
ATOM     45  C   UNL A   1      42.007  29.218  29.262  1.00  0.00     0.031 A 
ATOM     46  C   UNL A   1      48.286  27.034  27.015  1.00  0.00     0.031 A 
ATOM     47  C   UNL A   1      43.042  30.219  29.258  1.00  0.00     0.049 A 
ATOM     48  C   UNL A   1      48.035  28.467  27.394  1.00  0.00     0.074 A 
ATOM     49  C   UNL A   1      42.963  31.538  29.672  1.00  0.00     0.029 A 
ATOM     50  N   UNL A   1      44.338  30.016  28.810  1.00  0.00    -0.354 N 
ATOM     51  N   UNL A   1      46.940  29.012  27.868  1.00  0.00    -0.248 NA
ATOM     52  C   UNL A   1      49.149  29.409  27.213  1.00  0.00     0.031 C 
ATOM     53  C   UNL A   1      44.198  32.147  29.423  1.00  0.00     0.029 A 
ATOM     54  C   UNL A   1      45.060  31.194  28.901  1.00  0.00     0.049 A 
ATOM     55  H   UNL A   1      44.693  29.160  28.477  1.00  0.00     0.167 HD
ATOM     56  C   UNL A   1      47.236  30.359  28.050  1.00  0.00     0.074 A 
ATOM     57  C   UNL A   1      48.617  30.541  27.655  1.00  0.00     0.031 C 
ATOM     58  C   UNL A   1      46.433  31.355  28.498  1.00  0.00     0.031 A 
BRANCH  45  59
ATOM     59  C   UNL A   1      40.623  29.633  29.679  1.00  0.00    -0.014 A 
ATOM     60  C   UNL A   1      40.254  29.707  31.034  1.00  0.00     0.010 A 
ATOM     61  C   UNL A   1      39.693  30.016  28.694  1.00  0.00     0.010 A 
ATOM     62  C   UNL A   1      38.971  30.132  31.393  1.00  0.00     0.020 A 
ATOM     63  C   UNL A   1      38.418  30.461  29.049  1.00  0.00     0.020 A 
ATOM     64  C   UNL A   1      38.060  30.504  30.398  1.00  0.00     0.054 A 
BRANCH  64  65
ATOM     65  S   UNL A   1      36.414  31.084  30.892  1.00  0.00     0.124 S 
ATOM     66  O   UNL A   1      36.017  30.070  31.867  1.00  0.00    -0.237 OA
ATOM     67  O   UNL A   1      36.690  32.409  31.443  1.00  0.00    -0.237 OA
ATOM     68  O   UNL A   1      35.654  31.078  29.645  1.00  0.00    -0.744 OA
ENDBRANCH  64  65
ENDBRANCH  45  59
BRANCH  46  69
ATOM     69  C   UNL A   1      49.598  26.610  26.454  1.00  0.00    -0.014 A 
ATOM     70  C   UNL A   1      50.543  25.941  27.250  1.00  0.00     0.010 A 
ATOM     71  C   UNL A   1      49.907  26.877  25.106  1.00  0.00     0.010 A 
ATOM     72  C   UNL A   1      51.779  25.564  26.716  1.00  0.00     0.020 A 
ATOM     73  C   UNL A   1      51.128  26.477  24.561  1.00  0.00     0.020 A 
ATOM     74  C   UNL A   1      52.064  25.835  25.374  1.00  0.00     0.054 A 
BRANCH  74  75
ATOM     75  S   UNL A   1      53.656  25.302  24.686  1.00  0.00     0.124 S 
ATOM     76  O   UNL A   1      54.606  25.979  25.563  1.00  0.00    -0.237 OA
ATOM     77  O   UNL A   1      53.594  23.850  24.822  1.00  0.00    -0.237 OA
ATOM     78  O   UNL A   1      53.615  25.793  23.310  1.00  0.00    -0.744 OA
ENDBRANCH  74  75
ENDBRANCH  46  69
BRANCH  58  79
ATOM     79  C   UNL A   1      47.031  32.731  28.599  1.00  0.00    -0.014 A 
ATOM     80  C   UNL A   1      46.922  33.642  27.534  1.00  0.00     0.010 A 
ATOM     81  C   UNL A   1      47.642  33.142  29.797  1.00  0.00     0.010 A 
ATOM     82  C   UNL A   1      47.430  34.938  27.661  1.00  0.00     0.020 A 
ATOM     83  C   UNL A   1      48.129  34.443  29.936  1.00  0.00     0.020 A 
ATOM     84  C   UNL A   1      48.028  35.331  28.862  1.00  0.00     0.054 A 
BRANCH  84  85
ATOM     85  S   UNL A   1      48.619  37.038  29.027  1.00  0.00     0.124 S 
ATOM     86  O   UNL A   1      49.997  36.930  28.558  1.00  0.00    -0.237 OA
ATOM     87  O   UNL A   1      47.713  37.778  28.151  1.00  0.00    -0.237 OA
ATOM     88  O   UNL A   1      48.465  37.322  30.452  1.00  0.00    -0.744 OA
ENDBRANCH  84  85
ENDBRANCH  58  79
ENDBRANCH  32  33
ENDBRANCH  25  27
ENDBRANCH  24  25
ENDBRANCH  23  24
ENDBRANCH   1  23
TORSDOF 17
ENDMDL
