MODEL 1
REMARK VINA RESULT:     -11.2      0.000      0.000
REMARK SMILES C[C@@H](C(=O)OCCOC(=O)c1ccc(-c2c3nc(c(-c4ccc(S(=O)(=O)[O-])cc4)c4ccc([nH]4)c(-c4ccc(S(=O)(=O)[O-])cc4)c4nc(c(-c5ccc(S(=O)(=O)[O-])cc5)c5ccc2[nH]5)C=C4)C=C3)cc1)c1cc(/C=C/S(C)(=O)=O)cc(C(=O)c2ccccc2)c1
REMARK SMILES IDX 6 1 5 2 3 3 4 4 2 5 1 6 71 7 72 8 90 9 73 10 81 11 80 12
REMARK SMILES IDX 74 13 75 14 76 15 77 16 78 17 79 18 82 19 83 20 84 21 85 22
REMARK SMILES IDX 89 23 86 24 88 25 87 26 7 27 8 28 9 29 10 30 11 31 12 32
REMARK SMILES IDX 70 33 13 34 69 35 14 36 15 37 16 38 63 39 17 40 68 41 62 42
REMARK SMILES IDX 64 43 18 44 67 45 61 46 60 47 19 49 49 50 30 51 48 52 31 53
REMARK SMILES IDX 34 54 47 55 65 56 32 57 33 58 46 60 66 61 35 62 20 63 21 64
REMARK SMILES IDX 29 65 22 66 28 67 23 68 24 69 25 70 26 71 27 72 50 73 51 74
REMARK SMILES IDX 59 75 52 76 58 77 53 78 54 79 55 80 56 81 57 82 36 83 37 84
REMARK SMILES IDX 45 85 38 86 44 87 39 88 40 89 41 90 42 91 43 92
REMARK H PARENT 64 48 34 59
REMARK Flexibility Score: inf
ROOT
ATOM      1  C   UNL A   1      34.624  32.249  28.255  1.00  0.00     0.274 C 
ENDROOT
BRANCH   1   2
ATOM      2  O   UNL A   1      34.653  31.133  27.341  1.00  0.00    -0.462 OA
BRANCH   2   3
ATOM      3  C   UNL A   1      33.469  30.489  27.149  1.00  0.00     0.313 C 
ATOM      4  O   UNL A   1      32.381  31.029  27.317  1.00  0.00    -0.252 OA
BRANCH   3   5
ATOM      5  C   UNL A   1      33.639  29.002  26.762  1.00  0.00     0.126 C 
ATOM      6  C   UNL A   1      35.089  28.532  26.934  1.00  0.00     0.025 C 
BRANCH   5   7
ATOM      7  C   UNL A   1      33.047  28.714  25.372  1.00  0.00    -0.033 A 
ATOM      8  C   UNL A   1      31.877  29.331  24.892  1.00  0.00     0.012 A 
ATOM      9  C   UNL A   1      33.640  27.722  24.573  1.00  0.00     0.016 A 
ATOM     10  C   UNL A   1      31.274  28.955  23.674  1.00  0.00    -0.024 A 
ATOM     11  C   UNL A   1      33.022  27.279  23.400  1.00  0.00     0.023 A 
ATOM     12  C   UNL A   1      31.876  27.932  22.924  1.00  0.00     0.020 A 
BRANCH  10  13
ATOM     13  C   UNL A   1      29.996  29.526  23.202  1.00  0.00     0.020 C 
ATOM     14  C   UNL A   1      29.486  30.713  23.576  1.00  0.00     0.106 C 
BRANCH  14  15
ATOM     15  S   UNL A   1      27.955  31.245  22.939  1.00  0.00     0.168 S 
ATOM     16  C   UNL A   1      28.064  30.701  21.248  1.00  0.00     0.163 C 
ATOM     17  O   UNL A   1      26.917  30.450  23.574  1.00  0.00    -0.225 OA
ATOM     18  O   UNL A   1      27.893  32.683  22.926  1.00  0.00    -0.225 OA
ENDBRANCH  14  15
ENDBRANCH  10  13
BRANCH  11  19
ATOM     19  C   UNL A   1      33.515  26.072  22.682  1.00  0.00     0.193 C 
ATOM     20  O   UNL A   1      33.909  26.207  21.528  1.00  0.00    -0.289 OA
BRANCH  19  21
ATOM     21  C   UNL A   1      33.533  24.720  23.328  1.00  0.00     0.022 A 
ATOM     22  C   UNL A   1      32.341  24.209  23.850  1.00  0.00     0.012 A 
ATOM     23  C   UNL A   1      34.701  23.954  23.447  1.00  0.00     0.012 A 
ATOM     24  C   UNL A   1      32.307  22.936  24.429  1.00  0.00     0.001 A 
ATOM     25  C   UNL A   1      34.667  22.678  24.016  1.00  0.00     0.001 A 
ATOM     26  C   UNL A   1      33.467  22.165  24.500  1.00  0.00     0.000 A 
ENDBRANCH  19  21
ENDBRANCH  11  19
ENDBRANCH   5   7
ENDBRANCH   3   5
ENDBRANCH   2   3
ENDBRANCH   1   2
BRANCH   1  27
ATOM     27  C   UNL A   1      35.412  31.934  29.525  1.00  0.00     0.275 C 
BRANCH  27  28
ATOM     28  O   UNL A   1      35.994  30.620  29.439  1.00  0.00    -0.458 OA
BRANCH  28  29
ATOM     29  C   UNL A   1      36.688  30.202  30.518  1.00  0.00     0.338 C 
ATOM     30  O   UNL A   1      36.246  29.872  31.611  1.00  0.00    -0.246 OA
BRANCH  29  31
ATOM     31  C   UNL A   1      38.114  30.117  30.172  1.00  0.00     0.060 A 
ATOM     32  C   UNL A   1      38.450  30.059  28.825  1.00  0.00     0.016 A 
ATOM     33  C   UNL A   1      39.104  29.986  31.148  1.00  0.00     0.016 A 
ATOM     34  C   UNL A   1      39.770  29.836  28.449  1.00  0.00     0.010 A 
ATOM     35  C   UNL A   1      40.440  29.798  30.759  1.00  0.00     0.010 A 
ATOM     36  C   UNL A   1      40.783  29.696  29.401  1.00  0.00    -0.014 A 
BRANCH  36  37
ATOM     37  C   UNL A   1      42.153  29.340  28.934  1.00  0.00     0.031 A 
ATOM     38  C   UNL A   1      42.422  27.962  28.391  1.00  0.00     0.074 A 
ATOM     39  C   UNL A   1      43.123  30.276  28.853  1.00  0.00     0.049 A 
ATOM     40  N   UNL A   1      43.555  27.430  28.008  1.00  0.00    -0.248 NA
ATOM     41  C   UNL A   1      41.260  27.070  28.252  1.00  0.00     0.031 C 
ATOM     42  C   UNL A   1      42.971  31.688  29.206  1.00  0.00     0.029 A 
ATOM     43  N   UNL A   1      44.416  30.188  28.396  1.00  0.00    -0.354 N 
ATOM     44  C   UNL A   1      43.251  26.127  27.631  1.00  0.00     0.074 A 
ATOM     45  C   UNL A   1      41.827  25.954  27.817  1.00  0.00     0.031 C 
ATOM     46  C   UNL A   1      44.099  32.345  28.888  1.00  0.00     0.029 A 
ATOM     47  C   UNL A   1      45.088  31.389  28.397  1.00  0.00     0.049 A 
ATOM     48  H   UNL A   1      44.825  29.343  28.097  1.00  0.00     0.167 HD
ATOM     49  C   UNL A   1      44.087  25.155  27.193  1.00  0.00     0.031 A 
ATOM     50  C   UNL A   1      46.362  31.684  28.070  1.00  0.00     0.031 A 
ATOM     51  C   UNL A   1      45.499  25.332  26.978  1.00  0.00     0.049 A 
ATOM     52  C   UNL A   1      47.292  30.574  27.654  1.00  0.00     0.074 A 
ATOM     53  C   UNL A   1      46.442  24.387  26.611  1.00  0.00     0.029 A 
ATOM     54  N   UNL A   1      46.167  26.541  27.089  1.00  0.00    -0.354 N 
ATOM     55  N   UNL A   1      47.023  29.307  27.445  1.00  0.00    -0.248 NA
ATOM     56  C   UNL A   1      48.706  30.929  27.463  1.00  0.00     0.031 C 
ATOM     57  C   UNL A   1      47.689  25.017  26.539  1.00  0.00     0.029 A 
ATOM     58  C   UNL A   1      47.513  26.364  26.815  1.00  0.00     0.049 A 
ATOM     59  H   UNL A   1      45.747  27.399  27.326  1.00  0.00     0.167 HD
ATOM     60  C   UNL A   1      48.234  28.715  27.102  1.00  0.00     0.074 A 
ATOM     61  C   UNL A   1      49.232  29.766  27.102  1.00  0.00     0.031 C 
ATOM     62  C   UNL A   1      48.499  27.413  26.827  1.00  0.00     0.031 A 
BRANCH  49  63
ATOM     63  C   UNL A   1      43.505  23.780  27.018  1.00  0.00    -0.014 A 
ATOM     64  C   UNL A   1      43.184  23.261  25.752  1.00  0.00     0.010 A 
ATOM     65  C   UNL A   1      43.278  22.992  28.163  1.00  0.00     0.010 A 
ATOM     66  C   UNL A   1      42.606  21.992  25.640  1.00  0.00     0.020 A 
ATOM     67  C   UNL A   1      42.720  21.718  28.053  1.00  0.00     0.020 A 
ATOM     68  C   UNL A   1      42.367  21.234  26.792  1.00  0.00     0.054 A 
BRANCH  68  69
ATOM     69  S   UNL A   1      41.595  19.600  26.627  1.00  0.00     0.124 S 
ATOM     70  O   UNL A   1      42.195  18.873  27.744  1.00  0.00    -0.237 OA
ATOM     71  O   UNL A   1      40.172  19.898  26.764  1.00  0.00    -0.237 OA
ATOM     72  O   UNL A   1      42.010  19.152  25.300  1.00  0.00    -0.744 OA
ENDBRANCH  68  69
ENDBRANCH  49  63
BRANCH  50  73
ATOM     73  C   UNL A   1      46.865  33.082  28.191  1.00  0.00    -0.014 A 
ATOM     74  C   UNL A   1      47.420  33.544  29.398  1.00  0.00     0.010 A 
ATOM     75  C   UNL A   1      46.775  33.967  27.101  1.00  0.00     0.010 A 
ATOM     76  C   UNL A   1      47.861  34.868  29.516  1.00  0.00     0.020 A 
ATOM     77  C   UNL A   1      47.240  35.279  27.205  1.00  0.00     0.020 A 
ATOM     78  C   UNL A   1      47.769  35.727  28.417  1.00  0.00     0.054 A 
BRANCH  78  79
ATOM     79  S   UNL A   1      48.391  37.426  28.562  1.00  0.00     0.124 S 
ATOM     80  O   UNL A   1      47.521  37.982  29.593  1.00  0.00    -0.237 OA
ATOM     81  O   UNL A   1      49.786  37.229  28.950  1.00  0.00    -0.237 OA
ATOM     82  O   UNL A   1      48.201  37.972  27.219  1.00  0.00    -0.744 OA
ENDBRANCH  78  79
ENDBRANCH  50  73
BRANCH  62  83
ATOM     83  C   UNL A   1      49.922  27.047  26.504  1.00  0.00    -0.014 A 
ATOM     84  C   UNL A   1      50.816  26.663  27.520  1.00  0.00     0.010 A 
ATOM     85  C   UNL A   1      50.353  27.022  25.166  1.00  0.00     0.010 A 
ATOM     86  C   UNL A   1      52.123  26.285  27.206  1.00  0.00     0.020 A 
ATOM     87  C   UNL A   1      51.655  26.624  24.845  1.00  0.00     0.020 A 
ATOM     88  C   UNL A   1      52.536  26.268  25.869  1.00  0.00     0.054 A 
BRANCH  88  89
ATOM     89  S   UNL A   1      54.222  25.722  25.481  1.00  0.00     0.124 S 
ATOM     90  O   UNL A   1      53.978  24.500  24.719  1.00  0.00    -0.237 OA
ATOM     91  O   UNL A   1      54.757  26.844  24.713  1.00  0.00    -0.237 OA
ATOM     92  O   UNL A   1      54.834  25.526  26.793  1.00  0.00    -0.744 OA
ENDBRANCH  88  89
ENDBRANCH  62  83
ENDBRANCH  36  37
ENDBRANCH  29  31
ENDBRANCH  28  29
ENDBRANCH  27  28
ENDBRANCH   1  27
TORSDOF 19
ENDMDL
MODEL 2
REMARK VINA RESULT:     -11.2      6.576     12.113
REMARK SMILES C[C@@H](C(=O)OCCOC(=O)c1ccc(-c2c3nc(c(-c4ccc(S(=O)(=O)[O-])cc4)c4ccc([nH]4)c(-c4ccc(S(=O)(=O)[O-])cc4)c4nc(c(-c5ccc(S(=O)(=O)[O-])cc5)c5ccc2[nH]5)C=C4)C=C3)cc1)c1cc(/C=C/S(C)(=O)=O)cc(C(=O)c2ccccc2)c1
REMARK SMILES IDX 6 1 5 2 3 3 4 4 2 5 1 6 71 7 72 8 90 9 73 10 81 11 80 12
REMARK SMILES IDX 74 13 75 14 76 15 77 16 78 17 79 18 82 19 83 20 84 21 85 22
REMARK SMILES IDX 89 23 86 24 88 25 87 26 7 27 8 28 9 29 10 30 11 31 12 32
REMARK SMILES IDX 70 33 13 34 69 35 14 36 15 37 16 38 63 39 17 40 68 41 62 42
REMARK SMILES IDX 64 43 18 44 67 45 61 46 60 47 19 49 49 50 30 51 48 52 31 53
REMARK SMILES IDX 34 54 47 55 65 56 32 57 33 58 46 60 66 61 35 62 20 63 21 64
REMARK SMILES IDX 29 65 22 66 28 67 23 68 24 69 25 70 26 71 27 72 50 73 51 74
REMARK SMILES IDX 59 75 52 76 58 77 53 78 54 79 55 80 56 81 57 82 36 83 37 84
REMARK SMILES IDX 45 85 38 86 44 87 39 88 40 89 41 90 42 91 43 92
REMARK H PARENT 64 48 34 59
REMARK Flexibility Score: inf
ROOT
ATOM      1  C   UNL A   1      39.328  21.600  25.931  1.00  0.00     0.274 C 
ENDROOT
BRANCH   1   2
ATOM      2  O   UNL A   1      37.947  22.001  26.049  1.00  0.00    -0.462 OA
BRANCH   2   3
ATOM      3  C   UNL A   1      37.266  22.144  24.878  1.00  0.00     0.313 C 
ATOM      4  O   UNL A   1      37.667  21.688  23.813  1.00  0.00    -0.252 OA
BRANCH   3   5
ATOM      5  C   UNL A   1      35.978  22.986  25.021  1.00  0.00     0.126 C 
ATOM      6  C   UNL A   1      36.124  24.070  26.098  1.00  0.00     0.025 C 
BRANCH   5   7
ATOM      7  C   UNL A   1      34.740  22.092  25.197  1.00  0.00    -0.033 A 
ATOM      8  C   UNL A   1      34.740  20.713  24.911  1.00  0.00     0.012 A 
ATOM      9  C   UNL A   1      33.521  22.682  25.569  1.00  0.00     0.016 A 
ATOM     10  C   UNL A   1      33.564  19.937  24.947  1.00  0.00    -0.024 A 
ATOM     11  C   UNL A   1      32.328  21.953  25.539  1.00  0.00     0.023 A 
ATOM     12  C   UNL A   1      32.359  20.574  25.285  1.00  0.00     0.020 A 
BRANCH  10  13
ATOM     13  C   UNL A   1      33.532  18.512  24.559  1.00  0.00     0.020 C 
ATOM     14  C   UNL A   1      33.829  17.477  25.364  1.00  0.00     0.106 C 
BRANCH  14  15
ATOM     15  S   UNL A   1      33.756  15.847  24.754  1.00  0.00     0.168 S 
ATOM     16  C   UNL A   1      32.299  15.227  25.566  1.00  0.00     0.163 C 
ATOM     17  O   UNL A   1      33.449  15.925  23.335  1.00  0.00    -0.225 OA
ATOM     18  O   UNL A   1      34.877  15.084  25.237  1.00  0.00    -0.225 OA
ENDBRANCH  14  15
ENDBRANCH  10  13
BRANCH  11  19
ATOM     19  C   UNL A   1      31.012  22.628  25.696  1.00  0.00     0.193 C 
ATOM     20  O   UNL A   1      30.086  21.984  26.181  1.00  0.00    -0.289 OA
BRANCH  19  21
ATOM     21  C   UNL A   1      30.797  24.051  25.277  1.00  0.00     0.022 A 
ATOM     22  C   UNL A   1      30.591  24.327  23.921  1.00  0.00     0.012 A 
ATOM     23  C   UNL A   1      30.812  25.118  26.185  1.00  0.00     0.012 A 
ATOM     24  C   UNL A   1      30.351  25.637  23.492  1.00  0.00     0.001 A 
ATOM     25  C   UNL A   1      30.563  26.425  25.759  1.00  0.00     0.001 A 
ATOM     26  C   UNL A   1      30.324  26.684  24.413  1.00  0.00     0.000 A 
ENDBRANCH  19  21
ENDBRANCH  11  19
ENDBRANCH   5   7
ENDBRANCH   3   5
ENDBRANCH   2   3
ENDBRANCH   1   2
BRANCH   1  27
ATOM     27  C   UNL A   1      40.243  22.568  26.677  1.00  0.00     0.275 C 
BRANCH  27  28
ATOM     28  O   UNL A   1      39.563  23.813  26.919  1.00  0.00    -0.458 OA
BRANCH  28  29
ATOM     29  C   UNL A   1      40.198  24.931  26.508  1.00  0.00     0.338 C 
ATOM     30  O   UNL A   1      40.534  25.224  25.367  1.00  0.00    -0.246 OA
BRANCH  29  31
ATOM     31  C   UNL A   1      40.376  25.834  27.653  1.00  0.00     0.060 A 
ATOM     32  C   UNL A   1      39.416  25.804  28.657  1.00  0.00     0.016 A 
ATOM     33  C   UNL A   1      41.407  26.775  27.698  1.00  0.00     0.016 A 
ATOM     34  C   UNL A   1      39.461  26.735  29.689  1.00  0.00     0.010 A 
ATOM     35  C   UNL A   1      41.468  27.688  28.763  1.00  0.00     0.010 A 
ATOM     36  C   UNL A   1      40.477  27.692  29.759  1.00  0.00    -0.014 A 
BRANCH  36  37
ATOM     37  C   UNL A   1      40.400  28.733  30.823  1.00  0.00     0.031 A 
ATOM     38  C   UNL A   1      41.466  28.796  31.885  1.00  0.00     0.074 A 
ATOM     39  C   UNL A   1      39.474  29.713  30.768  1.00  0.00     0.049 A 
ATOM     40  N   UNL A   1      41.541  29.571  32.936  1.00  0.00    -0.248 NA
ATOM     41  C   UNL A   1      42.600  27.870  31.736  1.00  0.00     0.031 C 
ATOM     42  C   UNL A   1      38.464  29.868  29.720  1.00  0.00     0.029 A 
ATOM     43  N   UNL A   1      39.264  30.795  31.590  1.00  0.00    -0.354 N 
ATOM     44  C   UNL A   1      42.702  29.193  33.602  1.00  0.00     0.074 A 
ATOM     45  C   UNL A   1      43.306  28.130  32.827  1.00  0.00     0.031 C 
ATOM     46  C   UNL A   1      37.792  31.014  29.921  1.00  0.00     0.029 A 
ATOM     47  C   UNL A   1      38.255  31.628  31.163  1.00  0.00     0.049 A 
ATOM     48  H   UNL A   1      39.787  30.958  32.408  1.00  0.00     0.167 HD
ATOM     49  C   UNL A   1      43.206  29.670  34.765  1.00  0.00     0.031 A 
ATOM     50  C   UNL A   1      37.740  32.742  31.722  1.00  0.00     0.031 A 
ATOM     51  C   UNL A   1      42.624  30.746  35.522  1.00  0.00     0.049 A 
ATOM     52  C   UNL A   1      38.270  33.212  33.051  1.00  0.00     0.074 A 
ATOM     53  C   UNL A   1      43.018  31.249  36.751  1.00  0.00     0.029 A 
ATOM     54  N   UNL A   1      41.538  31.503  35.111  1.00  0.00    -0.354 N 
ATOM     55  N   UNL A   1      39.280  32.749  33.748  1.00  0.00    -0.248 NA
ATOM     56  C   UNL A   1      37.565  34.336  33.687  1.00  0.00     0.031 C 
ATOM     57  C   UNL A   1      42.143  32.283  37.102  1.00  0.00     0.029 A 
ATOM     58  C   UNL A   1      41.236  32.456  36.069  1.00  0.00     0.049 A 
ATOM     59  H   UNL A   1      41.054  31.381  34.263  1.00  0.00     0.167 HD
ATOM     60  C   UNL A   1      39.330  33.522  34.902  1.00  0.00     0.074 A 
ATOM     61  C   UNL A   1      38.268  34.502  34.799  1.00  0.00     0.031 C 
ATOM     62  C   UNL A   1      40.171  33.419  35.962  1.00  0.00     0.031 A 
BRANCH  49  63
ATOM     63  C   UNL A   1      44.396  28.953  35.340  1.00  0.00    -0.014 A 
ATOM     64  C   UNL A   1      45.714  29.360  35.070  1.00  0.00     0.010 A 
ATOM     65  C   UNL A   1      44.176  27.842  36.176  1.00  0.00     0.010 A 
ATOM     66  C   UNL A   1      46.792  28.637  35.593  1.00  0.00     0.020 A 
ATOM     67  C   UNL A   1      45.248  27.132  36.716  1.00  0.00     0.020 A 
ATOM     68  C   UNL A   1      46.552  27.522  36.403  1.00  0.00     0.054 A 
BRANCH  68  69
ATOM     69  S   UNL A   1      47.963  26.585  37.053  1.00  0.00     0.124 S 
ATOM     70  O   UNL A   1      47.454  25.216  37.019  1.00  0.00    -0.237 OA
ATOM     71  O   UNL A   1      49.022  26.886  36.094  1.00  0.00    -0.237 OA
ATOM     72  O   UNL A   1      48.162  27.140  38.390  1.00  0.00    -0.744 OA
ENDBRANCH  68  69
ENDBRANCH  49  63
BRANCH  50  73
ATOM     73  C   UNL A   1      36.607  33.456  31.067  1.00  0.00    -0.014 A 
ATOM     74  C   UNL A   1      36.775  34.077  29.816  1.00  0.00     0.010 A 
ATOM     75  C   UNL A   1      35.354  33.534  31.703  1.00  0.00     0.010 A 
ATOM     76  C   UNL A   1      35.716  34.774  29.222  1.00  0.00     0.020 A 
ATOM     77  C   UNL A   1      34.287  34.203  31.099  1.00  0.00     0.020 A 
ATOM     78  C   UNL A   1      34.477  34.831  29.867  1.00  0.00     0.054 A 
BRANCH  78  79
ATOM     79  S   UNL A   1      33.096  35.691  29.065  1.00  0.00     0.124 S 
ATOM     80  O   UNL A   1      33.785  36.720  28.293  1.00  0.00    -0.237 OA
ATOM     81  O   UNL A   1      32.462  34.631  28.284  1.00  0.00    -0.237 OA
ATOM     82  O   UNL A   1      32.300  36.179  30.191  1.00  0.00    -0.744 OA
ENDBRANCH  78  79
ENDBRANCH  50  73
BRANCH  62  83
ATOM     83  C   UNL A   1      39.980  34.387  37.098  1.00  0.00    -0.014 A 
ATOM     84  C   UNL A   1      40.655  35.621  37.115  1.00  0.00     0.010 A 
ATOM     85  C   UNL A   1      39.069  34.090  38.127  1.00  0.00     0.010 A 
ATOM     86  C   UNL A   1      40.440  36.531  38.153  1.00  0.00     0.020 A 
ATOM     87  C   UNL A   1      38.835  35.006  39.157  1.00  0.00     0.020 A 
ATOM     88  C   UNL A   1      39.531  36.217  39.169  1.00  0.00     0.054 A 
BRANCH  88  89
ATOM     89  S   UNL A   1      39.229  37.436  40.479  1.00  0.00     0.124 S 
ATOM     90  O   UNL A   1      38.127  38.215  39.920  1.00  0.00    -0.237 OA
ATOM     91  O   UNL A   1      38.887  36.601  41.627  1.00  0.00    -0.237 OA
ATOM     92  O   UNL A   1      40.500  38.148  40.590  1.00  0.00    -0.744 OA
ENDBRANCH  88  89
ENDBRANCH  62  83
ENDBRANCH  36  37
ENDBRANCH  29  31
ENDBRANCH  28  29
ENDBRANCH  27  28
ENDBRANCH   1  27
TORSDOF 19
ENDMDL
MODEL 3
REMARK VINA RESULT:     -10.9      2.901      9.361
REMARK SMILES C[C@@H](C(=O)OCCOC(=O)c1ccc(-c2c3nc(c(-c4ccc(S(=O)(=O)[O-])cc4)c4ccc([nH]4)c(-c4ccc(S(=O)(=O)[O-])cc4)c4nc(c(-c5ccc(S(=O)(=O)[O-])cc5)c5ccc2[nH]5)C=C4)C=C3)cc1)c1cc(/C=C/S(C)(=O)=O)cc(C(=O)c2ccccc2)c1
REMARK SMILES IDX 6 1 5 2 3 3 4 4 2 5 1 6 71 7 72 8 90 9 73 10 81 11 80 12
REMARK SMILES IDX 74 13 75 14 76 15 77 16 78 17 79 18 82 19 83 20 84 21 85 22
REMARK SMILES IDX 89 23 86 24 88 25 87 26 7 27 8 28 9 29 10 30 11 31 12 32
REMARK SMILES IDX 70 33 13 34 69 35 14 36 15 37 16 38 63 39 17 40 68 41 62 42
REMARK SMILES IDX 64 43 18 44 67 45 61 46 60 47 19 49 49 50 30 51 48 52 31 53
REMARK SMILES IDX 34 54 47 55 65 56 32 57 33 58 46 60 66 61 35 62 20 63 21 64
REMARK SMILES IDX 29 65 22 66 28 67 23 68 24 69 25 70 26 71 27 72 50 73 51 74
REMARK SMILES IDX 59 75 52 76 58 77 53 78 54 79 55 80 56 81 57 82 36 83 37 84
REMARK SMILES IDX 45 85 38 86 44 87 39 88 40 89 41 90 42 91 43 92
REMARK H PARENT 64 48 34 59
REMARK Flexibility Score: inf
ROOT
ATOM      1  C   UNL A   1      39.551  21.932  26.006  1.00  0.00     0.274 C 
ENDROOT
BRANCH   1   2
ATOM      2  O   UNL A   1      38.312  22.397  26.583  1.00  0.00    -0.462 OA
BRANCH   2   3
ATOM      3  C   UNL A   1      37.636  23.336  25.866  1.00  0.00     0.313 C 
ATOM      4  O   UNL A   1      37.634  24.526  26.160  1.00  0.00    -0.252 OA
BRANCH   3   5
ATOM      5  C   UNL A   1      36.830  22.740  24.689  1.00  0.00     0.126 C 
ATOM      6  C   UNL A   1      36.573  23.781  23.591  1.00  0.00     0.025 C 
BRANCH   5   7
ATOM      7  C   UNL A   1      35.562  22.026  25.184  1.00  0.00    -0.033 A 
ATOM      8  C   UNL A   1      35.322  20.654  24.980  1.00  0.00     0.012 A 
ATOM      9  C   UNL A   1      34.545  22.785  25.787  1.00  0.00     0.016 A 
ATOM     10  C   UNL A   1      34.096  20.046  25.319  1.00  0.00    -0.024 A 
ATOM     11  C   UNL A   1      33.294  22.224  26.063  1.00  0.00     0.023 A 
ATOM     12  C   UNL A   1      33.091  20.848  25.883  1.00  0.00     0.020 A 
BRANCH  10  13
ATOM     13  C   UNL A   1      33.796  18.630  25.025  1.00  0.00     0.020 C 
ATOM     14  C   UNL A   1      34.701  17.694  24.686  1.00  0.00     0.106 C 
BRANCH  14  15
ATOM     15  S   UNL A   1      34.187  16.063  24.356  1.00  0.00     0.168 S 
ATOM     16  C   UNL A   1      32.584  16.030  25.128  1.00  0.00     0.163 C 
ATOM     17  O   UNL A   1      33.969  15.955  22.922  1.00  0.00    -0.225 OA
ATOM     18  O   UNL A   1      35.024  15.125  25.058  1.00  0.00    -0.225 OA
ENDBRANCH  14  15
ENDBRANCH  10  13
BRANCH  11  19
ATOM     19  C   UNL A   1      32.145  23.075  26.474  1.00  0.00     0.193 C 
ATOM     20  O   UNL A   1      31.782  23.028  27.645  1.00  0.00    -0.289 OA
BRANCH  19  21
ATOM     21  C   UNL A   1      31.433  23.966  25.502  1.00  0.00     0.022 A 
ATOM     22  C   UNL A   1      31.140  25.279  25.886  1.00  0.00     0.012 A 
ATOM     23  C   UNL A   1      31.032  23.532  24.231  1.00  0.00     0.012 A 
ATOM     24  C   UNL A   1      30.508  26.154  24.996  1.00  0.00     0.001 A 
ATOM     25  C   UNL A   1      30.410  24.409  23.338  1.00  0.00     0.001 A 
ATOM     26  C   UNL A   1      30.156  25.723  23.717  1.00  0.00     0.000 A 
ENDBRANCH  19  21
ENDBRANCH  11  19
ENDBRANCH   5   7
ENDBRANCH   3   5
ENDBRANCH   2   3
ENDBRANCH   1   2
BRANCH   1  27
ATOM     27  C   UNL A   1      39.581  20.407  25.935  1.00  0.00     0.275 C 
BRANCH  27  28
ATOM     28  O   UNL A   1      40.617  19.888  26.790  1.00  0.00    -0.458 OA
BRANCH  28  29
ATOM     29  C   UNL A   1      41.829  19.713  26.223  1.00  0.00     0.338 C 
ATOM     30  O   UNL A   1      42.241  18.724  25.629  1.00  0.00    -0.246 OA
BRANCH  29  31
ATOM     31  C   UNL A   1      42.604  20.954  26.349  1.00  0.00     0.060 A 
ATOM     32  C   UNL A   1      42.776  21.485  27.622  1.00  0.00     0.016 A 
ATOM     33  C   UNL A   1      43.067  21.652  25.231  1.00  0.00     0.016 A 
ATOM     34  C   UNL A   1      43.377  22.728  27.780  1.00  0.00     0.010 A 
ATOM     35  C   UNL A   1      43.707  22.890  25.402  1.00  0.00     0.010 A 
ATOM     36  C   UNL A   1      43.847  23.453  26.682  1.00  0.00    -0.014 A 
BRANCH  36  37
ATOM     37  C   UNL A   1      44.372  24.829  26.911  1.00  0.00     0.031 A 
ATOM     38  C   UNL A   1      43.471  25.885  27.493  1.00  0.00     0.074 A 
ATOM     39  C   UNL A   1      45.682  25.108  26.743  1.00  0.00     0.049 A 
ATOM     40  N   UNL A   1      43.709  27.155  27.696  1.00  0.00    -0.248 NA
ATOM     41  C   UNL A   1      42.128  25.449  27.909  1.00  0.00     0.031 C 
ATOM     42  C   UNL A   1      46.706  24.150  26.323  1.00  0.00     0.029 A 
ATOM     43  N   UNL A   1      46.386  26.269  26.957  1.00  0.00    -0.354 N 
ATOM     44  C   UNL A   1      42.532  27.682  28.216  1.00  0.00     0.074 A 
ATOM     45  C   UNL A   1      41.586  26.590  28.310  1.00  0.00     0.031 C 
ATOM     46  C   UNL A   1      47.911  24.741  26.378  1.00  0.00     0.029 A 
ATOM     47  C   UNL A   1      47.740  26.144  26.744  1.00  0.00     0.049 A 
ATOM     48  H   UNL A   1      45.960  27.112  27.235  1.00  0.00     0.167 HD
ATOM     49  C   UNL A   1      42.255  28.963  28.560  1.00  0.00     0.031 A 
ATOM     50  C   UNL A   1      48.727  27.061  26.807  1.00  0.00     0.031 A 
ATOM     51  C   UNL A   1      43.202  30.044  28.495  1.00  0.00     0.049 A 
ATOM     52  C   UNL A   1      48.384  28.493  27.122  1.00  0.00     0.074 A 
ATOM     53  C   UNL A   1      42.994  31.390  28.749  1.00  0.00     0.029 A 
ATOM     54  N   UNL A   1      44.543  29.901  28.176  1.00  0.00    -0.354 N 
ATOM     55  N   UNL A   1      47.228  29.009  27.468  1.00  0.00    -0.248 NA
ATOM     56  C   UNL A   1      49.474  29.475  27.020  1.00  0.00     0.031 C 
ATOM     57  C   UNL A   1      44.201  32.066  28.541  1.00  0.00     0.029 A 
ATOM     58  C   UNL A   1      45.171  31.135  28.207  1.00  0.00     0.049 A 
ATOM     59  H   UNL A   1      44.983  29.048  27.959  1.00  0.00     0.167 HD
ATOM     60  C   UNL A   1      47.453  30.372  27.622  1.00  0.00     0.074 A 
ATOM     61  C   UNL A   1      48.860  30.600  27.361  1.00  0.00     0.031 C 
ATOM     62  C   UNL A   1      46.569  31.352  27.936  1.00  0.00     0.031 A 
BRANCH  49  63
ATOM     63  C   UNL A   1      40.835  29.277  28.939  1.00  0.00    -0.014 A 
ATOM     64  C   UNL A   1      39.838  29.504  27.973  1.00  0.00     0.010 A 
ATOM     65  C   UNL A   1      40.498  29.343  30.304  1.00  0.00     0.010 A 
ATOM     66  C   UNL A   1      38.539  29.834  28.371  1.00  0.00     0.020 A 
ATOM     67  C   UNL A   1      39.197  29.652  30.704  1.00  0.00     0.020 A 
ATOM     68  C   UNL A   1      38.230  29.917  29.733  1.00  0.00     0.054 A 
BRANCH  68  69
ATOM     69  S   UNL A   1      36.544  30.369  30.229  1.00  0.00     0.124 S 
ATOM     70  O   UNL A   1      35.763  29.909  29.082  1.00  0.00    -0.237 OA
ATOM     71  O   UNL A   1      36.354  29.612  31.463  1.00  0.00    -0.237 OA
ATOM     72  O   UNL A   1      36.607  31.819  30.394  1.00  0.00    -0.744 OA
ENDBRANCH  68  69
ENDBRANCH  49  63
BRANCH  50  73
ATOM     73  C   UNL A   1      50.133  26.674  26.493  1.00  0.00    -0.014 A 
ATOM     74  C   UNL A   1      50.595  26.659  25.166  1.00  0.00     0.010 A 
ATOM     75  C   UNL A   1      51.013  26.299  27.525  1.00  0.00     0.010 A 
ATOM     76  C   UNL A   1      51.906  26.264  24.875  1.00  0.00     0.020 A 
ATOM     77  C   UNL A   1      52.330  25.933  27.242  1.00  0.00     0.020 A 
ATOM     78  C   UNL A   1      52.767  25.904  25.917  1.00  0.00     0.054 A 
BRANCH  78  79
ATOM     79  S   UNL A   1      54.480  25.444  25.535  1.00  0.00     0.124 S 
ATOM     80  O   UNL A   1      55.225  26.166  26.561  1.00  0.00    -0.237 OA
ATOM     81  O   UNL A   1      54.463  23.989  25.671  1.00  0.00    -0.237 OA
ATOM     82  O   UNL A   1      54.664  25.928  24.168  1.00  0.00    -0.744 OA
ENDBRANCH  78  79
ENDBRANCH  50  73
BRANCH  62  83
ATOM     83  C   UNL A   1      47.090  32.760  28.015  1.00  0.00    -0.014 A 
ATOM     84  C   UNL A   1      47.078  33.598  26.885  1.00  0.00     0.010 A 
ATOM     85  C   UNL A   1      47.538  33.275  29.245  1.00  0.00     0.010 A 
ATOM     86  C   UNL A   1      47.526  34.918  26.978  1.00  0.00     0.020 A 
ATOM     87  C   UNL A   1      47.969  34.601  29.347  1.00  0.00     0.020 A 
ATOM     88  C   UNL A   1      47.970  35.412  28.209  1.00  0.00     0.054 A 
BRANCH  88  89
ATOM     89  S   UNL A   1      48.498  37.145  28.318  1.00  0.00     0.124 S 
ATOM     90  O   UNL A   1      49.863  37.016  28.821  1.00  0.00    -0.237 OA
ATOM     91  O   UNL A   1      48.379  37.607  26.937  1.00  0.00    -0.237 OA
ATOM     92  O   UNL A   1      47.543  37.739  29.251  1.00  0.00    -0.744 OA
ENDBRANCH  88  89
ENDBRANCH  62  83
ENDBRANCH  36  37
ENDBRANCH  29  31
ENDBRANCH  28  29
ENDBRANCH  27  28
ENDBRANCH   1  27
TORSDOF 19
ENDMDL
