MODEL 1
REMARK VINA RESULT:     -13.7      0.000      0.000
REMARK SMILES Cc1ccc([C@@H]2[C@H](C(=O)OCCOC(=O)c3ccc(-c4c5nc(c(-c6ccc(S(=O)(=O)[O-])cc6)c6ccc([nH]6)c(-c6ccc(S(=O)(=O)[O-])cc6)c6nc(c(-c7ccc(S(=O)(=O)[O-])cc7)c7ccc4[nH]7)C=C6)C=C5)cc3)c3ccccc3C(=O)N2c2ccccc2)cc1
REMARK SMILES IDX 12 1 11 2 10 3 8 4 9 5 7 6 6 7 84 8 76 9 82 10 77 11 81 12
REMARK SMILES IDX 83 13 78 14 80 15 79 16 5 17 1 18 2 19 3 20 92 21 4 22 91 23
REMARK SMILES IDX 85 24 86 25 90 26 87 27 89 28 88 29 13 30 14 31 15 32 16 33
REMARK SMILES IDX 17 34 75 35 18 36 74 37 19 38 20 39 21 40 68 41 22 42 73 43
REMARK SMILES IDX 67 44 69 45 23 46 72 47 66 48 65 49 24 51 54 52 35 53 53 54
REMARK SMILES IDX 36 55 39 56 52 57 70 58 37 59 38 60 51 62 71 63 40 64 25 65
REMARK SMILES IDX 26 66 34 67 27 68 33 69 28 70 29 71 30 72 31 73 32 74 55 75
REMARK SMILES IDX 56 76 64 77 57 78 63 79 58 80 59 81 60 82 61 83 62 84 41 85
REMARK SMILES IDX 42 86 50 87 43 88 49 89 44 90 45 91 46 92 47 93 48 94
REMARK H PARENT 69 50 39 61
REMARK Flexibility Score: inf
ROOT
ATOM      1  C   UNL A   1      45.195  35.270  32.359  1.00  0.00     0.275 C 
ENDROOT
BRANCH   1   2
ATOM      2  C   UNL A   1      43.891  33.880  32.669  1.00  0.00     0.274 C 
BRANCH   2   3
ATOM      3  O   UNL A   1      42.118  33.807  32.230  1.00  0.00    -0.462 OA
BRANCH   3   4
ATOM      4  C   UNL A   1      40.193  33.837  32.292  1.00  0.00     0.316 C 
ATOM      5  O   UNL A   1      39.516  34.727  31.721  1.00  0.00    -0.251 OA
BRANCH   4   6
ATOM      6  C   UNL A   1      39.044  32.665  33.208  1.00  0.00     0.157 C 
ATOM      7  C   UNL A   1      39.825  31.678  34.218  1.00  0.00     0.140 C 
ATOM      8  N   UNL A   1      39.945  32.362  35.583  1.00  0.00    -0.300 N 
ATOM      9  C   UNL A   1      37.629  32.962  34.070  1.00  0.00    -0.019 A 
ATOM     10  C   UNL A   1      38.737  32.180  36.243  1.00  0.00     0.259 C 
ATOM     11  C   UNL A   1      36.462  33.533  33.521  1.00  0.00     0.005 A 
ATOM     12  C   UNL A   1      37.596  32.776  35.495  1.00  0.00     0.044 A 
ATOM     13  O   UNL A   1      38.550  31.512  37.251  1.00  0.00    -0.269 OA
ATOM     14  C   UNL A   1      35.562  34.238  34.356  1.00  0.00     0.000 A 
ATOM     15  C   UNL A   1      36.614  33.359  36.315  1.00  0.00     0.014 A 
ATOM     16  C   UNL A   1      35.666  34.190  35.746  1.00  0.00     0.001 A 
BRANCH   7  17
ATOM     17  C   UNL A   1      40.621  30.412  33.743  1.00  0.00    -0.024 A 
ATOM     18  C   UNL A   1      42.341  26.641  34.622  1.00  0.00     0.044 C 
ATOM     19  C   UNL A   1      41.934  27.894  33.895  1.00  0.00    -0.051 A 
ATOM     20  C   UNL A   1      40.700  28.019  33.273  1.00  0.00     0.004 A 
ATOM     21  C   UNL A   1      42.677  29.058  34.003  1.00  0.00     0.004 A 
ATOM     22  C   UNL A   1      40.090  29.293  33.132  1.00  0.00     0.006 A 
ATOM     23  C   UNL A   1      42.020  30.305  33.934  1.00  0.00     0.006 A 
ENDBRANCH   7  17
BRANCH   8  24
ATOM     24  C   UNL A   1      40.461  33.772  35.671  1.00  0.00     0.045 A 
ATOM     25  C   UNL A   1      42.163  34.104  35.518  1.00  0.00     0.026 A 
ATOM     26  C   UNL A   1      39.459  34.846  36.496  1.00  0.00     0.026 A 
ATOM     27  C   UNL A   1      42.937  35.342  36.576  1.00  0.00     0.002 A 
ATOM     28  C   UNL A   1      39.953  36.282  37.312  1.00  0.00     0.002 A 
ATOM     29  C   UNL A   1      41.723  36.525  37.585  1.00  0.00     0.000 A 
ENDBRANCH   8  24
ENDBRANCH   4   6
ENDBRANCH   3   4
ENDBRANCH   2   3
ENDBRANCH   1   2
BRANCH   1  30
ATOM     30  O   UNL A   1      45.454  35.984  30.674  1.00  0.00    -0.458 OA
BRANCH  30  31
ATOM     31  C   UNL A   1      44.070  36.163  29.525  1.00  0.00     0.338 C 
ATOM     32  O   UNL A   1      43.716  37.337  29.495  1.00  0.00    -0.246 OA
BRANCH  31  33
ATOM     33  C   UNL A   1      43.663  34.258  28.571  1.00  0.00     0.060 A 
ATOM     34  C   UNL A   1      43.667  34.051  26.675  1.00  0.00     0.016 A 
ATOM     35  C   UNL A   1      44.294  32.711  29.446  1.00  0.00     0.016 A 
ATOM     36  C   UNL A   1      44.020  32.392  25.961  1.00  0.00     0.010 A 
ATOM     37  C   UNL A   1      44.945  31.390  28.656  1.00  0.00     0.010 A 
ATOM     38  C   UNL A   1      44.579  31.090  27.058  1.00  0.00    -0.014 A 
BRANCH  38  39
ATOM     39  C   UNL A   1      44.308  29.611  27.146  1.00  0.00     0.031 A 
ATOM     40  C   UNL A   1      45.141  28.766  26.275  1.00  0.00     0.074 A 
ATOM     41  C   UNL A   1      43.362  29.140  28.074  1.00  0.00     0.049 A 
ATOM     42  N   UNL A   1      44.946  27.537  25.919  1.00  0.00    -0.248 NA
ATOM     43  C   UNL A   1      46.330  29.324  25.586  1.00  0.00     0.031 C 
ATOM     44  C   UNL A   1      43.676  28.494  29.384  1.00  0.00     0.029 A 
ATOM     45  N   UNL A   1      42.123  29.706  28.469  1.00  0.00    -0.354 N 
ATOM     46  C   UNL A   1      46.250  27.123  25.689  1.00  0.00     0.074 A 
ATOM     47  C   UNL A   1      46.870  28.237  25.042  1.00  0.00     0.031 C 
ATOM     48  C   UNL A   1      42.598  28.451  30.211  1.00  0.00     0.029 A 
ATOM     49  C   UNL A   1      41.499  29.174  29.594  1.00  0.00     0.049 A 
ATOM     50  H   UNL A   1      41.719  30.449  27.966  1.00  0.00     0.167 HD
ATOM     51  C   UNL A   1      46.844  26.324  26.637  1.00  0.00     0.031 A 
ATOM     52  C   UNL A   1      40.202  28.763  29.482  1.00  0.00     0.031 A 
ATOM     53  C   UNL A   1      45.875  25.911  27.666  1.00  0.00     0.049 A 
ATOM     54  C   UNL A   1      40.291  27.382  28.852  1.00  0.00     0.074 A 
ATOM     55  C   UNL A   1      45.773  26.066  29.037  1.00  0.00     0.029 A 
ATOM     56  N   UNL A   1      44.621  25.491  27.255  1.00  0.00    -0.354 N 
ATOM     57  N   UNL A   1      41.433  26.860  28.489  1.00  0.00    -0.248 NA
ATOM     58  C   UNL A   1      39.194  26.445  28.674  1.00  0.00     0.031 C 
ATOM     59  C   UNL A   1      44.459  25.638  29.431  1.00  0.00     0.029 A 
ATOM     60  C   UNL A   1      43.740  25.310  28.294  1.00  0.00     0.049 A 
ATOM     61  H   UNL A   1      44.383  25.337  26.312  1.00  0.00     0.167 HD
ATOM     62  C   UNL A   1      41.304  25.551  28.182  1.00  0.00     0.074 A 
ATOM     63  C   UNL A   1      39.856  25.364  28.213  1.00  0.00     0.031 C 
ATOM     64  C   UNL A   1      42.412  24.766  27.985  1.00  0.00     0.031 A 
BRANCH  51  65
ATOM     65  C   UNL A   1      48.344  26.111  26.791  1.00  0.00    -0.014 A 
ATOM     66  C   UNL A   1      49.098  25.890  25.623  1.00  0.00     0.010 A 
ATOM     67  C   UNL A   1      49.084  26.164  27.995  1.00  0.00     0.010 A 
ATOM     68  C   UNL A   1      50.494  25.783  25.638  1.00  0.00     0.020 A 
ATOM     69  C   UNL A   1      50.486  26.056  28.028  1.00  0.00     0.020 A 
ATOM     70  C   UNL A   1      51.184  25.891  26.840  1.00  0.00     0.054 A 
BRANCH  70  71
ATOM     71  S   UNL A   1      52.993  25.880  26.806  1.00  0.00     0.124 S 
ATOM     72  O   UNL A   1      53.332  26.061  28.215  1.00  0.00    -0.237 OA
ATOM     73  O   UNL A   1      53.284  24.561  26.249  1.00  0.00    -0.237 OA
ATOM     74  O   UNL A   1      53.330  27.007  25.938  1.00  0.00    -0.744 OA
ENDBRANCH  70  71
ENDBRANCH  51  65
BRANCH  52  75
ATOM     75  C   UNL A   1      39.288  29.896  29.089  1.00  0.00    -0.014 A 
ATOM     76  C   UNL A   1      38.307  29.720  28.083  1.00  0.00     0.010 A 
ATOM     77  C   UNL A   1      39.045  30.916  30.003  1.00  0.00     0.010 A 
ATOM     78  C   UNL A   1      37.151  30.533  28.000  1.00  0.00     0.020 A 
ATOM     79  C   UNL A   1      37.809  31.589  30.006  1.00  0.00     0.020 A 
ATOM     80  C   UNL A   1      36.907  31.503  28.955  1.00  0.00     0.054 A 
BRANCH  80  81
ATOM     81  S   UNL A   1      35.418  32.567  28.703  1.00  0.00     0.124 S 
ATOM     82  O   UNL A   1      34.389  31.585  28.385  1.00  0.00    -0.237 OA
ATOM     83  O   UNL A   1      35.292  33.203  30.009  1.00  0.00    -0.237 OA
ATOM     84  O   UNL A   1      35.734  33.450  27.590  1.00  0.00    -0.744 OA
ENDBRANCH  80  81
ENDBRANCH  52  75
BRANCH  64  85
ATOM     85  C   UNL A   1      42.374  23.362  27.450  1.00  0.00    -0.014 A 
ATOM     86  C   UNL A   1      42.741  23.040  26.148  1.00  0.00     0.010 A 
ATOM     87  C   UNL A   1      41.941  22.289  28.272  1.00  0.00     0.010 A 
ATOM     88  C   UNL A   1      42.801  21.719  25.721  1.00  0.00     0.020 A 
ATOM     89  C   UNL A   1      41.963  20.965  27.853  1.00  0.00     0.020 A 
ATOM     90  C   UNL A   1      42.414  20.692  26.575  1.00  0.00     0.054 A 
BRANCH  90  91
ATOM     91  S   UNL A   1      42.424  19.019  25.929  1.00  0.00     0.124 S 
ATOM     92  O   UNL A   1      41.005  18.797  25.658  1.00  0.00    -0.237 OA
ATOM     93  O   UNL A   1      43.275  19.156  24.751  1.00  0.00    -0.237 OA
ATOM     94  O   UNL A   1      42.982  18.225  27.019  1.00  0.00    -0.744 OA
ENDBRANCH  90  91
ENDBRANCH  64  85
ENDBRANCH  38  39
ENDBRANCH  31  33
ENDBRANCH  30  31
ENDBRANCH   1  30
TORSDOF 16
ENDMDL
MODEL 2
REMARK VINA RESULT:     -13.1      5.092      9.116
REMARK SMILES Cc1ccc([C@@H]2[C@H](C(=O)OCCOC(=O)c3ccc(-c4c5nc(c(-c6ccc(S(=O)(=O)[O-])cc6)c6ccc([nH]6)c(-c6ccc(S(=O)(=O)[O-])cc6)c6nc(c(-c7ccc(S(=O)(=O)[O-])cc7)c7ccc4[nH]7)C=C6)C=C5)cc3)c3ccccc3C(=O)N2c2ccccc2)cc1
REMARK SMILES IDX 12 1 11 2 10 3 8 4 9 5 7 6 6 7 84 8 76 9 82 10 77 11 81 12
REMARK SMILES IDX 83 13 78 14 80 15 79 16 5 17 1 18 2 19 3 20 92 21 4 22 91 23
REMARK SMILES IDX 85 24 86 25 90 26 87 27 89 28 88 29 13 30 14 31 15 32 16 33
REMARK SMILES IDX 17 34 75 35 18 36 74 37 19 38 20 39 21 40 68 41 22 42 73 43
REMARK SMILES IDX 67 44 69 45 23 46 72 47 66 48 65 49 24 51 54 52 35 53 53 54
REMARK SMILES IDX 36 55 39 56 52 57 70 58 37 59 38 60 51 62 71 63 40 64 25 65
REMARK SMILES IDX 26 66 34 67 27 68 33 69 28 70 29 71 30 72 31 73 32 74 55 75
REMARK SMILES IDX 56 76 64 77 57 78 63 79 58 80 59 81 60 82 61 83 62 84 41 85
REMARK SMILES IDX 42 86 50 87 43 88 49 89 44 90 45 91 46 92 47 93 48 94
REMARK H PARENT 69 50 39 61
REMARK Flexibility Score: inf
ROOT
ATOM      1  C   UNL A   1      44.514  39.556  29.335  1.00  0.00     0.275 C 
ENDROOT
BRANCH   1   2
ATOM      2  C   UNL A   1      43.667  41.093  28.530  1.00  0.00     0.274 C 
BRANCH   2   3
ATOM      3  O   UNL A   1      44.348  42.355  27.397  1.00  0.00    -0.462 OA
BRANCH   3   4
ATOM      4  C   UNL A   1      45.522  43.557  26.454  1.00  0.00     0.316 C 
ATOM      5  O   UNL A   1      45.333  44.798  26.427  1.00  0.00    -0.251 OA
BRANCH   4   6
ATOM      6  C   UNL A   1      47.029  43.128  25.415  1.00  0.00     0.157 C 
ATOM      7  C   UNL A   1      46.923  41.676  24.720  1.00  0.00     0.140 C 
ATOM      8  N   UNL A   1      46.234  41.828  23.360  1.00  0.00    -0.300 N 
ATOM      9  C   UNL A   1      47.826  44.005  24.220  1.00  0.00    -0.019 A 
ATOM     10  C   UNL A   1      47.197  42.256  22.457  1.00  0.00     0.259 C 
ATOM     11  C   UNL A   1      48.434  45.262  24.419  1.00  0.00     0.005 A 
ATOM     12  C   UNL A   1      47.794  43.562  22.853  1.00  0.00     0.044 A 
ATOM     13  O   UNL A   1      47.636  41.626  21.505  1.00  0.00    -0.269 OA
ATOM     14  C   UNL A   1      48.582  46.154  23.331  1.00  0.00     0.000 A 
ATOM     15  C   UNL A   1      48.084  44.412  21.771  1.00  0.00     0.014 A 
ATOM     16  C   UNL A   1      48.362  45.744  22.016  1.00  0.00     0.001 A 
BRANCH   7  17
ATOM     17  C   UNL A   1      47.161  40.331  25.493  1.00  0.00    -0.024 A 
ATOM     18  C   UNL A   1      49.815  37.306  26.819  1.00  0.00     0.044 C 
ATOM     19  C   UNL A   1      48.561  38.090  26.545  1.00  0.00    -0.051 A 
ATOM     20  C   UNL A   1      48.135  39.118  27.373  1.00  0.00     0.004 A 
ATOM     21  C   UNL A   1      47.892  37.971  25.337  1.00  0.00     0.004 A 
ATOM     22  C   UNL A   1      47.369  40.193  26.851  1.00  0.00     0.006 A 
ATOM     23  C   UNL A   1      47.205  39.087  24.816  1.00  0.00     0.006 A 
ENDBRANCH   7  17
BRANCH   8  24
ATOM     24  C   UNL A   1      44.943  42.592  23.256  1.00  0.00     0.045 A 
ATOM     25  C   UNL A   1      43.593  42.192  24.280  1.00  0.00     0.026 A 
ATOM     26  C   UNL A   1      44.688  43.361  21.780  1.00  0.00     0.026 A 
ATOM     27  C   UNL A   1      41.920  42.203  23.607  1.00  0.00     0.002 A 
ATOM     28  C   UNL A   1      43.163  43.764  21.088  1.00  0.00     0.002 A 
ATOM     29  C   UNL A   1      41.684  43.043  21.838  1.00  0.00     0.000 A 
ENDBRANCH   8  24
ENDBRANCH   4   6
ENDBRANCH   3   4
ENDBRANCH   2   3
ENDBRANCH   1   2
BRANCH   1  30
ATOM     30  O   UNL A   1      44.021  37.837  28.872  1.00  0.00    -0.458 OA
BRANCH  30  31
ATOM     31  C   UNL A   1      44.157  36.485  30.065  1.00  0.00     0.338 C 
ATOM     32  O   UNL A   1      44.404  36.946  31.175  1.00  0.00    -0.246 OA
BRANCH  31  33
ATOM     33  C   UNL A   1      43.714  34.601  29.087  1.00  0.00     0.060 A 
ATOM     34  C   UNL A   1      43.604  34.443  27.189  1.00  0.00     0.016 A 
ATOM     35  C   UNL A   1      44.415  33.040  29.880  1.00  0.00     0.016 A 
ATOM     36  C   UNL A   1      43.932  32.809  26.411  1.00  0.00     0.010 A 
ATOM     37  C   UNL A   1      45.032  31.748  29.017  1.00  0.00     0.010 A 
ATOM     38  C   UNL A   1      44.572  31.486  27.437  1.00  0.00    -0.014 A 
BRANCH  38  39
ATOM     39  C   UNL A   1      44.324  30.001  27.501  1.00  0.00     0.031 A 
ATOM     40  C   UNL A   1      45.202  29.180  26.653  1.00  0.00     0.074 A 
ATOM     41  C   UNL A   1      43.354  29.505  28.389  1.00  0.00     0.049 A 
ATOM     42  N   UNL A   1      45.042  27.951  26.279  1.00  0.00    -0.248 NA
ATOM     43  C   UNL A   1      46.405  29.764  26.013  1.00  0.00     0.031 C 
ATOM     44  C   UNL A   1      43.631  28.851  29.704  1.00  0.00     0.029 A 
ATOM     45  N   UNL A   1      42.091  30.046  28.744  1.00  0.00    -0.354 N 
ATOM     46  C   UNL A   1      46.360  27.562  26.092  1.00  0.00     0.074 A 
ATOM     47  C   UNL A   1      46.984  28.692  25.479  1.00  0.00     0.031 C 
ATOM     48  C   UNL A   1      42.525  28.783  30.491  1.00  0.00     0.029 A 
ATOM     49  C   UNL A   1      41.436  29.492  29.841  1.00  0.00     0.049 A 
ATOM     50  H   UNL A   1      41.692  30.787  28.234  1.00  0.00     0.167 HD
ATOM     51  C   UNL A   1      46.933  26.764  27.054  1.00  0.00     0.031 A 
ATOM     52  C   UNL A   1      40.151  29.060  29.678  1.00  0.00     0.031 A 
ATOM     53  C   UNL A   1      45.935  26.324  28.043  1.00  0.00     0.049 A 
ATOM     54  C   UNL A   1      40.287  27.687  29.039  1.00  0.00     0.074 A 
ATOM     55  C   UNL A   1      45.782  26.463  29.411  1.00  0.00     0.029 A 
ATOM     56  N   UNL A   1      44.704  25.886  27.583  1.00  0.00    -0.354 N 
ATOM     57  N   UNL A   1      41.451  27.188  28.713  1.00  0.00    -0.248 NA
ATOM     58  C   UNL A   1      39.214  26.733  28.813  1.00  0.00     0.031 C 
ATOM     59  C   UNL A   1      44.462  26.010  29.754  1.00  0.00     0.029 A 
ATOM     60  C   UNL A   1      43.790  25.680  28.588  1.00  0.00     0.049 A 
ATOM     61  H   UNL A   1      44.504  25.738  26.630  1.00  0.00     0.167 HD
ATOM     62  C   UNL A   1      41.356  25.881  28.389  1.00  0.00     0.074 A 
ATOM     63  C   UNL A   1      39.911  25.668  28.366  1.00  0.00     0.031 C 
ATOM     64  C   UNL A   1      42.484  25.117  28.226  1.00  0.00     0.031 A 
BRANCH  51  65
ATOM     65  C   UNL A   1      48.430  26.575  27.261  1.00  0.00    -0.014 A 
ATOM     66  C   UNL A   1      49.116  25.741  26.357  1.00  0.00     0.010 A 
ATOM     67  C   UNL A   1      49.231  27.197  28.246  1.00  0.00     0.010 A 
ATOM     68  C   UNL A   1      50.507  25.577  26.392  1.00  0.00     0.020 A 
ATOM     69  C   UNL A   1      50.628  27.042  28.297  1.00  0.00     0.020 A 
ATOM     70  C   UNL A   1      51.259  26.249  27.349  1.00  0.00     0.054 A 
BRANCH  70  71
ATOM     71  S   UNL A   1      53.062  26.118  27.283  1.00  0.00     0.124 S 
ATOM     72  O   UNL A   1      53.259  24.914  26.481  1.00  0.00    -0.237 OA
ATOM     73  O   UNL A   1      53.440  27.375  26.642  1.00  0.00    -0.237 OA
ATOM     74  O   UNL A   1      53.453  25.997  28.687  1.00  0.00    -0.744 OA
ENDBRANCH  70  71
ENDBRANCH  51  65
BRANCH  52  75
ATOM     75  C   UNL A   1      39.232  30.181  29.262  1.00  0.00    -0.014 A 
ATOM     76  C   UNL A   1      38.169  29.949  28.357  1.00  0.00     0.010 A 
ATOM     77  C   UNL A   1      39.087  31.281  30.102  1.00  0.00     0.010 A 
ATOM     78  C   UNL A   1      37.028  30.784  28.296  1.00  0.00     0.020 A 
ATOM     79  C   UNL A   1      37.869  31.987  30.145  1.00  0.00     0.020 A 
ATOM     80  C   UNL A   1      36.883  31.837  29.180  1.00  0.00     0.054 A 
BRANCH  80  81
ATOM     81  S   UNL A   1      35.402  32.918  28.956  1.00  0.00     0.124 S 
ATOM     82  O   UNL A   1      34.488  32.399  29.966  1.00  0.00    -0.237 OA
ATOM     83  O   UNL A   1      35.959  34.236  29.236  1.00  0.00    -0.237 OA
ATOM     84  O   UNL A   1      34.939  32.696  27.594  1.00  0.00    -0.744 OA
ENDBRANCH  80  81
ENDBRANCH  52  75
BRANCH  64  85
ATOM     85  C   UNL A   1      42.490  23.717  27.676  1.00  0.00    -0.014 A 
ATOM     86  C   UNL A   1      42.588  22.589  28.483  1.00  0.00     0.010 A 
ATOM     87  C   UNL A   1      42.402  23.493  26.277  1.00  0.00     0.010 A 
ATOM     88  C   UNL A   1      42.478  21.311  27.952  1.00  0.00     0.020 A 
ATOM     89  C   UNL A   1      42.323  22.222  25.725  1.00  0.00     0.020 A 
ATOM     90  C   UNL A   1      42.344  21.135  26.579  1.00  0.00     0.054 A 
BRANCH  90  91
ATOM     91  S   UNL A   1      42.303  19.456  25.950  1.00  0.00     0.124 S 
ATOM     92  O   UNL A   1      42.740  18.691  27.116  1.00  0.00    -0.237 OA
ATOM     93  O   UNL A   1      40.896  19.304  25.589  1.00  0.00    -0.237 OA
ATOM     94  O   UNL A   1      43.240  19.477  24.831  1.00  0.00    -0.744 OA
ENDBRANCH  90  91
ENDBRANCH  64  85
ENDBRANCH  38  39
ENDBRANCH  31  33
ENDBRANCH  30  31
ENDBRANCH   1  30
TORSDOF 16
ENDMDL
MODEL 3
REMARK VINA RESULT:     -12.9      5.601      9.600
REMARK SMILES Cc1ccc([C@@H]2[C@H](C(=O)OCCOC(=O)c3ccc(-c4c5nc(c(-c6ccc(S(=O)(=O)[O-])cc6)c6ccc([nH]6)c(-c6ccc(S(=O)(=O)[O-])cc6)c6nc(c(-c7ccc(S(=O)(=O)[O-])cc7)c7ccc4[nH]7)C=C6)C=C5)cc3)c3ccccc3C(=O)N2c2ccccc2)cc1
REMARK SMILES IDX 12 1 11 2 10 3 8 4 9 5 7 6 6 7 84 8 76 9 82 10 77 11 81 12
REMARK SMILES IDX 83 13 78 14 80 15 79 16 5 17 1 18 2 19 3 20 92 21 4 22 91 23
REMARK SMILES IDX 85 24 86 25 90 26 87 27 89 28 88 29 13 30 14 31 15 32 16 33
REMARK SMILES IDX 17 34 75 35 18 36 74 37 19 38 20 39 21 40 68 41 22 42 73 43
REMARK SMILES IDX 67 44 69 45 23 46 72 47 66 48 65 49 24 51 54 52 35 53 53 54
REMARK SMILES IDX 36 55 39 56 52 57 70 58 37 59 38 60 51 62 71 63 40 64 25 65
REMARK SMILES IDX 26 66 34 67 27 68 33 69 28 70 29 71 30 72 31 73 32 74 55 75
REMARK SMILES IDX 56 76 64 77 57 78 63 79 58 80 59 81 60 82 61 83 62 84 41 85
REMARK SMILES IDX 42 86 50 87 43 88 49 89 44 90 45 91 46 92 47 93 48 94
REMARK H PARENT 69 50 39 61
REMARK Flexibility Score: inf
ROOT
ATOM      1  C   UNL A   1      44.685  39.069  28.743  1.00  0.00     0.275 C 
ENDROOT
BRANCH   1   2
ATOM      2  C   UNL A   1      44.039  40.655  27.852  1.00  0.00     0.274 C 
BRANCH   2   3
ATOM      3  O   UNL A   1      44.579  42.394  28.001  1.00  0.00    -0.462 OA
BRANCH   3   4
ATOM      4  C   UNL A   1      45.204  44.178  27.625  1.00  0.00     0.316 C 
ATOM      5  O   UNL A   1      45.277  45.064  28.511  1.00  0.00    -0.251 OA
BRANCH   4   6
ATOM      6  C   UNL A   1      45.721  44.900  25.969  1.00  0.00     0.157 C 
ATOM      7  C   UNL A   1      47.321  44.932  25.766  1.00  0.00     0.140 C 
ATOM      8  N   UNL A   1      47.766  43.607  25.139  1.00  0.00    -0.300 N 
ATOM      9  C   UNL A   1      45.200  44.553  24.407  1.00  0.00    -0.019 A 
ATOM     10  C   UNL A   1      47.531  43.699  23.774  1.00  0.00     0.259 C 
ATOM     11  C   UNL A   1      43.872  44.698  23.953  1.00  0.00     0.005 A 
ATOM     12  C   UNL A   1      46.091  43.927  23.468  1.00  0.00     0.044 A 
ATOM     13  O   UNL A   1      48.375  43.724  22.889  1.00  0.00    -0.269 OA
ATOM     14  C   UNL A   1      43.405  43.909  22.876  1.00  0.00     0.000 A 
ATOM     15  C   UNL A   1      45.637  43.264  22.315  1.00  0.00     0.014 A 
ATOM     16  C   UNL A   1      44.277  43.157  22.089  1.00  0.00     0.001 A 
BRANCH   7  17
ATOM     17  C   UNL A   1      48.255  45.997  26.442  1.00  0.00    -0.024 A 
ATOM     18  C   UNL A   1      49.199  50.053  27.218  1.00  0.00     0.044 C 
ATOM     19  C   UNL A   1      49.267  48.551  27.177  1.00  0.00    -0.051 A 
ATOM     20  C   UNL A   1      48.602  47.755  28.098  1.00  0.00     0.004 A 
ATOM     21  C   UNL A   1      49.811  47.889  26.087  1.00  0.00     0.004 A 
ATOM     22  C   UNL A   1      48.171  46.450  27.744  1.00  0.00     0.006 A 
ATOM     23  C   UNL A   1      49.301  46.625  25.723  1.00  0.00     0.006 A 
ENDBRANCH   7  17
BRANCH   8  24
ATOM     24  C   UNL A   1      47.304  42.305  25.733  1.00  0.00     0.045 A 
ATOM     25  C   UNL A   1      47.821  41.825  27.325  1.00  0.00     0.026 A 
ATOM     26  C   UNL A   1      46.820  41.143  24.614  1.00  0.00     0.026 A 
ATOM     27  C   UNL A   1      48.247  40.104  27.651  1.00  0.00     0.002 A 
ATOM     28  C   UNL A   1      46.838  39.436  24.841  1.00  0.00     0.002 A 
ATOM     29  C   UNL A   1      47.732  38.789  26.274  1.00  0.00     0.000 A 
ENDBRANCH   8  24
ENDBRANCH   4   6
ENDBRANCH   3   4
ENDBRANCH   2   3
ENDBRANCH   1   2
BRANCH   1  30
ATOM     30  O   UNL A   1      43.623  37.567  28.919  1.00  0.00    -0.458 OA
BRANCH  30  31
ATOM     31  C   UNL A   1      44.144  36.186  29.963  1.00  0.00     0.338 C 
ATOM     32  O   UNL A   1      44.561  36.619  31.033  1.00  0.00    -0.246 OA
BRANCH  31  33
ATOM     33  C   UNL A   1      43.718  34.312  28.959  1.00  0.00     0.060 A 
ATOM     34  C   UNL A   1      43.588  34.183  27.061  1.00  0.00     0.016 A 
ATOM     35  C   UNL A   1      44.451  32.749  29.719  1.00  0.00     0.016 A 
ATOM     36  C   UNL A   1      43.932  32.566  26.253  1.00  0.00     0.010 A 
ATOM     37  C   UNL A   1      45.077  31.481  28.828  1.00  0.00     0.010 A 
ATOM     38  C   UNL A   1      44.603  31.237  27.249  1.00  0.00    -0.014 A 
BRANCH  38  39
ATOM     39  C   UNL A   1      44.378  29.748  27.292  1.00  0.00     0.031 A 
ATOM     40  C   UNL A   1      45.273  28.952  26.437  1.00  0.00     0.074 A 
ATOM     41  C   UNL A   1      43.411  29.225  28.168  1.00  0.00     0.049 A 
ATOM     42  N   UNL A   1      45.134  27.726  26.045  1.00  0.00    -0.248 NA
ATOM     43  C   UNL A   1      46.470  29.564  25.812  1.00  0.00     0.031 C 
ATOM     44  C   UNL A   1      43.692  28.557  29.476  1.00  0.00     0.029 A 
ATOM     45  N   UNL A   1      42.139  29.741  28.524  1.00  0.00    -0.354 N 
ATOM     46  C   UNL A   1      46.459  27.360  25.861  1.00  0.00     0.074 A 
ATOM     47  C   UNL A   1      47.068  28.508  25.266  1.00  0.00     0.031 C 
ATOM     48  C   UNL A   1      42.583  28.461  30.255  1.00  0.00     0.029 A 
ATOM     49  C   UNL A   1      41.487  29.162  29.610  1.00  0.00     0.049 A 
ATOM     50  H   UNL A   1      41.730  30.482  28.022  1.00  0.00     0.167 HD
ATOM     51  C   UNL A   1      47.040  26.558  26.814  1.00  0.00     0.031 A 
ATOM     52  C   UNL A   1      40.209  28.712  29.434  1.00  0.00     0.031 A 
ATOM     53  C   UNL A   1      46.044  26.089  27.793  1.00  0.00     0.049 A 
ATOM     54  C   UNL A   1      40.370  27.350  28.777  1.00  0.00     0.074 A 
ATOM     55  C   UNL A   1      45.881  26.207  29.161  1.00  0.00     0.029 A 
ATOM     56  N   UNL A   1      44.822  25.638  27.320  1.00  0.00    -0.354 N 
ATOM     57  N   UNL A   1      41.543  26.874  28.450  1.00  0.00    -0.248 NA
ATOM     58  C   UNL A   1      39.313  26.383  28.532  1.00  0.00     0.031 C 
ATOM     59  C   UNL A   1      44.567  25.728  29.491  1.00  0.00     0.029 A 
ATOM     60  C   UNL A   1      43.906  25.404  28.317  1.00  0.00     0.049 A 
ATOM     61  H   UNL A   1      44.629  25.500  26.364  1.00  0.00     0.167 HD
ATOM     62  C   UNL A   1      41.470  25.570  28.108  1.00  0.00     0.074 A 
ATOM     63  C   UNL A   1      40.029  25.335  28.075  1.00  0.00     0.031 C 
ATOM     64  C   UNL A   1      42.611  24.826  27.941  1.00  0.00     0.031 A 
BRANCH  51  65
ATOM     65  C   UNL A   1      48.538  26.389  27.026  1.00  0.00    -0.014 A 
ATOM     66  C   UNL A   1      49.252  25.625  26.083  1.00  0.00     0.010 A 
ATOM     67  C   UNL A   1      49.316  26.970  28.055  1.00  0.00     0.010 A 
ATOM     68  C   UNL A   1      50.645  25.489  26.124  1.00  0.00     0.020 A 
ATOM     69  C   UNL A   1      50.715  26.842  28.112  1.00  0.00     0.020 A 
ATOM     70  C   UNL A   1      51.373  26.119  27.127  1.00  0.00     0.054 A 
BRANCH  70  71
ATOM     71  S   UNL A   1      53.179  26.032  27.073  1.00  0.00     0.124 S 
ATOM     72  O   UNL A   1      53.530  27.260  26.365  1.00  0.00    -0.237 OA
ATOM     73  O   UNL A   1      53.529  25.996  28.490  1.00  0.00    -0.237 OA
ATOM     74  O   UNL A   1      53.445  24.797  26.337  1.00  0.00    -0.744 OA
ENDBRANCH  70  71
ENDBRANCH  51  65
BRANCH  52  75
ATOM     75  C   UNL A   1      39.275  29.824  29.029  1.00  0.00    -0.014 A 
ATOM     76  C   UNL A   1      38.404  29.672  27.923  1.00  0.00     0.010 A 
ATOM     77  C   UNL A   1      38.893  30.765  29.980  1.00  0.00     0.010 A 
ATOM     78  C   UNL A   1      37.218  30.432  27.782  1.00  0.00     0.020 A 
ATOM     79  C   UNL A   1      37.626  31.375  29.907  1.00  0.00     0.020 A 
ATOM     80  C   UNL A   1      36.833  31.319  28.770  1.00  0.00     0.054 A 
BRANCH  80  81
ATOM     81  S   UNL A   1      35.318  32.325  28.445  1.00  0.00     0.124 S 
ATOM     82  O   UNL A   1      34.450  31.365  27.772  1.00  0.00    -0.237 OA
ATOM     83  O   UNL A   1      34.915  32.689  29.798  1.00  0.00    -0.237 OA
ATOM     84  O   UNL A   1      35.736  33.423  27.585  1.00  0.00    -0.744 OA
ENDBRANCH  80  81
ENDBRANCH  52  75
BRANCH  64  85
ATOM     85  C   UNL A   1      42.641  23.434  27.372  1.00  0.00    -0.014 A 
ATOM     86  C   UNL A   1      43.237  23.129  26.154  1.00  0.00     0.010 A 
ATOM     87  C   UNL A   1      42.038  22.357  28.073  1.00  0.00     0.010 A 
ATOM     88  C   UNL A   1      43.346  21.816  25.713  1.00  0.00     0.020 A 
ATOM     89  C   UNL A   1      42.107  21.042  27.631  1.00  0.00     0.020 A 
ATOM     90  C   UNL A   1      42.783  20.783  26.454  1.00  0.00     0.054 A 
BRANCH  90  91
ATOM     91  S   UNL A   1      42.875  19.123  25.779  1.00  0.00     0.124 S 
ATOM     92  O   UNL A   1      41.462  18.808  25.575  1.00  0.00    -0.237 OA
ATOM     93  O   UNL A   1      43.654  19.336  24.563  1.00  0.00    -0.237 OA
ATOM     94  O   UNL A   1      43.540  18.355  26.826  1.00  0.00    -0.744 OA
ENDBRANCH  90  91
ENDBRANCH  64  85
ENDBRANCH  38  39
ENDBRANCH  31  33
ENDBRANCH  30  31
ENDBRANCH   1  30
TORSDOF 16
ENDMDL
