MODEL 1
REMARK VINA RESULT:      -9.5      0.000      0.000
REMARK SMILES C=CCN(CC(=O)OCCOC(=O)c1ccc(-c2c3nc(c(-c4ccc(S(=O)(=O)[O-])cc4)c4ccc([nH]4)c(-c4ccc(S(=O)(=O)[O-])cc4)c4nc(c(-c5ccc(S(=O)(=O)[O-])cc5)c5ccc2[nH]5)C=C4)C=C3)cc1)c1ccc([N+](=O)[O-])cc1Br
REMARK SMILES IDX 9 1 8 2 6 3 7 4 5 5 4 6 3 7 2 8 1 9 74 10 75 11 82 12 76 13
REMARK SMILES IDX 81 14 83 15 77 16 78 17 79 18 80 19 10 20 11 21 12 22 13 23
REMARK SMILES IDX 14 24 15 25 73 26 16 27 72 28 17 29 18 30 19 31 66 32 20 33
REMARK SMILES IDX 71 34 65 35 67 36 21 37 70 38 64 39 63 40 22 42 52 43 33 44
REMARK SMILES IDX 51 45 34 46 37 47 50 48 68 49 35 50 36 51 49 53 69 54 38 55
REMARK SMILES IDX 23 56 24 57 32 58 25 59 31 60 26 61 27 62 28 63 29 64 30 65
REMARK SMILES IDX 53 66 54 67 62 68 55 69 61 70 56 71 57 72 58 73 59 74 60 75
REMARK SMILES IDX 39 76 40 77 48 78 41 79 47 80 42 81 43 82 44 83 45 84 46 85
REMARK H PARENT 67 41 37 52
REMARK Flexibility Score: inf
ROOT
ATOM      1  C   UNL A   1      37.829  20.823  25.254  1.00  0.00     0.274 C 
ENDROOT
BRANCH   1   2
ATOM      2  O   UNL A   1      37.486  21.687  24.154  1.00  0.00    -0.461 OA
BRANCH   2   3
ATOM      3  C   UNL A   1      36.489  22.585  24.393  1.00  0.00     0.325 C 
ATOM      4  O   UNL A   1      36.618  23.593  25.082  1.00  0.00    -0.250 OA
BRANCH   3   5
ATOM      5  C   UNL A   1      35.177  22.263  23.680  1.00  0.00     0.239 C 
BRANCH   5   6
ATOM      6  N   UNL A   1      34.092  21.790  24.548  1.00  0.00    -0.356 N 
BRANCH   6   7
ATOM      7  C   UNL A   1      34.088  20.411  25.005  1.00  0.00     0.144 C 
BRANCH   7   8
ATOM      8  C   UNL A   1      33.336  19.588  24.001  1.00  0.00    -0.014 C 
ATOM      9  C   UNL A   1      32.409  18.668  24.304  1.00  0.00     0.006 C 
ENDBRANCH   7   8
ENDBRANCH   6   7
BRANCH   6  10
ATOM     10  C   UNL A   1      33.067  22.649  24.909  1.00  0.00     0.052 A 
ATOM     11  C   UNL A   1      32.162  23.075  23.921  1.00  0.00     0.034 A 
ATOM     12  C   UNL A   1      32.866  23.122  26.226  1.00  0.00     0.048 A 
ATOM     13  C   UNL A   1      31.107  23.942  24.214  1.00  0.00     0.088 A 
ATOM     14  C   UNL A   1      31.802  23.979  26.539  1.00  0.00     0.103 A 
ATOM     15  Br  UNL A   1      33.979  22.585  27.677  1.00  0.00    -0.048 Br
ATOM     16  C   UNL A   1      30.931  24.384  25.526  1.00  0.00     0.270 A 
BRANCH  16  17
ATOM     17  N   UNL A   1      29.802  25.256  25.846  1.00  0.00     0.062 N 
ATOM     18  O   UNL A   1      29.190  25.041  26.902  1.00  0.00    -0.258 OA
ATOM     19  O   UNL A   1      29.551  26.175  25.056  1.00  0.00    -0.258 OA
ENDBRANCH  16  17
ENDBRANCH   6  10
ENDBRANCH   5   6
ENDBRANCH   3   5
ENDBRANCH   2   3
ENDBRANCH   1   2
BRANCH   1  20
ATOM     20  C   UNL A   1      39.176  21.235  25.840  1.00  0.00     0.275 C 
BRANCH  20  21
ATOM     21  O   UNL A   1      39.843  20.079  26.372  1.00  0.00    -0.458 OA
BRANCH  21  22
ATOM     22  C   UNL A   1      41.168  19.995  26.118  1.00  0.00     0.338 C 
ATOM     23  O   UNL A   1      41.785  19.014  25.727  1.00  0.00    -0.246 OA
BRANCH  22  24
ATOM     24  C   UNL A   1      41.817  21.277  26.440  1.00  0.00     0.060 A 
ATOM     25  C   UNL A   1      42.166  22.186  25.438  1.00  0.00     0.016 A 
ATOM     26  C   UNL A   1      42.121  21.548  27.775  1.00  0.00     0.016 A 
ATOM     27  C   UNL A   1      42.855  23.355  25.767  1.00  0.00     0.010 A 
ATOM     28  C   UNL A   1      42.746  22.748  28.110  1.00  0.00     0.010 A 
ATOM     29  C   UNL A   1      43.129  23.657  27.109  1.00  0.00    -0.014 A 
BRANCH  29  30
ATOM     30  C   UNL A   1      43.772  24.936  27.499  1.00  0.00     0.031 A 
ATOM     31  C   UNL A   1      42.941  26.071  28.027  1.00  0.00     0.074 A 
ATOM     32  C   UNL A   1      45.094  25.098  27.299  1.00  0.00     0.049 A 
ATOM     33  N   UNL A   1      43.279  27.319  28.222  1.00  0.00    -0.248 NA
ATOM     34  C   UNL A   1      41.543  25.765  28.371  1.00  0.00     0.031 C 
ATOM     35  C   UNL A   1      46.010  24.062  26.813  1.00  0.00     0.029 A 
ATOM     36  N   UNL A   1      45.893  26.203  27.454  1.00  0.00    -0.354 N 
ATOM     37  C   UNL A   1      42.133  27.956  28.681  1.00  0.00     0.074 A 
ATOM     38  C   UNL A   1      41.086  26.958  28.732  1.00  0.00     0.031 C 
ATOM     39  C   UNL A   1      47.243  24.582  26.705  1.00  0.00     0.029 A 
ATOM     40  C   UNL A   1      47.191  25.998  27.048  1.00  0.00     0.049 A 
ATOM     41  H   UNL A   1      45.569  27.058  27.819  1.00  0.00     0.167 HD
ATOM     42  C   UNL A   1      41.970  29.257  29.022  1.00  0.00     0.031 A 
ATOM     43  C   UNL A   1      48.215  26.862  26.917  1.00  0.00     0.031 A 
ATOM     44  C   UNL A   1      43.018  30.242  28.968  1.00  0.00     0.049 A 
ATOM     45  C   UNL A   1      47.994  28.312  27.236  1.00  0.00     0.074 A 
ATOM     46  C   UNL A   1      42.963  31.580  29.316  1.00  0.00     0.029 A 
ATOM     47  N   UNL A   1      44.312  29.996  28.533  1.00  0.00    -0.354 N 
ATOM     48  N   UNL A   1      46.903  28.900  27.661  1.00  0.00    -0.248 NA
ATOM     49  C   UNL A   1      49.137  29.215  27.042  1.00  0.00     0.031 C 
ATOM     50  C   UNL A   1      44.213  32.153  29.051  1.00  0.00     0.029 A 
ATOM     51  C   UNL A   1      45.057  31.161  28.578  1.00  0.00     0.049 A 
ATOM     52  H   UNL A   1      44.651  29.121  28.236  1.00  0.00     0.167 HD
ATOM     53  C   UNL A   1      47.226  30.245  27.791  1.00  0.00     0.074 A 
ATOM     54  C   UNL A   1      48.620  30.379  27.415  1.00  0.00     0.031 C 
ATOM     55  C   UNL A   1      46.438  31.275  28.184  1.00  0.00     0.031 A 
BRANCH  42  56
ATOM     56  C   UNL A   1      40.597  29.700  29.451  1.00  0.00    -0.014 A 
ATOM     57  C   UNL A   1      39.592  29.974  28.507  1.00  0.00     0.010 A 
ATOM     58  C   UNL A   1      40.295  29.799  30.822  1.00  0.00     0.010 A 
ATOM     59  C   UNL A   1      38.318  30.369  28.926  1.00  0.00     0.020 A 
ATOM     60  C   UNL A   1      39.016  30.177  31.245  1.00  0.00     0.020 A 
ATOM     61  C   UNL A   1      38.039  30.474  30.292  1.00  0.00     0.054 A 
BRANCH  61  62
ATOM     62  S   UNL A   1      36.371  30.964  30.812  1.00  0.00     0.124 S 
ATOM     63  O   UNL A   1      35.618  30.834  29.568  1.00  0.00    -0.237 OA
ATOM     64  O   UNL A   1      36.053  29.980  31.845  1.00  0.00    -0.237 OA
ATOM     65  O   UNL A   1      36.547  32.331  31.295  1.00  0.00    -0.744 OA
ENDBRANCH  61  62
ENDBRANCH  42  56
BRANCH  43  66
ATOM     66  C   UNL A   1      49.524  26.372  26.408  1.00  0.00    -0.014 A 
ATOM     67  C   UNL A   1      49.889  26.580  25.068  1.00  0.00     0.010 A 
ATOM     68  C   UNL A   1      50.436  25.752  27.282  1.00  0.00     0.010 A 
ATOM     69  C   UNL A   1      51.148  26.181  24.610  1.00  0.00     0.020 A 
ATOM     70  C   UNL A   1      51.704  25.372  26.833  1.00  0.00     0.020 A 
ATOM     71  C   UNL A   1      52.050  25.585  25.497  1.00  0.00     0.054 A 
BRANCH  71  72
ATOM     72  S   UNL A   1      53.714  25.161  24.911  1.00  0.00     0.124 S 
ATOM     73  O   UNL A   1      53.724  25.750  23.576  1.00  0.00    -0.237 OA
ATOM     74  O   UNL A   1      54.575  25.810  25.896  1.00  0.00    -0.237 OA
ATOM     75  O   UNL A   1      53.727  23.700  24.953  1.00  0.00    -0.744 OA
ENDBRANCH  71  72
ENDBRANCH  43  66
BRANCH  55  76
ATOM     76  C   UNL A   1      47.070  32.637  28.233  1.00  0.00    -0.014 A 
ATOM     77  C   UNL A   1      47.021  33.493  27.119  1.00  0.00     0.010 A 
ATOM     78  C   UNL A   1      47.675  33.083  29.422  1.00  0.00     0.010 A 
ATOM     79  C   UNL A   1      47.585  34.769  27.187  1.00  0.00     0.020 A 
ATOM     80  C   UNL A   1      48.223  34.365  29.498  1.00  0.00     0.020 A 
ATOM     81  C   UNL A   1      48.184  35.196  28.376  1.00  0.00     0.054 A 
BRANCH  81  82
ATOM     82  S   UNL A   1      48.866  36.875  28.459  1.00  0.00     0.124 S 
ATOM     83  O   UNL A   1      49.872  36.741  29.509  1.00  0.00    -0.237 OA
ATOM     84  O   UNL A   1      49.390  37.080  27.111  1.00  0.00    -0.237 OA
ATOM     85  O   UNL A   1      47.710  37.700  28.803  1.00  0.00    -0.744 OA
ENDBRANCH  81  82
ENDBRANCH  55  76
ENDBRANCH  29  30
ENDBRANCH  22  24
ENDBRANCH  21  22
ENDBRANCH  20  21
ENDBRANCH   1  20
TORSDOF 19
ENDMDL
MODEL 2
REMARK VINA RESULT:      -9.5      2.193      3.516
REMARK SMILES C=CCN(CC(=O)OCCOC(=O)c1ccc(-c2c3nc(c(-c4ccc(S(=O)(=O)[O-])cc4)c4ccc([nH]4)c(-c4ccc(S(=O)(=O)[O-])cc4)c4nc(c(-c5ccc(S(=O)(=O)[O-])cc5)c5ccc2[nH]5)C=C4)C=C3)cc1)c1ccc([N+](=O)[O-])cc1Br
REMARK SMILES IDX 9 1 8 2 6 3 7 4 5 5 4 6 3 7 2 8 1 9 74 10 75 11 82 12 76 13
REMARK SMILES IDX 81 14 83 15 77 16 78 17 79 18 80 19 10 20 11 21 12 22 13 23
REMARK SMILES IDX 14 24 15 25 73 26 16 27 72 28 17 29 18 30 19 31 66 32 20 33
REMARK SMILES IDX 71 34 65 35 67 36 21 37 70 38 64 39 63 40 22 42 52 43 33 44
REMARK SMILES IDX 51 45 34 46 37 47 50 48 68 49 35 50 36 51 49 53 69 54 38 55
REMARK SMILES IDX 23 56 24 57 32 58 25 59 31 60 26 61 27 62 28 63 29 64 30 65
REMARK SMILES IDX 53 66 54 67 62 68 55 69 61 70 56 71 57 72 58 73 59 74 60 75
REMARK SMILES IDX 39 76 40 77 48 78 41 79 47 80 42 81 43 82 44 83 45 84 46 85
REMARK H PARENT 67 41 37 52
REMARK Flexibility Score: inf
ROOT
ATOM      1  C   UNL A   1      36.495  21.997  24.280  1.00  0.00     0.274 C 
ENDROOT
BRANCH   1   2
ATOM      2  O   UNL A   1      36.229  23.349  23.859  1.00  0.00    -0.461 OA
BRANCH   2   3
ATOM      3  C   UNL A   1      35.097  23.916  24.365  1.00  0.00     0.325 C 
ATOM      4  O   UNL A   1      35.066  24.611  25.376  1.00  0.00    -0.250 OA
BRANCH   3   5
ATOM      5  C   UNL A   1      33.844  23.656  23.530  1.00  0.00     0.239 C 
BRANCH   5   6
ATOM      6  N   UNL A   1      32.761  22.953  24.228  1.00  0.00    -0.356 N 
BRANCH   6   7
ATOM      7  C   UNL A   1      31.706  23.719  24.870  1.00  0.00     0.144 C 
BRANCH   7   8
ATOM      8  C   UNL A   1      30.728  24.144  23.816  1.00  0.00    -0.014 C 
ATOM      9  C   UNL A   1      30.553  25.405  23.397  1.00  0.00     0.006 C 
ENDBRANCH   7   8
ENDBRANCH   6   7
BRANCH   6  10
ATOM     10  C   UNL A   1      32.760  21.569  24.295  1.00  0.00     0.052 A 
ATOM     11  C   UNL A   1      32.398  20.837  23.150  1.00  0.00     0.034 A 
ATOM     12  C   UNL A   1      33.111  20.839  25.453  1.00  0.00     0.048 A 
ATOM     13  C   UNL A   1      32.372  19.441  23.147  1.00  0.00     0.088 A 
ATOM     14  C   UNL A   1      33.106  19.438  25.461  1.00  0.00     0.103 A 
ATOM     15  Br  UNL A   1      33.674  21.695  27.060  1.00  0.00    -0.048 Br
ATOM     16  C   UNL A   1      32.733  18.750  24.305  1.00  0.00     0.270 A 
BRANCH  16  17
ATOM     17  N   UNL A   1      32.751  17.287  24.293  1.00  0.00     0.062 N 
ATOM     18  O   UNL A   1      32.313  16.699  25.292  1.00  0.00    -0.258 OA
ATOM     19  O   UNL A   1      33.172  16.732  23.270  1.00  0.00    -0.258 OA
ENDBRANCH  16  17
ENDBRANCH   6  10
ENDBRANCH   5   6
ENDBRANCH   3   5
ENDBRANCH   2   3
ENDBRANCH   1   2
BRANCH   1  20
ATOM     20  C   UNL A   1      37.145  22.000  25.661  1.00  0.00     0.275 C 
BRANCH  20  21
ATOM     21  O   UNL A   1      38.335  22.805  25.630  1.00  0.00    -0.458 OA
BRANCH  21  22
ATOM     22  C   UNL A   1      39.346  22.391  26.427  1.00  0.00     0.338 C 
ATOM     23  O   UNL A   1      39.617  21.241  26.739  1.00  0.00    -0.246 OA
BRANCH  22  24
ATOM     24  C   UNL A   1      40.081  23.559  26.943  1.00  0.00     0.060 A 
ATOM     25  C   UNL A   1      41.006  23.433  27.983  1.00  0.00     0.016 A 
ATOM     26  C   UNL A   1      39.798  24.812  26.399  1.00  0.00     0.016 A 
ATOM     27  C   UNL A   1      41.625  24.570  28.506  1.00  0.00     0.010 A 
ATOM     28  C   UNL A   1      40.469  25.938  26.875  1.00  0.00     0.010 A 
ATOM     29  C   UNL A   1      41.379  25.829  27.940  1.00  0.00    -0.014 A 
BRANCH  29  30
ATOM     30  C   UNL A   1      42.094  27.042  28.409  1.00  0.00     0.031 A 
ATOM     31  C   UNL A   1      41.327  28.198  28.985  1.00  0.00     0.074 A 
ATOM     32  C   UNL A   1      43.427  27.129  28.236  1.00  0.00     0.049 A 
ATOM     33  N   UNL A   1      41.741  29.410  29.253  1.00  0.00    -0.248 NA
ATOM     34  C   UNL A   1      39.907  27.964  29.292  1.00  0.00     0.031 C 
ATOM     35  C   UNL A   1      44.285  26.064  27.708  1.00  0.00     0.029 A 
ATOM     36  N   UNL A   1      44.292  28.171  28.462  1.00  0.00    -0.354 N 
ATOM     37  C   UNL A   1      40.629  30.093  29.730  1.00  0.00     0.074 A 
ATOM     38  C   UNL A   1      39.520  29.163  29.711  1.00  0.00     0.031 C 
ATOM     39  C   UNL A   1      45.550  26.509  27.646  1.00  0.00     0.029 A 
ATOM     40  C   UNL A   1      45.581  27.905  28.065  1.00  0.00     0.049 A 
ATOM     41  H   UNL A   1      44.016  29.024  28.868  1.00  0.00     0.167 HD
ATOM     42  C   UNL A   1      40.543  31.382  30.138  1.00  0.00     0.031 A 
ATOM     43  C   UNL A   1      46.660  28.708  27.995  1.00  0.00     0.031 A 
ATOM     44  C   UNL A   1      41.652  32.299  30.152  1.00  0.00     0.049 A 
ATOM     45  C   UNL A   1      46.526  30.150  28.389  1.00  0.00     0.074 A 
ATOM     46  C   UNL A   1      41.675  33.618  30.572  1.00  0.00     0.029 A 
ATOM     47  N   UNL A   1      42.935  31.994  29.723  1.00  0.00    -0.354 N 
ATOM     48  N   UNL A   1      45.466  30.783  28.831  1.00  0.00    -0.248 NA
ATOM     49  C   UNL A   1      47.726  30.987  28.262  1.00  0.00     0.031 C 
ATOM     50  C   UNL A   1      42.963  34.123  30.357  1.00  0.00     0.029 A 
ATOM     51  C   UNL A   1      43.751  33.105  29.842  1.00  0.00     0.049 A 
ATOM     52  H   UNL A   1      43.223  31.116  29.384  1.00  0.00     0.167 HD
ATOM     53  C   UNL A   1      45.871  32.095  29.038  1.00  0.00     0.074 A 
ATOM     54  C   UNL A   1      47.277  32.160  28.689  1.00  0.00     0.031 C 
ATOM     55  C   UNL A   1      45.143  33.152  29.475  1.00  0.00     0.031 A 
BRANCH  42  56
ATOM     56  C   UNL A   1      39.193  31.888  30.571  1.00  0.00    -0.014 A 
ATOM     57  C   UNL A   1      38.290  32.438  29.644  1.00  0.00     0.010 A 
ATOM     58  C   UNL A   1      38.805  31.770  31.918  1.00  0.00     0.010 A 
ATOM     59  C   UNL A   1      37.034  32.889  30.063  1.00  0.00     0.020 A 
ATOM     60  C   UNL A   1      37.543  32.203  32.338  1.00  0.00     0.020 A 
ATOM     61  C   UNL A   1      36.671  32.774  31.409  1.00  0.00     0.054 A 
BRANCH  61  62
ATOM     62  S   UNL A   1      35.026  33.342  31.924  1.00  0.00     0.124 S 
ATOM     63  O   UNL A   1      34.174  32.794  30.873  1.00  0.00    -0.237 OA
ATOM     64  O   UNL A   1      34.871  32.730  33.242  1.00  0.00    -0.237 OA
ATOM     65  O   UNL A   1      35.150  34.798  31.931  1.00  0.00    -0.744 OA
ENDBRANCH  61  62
ENDBRANCH  42  56
BRANCH  43  66
ATOM     66  C   UNL A   1      47.944  28.163  27.479  1.00  0.00    -0.014 A 
ATOM     67  C   UNL A   1      48.897  27.632  28.363  1.00  0.00     0.010 A 
ATOM     68  C   UNL A   1      48.188  28.116  26.094  1.00  0.00     0.010 A 
ATOM     69  C   UNL A   1      50.073  27.057  27.870  1.00  0.00     0.020 A 
ATOM     70  C   UNL A   1      49.352  27.523  25.597  1.00  0.00     0.020 A 
ATOM     71  C   UNL A   1      50.290  27.001  26.490  1.00  0.00     0.054 A 
BRANCH  71  72
ATOM     72  S   UNL A   1      51.774  26.166  25.864  1.00  0.00     0.124 S 
ATOM     73  O   UNL A   1      52.842  26.916  26.516  1.00  0.00    -0.237 OA
ATOM     74  O   UNL A   1      51.589  24.793  26.330  1.00  0.00    -0.237 OA
ATOM     75  O   UNL A   1      51.677  26.340  24.417  1.00  0.00    -0.744 OA
ENDBRANCH  71  72
ENDBRANCH  43  66
BRANCH  55  76
ATOM     76  C   UNL A   1      45.859  34.466  29.607  1.00  0.00    -0.014 A 
ATOM     77  C   UNL A   1      45.881  35.382  28.542  1.00  0.00     0.010 A 
ATOM     78  C   UNL A   1      46.472  34.807  30.826  1.00  0.00     0.010 A 
ATOM     79  C   UNL A   1      46.524  36.614  28.687  1.00  0.00     0.020 A 
ATOM     80  C   UNL A   1      47.099  36.045  30.980  1.00  0.00     0.020 A 
ATOM     81  C   UNL A   1      47.130  36.937  29.905  1.00  0.00     0.054 A 
BRANCH  81  82
ATOM     82  S   UNL A   1      47.915  38.561  30.089  1.00  0.00     0.124 S 
ATOM     83  O   UNL A   1      46.918  39.293  30.866  1.00  0.00    -0.237 OA
ATOM     84  O   UNL A   1      49.153  38.245  30.797  1.00  0.00    -0.237 OA
ATOM     85  O   UNL A   1      48.092  39.018  28.713  1.00  0.00    -0.744 OA
ENDBRANCH  81  82
ENDBRANCH  55  76
ENDBRANCH  29  30
ENDBRANCH  22  24
ENDBRANCH  21  22
ENDBRANCH  20  21
ENDBRANCH   1  20
TORSDOF 19
ENDMDL
MODEL 3
REMARK VINA RESULT:      -9.4      2.734      3.940
REMARK SMILES C=CCN(CC(=O)OCCOC(=O)c1ccc(-c2c3nc(c(-c4ccc(S(=O)(=O)[O-])cc4)c4ccc([nH]4)c(-c4ccc(S(=O)(=O)[O-])cc4)c4nc(c(-c5ccc(S(=O)(=O)[O-])cc5)c5ccc2[nH]5)C=C4)C=C3)cc1)c1ccc([N+](=O)[O-])cc1Br
REMARK SMILES IDX 9 1 8 2 6 3 7 4 5 5 4 6 3 7 2 8 1 9 74 10 75 11 82 12 76 13
REMARK SMILES IDX 81 14 83 15 77 16 78 17 79 18 80 19 10 20 11 21 12 22 13 23
REMARK SMILES IDX 14 24 15 25 73 26 16 27 72 28 17 29 18 30 19 31 66 32 20 33
REMARK SMILES IDX 71 34 65 35 67 36 21 37 70 38 64 39 63 40 22 42 52 43 33 44
REMARK SMILES IDX 51 45 34 46 37 47 50 48 68 49 35 50 36 51 49 53 69 54 38 55
REMARK SMILES IDX 23 56 24 57 32 58 25 59 31 60 26 61 27 62 28 63 29 64 30 65
REMARK SMILES IDX 53 66 54 67 62 68 55 69 61 70 56 71 57 72 58 73 59 74 60 75
REMARK SMILES IDX 39 76 40 77 48 78 41 79 47 80 42 81 43 82 44 83 45 84 46 85
REMARK H PARENT 67 41 37 52
REMARK Flexibility Score: inf
ROOT
ATOM      1  C   UNL A   1      35.452  22.495  25.109  1.00  0.00     0.274 C 
ENDROOT
BRANCH   1   2
ATOM      2  O   UNL A   1      34.920  23.030  23.883  1.00  0.00    -0.461 OA
BRANCH   2   3
ATOM      3  C   UNL A   1      33.704  23.640  23.980  1.00  0.00     0.325 C 
ATOM      4  O   UNL A   1      32.691  23.097  24.410  1.00  0.00    -0.250 OA
BRANCH   3   5
ATOM      5  C   UNL A   1      33.709  25.106  23.550  1.00  0.00     0.239 C 
BRANCH   5   6
ATOM      6  N   UNL A   1      32.953  26.015  24.420  1.00  0.00    -0.356 N 
BRANCH   6   7
ATOM      7  C   UNL A   1      33.253  26.065  25.840  1.00  0.00     0.144 C 
BRANCH   7   8
ATOM      8  C   UNL A   1      33.771  27.435  26.162  1.00  0.00    -0.014 C 
ATOM      9  C   UNL A   1      33.162  28.315  26.968  1.00  0.00     0.006 C 
ENDBRANCH   7   8
ENDBRANCH   6   7
BRANCH   6  10
ATOM     10  C   UNL A   1      31.942  26.803  23.892  1.00  0.00     0.052 A 
ATOM     11  C   UNL A   1      30.606  26.428  24.116  1.00  0.00     0.034 A 
ATOM     12  C   UNL A   1      32.174  27.978  23.140  1.00  0.00     0.048 A 
ATOM     13  C   UNL A   1      29.538  27.173  23.611  1.00  0.00     0.088 A 
ATOM     14  C   UNL A   1      31.114  28.746  22.642  1.00  0.00     0.103 A 
ATOM     15  Br  UNL A   1      33.931  28.636  22.805  1.00  0.00    -0.048 Br
ATOM     16  C   UNL A   1      29.801  28.333  22.880  1.00  0.00     0.270 A 
BRANCH  16  17
ATOM     17  N   UNL A   1      28.686  29.142  22.387  1.00  0.00     0.062 N 
ATOM     18  O   UNL A   1      27.650  29.169  23.067  1.00  0.00    -0.258 OA
ATOM     19  O   UNL A   1      28.863  29.774  21.338  1.00  0.00    -0.258 OA
ENDBRANCH  16  17
ENDBRANCH   6  10
ENDBRANCH   5   6
ENDBRANCH   3   5
ENDBRANCH   2   3
ENDBRANCH   1   2
BRANCH   1  20
ATOM     20  C   UNL A   1      36.958  22.283  24.976  1.00  0.00     0.275 C 
BRANCH  20  21
ATOM     21  O   UNL A   1      37.634  22.946  26.056  1.00  0.00    -0.458 OA
BRANCH  21  22
ATOM     22  C   UNL A   1      38.939  22.628  26.216  1.00  0.00     0.338 C 
ATOM     23  O   UNL A   1      39.471  21.552  25.985  1.00  0.00    -0.246 OA
BRANCH  22  24
ATOM     24  C   UNL A   1      39.663  23.777  26.785  1.00  0.00     0.060 A 
ATOM     25  C   UNL A   1      40.347  23.676  28.000  1.00  0.00     0.016 A 
ATOM     26  C   UNL A   1      39.613  24.994  26.104  1.00  0.00     0.016 A 
ATOM     27  C   UNL A   1      40.954  24.804  28.554  1.00  0.00     0.010 A 
ATOM     28  C   UNL A   1      40.278  26.103  26.625  1.00  0.00     0.010 A 
ATOM     29  C   UNL A   1      40.944  26.022  27.859  1.00  0.00    -0.014 A 
BRANCH  29  30
ATOM     30  C   UNL A   1      41.663  27.214  28.375  1.00  0.00     0.031 A 
ATOM     31  C   UNL A   1      40.895  28.387  28.914  1.00  0.00     0.074 A 
ATOM     32  C   UNL A   1      43.005  27.267  28.278  1.00  0.00     0.049 A 
ATOM     33  N   UNL A   1      41.324  29.586  29.212  1.00  0.00    -0.248 NA
ATOM     34  C   UNL A   1      39.454  28.188  29.139  1.00  0.00     0.031 C 
ATOM     35  C   UNL A   1      43.864  26.183  27.792  1.00  0.00     0.029 A 
ATOM     36  N   UNL A   1      43.883  28.285  28.559  1.00  0.00    -0.354 N 
ATOM     37  C   UNL A   1      40.205  30.296  29.629  1.00  0.00     0.074 A 
ATOM     38  C   UNL A   1      39.075  29.395  29.542  1.00  0.00     0.031 C 
ATOM     39  C   UNL A   1      45.141  26.594  27.805  1.00  0.00     0.029 A 
ATOM     40  C   UNL A   1      45.185  27.987  28.233  1.00  0.00     0.049 A 
ATOM     41  H   UNL A   1      43.606  29.143  28.954  1.00  0.00     0.167 HD
ATOM     42  C   UNL A   1      40.129  31.584  30.040  1.00  0.00     0.031 A 
ATOM     43  C   UNL A   1      46.286  28.762  28.229  1.00  0.00     0.031 A 
ATOM     44  C   UNL A   1      41.258  32.472  30.123  1.00  0.00     0.049 A 
ATOM     45  C   UNL A   1      46.167  30.205  28.624  1.00  0.00     0.074 A 
ATOM     46  C   UNL A   1      41.292  33.788  30.551  1.00  0.00     0.029 A 
ATOM     47  N   UNL A   1      42.555  32.136  29.765  1.00  0.00    -0.354 N 
ATOM     48  N   UNL A   1      45.101  30.863  29.009  1.00  0.00    -0.248 NA
ATOM     49  C   UNL A   1      47.394  31.011  28.570  1.00  0.00     0.031 C 
ATOM     50  C   UNL A   1      42.603  34.260  30.412  1.00  0.00     0.029 A 
ATOM     51  C   UNL A   1      43.392  33.225  29.936  1.00  0.00     0.049 A 
ATOM     52  H   UNL A   1      42.839  31.252  29.437  1.00  0.00     0.167 HD
ATOM     53  C   UNL A   1      45.527  32.164  29.246  1.00  0.00     0.074 A 
ATOM     54  C   UNL A   1      46.952  32.193  28.979  1.00  0.00     0.031 C 
ATOM     55  C   UNL A   1      44.803  33.237  29.649  1.00  0.00     0.031 A 
BRANCH  42  56
ATOM     56  C   UNL A   1      38.770  32.124  30.399  1.00  0.00    -0.014 A 
ATOM     57  C   UNL A   1      37.846  32.489  29.405  1.00  0.00     0.010 A 
ATOM     58  C   UNL A   1      38.397  32.223  31.752  1.00  0.00     0.010 A 
ATOM     59  C   UNL A   1      36.582  32.974  29.759  1.00  0.00     0.020 A 
ATOM     60  C   UNL A   1      37.128  32.691  32.109  1.00  0.00     0.020 A 
ATOM     61  C   UNL A   1      36.233  33.077  31.109  1.00  0.00     0.054 A 
BRANCH  61  62
ATOM     62  S   UNL A   1      34.579  33.684  31.543  1.00  0.00     0.124 S 
ATOM     63  O   UNL A   1      34.884  34.971  32.162  1.00  0.00    -0.237 OA
ATOM     64  O   UNL A   1      33.910  33.755  30.245  1.00  0.00    -0.237 OA
ATOM     65  O   UNL A   1      34.062  32.662  32.450  1.00  0.00    -0.744 OA
ENDBRANCH  61  62
ENDBRANCH  42  56
BRANCH  43  66
ATOM     66  C   UNL A   1      47.583  28.186  27.784  1.00  0.00    -0.014 A 
ATOM     67  C   UNL A   1      48.478  27.642  28.719  1.00  0.00     0.010 A 
ATOM     68  C   UNL A   1      47.897  28.124  26.413  1.00  0.00     0.010 A 
ATOM     69  C   UNL A   1      49.665  27.039  28.290  1.00  0.00     0.020 A 
ATOM     70  C   UNL A   1      49.071  27.502  25.980  1.00  0.00     0.020 A 
ATOM     71  C   UNL A   1      49.951  26.967  26.924  1.00  0.00     0.054 A 
BRANCH  71  72
ATOM     72  S   UNL A   1      51.447  26.096  26.380  1.00  0.00     0.124 S 
ATOM     73  O   UNL A   1      52.499  26.858  27.044  1.00  0.00    -0.237 OA
ATOM     74  O   UNL A   1      51.230  24.742  26.885  1.00  0.00    -0.237 OA
ATOM     75  O   UNL A   1      51.403  26.221  24.925  1.00  0.00    -0.744 OA
ENDBRANCH  71  72
ENDBRANCH  43  66
BRANCH  55  76
ATOM     76  C   UNL A   1      45.545  34.531  29.828  1.00  0.00    -0.014 A 
ATOM     77  C   UNL A   1      46.183  34.830  31.044  1.00  0.00     0.010 A 
ATOM     78  C   UNL A   1      45.645  35.432  28.754  1.00  0.00     0.010 A 
ATOM     79  C   UNL A   1      46.896  36.023  31.188  1.00  0.00     0.020 A 
ATOM     80  C   UNL A   1      46.372  36.617  28.889  1.00  0.00     0.020 A 
ATOM     81  C   UNL A   1      46.985  36.909  30.111  1.00  0.00     0.054 A 
BRANCH  81  82
ATOM     82  S   UNL A   1      47.957  38.428  30.303  1.00  0.00     0.124 S 
ATOM     83  O   UNL A   1      46.959  39.364  30.814  1.00  0.00    -0.237 OA
ATOM     84  O   UNL A   1      48.992  38.032  31.255  1.00  0.00    -0.237 OA
ATOM     85  O   UNL A   1      48.437  38.704  28.951  1.00  0.00    -0.744 OA
ENDBRANCH  81  82
ENDBRANCH  55  76
ENDBRANCH  29  30
ENDBRANCH  22  24
ENDBRANCH  21  22
ENDBRANCH  20  21
ENDBRANCH   1  20
TORSDOF 19
ENDMDL
