MODEL 1
REMARK VINA RESULT:     -10.8      0.000      0.000
REMARK SMILES Cc1ncccc1C(=O)Nc1ccccc1C(=O)OCCOC(=O)c1ccc(-c2c3nc(c(-c4ccc(S(=O)(=O)[O-])cc4)c4ccc([nH]4)c(-c4ccc(S(=O)(=O)[O-])cc4)c4nc(c(-c5ccc(S(=O)(=O)[O-])cc5)c5ccc2[nH]5)C=C4)C=C3)cc1
REMARK SMILES IDX 21 1 20 2 19 3 17 4 18 5 16 6 11 7 12 8 13 9 15 10 14 11
REMARK SMILES IDX 10 12 8 13 9 14 7 16 1 17 2 18 3 19 4 20 6 21 5 22 22 23
REMARK SMILES IDX 23 24 24 25 25 26 26 27 84 28 27 29 83 30 28 31 29 32 30 33
REMARK SMILES IDX 77 34 31 35 82 36 76 37 78 38 32 39 81 40 75 41 74 42 33 44
REMARK SMILES IDX 63 45 44 46 62 47 45 48 48 49 61 50 79 51 46 52 47 53 60 55
REMARK SMILES IDX 80 56 49 57 34 58 35 59 43 60 36 61 42 62 37 63 38 64 39 65
REMARK SMILES IDX 40 66 41 67 64 68 65 69 73 70 66 71 72 72 67 73 68 74 69 75
REMARK SMILES IDX 70 76 71 77 50 78 51 79 59 80 52 81 58 82 53 83 54 84 55 85
REMARK SMILES IDX 56 86 57 87
REMARK H PARENT 10 15 78 43 48 54
REMARK Flexibility Score: inf
ROOT
ATOM      1  C   UNL A   1      33.452  32.549  27.770  1.00  0.00     0.275 C 
ENDROOT
BRANCH   1   2
ATOM      2  C   UNL A   1      33.572  34.027  28.151  1.00  0.00     0.275 C 
BRANCH   2   3
ATOM      3  O   UNL A   1      33.124  34.325  29.490  1.00  0.00    -0.458 OA
BRANCH   3   4
ATOM      4  C   UNL A   1      32.896  35.641  29.713  1.00  0.00     0.340 C 
ATOM      5  O   UNL A   1      32.458  36.430  28.897  1.00  0.00    -0.246 OA
BRANCH   4   6
ATOM      6  C   UNL A   1      33.270  36.072  31.071  1.00  0.00     0.083 A 
ATOM      7  C   UNL A   1      33.793  35.202  32.030  1.00  0.00     0.056 A 
ATOM      8  C   UNL A   1      34.123  35.712  33.302  1.00  0.00     0.027 A 
ATOM      9  C   UNL A   1      34.086  37.083  33.562  1.00  0.00     0.002 A 
ATOM     10  C   UNL A   1      33.188  37.446  31.363  1.00  0.00     0.018 A 
ATOM     11  C   UNL A   1      33.632  37.955  32.584  1.00  0.00     0.001 A 
BRANCH   7  12
ATOM     12  N   UNL A   1      34.091  33.841  31.854  1.00  0.00    -0.321 N 
ATOM     13  C   UNL A   1      35.150  33.163  31.302  1.00  0.00     0.257 C 
ATOM     14  O   UNL A   1      34.983  31.960  31.076  1.00  0.00    -0.269 OA
ATOM     15  H   UNL A   1      33.388  33.245  32.200  1.00  0.00     0.170 HD
BRANCH  13  16
ATOM     16  C   UNL A   1      36.496  33.732  31.021  1.00  0.00     0.061 A 
ATOM     17  C   UNL A   1      37.188  34.417  33.407  1.00  0.00     0.067 C 
ATOM     18  C   UNL A   1      37.412  34.267  31.935  1.00  0.00     0.050 A 
ATOM     19  N   UNL A   1      38.629  34.747  31.543  1.00  0.00    -0.261 NA
ATOM     20  C   UNL A   1      38.957  34.693  30.237  1.00  0.00     0.111 A 
ATOM     21  C   UNL A   1      36.914  33.629  29.681  1.00  0.00     0.017 A 
ATOM     22  C   UNL A   1      38.148  34.127  29.277  1.00  0.00     0.021 A 
ENDBRANCH  13  16
ENDBRANCH   7  12
ENDBRANCH   4   6
ENDBRANCH   3   4
ENDBRANCH   2   3
ENDBRANCH   1   2
BRANCH   1  23
ATOM     23  O   UNL A   1      34.737  31.913  27.637  1.00  0.00    -0.458 OA
BRANCH  23  24
ATOM     24  C   UNL A   1      34.675  30.574  27.485  1.00  0.00     0.338 C 
ATOM     25  O   UNL A   1      33.759  29.928  26.997  1.00  0.00    -0.246 OA
BRANCH  24  26
ATOM     26  C   UNL A   1      35.909  29.924  27.942  1.00  0.00     0.060 A 
ATOM     27  C   UNL A   1      35.926  29.333  29.204  1.00  0.00     0.016 A 
ATOM     28  C   UNL A   1      37.100  30.150  27.260  1.00  0.00     0.016 A 
ATOM     29  C   UNL A   1      37.124  29.120  29.862  1.00  0.00     0.010 A 
ATOM     30  C   UNL A   1      38.307  29.811  27.873  1.00  0.00     0.010 A 
ATOM     31  C   UNL A   1      38.331  29.350  29.202  1.00  0.00    -0.014 A 
BRANCH  31  32
ATOM     32  C   UNL A   1      39.612  29.176  29.926  1.00  0.00     0.031 A 
ATOM     33  C   UNL A   1      40.598  28.149  29.443  1.00  0.00     0.074 A 
ATOM     34  C   UNL A   1      39.894  29.947  30.994  1.00  0.00     0.049 A 
ATOM     35  N   UNL A   1      41.656  27.672  30.044  1.00  0.00    -0.248 NA
ATOM     36  C   UNL A   1      40.345  27.563  28.115  1.00  0.00     0.031 C 
ATOM     37  C   UNL A   1      39.065  31.048  31.497  1.00  0.00     0.029 A 
ATOM     38  N   UNL A   1      40.961  29.922  31.852  1.00  0.00    -0.354 N 
ATOM     39  C   UNL A   1      42.155  26.686  29.201  1.00  0.00     0.074 A 
ATOM     40  C   UNL A   1      41.278  26.625  28.053  1.00  0.00     0.031 C 
ATOM     41  C   UNL A   1      39.669  31.608  32.553  1.00  0.00     0.029 A 
ATOM     42  C   UNL A   1      40.865  30.840  32.870  1.00  0.00     0.049 A 
ATOM     43  H   UNL A   1      41.723  29.305  31.751  1.00  0.00     0.167 HD
ATOM     44  C   UNL A   1      43.245  25.900  29.381  1.00  0.00     0.031 A 
ATOM     45  C   UNL A   1      41.622  31.009  33.968  1.00  0.00     0.031 A 
ATOM     46  C   UNL A   1      44.110  25.999  30.527  1.00  0.00     0.049 A 
ATOM     47  C   UNL A   1      42.774  30.073  34.192  1.00  0.00     0.074 A 
ATOM     48  C   UNL A   1      45.237  25.255  30.826  1.00  0.00     0.029 A 
ATOM     49  N   UNL A   1      43.947  26.912  31.561  1.00  0.00    -0.354 N 
ATOM     50  N   UNL A   1      43.197  29.092  33.429  1.00  0.00    -0.248 NA
ATOM     51  C   UNL A   1      43.542  30.258  35.428  1.00  0.00     0.031 C 
ATOM     52  C   UNL A   1      45.723  25.681  32.067  1.00  0.00     0.029 A 
ATOM     53  C   UNL A   1      44.942  26.739  32.508  1.00  0.00     0.049 A 
ATOM     54  H   UNL A   1      43.229  27.583  31.613  1.00  0.00     0.167 HD
ATOM     55  C   UNL A   1      44.305  28.560  34.079  1.00  0.00     0.074 A 
ATOM     56  C   UNL A   1      44.487  29.337  35.290  1.00  0.00     0.031 C 
ATOM     57  C   UNL A   1      45.101  27.528  33.706  1.00  0.00     0.031 A 
BRANCH  44  58
ATOM     58  C   UNL A   1      43.510  24.834  28.348  1.00  0.00    -0.014 A 
ATOM     59  C   UNL A   1      42.910  23.563  28.421  1.00  0.00     0.010 A 
ATOM     60  C   UNL A   1      44.388  25.108  27.283  1.00  0.00     0.010 A 
ATOM     61  C   UNL A   1      43.231  22.571  27.489  1.00  0.00     0.020 A 
ATOM     62  C   UNL A   1      44.686  24.131  26.328  1.00  0.00     0.020 A 
ATOM     63  C   UNL A   1      44.124  22.859  26.452  1.00  0.00     0.054 A 
BRANCH  63  64
ATOM     64  S   UNL A   1      44.532  21.551  25.264  1.00  0.00     0.124 S 
ATOM     65  O   UNL A   1      45.943  21.310  25.556  1.00  0.00    -0.237 OA
ATOM     66  O   UNL A   1      43.621  20.475  25.646  1.00  0.00    -0.237 OA
ATOM     67  O   UNL A   1      44.261  22.162  23.966  1.00  0.00    -0.744 OA
ENDBRANCH  63  64
ENDBRANCH  44  58
BRANCH  45  68
ATOM     68  C   UNL A   1      41.285  32.082  34.941  1.00  0.00    -0.014 A 
ATOM     69  C   UNL A   1      41.781  33.384  34.761  1.00  0.00     0.010 A 
ATOM     70  C   UNL A   1      40.427  31.823  36.028  1.00  0.00     0.010 A 
ATOM     71  C   UNL A   1      41.429  34.404  35.649  1.00  0.00     0.020 A 
ATOM     72  C   UNL A   1      40.047  32.847  36.900  1.00  0.00     0.020 A 
ATOM     73  C   UNL A   1      40.559  34.132  36.708  1.00  0.00     0.054 A 
BRANCH  73  74
ATOM     74  S   UNL A   1      40.067  35.490  37.805  1.00  0.00     0.124 S 
ATOM     75  O   UNL A   1      39.928  36.601  36.869  1.00  0.00    -0.237 OA
ATOM     76  O   UNL A   1      38.822  34.991  38.385  1.00  0.00    -0.237 OA
ATOM     77  O   UNL A   1      41.183  35.596  38.742  1.00  0.00    -0.744 OA
ENDBRANCH  73  74
ENDBRANCH  45  68
BRANCH  57  78
ATOM     78  C   UNL A   1      46.276  27.219  34.592  1.00  0.00    -0.014 A 
ATOM     79  C   UNL A   1      47.516  27.860  34.419  1.00  0.00     0.010 A 
ATOM     80  C   UNL A   1      46.118  26.298  35.643  1.00  0.00     0.010 A 
ATOM     81  C   UNL A   1      48.587  27.557  35.264  1.00  0.00     0.020 A 
ATOM     82  C   UNL A   1      47.176  26.018  36.509  1.00  0.00     0.020 A 
ATOM     83  C   UNL A   1      48.409  26.640  36.305  1.00  0.00     0.054 A 
BRANCH  83  84
ATOM     84  S   UNL A   1      49.802  26.299  37.414  1.00  0.00     0.124 S 
ATOM     85  O   UNL A   1      50.272  25.007  36.923  1.00  0.00    -0.237 OA
ATOM     86  O   UNL A   1      50.692  27.430  37.165  1.00  0.00    -0.237 OA
ATOM     87  O   UNL A   1      49.190  26.276  38.741  1.00  0.00    -0.744 OA
ENDBRANCH  83  84
ENDBRANCH  57  78
ENDBRANCH  31  32
ENDBRANCH  24  26
ENDBRANCH  23  24
ENDBRANCH   1  23
TORSDOF 16
ENDMDL
MODEL 2
REMARK VINA RESULT:     -10.8      1.334      8.434
REMARK SMILES Cc1ncccc1C(=O)Nc1ccccc1C(=O)OCCOC(=O)c1ccc(-c2c3nc(c(-c4ccc(S(=O)(=O)[O-])cc4)c4ccc([nH]4)c(-c4ccc(S(=O)(=O)[O-])cc4)c4nc(c(-c5ccc(S(=O)(=O)[O-])cc5)c5ccc2[nH]5)C=C4)C=C3)cc1
REMARK SMILES IDX 21 1 20 2 19 3 17 4 18 5 16 6 11 7 12 8 13 9 15 10 14 11
REMARK SMILES IDX 10 12 8 13 9 14 7 16 1 17 2 18 3 19 4 20 6 21 5 22 22 23
REMARK SMILES IDX 23 24 24 25 25 26 26 27 84 28 27 29 83 30 28 31 29 32 30 33
REMARK SMILES IDX 77 34 31 35 82 36 76 37 78 38 32 39 81 40 75 41 74 42 33 44
REMARK SMILES IDX 63 45 44 46 62 47 45 48 48 49 61 50 79 51 46 52 47 53 60 55
REMARK SMILES IDX 80 56 49 57 34 58 35 59 43 60 36 61 42 62 37 63 38 64 39 65
REMARK SMILES IDX 40 66 41 67 64 68 65 69 73 70 66 71 72 72 67 73 68 74 69 75
REMARK SMILES IDX 70 76 71 77 50 78 51 79 59 80 52 81 58 82 53 83 54 84 55 85
REMARK SMILES IDX 56 86 57 87
REMARK H PARENT 10 15 78 43 48 54
REMARK Flexibility Score: inf
ROOT
ATOM      1  C   UNL A   1      33.674  32.988  27.929  1.00  0.00     0.275 C 
ENDROOT
BRANCH   1   2
ATOM      2  C   UNL A   1      33.929  34.490  27.778  1.00  0.00     0.275 C 
BRANCH   2   3
ATOM      3  O   UNL A   1      34.254  35.157  29.016  1.00  0.00    -0.458 OA
BRANCH   3   4
ATOM      4  C   UNL A   1      33.201  35.780  29.597  1.00  0.00     0.340 C 
ATOM      5  O   UNL A   1      32.151  36.055  29.047  1.00  0.00    -0.246 OA
BRANCH   4   6
ATOM      6  C   UNL A   1      33.449  36.150  31.001  1.00  0.00     0.083 A 
ATOM      7  C   UNL A   1      33.847  35.229  31.974  1.00  0.00     0.056 A 
ATOM      8  C   UNL A   1      34.061  35.683  33.290  1.00  0.00     0.027 A 
ATOM      9  C   UNL A   1      34.037  37.044  33.599  1.00  0.00     0.002 A 
ATOM     10  C   UNL A   1      33.378  37.515  31.338  1.00  0.00     0.018 A 
ATOM     11  C   UNL A   1      33.711  37.965  32.615  1.00  0.00     0.001 A 
BRANCH   7  12
ATOM     12  N   UNL A   1      34.122  33.867  31.775  1.00  0.00    -0.321 N 
ATOM     13  C   UNL A   1      35.208  33.175  31.299  1.00  0.00     0.257 C 
ATOM     14  O   UNL A   1      35.029  31.986  31.014  1.00  0.00    -0.269 OA
ATOM     15  H   UNL A   1      33.373  33.282  32.032  1.00  0.00     0.170 HD
BRANCH  13  16
ATOM     16  C   UNL A   1      36.590  33.711  31.167  1.00  0.00     0.061 A 
ATOM     17  C   UNL A   1      37.103  34.215  33.641  1.00  0.00     0.067 C 
ATOM     18  C   UNL A   1      37.444  34.152  32.186  1.00  0.00     0.050 A 
ATOM     19  N   UNL A   1      38.704  34.611  31.926  1.00  0.00    -0.261 NA
ATOM     20  C   UNL A   1      39.137  34.629  30.650  1.00  0.00     0.111 A 
ATOM     21  C   UNL A   1      37.115  33.678  29.861  1.00  0.00     0.017 A 
ATOM     22  C   UNL A   1      38.393  34.155  29.592  1.00  0.00     0.021 A 
ENDBRANCH  13  16
ENDBRANCH   7  12
ENDBRANCH   4   6
ENDBRANCH   3   4
ENDBRANCH   2   3
ENDBRANCH   1   2
BRANCH   1  23
ATOM     23  O   UNL A   1      34.851  32.205  27.658  1.00  0.00    -0.458 OA
BRANCH  23  24
ATOM     24  C   UNL A   1      34.638  30.873  27.662  1.00  0.00     0.338 C 
ATOM     25  O   UNL A   1      33.593  30.292  27.410  1.00  0.00    -0.246 OA
BRANCH  24  26
ATOM     26  C   UNL A   1      35.869  30.133  27.969  1.00  0.00     0.060 A 
ATOM     27  C   UNL A   1      35.919  29.372  29.135  1.00  0.00     0.016 A 
ATOM     28  C   UNL A   1      37.037  30.422  27.270  1.00  0.00     0.016 A 
ATOM     29  C   UNL A   1      37.136  29.039  29.702  1.00  0.00     0.010 A 
ATOM     30  C   UNL A   1      38.257  29.969  27.776  1.00  0.00     0.010 A 
ATOM     31  C   UNL A   1      38.321  29.326  29.026  1.00  0.00    -0.014 A 
BRANCH  31  32
ATOM     32  C   UNL A   1      39.624  29.020  29.659  1.00  0.00     0.031 A 
ATOM     33  C   UNL A   1      40.081  29.836  30.837  1.00  0.00     0.074 A 
ATOM     34  C   UNL A   1      40.382  28.008  29.193  1.00  0.00     0.049 A 
ATOM     35  N   UNL A   1      41.263  29.898  31.391  1.00  0.00    -0.248 NA
ATOM     36  C   UNL A   1      39.077  30.716  31.460  1.00  0.00     0.031 C 
ATOM     37  C   UNL A   1      40.001  27.079  28.123  1.00  0.00     0.029 A 
ATOM     38  N   UNL A   1      41.632  27.590  29.561  1.00  0.00    -0.354 N 
ATOM     39  C   UNL A   1      41.164  30.870  32.380  1.00  0.00     0.074 A 
ATOM     40  C   UNL A   1      39.811  31.378  32.343  1.00  0.00     0.031 C 
ATOM     41  C   UNL A   1      40.984  26.186  27.944  1.00  0.00     0.029 A 
ATOM     42  C   UNL A   1      42.104  26.545  28.804  1.00  0.00     0.049 A 
ATOM     43  H   UNL A   1      42.145  27.999  30.297  1.00  0.00     0.167 HD
ATOM     44  C   UNL A   1      42.125  31.299  33.234  1.00  0.00     0.031 A 
ATOM     45  C   UNL A   1      43.321  25.976  28.763  1.00  0.00     0.031 A 
ATOM     46  C   UNL A   1      43.459  30.759  33.260  1.00  0.00     0.049 A 
ATOM     47  C   UNL A   1      44.396  26.523  29.656  1.00  0.00     0.074 A 
ATOM     48  C   UNL A   1      44.521  31.116  34.072  1.00  0.00     0.029 A 
ATOM     49  N   UNL A   1      43.909  29.733  32.440  1.00  0.00    -0.354 N 
ATOM     50  N   UNL A   1      44.318  27.493  30.537  1.00  0.00    -0.248 NA
ATOM     51  C   UNL A   1      45.722  25.908  29.543  1.00  0.00     0.031 C 
ATOM     52  C   UNL A   1      45.628  30.344  33.703  1.00  0.00     0.029 A 
ATOM     53  C   UNL A   1      45.238  29.455  32.713  1.00  0.00     0.049 A 
ATOM     54  H   UNL A   1      43.364  29.271  31.763  1.00  0.00     0.167 HD
ATOM     55  C   UNL A   1      45.582  27.585  31.108  1.00  0.00     0.074 A 
ATOM     56  C   UNL A   1      46.397  26.564  30.478  1.00  0.00     0.031 C 
ATOM     57  C   UNL A   1      46.026  28.432  32.070  1.00  0.00     0.031 A 
BRANCH  44  58
ATOM     58  C   UNL A   1      41.777  32.445  34.153  1.00  0.00    -0.014 A 
ATOM     59  C   UNL A   1      41.221  32.232  35.428  1.00  0.00     0.010 A 
ATOM     60  C   UNL A   1      42.003  33.766  33.724  1.00  0.00     0.010 A 
ATOM     61  C   UNL A   1      40.843  33.315  36.227  1.00  0.00     0.020 A 
ATOM     62  C   UNL A   1      41.658  34.852  34.534  1.00  0.00     0.020 A 
ATOM     63  C   UNL A   1      41.057  34.619  35.771  1.00  0.00     0.054 A 
BRANCH  63  64
ATOM     64  S   UNL A   1      40.544  36.006  36.823  1.00  0.00     0.124 S 
ATOM     65  O   UNL A   1      39.704  36.779  35.912  1.00  0.00    -0.237 OA
ATOM     66  O   UNL A   1      39.837  35.337  37.912  1.00  0.00    -0.237 OA
ATOM     67  O   UNL A   1      41.804  36.641  37.199  1.00  0.00    -0.744 OA
ENDBRANCH  63  64
ENDBRANCH  44  58
BRANCH  45  68
ATOM     68  C   UNL A   1      43.582  24.854  27.821  1.00  0.00    -0.014 A 
ATOM     69  C   UNL A   1      44.134  25.106  26.554  1.00  0.00     0.010 A 
ATOM     70  C   UNL A   1      43.325  23.522  28.201  1.00  0.00     0.010 A 
ATOM     71  C   UNL A   1      44.421  24.049  25.684  1.00  0.00     0.020 A 
ATOM     72  C   UNL A   1      43.641  22.461  27.348  1.00  0.00     0.020 A 
ATOM     73  C   UNL A   1      44.180  22.734  26.090  1.00  0.00     0.054 A 
BRANCH  73  74
ATOM     74  S   UNL A   1      44.625  21.380  24.968  1.00  0.00     0.124 S 
ATOM     75  O   UNL A   1      44.592  22.041  23.667  1.00  0.00    -0.237 OA
ATOM     76  O   UNL A   1      45.949  20.995  25.449  1.00  0.00    -0.237 OA
ATOM     77  O   UNL A   1      43.576  20.388  25.192  1.00  0.00    -0.744 OA
ENDBRANCH  73  74
ENDBRANCH  45  68
BRANCH  57  78
ATOM     78  C   UNL A   1      47.444  28.249  32.537  1.00  0.00    -0.014 A 
ATOM     79  C   UNL A   1      47.767  27.362  33.579  1.00  0.00     0.010 A 
ATOM     80  C   UNL A   1      48.475  28.952  31.888  1.00  0.00     0.010 A 
ATOM     81  C   UNL A   1      49.095  27.208  33.985  1.00  0.00     0.020 A 
ATOM     82  C   UNL A   1      49.806  28.775  32.269  1.00  0.00     0.020 A 
ATOM     83  C   UNL A   1      50.106  27.914  33.326  1.00  0.00     0.054 A 
BRANCH  83  84
ATOM     84  S   UNL A   1      51.825  27.662  33.842  1.00  0.00     0.124 S 
ATOM     85  O   UNL A   1      52.546  27.808  32.581  1.00  0.00    -0.237 OA
ATOM     86  O   UNL A   1      52.027  28.735  34.812  1.00  0.00    -0.237 OA
ATOM     87  O   UNL A   1      51.823  26.313  34.406  1.00  0.00    -0.744 OA
ENDBRANCH  83  84
ENDBRANCH  57  78
ENDBRANCH  31  32
ENDBRANCH  24  26
ENDBRANCH  23  24
ENDBRANCH   1  23
TORSDOF 16
ENDMDL
MODEL 3
REMARK VINA RESULT:     -10.7      2.945      8.569
REMARK SMILES Cc1ncccc1C(=O)Nc1ccccc1C(=O)OCCOC(=O)c1ccc(-c2c3nc(c(-c4ccc(S(=O)(=O)[O-])cc4)c4ccc([nH]4)c(-c4ccc(S(=O)(=O)[O-])cc4)c4nc(c(-c5ccc(S(=O)(=O)[O-])cc5)c5ccc2[nH]5)C=C4)C=C3)cc1
REMARK SMILES IDX 21 1 20 2 19 3 17 4 18 5 16 6 11 7 12 8 13 9 15 10 14 11
REMARK SMILES IDX 10 12 8 13 9 14 7 16 1 17 2 18 3 19 4 20 6 21 5 22 22 23
REMARK SMILES IDX 23 24 24 25 25 26 26 27 84 28 27 29 83 30 28 31 29 32 30 33
REMARK SMILES IDX 77 34 31 35 82 36 76 37 78 38 32 39 81 40 75 41 74 42 33 44
REMARK SMILES IDX 63 45 44 46 62 47 45 48 48 49 61 50 79 51 46 52 47 53 60 55
REMARK SMILES IDX 80 56 49 57 34 58 35 59 43 60 36 61 42 62 37 63 38 64 39 65
REMARK SMILES IDX 40 66 41 67 64 68 65 69 73 70 66 71 72 72 67 73 68 74 69 75
REMARK SMILES IDX 70 76 71 77 50 78 51 79 59 80 52 81 58 82 53 83 54 84 55 85
REMARK SMILES IDX 56 86 57 87
REMARK H PARENT 10 15 78 43 48 54
REMARK Flexibility Score: inf
ROOT
ATOM      1  C   UNL A   1      33.333  31.618  27.634  1.00  0.00     0.275 C 
ENDROOT
BRANCH   1   2
ATOM      2  C   UNL A   1      34.047  32.915  28.024  1.00  0.00     0.275 C 
BRANCH   2   3
ATOM      3  O   UNL A   1      33.361  33.680  29.038  1.00  0.00    -0.458 OA
BRANCH   3   4
ATOM      4  C   UNL A   1      33.800  34.955  29.156  1.00  0.00     0.340 C 
ATOM      5  O   UNL A   1      34.312  35.611  28.268  1.00  0.00    -0.246 OA
BRANCH   4   6
ATOM      6  C   UNL A   1      33.636  35.502  30.514  1.00  0.00     0.083 A 
ATOM      7  C   UNL A   1      33.885  34.758  31.670  1.00  0.00     0.056 A 
ATOM      8  C   UNL A   1      33.701  35.372  32.925  1.00  0.00     0.027 A 
ATOM      9  C   UNL A   1      33.431  36.737  33.029  1.00  0.00     0.002 A 
ATOM     10  C   UNL A   1      33.313  36.866  30.633  1.00  0.00     0.018 A 
ATOM     11  C   UNL A   1      33.253  37.491  31.879  1.00  0.00     0.001 A 
BRANCH   7  12
ATOM     12  N   UNL A   1      34.368  33.441  31.732  1.00  0.00    -0.321 N 
ATOM     13  C   UNL A   1      35.528  32.833  31.320  1.00  0.00     0.257 C 
ATOM     14  O   UNL A   1      35.531  31.597  31.299  1.00  0.00    -0.269 OA
ATOM     15  H   UNL A   1      33.737  32.819  32.162  1.00  0.00     0.170 HD
BRANCH  13  16
ATOM     16  C   UNL A   1      36.796  33.527  30.969  1.00  0.00     0.061 A 
ATOM     17  C   UNL A   1      37.515  34.334  33.308  1.00  0.00     0.067 C 
ATOM     18  C   UNL A   1      37.692  34.173  31.831  1.00  0.00     0.050 A 
ATOM     19  N   UNL A   1      38.836  34.763  31.376  1.00  0.00    -0.261 NA
ATOM     20  C   UNL A   1      39.112  34.712  30.058  1.00  0.00     0.111 A 
ATOM     21  C   UNL A   1      37.166  33.434  29.613  1.00  0.00     0.017 A 
ATOM     22  C   UNL A   1      38.325  34.044  29.146  1.00  0.00     0.021 A 
ENDBRANCH  13  16
ENDBRANCH   7  12
ENDBRANCH   4   6
ENDBRANCH   3   4
ENDBRANCH   2   3
ENDBRANCH   1   2
BRANCH   1  23
ATOM     23  O   UNL A   1      34.189  30.724  26.899  1.00  0.00    -0.458 OA
BRANCH  23  24
ATOM     24  C   UNL A   1      34.552  29.621  27.585  1.00  0.00     0.338 C 
ATOM     25  O   UNL A   1      33.903  28.594  27.727  1.00  0.00    -0.246 OA
BRANCH  24  26
ATOM     26  C   UNL A   1      35.904  29.753  28.139  1.00  0.00     0.060 A 
ATOM     27  C   UNL A   1      36.951  30.084  27.281  1.00  0.00     0.016 A 
ATOM     28  C   UNL A   1      36.173  29.275  29.418  1.00  0.00     0.016 A 
ATOM     29  C   UNL A   1      38.258  29.786  27.621  1.00  0.00     0.010 A 
ATOM     30  C   UNL A   1      37.502  29.099  29.810  1.00  0.00     0.010 A 
ATOM     31  C   UNL A   1      38.551  29.297  28.893  1.00  0.00    -0.014 A 
BRANCH  31  32
ATOM     32  C   UNL A   1      39.943  28.925  29.237  1.00  0.00     0.031 A 
ATOM     33  C   UNL A   1      40.819  29.920  29.946  1.00  0.00     0.074 A 
ATOM     34  C   UNL A   1      40.410  27.698  28.932  1.00  0.00     0.049 A 
ATOM     35  N   UNL A   1      42.112  29.898  30.134  1.00  0.00    -0.248 NA
ATOM     36  C   UNL A   1      40.151  31.112  30.498  1.00  0.00     0.031 C 
ATOM     37  C   UNL A   1      39.626  26.609  28.338  1.00  0.00     0.029 A 
ATOM     38  N   UNL A   1      41.660  27.159  29.082  1.00  0.00    -0.354 N 
ATOM     39  C   UNL A   1      42.422  31.098  30.762  1.00  0.00     0.074 A 
ATOM     40  C   UNL A   1      41.184  31.830  30.914  1.00  0.00     0.031 C 
ATOM     41  C   UNL A   1      40.406  25.528  28.202  1.00  0.00     0.029 A 
ATOM     42  C   UNL A   1      41.764  25.879  28.593  1.00  0.00     0.049 A 
ATOM     43  H   UNL A   1      42.411  27.642  29.497  1.00  0.00     0.167 HD
ATOM     44  C   UNL A   1      43.635  31.546  31.167  1.00  0.00     0.031 A 
ATOM     45  C   UNL A   1      42.843  25.095  28.423  1.00  0.00     0.031 A 
ATOM     46  C   UNL A   1      44.848  30.784  31.019  1.00  0.00     0.049 A 
ATOM     47  C   UNL A   1      44.189  25.642  28.798  1.00  0.00     0.074 A 
ATOM     48  C   UNL A   1      46.137  31.132  31.381  1.00  0.00     0.029 A 
ATOM     49  N   UNL A   1      44.916  29.509  30.472  1.00  0.00    -0.354 N 
ATOM     50  N   UNL A   1      44.487  26.807  29.322  1.00  0.00    -0.248 NA
ATOM     51  C   UNL A   1      45.345  24.774  28.548  1.00  0.00     0.031 C 
ATOM     52  C   UNL A   1      46.991  30.090  31.003  1.00  0.00     0.029 A 
ATOM     53  C   UNL A   1      46.227  29.063  30.471  1.00  0.00     0.049 A 
ATOM     54  H   UNL A   1      44.145  28.998  30.135  1.00  0.00     0.167 HD
ATOM     55  C   UNL A   1      45.866  26.802  29.495  1.00  0.00     0.074 A 
ATOM     56  C   UNL A   1      46.337  25.512  29.028  1.00  0.00     0.031 C 
ATOM     57  C   UNL A   1      46.668  27.772  30.000  1.00  0.00     0.031 A 
BRANCH  44  58
ATOM     58  C   UNL A   1      43.706  32.939  31.740  1.00  0.00    -0.014 A 
ATOM     59  C   UNL A   1      43.546  33.186  33.116  1.00  0.00     0.010 A 
ATOM     60  C   UNL A   1      43.931  34.029  30.878  1.00  0.00     0.010 A 
ATOM     61  C   UNL A   1      43.545  34.495  33.608  1.00  0.00     0.020 A 
ATOM     62  C   UNL A   1      43.966  35.338  31.370  1.00  0.00     0.020 A 
ATOM     63  C   UNL A   1      43.748  35.564  32.730  1.00  0.00     0.054 A 
BRANCH  63  64
ATOM     64  S   UNL A   1      43.730  37.252  33.392  1.00  0.00     0.124 S 
ATOM     65  O   UNL A   1      45.010  37.315  34.092  1.00  0.00    -0.237 OA
ATOM     66  O   UNL A   1      43.635  38.069  32.186  1.00  0.00    -0.237 OA
ATOM     67  O   UNL A   1      42.549  37.275  34.252  1.00  0.00    -0.744 OA
ENDBRANCH  63  64
ENDBRANCH  44  58
BRANCH  45  68
ATOM     68  C   UNL A   1      42.684  23.734  27.843  1.00  0.00    -0.014 A 
ATOM     69  C   UNL A   1      42.423  22.634  28.676  1.00  0.00     0.010 A 
ATOM     70  C   UNL A   1      42.745  23.536  26.449  1.00  0.00     0.010 A 
ATOM     71  C   UNL A   1      42.229  21.362  28.129  1.00  0.00     0.020 A 
ATOM     72  C   UNL A   1      42.521  22.272  25.896  1.00  0.00     0.020 A 
ATOM     73  C   UNL A   1      42.271  21.191  26.743  1.00  0.00     0.054 A 
BRANCH  73  74
ATOM     74  S   UNL A   1      41.950  19.542  26.058  1.00  0.00     0.124 S 
ATOM     75  O   UNL A   1      40.527  19.616  25.743  1.00  0.00    -0.237 OA
ATOM     76  O   UNL A   1      42.852  19.499  24.909  1.00  0.00    -0.237 OA
ATOM     77  O   UNL A   1      42.303  18.641  27.152  1.00  0.00    -0.744 OA
ENDBRANCH  73  74
ENDBRANCH  45  68
BRANCH  57  78
ATOM     78  C   UNL A   1      48.132  27.450  30.124  1.00  0.00    -0.014 A 
ATOM     79  C   UNL A   1      49.016  27.614  29.042  1.00  0.00     0.010 A 
ATOM     80  C   UNL A   1      48.635  27.016  31.364  1.00  0.00     0.010 A 
ATOM     81  C   UNL A   1      50.372  27.314  29.192  1.00  0.00     0.020 A 
ATOM     82  C   UNL A   1      49.995  26.749  31.526  1.00  0.00     0.020 A 
ATOM     83  C   UNL A   1      50.853  26.886  30.433  1.00  0.00     0.054 A 
BRANCH  83  84
ATOM     84  S   UNL A   1      52.625  26.548  30.612  1.00  0.00     0.124 S 
ATOM     85  O   UNL A   1      52.626  25.399  31.514  1.00  0.00    -0.237 OA
ATOM     86  O   UNL A   1      53.037  26.271  29.239  1.00  0.00    -0.237 OA
ATOM     87  O   UNL A   1      53.159  27.785  31.179  1.00  0.00    -0.744 OA
ENDBRANCH  83  84
ENDBRANCH  57  78
ENDBRANCH  31  32
ENDBRANCH  24  26
ENDBRANCH  23  24
ENDBRANCH   1  23
TORSDOF 16
ENDMDL
