MODEL 1
REMARK VINA RESULT:      -9.1      0.000      0.000
REMARK SMILES CCC(CC)[C@@H](C)[NH2+][C@@H](C)[C@@H](C)C(=O)OCCOC(=O)c1ccc(-c2c3nc(c(-c4ccc(S(=O)(=O)[O-])cc4)c4ccc([nH]4)c(-c4ccc(S(=O)(=O)[O-])cc4)c4nc(c(-c5ccc(S(=O)(=O)[O-])cc5)c5ccc2[nH]5)C=C4)C=C3)cc1
REMARK SMILES IDX 16 1 15 2 13 3 14 4 11 5 12 6 9 7 10 8 8 9 6 12 7 13 3 14
REMARK SMILES IDX 2 15 1 16 4 17 5 18 17 19 18 20 19 21 20 22 21 23 22 24
REMARK SMILES IDX 80 25 23 26 79 27 24 28 25 29 26 30 73 31 27 32 78 33 72 34
REMARK SMILES IDX 74 35 28 36 77 37 71 38 70 39 29 41 59 42 40 43 58 44 41 45
REMARK SMILES IDX 44 46 57 47 75 48 42 49 43 50 56 52 76 53 45 54 30 55 31 56
REMARK SMILES IDX 39 57 32 58 38 59 33 60 34 61 35 62 36 63 37 64 60 65 61 66
REMARK SMILES IDX 69 67 62 68 68 69 63 70 64 71 65 72 66 73 67 74 46 75 47 76
REMARK SMILES IDX 55 77 48 78 54 79 49 80 50 81 51 82 52 83 53 84
REMARK H PARENT 8 10 8 11 74 40 44 51
REMARK Flexibility Score: inf
ROOT
ATOM      1  C   UNL A   1      41.877  22.787  26.161  1.00  0.00     0.274 C 
ENDROOT
BRANCH   1   2
ATOM      2  O   UNL A   1      40.614  22.914  26.849  1.00  0.00    -0.462 OA
BRANCH   2   3
ATOM      3  C   UNL A   1      39.680  21.993  26.492  1.00  0.00     0.314 C 
ATOM      4  O   UNL A   1      39.716  20.811  26.820  1.00  0.00    -0.252 OA
BRANCH   3   5
ATOM      5  C   UNL A   1      38.577  22.536  25.596  1.00  0.00     0.154 C 
ATOM      6  C   UNL A   1      38.070  23.815  26.272  1.00  0.00     0.026 C 
BRANCH   5   7
ATOM      7  C   UNL A   1      37.429  21.555  25.211  1.00  0.00     0.193 C 
ATOM      8  C   UNL A   1      37.971  20.148  24.931  1.00  0.00     0.076 C 
BRANCH   7   9
ATOM      9  N   UNL A   1      36.761  22.111  24.017  1.00  0.00    -0.341 N 
ATOM     10  H   UNL A   1      37.248  22.976  23.781  1.00  0.00     0.346 HD
ATOM     11  H   UNL A   1      36.812  21.352  23.339  1.00  0.00     0.346 HD
BRANCH   9  12
ATOM     12  C   UNL A   1      35.325  22.430  24.070  1.00  0.00     0.182 C 
ATOM     13  C   UNL A   1      35.109  23.952  24.035  1.00  0.00     0.075 C 
BRANCH  12  14
ATOM     14  C   UNL A   1      34.739  21.816  25.400  1.00  0.00     0.046 C 
BRANCH  14  15
ATOM     15  C   UNL A   1      34.170  22.905  26.351  1.00  0.00     0.006 C 
ATOM     16  C   UNL A   1      34.004  22.449  27.797  1.00  0.00     0.004 C 
ENDBRANCH  14  15
BRANCH  14  17
ATOM     17  C   UNL A   1      33.698  20.690  25.147  1.00  0.00     0.006 C 
ATOM     18  C   UNL A   1      34.282  19.363  24.683  1.00  0.00     0.004 C 
ENDBRANCH  14  17
ENDBRANCH  12  14
ENDBRANCH   9  12
ENDBRANCH   7   9
ENDBRANCH   5   7
ENDBRANCH   3   5
ENDBRANCH   2   3
ENDBRANCH   1   2
BRANCH   1  19
ATOM     19  C   UNL A   1      42.445  24.160  25.796  1.00  0.00     0.275 C 
BRANCH  19  20
ATOM     20  O   UNL A   1      41.388  25.133  25.742  1.00  0.00    -0.458 OA
BRANCH  20  21
ATOM     21  C   UNL A   1      41.782  26.425  25.761  1.00  0.00     0.338 C 
ATOM     22  O   UNL A   1      42.324  27.032  24.843  1.00  0.00    -0.246 OA
BRANCH  21  23
ATOM     23  C   UNL A   1      41.475  27.043  27.069  1.00  0.00     0.060 A 
ATOM     24  C   UNL A   1      40.585  26.459  27.976  1.00  0.00     0.016 A 
ATOM     25  C   UNL A   1      42.058  28.277  27.369  1.00  0.00     0.016 A 
ATOM     26  C   UNL A   1      40.254  27.117  29.163  1.00  0.00     0.010 A 
ATOM     27  C   UNL A   1      41.775  28.904  28.585  1.00  0.00     0.010 A 
ATOM     28  C   UNL A   1      40.862  28.337  29.489  1.00  0.00    -0.014 A 
BRANCH  28  29
ATOM     29  C   UNL A   1      40.583  29.032  30.774  1.00  0.00     0.031 A 
ATOM     30  C   UNL A   1      39.493  30.067  30.855  1.00  0.00     0.074 A 
ATOM     31  C   UNL A   1      41.360  28.791  31.850  1.00  0.00     0.049 A 
ATOM     32  N   UNL A   1      39.236  30.924  31.810  1.00  0.00    -0.248 NA
ATOM     33  C   UNL A   1      38.581  30.157  29.704  1.00  0.00     0.031 C 
ATOM     34  C   UNL A   1      42.434  27.798  31.915  1.00  0.00     0.029 A 
ATOM     35  N   UNL A   1      41.381  29.384  33.087  1.00  0.00    -0.354 N 
ATOM     36  C   UNL A   1      38.160  31.681  31.361  1.00  0.00     0.074 A 
ATOM     37  C   UNL A   1      37.814  31.185  30.046  1.00  0.00     0.031 C 
ATOM     38  C   UNL A   1      43.008  27.851  33.127  1.00  0.00     0.029 A 
ATOM     39  C   UNL A   1      42.390  28.924  33.899  1.00  0.00     0.049 A 
ATOM     40  H   UNL A   1      40.735  30.073  33.366  1.00  0.00     0.167 HD
ATOM     41  C   UNL A   1      37.522  32.700  31.988  1.00  0.00     0.031 A 
ATOM     42  C   UNL A   1      42.806  29.344  35.109  1.00  0.00     0.031 A 
ATOM     43  C   UNL A   1      37.863  33.185  33.300  1.00  0.00     0.049 A 
ATOM     44  C   UNL A   1      42.115  30.506  35.763  1.00  0.00     0.074 A 
ATOM     45  C   UNL A   1      37.261  34.198  34.027  1.00  0.00     0.029 A 
ATOM     46  N   UNL A   1      38.894  32.691  34.084  1.00  0.00    -0.354 N 
ATOM     47  N   UNL A   1      41.107  31.220  35.321  1.00  0.00    -0.248 NA
ATOM     48  C   UNL A   1      42.622  30.925  37.077  1.00  0.00     0.031 C 
ATOM     49  C   UNL A   1      37.955  34.344  35.233  1.00  0.00     0.029 A 
ATOM     50  C   UNL A   1      38.958  33.389  35.278  1.00  0.00     0.049 A 
ATOM     51  H   UNL A   1      39.493  31.952  33.829  1.00  0.00     0.167 HD
ATOM     52  C   UNL A   1      40.847  32.160  36.310  1.00  0.00     0.074 A 
ATOM     53  C   UNL A   1      41.795  31.916  37.379  1.00  0.00     0.031 C 
ATOM     54  C   UNL A   1      39.908  33.138  36.331  1.00  0.00     0.031 A 
BRANCH  41  55
ATOM     55  C   UNL A   1      36.408  33.388  31.244  1.00  0.00    -0.014 A 
ATOM     56  C   UNL A   1      35.172  33.650  31.861  1.00  0.00     0.010 A 
ATOM     57  C   UNL A   1      36.619  33.823  29.923  1.00  0.00     0.010 A 
ATOM     58  C   UNL A   1      34.156  34.304  31.158  1.00  0.00     0.020 A 
ATOM     59  C   UNL A   1      35.615  34.499  29.225  1.00  0.00     0.020 A 
ATOM     60  C   UNL A   1      34.382  34.721  29.842  1.00  0.00     0.054 A 
BRANCH  60  61
ATOM     61  S   UNL A   1      33.055  35.588  28.960  1.00  0.00     0.124 S 
ATOM     62  O   UNL A   1      32.479  34.514  28.153  1.00  0.00    -0.237 OA
ATOM     63  O   UNL A   1      32.210  36.077  30.047  1.00  0.00    -0.237 OA
ATOM     64  O   UNL A   1      33.758  36.624  28.207  1.00  0.00    -0.744 OA
ENDBRANCH  60  61
ENDBRANCH  41  55
BRANCH  42  65
ATOM     65  C   UNL A   1      43.964  28.677  35.763  1.00  0.00    -0.014 A 
ATOM     66  C   UNL A   1      43.764  27.584  36.623  1.00  0.00     0.010 A 
ATOM     67  C   UNL A   1      45.275  29.118  35.507  1.00  0.00     0.010 A 
ATOM     68  C   UNL A   1      44.854  26.950  37.224  1.00  0.00     0.020 A 
ATOM     69  C   UNL A   1      46.369  28.469  36.086  1.00  0.00     0.020 A 
ATOM     70  C   UNL A   1      46.151  27.394  36.949  1.00  0.00     0.054 A 
BRANCH  70  71
ATOM     71  S   UNL A   1      47.556  26.516  37.688  1.00  0.00     0.124 S 
ATOM     72  O   UNL A   1      48.683  27.067  36.944  1.00  0.00    -0.237 OA
ATOM     73  O   UNL A   1      47.472  26.908  39.093  1.00  0.00    -0.237 OA
ATOM     74  O   UNL A   1      47.256  25.110  37.424  1.00  0.00    -0.744 OA
ENDBRANCH  70  71
ENDBRANCH  42  65
BRANCH  54  75
ATOM     75  C   UNL A   1      39.837  33.996  37.564  1.00  0.00    -0.014 A 
ATOM     76  C   UNL A   1      40.476  35.247  37.619  1.00  0.00     0.010 A 
ATOM     77  C   UNL A   1      39.086  33.557  38.671  1.00  0.00     0.010 A 
ATOM     78  C   UNL A   1      40.390  36.033  38.770  1.00  0.00     0.020 A 
ATOM     79  C   UNL A   1      38.979  34.351  39.815  1.00  0.00     0.020 A 
ATOM     80  C   UNL A   1      39.645  35.578  39.863  1.00  0.00     0.054 A 
BRANCH  80  81
ATOM     81  S   UNL A   1      39.515  36.631  41.335  1.00  0.00     0.124 S 
ATOM     82  O   UNL A   1      38.561  35.890  42.155  1.00  0.00    -0.237 OA
ATOM     83  O   UNL A   1      40.888  36.657  41.835  1.00  0.00    -0.237 OA
ATOM     84  O   UNL A   1      39.028  37.903  40.807  1.00  0.00    -0.744 OA
ENDBRANCH  80  81
ENDBRANCH  54  75
ENDBRANCH  28  29
ENDBRANCH  21  23
ENDBRANCH  20  21
ENDBRANCH  19  20
ENDBRANCH   1  19
TORSDOF 20
ENDMDL
MODEL 2
REMARK VINA RESULT:      -9.1      5.453     10.387
REMARK SMILES CCC(CC)[C@@H](C)[NH2+][C@@H](C)[C@@H](C)C(=O)OCCOC(=O)c1ccc(-c2c3nc(c(-c4ccc(S(=O)(=O)[O-])cc4)c4ccc([nH]4)c(-c4ccc(S(=O)(=O)[O-])cc4)c4nc(c(-c5ccc(S(=O)(=O)[O-])cc5)c5ccc2[nH]5)C=C4)C=C3)cc1
REMARK SMILES IDX 16 1 15 2 13 3 14 4 11 5 12 6 9 7 10 8 8 9 6 12 7 13 3 14
REMARK SMILES IDX 2 15 1 16 4 17 5 18 17 19 18 20 19 21 20 22 21 23 22 24
REMARK SMILES IDX 80 25 23 26 79 27 24 28 25 29 26 30 73 31 27 32 78 33 72 34
REMARK SMILES IDX 74 35 28 36 77 37 71 38 70 39 29 41 59 42 40 43 58 44 41 45
REMARK SMILES IDX 44 46 57 47 75 48 42 49 43 50 56 52 76 53 45 54 30 55 31 56
REMARK SMILES IDX 39 57 32 58 38 59 33 60 34 61 35 62 36 63 37 64 60 65 61 66
REMARK SMILES IDX 69 67 62 68 68 69 63 70 64 71 65 72 66 73 67 74 46 75 47 76
REMARK SMILES IDX 55 77 48 78 54 79 49 80 50 81 51 82 52 83 53 84
REMARK H PARENT 8 10 8 11 74 40 44 51
REMARK Flexibility Score: inf
ROOT
ATOM      1  C   UNL A   1      31.670  28.259  27.464  1.00  0.00     0.274 C 
ENDROOT
BRANCH   1   2
ATOM      2  O   UNL A   1      31.307  27.593  26.235  1.00  0.00    -0.462 OA
BRANCH   2   3
ATOM      3  C   UNL A   1      32.184  26.636  25.830  1.00  0.00     0.314 C 
ATOM      4  O   UNL A   1      33.287  26.453  26.336  1.00  0.00    -0.252 OA
BRANCH   3   5
ATOM      5  C   UNL A   1      31.706  25.813  24.643  1.00  0.00     0.154 C 
ATOM      6  C   UNL A   1      30.371  25.191  25.067  1.00  0.00     0.026 C 
BRANCH   5   7
ATOM      7  C   UNL A   1      32.704  24.771  24.056  1.00  0.00     0.193 C 
ATOM      8  C   UNL A   1      31.968  23.549  23.496  1.00  0.00     0.076 C 
BRANCH   7   9
ATOM      9  N   UNL A   1      33.620  24.382  25.148  1.00  0.00    -0.341 N 
ATOM     10  H   UNL A   1      34.566  24.604  24.835  1.00  0.00     0.346 HD
ATOM     11  H   UNL A   1      33.266  24.898  25.953  1.00  0.00     0.346 HD
BRANCH   9  12
ATOM     12  C   UNL A   1      33.641  22.987  25.616  1.00  0.00     0.182 C 
ATOM     13  C   UNL A   1      32.999  22.877  27.009  1.00  0.00     0.075 C 
BRANCH  12  14
ATOM     14  C   UNL A   1      35.145  22.510  25.660  1.00  0.00     0.046 C 
BRANCH  14  15
ATOM     15  C   UNL A   1      35.355  21.154  24.932  1.00  0.00     0.006 C 
ATOM     16  C   UNL A   1      34.084  20.325  24.774  1.00  0.00     0.004 C 
ENDBRANCH  14  15
BRANCH  14  17
ATOM     17  C   UNL A   1      36.142  23.586  25.145  1.00  0.00     0.006 C 
ATOM     18  C   UNL A   1      37.407  23.745  25.976  1.00  0.00     0.004 C 
ENDBRANCH  14  17
ENDBRANCH  12  14
ENDBRANCH   9  12
ENDBRANCH   7   9
ENDBRANCH   5   7
ENDBRANCH   3   5
ENDBRANCH   2   3
ENDBRANCH   1   2
BRANCH   1  19
ATOM     19  C   UNL A   1      32.467  29.535  27.183  1.00  0.00     0.275 C 
BRANCH  19  20
ATOM     20  O   UNL A   1      33.860  29.319  27.469  1.00  0.00    -0.458 OA
BRANCH  20  21
ATOM     21  C   UNL A   1      34.505  30.357  28.046  1.00  0.00     0.338 C 
ATOM     22  O   UNL A   1      34.034  31.467  28.277  1.00  0.00    -0.246 OA
BRANCH  21  23
ATOM     23  C   UNL A   1      35.899  29.987  28.371  1.00  0.00     0.060 A 
ATOM     24  C   UNL A   1      36.292  29.645  29.669  1.00  0.00     0.016 A 
ATOM     25  C   UNL A   1      36.852  30.041  27.351  1.00  0.00     0.016 A 
ATOM     26  C   UNL A   1      37.636  29.386  29.954  1.00  0.00     0.010 A 
ATOM     27  C   UNL A   1      38.184  29.720  27.623  1.00  0.00     0.010 A 
ATOM     28  C   UNL A   1      38.592  29.401  28.929  1.00  0.00    -0.014 A 
BRANCH  28  29
ATOM     29  C   UNL A   1      40.019  29.066  29.185  1.00  0.00     0.031 A 
ATOM     30  C   UNL A   1      40.969  30.125  29.677  1.00  0.00     0.074 A 
ATOM     31  C   UNL A   1      40.479  27.831  28.901  1.00  0.00     0.049 A 
ATOM     32  N   UNL A   1      42.274  30.091  29.757  1.00  0.00    -0.248 NA
ATOM     33  C   UNL A   1      40.372  31.393  30.126  1.00  0.00     0.031 C 
ATOM     34  C   UNL A   1      39.663  26.706  28.441  1.00  0.00     0.029 A 
ATOM     35  N   UNL A   1      41.755  27.325  28.933  1.00  0.00    -0.354 N 
ATOM     36  C   UNL A   1      42.659  31.342  30.227  1.00  0.00     0.074 A 
ATOM     37  C   UNL A   1      41.448  32.114  30.410  1.00  0.00     0.031 C 
ATOM     38  C   UNL A   1      40.456  25.644  28.234  1.00  0.00     0.029 A 
ATOM     39  C   UNL A   1      41.842  26.030  28.480  1.00  0.00     0.049 A 
ATOM     40  H   UNL A   1      42.532  27.840  29.249  1.00  0.00     0.167 HD
ATOM     41  C   UNL A   1      43.909  31.805  30.478  1.00  0.00     0.031 A 
ATOM     42  C   UNL A   1      42.914  25.251  28.244  1.00  0.00     0.031 A 
ATOM     43  C   UNL A   1      45.110  31.031  30.303  1.00  0.00     0.049 A 
ATOM     44  C   UNL A   1      44.291  25.801  28.483  1.00  0.00     0.074 A 
ATOM     45  C   UNL A   1      46.419  31.405  30.551  1.00  0.00     0.029 A 
ATOM     46  N   UNL A   1      45.150  29.724  29.839  1.00  0.00    -0.354 N 
ATOM     47  N   UNL A   1      44.639  26.990  28.915  1.00  0.00    -0.248 NA
ATOM     48  C   UNL A   1      45.422  24.908  28.196  1.00  0.00     0.031 C 
ATOM     49  C   UNL A   1      47.254  30.340  30.198  1.00  0.00     0.029 A 
ATOM     50  C   UNL A   1      46.462  29.284  29.777  1.00  0.00     0.049 A 
ATOM     51  H   UNL A   1      44.362  29.189  29.592  1.00  0.00     0.167 HD
ATOM     52  C   UNL A   1      46.028  26.981  28.970  1.00  0.00     0.074 A 
ATOM     53  C   UNL A   1      46.455  25.665  28.539  1.00  0.00     0.031 C 
ATOM     54  C   UNL A   1      46.872  27.974  29.342  1.00  0.00     0.031 A 
BRANCH  41  55
ATOM     55  C   UNL A   1      44.045  33.233  30.936  1.00  0.00    -0.014 A 
ATOM     56  C   UNL A   1      44.167  33.553  32.299  1.00  0.00     0.010 A 
ATOM     57  C   UNL A   1      44.102  34.266  29.982  1.00  0.00     0.010 A 
ATOM     58  C   UNL A   1      44.309  34.884  32.703  1.00  0.00     0.020 A 
ATOM     59  C   UNL A   1      44.267  35.595  30.380  1.00  0.00     0.020 A 
ATOM     60  C   UNL A   1      44.353  35.898  31.740  1.00  0.00     0.054 A 
BRANCH  60  61
ATOM     61  S   UNL A   1      44.561  37.615  32.289  1.00  0.00     0.124 S 
ATOM     62  O   UNL A   1      45.061  38.259  31.076  1.00  0.00    -0.237 OA
ATOM     63  O   UNL A   1      43.207  37.992  32.686  1.00  0.00    -0.237 OA
ATOM     64  O   UNL A   1      45.524  37.515  33.383  1.00  0.00    -0.744 OA
ENDBRANCH  60  61
ENDBRANCH  41  55
BRANCH  42  65
ATOM     65  C   UNL A   1      42.723  23.874  27.716  1.00  0.00    -0.014 A 
ATOM     66  C   UNL A   1      42.522  22.795  28.595  1.00  0.00     0.010 A 
ATOM     67  C   UNL A   1      42.718  23.638  26.330  1.00  0.00     0.010 A 
ATOM     68  C   UNL A   1      42.327  21.505  28.097  1.00  0.00     0.020 A 
ATOM     69  C   UNL A   1      42.498  22.353  25.827  1.00  0.00     0.020 A 
ATOM     70  C   UNL A   1      42.313  21.292  26.715  1.00  0.00     0.054 A 
BRANCH  70  71
ATOM     71  S   UNL A   1      41.994  19.620  26.087  1.00  0.00     0.124 S 
ATOM     72  O   UNL A   1      42.835  19.579  24.896  1.00  0.00    -0.237 OA
ATOM     73  O   UNL A   1      42.427  18.775  27.198  1.00  0.00    -0.237 OA
ATOM     74  O   UNL A   1      40.554  19.618  25.839  1.00  0.00    -0.744 OA
ENDBRANCH  70  71
ENDBRANCH  42  65
BRANCH  54  75
ATOM     75  C   UNL A   1      48.344  27.663  29.334  1.00  0.00    -0.014 A 
ATOM     76  C   UNL A   1      48.995  27.192  30.487  1.00  0.00     0.010 A 
ATOM     77  C   UNL A   1      49.076  27.808  28.141  1.00  0.00     0.010 A 
ATOM     78  C   UNL A   1      50.361  26.900  30.457  1.00  0.00     0.020 A 
ATOM     79  C   UNL A   1      50.436  27.495  28.100  1.00  0.00     0.020 A 
ATOM     80  C   UNL A   1      51.074  27.057  29.263  1.00  0.00     0.054 A 
BRANCH  80  81
ATOM     81  S   UNL A   1      52.838  26.636  29.235  1.00  0.00     0.124 S 
ATOM     82  O   UNL A   1      52.949  25.874  27.995  1.00  0.00    -0.237 OA
ATOM     83  O   UNL A   1      53.483  27.947  29.227  1.00  0.00    -0.237 OA
ATOM     84  O   UNL A   1      53.028  25.864  30.461  1.00  0.00    -0.744 OA
ENDBRANCH  80  81
ENDBRANCH  54  75
ENDBRANCH  28  29
ENDBRANCH  21  23
ENDBRANCH  20  21
ENDBRANCH  19  20
ENDBRANCH   1  19
TORSDOF 20
ENDMDL
MODEL 3
REMARK VINA RESULT:      -9.1      6.204      9.188
REMARK SMILES CCC(CC)[C@@H](C)[NH2+][C@@H](C)[C@@H](C)C(=O)OCCOC(=O)c1ccc(-c2c3nc(c(-c4ccc(S(=O)(=O)[O-])cc4)c4ccc([nH]4)c(-c4ccc(S(=O)(=O)[O-])cc4)c4nc(c(-c5ccc(S(=O)(=O)[O-])cc5)c5ccc2[nH]5)C=C4)C=C3)cc1
REMARK SMILES IDX 16 1 15 2 13 3 14 4 11 5 12 6 9 7 10 8 8 9 6 12 7 13 3 14
REMARK SMILES IDX 2 15 1 16 4 17 5 18 17 19 18 20 19 21 20 22 21 23 22 24
REMARK SMILES IDX 80 25 23 26 79 27 24 28 25 29 26 30 73 31 27 32 78 33 72 34
REMARK SMILES IDX 74 35 28 36 77 37 71 38 70 39 29 41 59 42 40 43 58 44 41 45
REMARK SMILES IDX 44 46 57 47 75 48 42 49 43 50 56 52 76 53 45 54 30 55 31 56
REMARK SMILES IDX 39 57 32 58 38 59 33 60 34 61 35 62 36 63 37 64 60 65 61 66
REMARK SMILES IDX 69 67 62 68 68 69 63 70 64 71 65 72 66 73 67 74 46 75 47 76
REMARK SMILES IDX 55 77 48 78 54 79 49 80 50 81 51 82 52 83 53 84
REMARK H PARENT 8 10 8 11 74 40 44 51
REMARK Flexibility Score: inf
ROOT
ATOM      1  C   UNL A   1      37.937  20.667  25.236  1.00  0.00     0.274 C 
ENDROOT
BRANCH   1   2
ATOM      2  O   UNL A   1      36.862  21.569  25.578  1.00  0.00    -0.462 OA
BRANCH   2   3
ATOM      3  C   UNL A   1      35.646  21.209  25.089  1.00  0.00     0.314 C 
ATOM      4  O   UNL A   1      35.231  20.055  25.054  1.00  0.00    -0.252 OA
BRANCH   3   5
ATOM      5  C   UNL A   1      34.828  22.366  24.534  1.00  0.00     0.154 C 
ATOM      6  C   UNL A   1      35.701  23.028  23.463  1.00  0.00     0.026 C 
BRANCH   5   7
ATOM      7  C   UNL A   1      34.251  23.383  25.564  1.00  0.00     0.193 C 
ATOM      8  C   UNL A   1      33.446  22.671  26.658  1.00  0.00     0.076 C 
BRANCH   7   9
ATOM      9  N   UNL A   1      33.400  24.329  24.813  1.00  0.00    -0.341 N 
ATOM     10  H   UNL A   1      33.449  24.056  23.831  1.00  0.00     0.346 HD
ATOM     11  H   UNL A   1      32.493  24.250  25.271  1.00  0.00     0.346 HD
BRANCH   9  12
ATOM     12  C   UNL A   1      33.690  25.771  24.871  1.00  0.00     0.182 C 
ATOM     13  C   UNL A   1      32.763  26.466  25.882  1.00  0.00     0.075 C 
BRANCH  12  14
ATOM     14  C   UNL A   1      33.482  26.368  23.425  1.00  0.00     0.046 C 
BRANCH  14  15
ATOM     15  C   UNL A   1      32.456  25.552  22.593  1.00  0.00     0.006 C 
ATOM     16  C   UNL A   1      32.644  25.664  21.083  1.00  0.00     0.004 C 
ENDBRANCH  14  15
BRANCH  14  17
ATOM     17  C   UNL A   1      33.126  27.880  23.434  1.00  0.00     0.006 C 
ATOM     18  C   UNL A   1      34.113  28.782  22.707  1.00  0.00     0.004 C 
ENDBRANCH  14  17
ENDBRANCH  12  14
ENDBRANCH   9  12
ENDBRANCH   7   9
ENDBRANCH   5   7
ENDBRANCH   3   5
ENDBRANCH   2   3
ENDBRANCH   1   2
BRANCH   1  19
ATOM     19  C   UNL A   1      39.256  21.120  25.867  1.00  0.00     0.275 C 
BRANCH  19  20
ATOM     20  O   UNL A   1      39.956  19.989  26.412  1.00  0.00    -0.458 OA
BRANCH  20  21
ATOM     21  C   UNL A   1      41.279  19.936  26.144  1.00  0.00     0.338 C 
ATOM     22  O   UNL A   1      41.879  18.995  25.633  1.00  0.00    -0.246 OA
BRANCH  21  23
ATOM     23  C   UNL A   1      41.945  21.190  26.558  1.00  0.00     0.060 A 
ATOM     24  C   UNL A   1      42.257  21.457  27.895  1.00  0.00     0.016 A 
ATOM     25  C   UNL A   1      42.212  22.150  25.580  1.00  0.00     0.016 A 
ATOM     26  C   UNL A   1      42.807  22.690  28.258  1.00  0.00     0.010 A 
ATOM     27  C   UNL A   1      42.819  23.357  25.935  1.00  0.00     0.010 A 
ATOM     28  C   UNL A   1      43.112  23.644  27.278  1.00  0.00    -0.014 A 
BRANCH  28  29
ATOM     29  C   UNL A   1      43.758  24.940  27.622  1.00  0.00     0.031 A 
ATOM     30  C   UNL A   1      42.929  26.086  28.136  1.00  0.00     0.074 A 
ATOM     31  C   UNL A   1      45.076  25.112  27.399  1.00  0.00     0.049 A 
ATOM     32  N   UNL A   1      43.261  27.342  28.289  1.00  0.00    -0.248 NA
ATOM     33  C   UNL A   1      41.540  25.781  28.515  1.00  0.00     0.031 C 
ATOM     34  C   UNL A   1      45.999  24.078  26.926  1.00  0.00     0.029 A 
ATOM     35  N   UNL A   1      45.862  26.231  27.516  1.00  0.00    -0.354 N 
ATOM     36  C   UNL A   1      42.115  27.986  28.744  1.00  0.00     0.074 A 
ATOM     37  C   UNL A   1      41.077  26.981  28.838  1.00  0.00     0.031 C 
ATOM     38  C   UNL A   1      47.224  24.611  26.793  1.00  0.00     0.029 A 
ATOM     39  C   UNL A   1      47.159  26.035  27.105  1.00  0.00     0.049 A 
ATOM     40  H   UNL A   1      45.529  27.091  27.860  1.00  0.00     0.167 HD
ATOM     41  C   UNL A   1      41.944  29.295  29.051  1.00  0.00     0.031 A 
ATOM     42  C   UNL A   1      48.175  26.906  26.951  1.00  0.00     0.031 A 
ATOM     43  C   UNL A   1      42.982  30.289  28.965  1.00  0.00     0.049 A 
ATOM     44  C   UNL A   1      47.949  28.361  27.250  1.00  0.00     0.074 A 
ATOM     45  C   UNL A   1      42.911  31.637  29.274  1.00  0.00     0.029 A 
ATOM     46  N   UNL A   1      44.279  30.046  28.541  1.00  0.00    -0.354 N 
ATOM     47  N   UNL A   1      46.856  28.955  27.668  1.00  0.00    -0.248 NA
ATOM     48  C   UNL A   1      49.090  29.264  27.051  1.00  0.00     0.031 C 
ATOM     49  C   UNL A   1      44.154  32.216  28.998  1.00  0.00     0.029 A 
ATOM     50  C   UNL A   1      45.013  31.220  28.564  1.00  0.00     0.049 A 
ATOM     51  H   UNL A   1      44.628  29.167  28.265  1.00  0.00     0.167 HD
ATOM     52  C   UNL A   1      47.184  30.299  27.799  1.00  0.00     0.074 A 
ATOM     53  C   UNL A   1      48.580  30.428  27.430  1.00  0.00     0.031 C 
ATOM     54  C   UNL A   1      46.400  31.334  28.190  1.00  0.00     0.031 A 
BRANCH  41  55
ATOM     55  C   UNL A   1      40.569  29.739  29.475  1.00  0.00    -0.014 A 
ATOM     56  C   UNL A   1      39.517  29.843  28.549  1.00  0.00     0.010 A 
ATOM     57  C   UNL A   1      40.315  30.007  30.833  1.00  0.00     0.010 A 
ATOM     58  C   UNL A   1      38.244  30.241  28.967  1.00  0.00     0.020 A 
ATOM     59  C   UNL A   1      39.038  30.382  31.259  1.00  0.00     0.020 A 
ATOM     60  C   UNL A   1      38.013  30.513  30.319  1.00  0.00     0.054 A 
BRANCH  60  61
ATOM     61  S   UNL A   1      36.346  31.006  30.839  1.00  0.00     0.124 S 
ATOM     62  O   UNL A   1      35.605  30.933  29.582  1.00  0.00    -0.237 OA
ATOM     63  O   UNL A   1      36.003  29.989  31.829  1.00  0.00    -0.237 OA
ATOM     64  O   UNL A   1      36.534  32.353  31.373  1.00  0.00    -0.744 OA
ENDBRANCH  60  61
ENDBRANCH  41  55
BRANCH  42  65
ATOM     65  C   UNL A   1      49.490  26.425  26.453  1.00  0.00    -0.014 A 
ATOM     66  C   UNL A   1      49.906  26.717  25.142  1.00  0.00     0.010 A 
ATOM     67  C   UNL A   1      50.345  25.691  27.296  1.00  0.00     0.010 A 
ATOM     68  C   UNL A   1      51.150  26.277  24.682  1.00  0.00     0.020 A 
ATOM     69  C   UNL A   1      51.600  25.272  26.847  1.00  0.00     0.020 A 
ATOM     70  C   UNL A   1      51.991  25.560  25.538  1.00  0.00     0.054 A 
BRANCH  70  71
ATOM     71  S   UNL A   1      53.628  25.054  24.941  1.00  0.00     0.124 S 
ATOM     72  O   UNL A   1      54.512  25.926  25.706  1.00  0.00    -0.237 OA
ATOM     73  O   UNL A   1      53.672  23.637  25.298  1.00  0.00    -0.237 OA
ATOM     74  O   UNL A   1      53.565  25.324  23.507  1.00  0.00    -0.744 OA
ENDBRANCH  70  71
ENDBRANCH  42  65
BRANCH  54  75
ATOM     75  C   UNL A   1      47.043  32.691  28.272  1.00  0.00    -0.014 A 
ATOM     76  C   UNL A   1      47.675  33.127  29.449  1.00  0.00     0.010 A 
ATOM     77  C   UNL A   1      47.047  33.525  27.139  1.00  0.00     0.010 A 
ATOM     78  C   UNL A   1      48.275  34.387  29.502  1.00  0.00     0.020 A 
ATOM     79  C   UNL A   1      47.667  34.776  27.181  1.00  0.00     0.020 A 
ATOM     80  C   UNL A   1      48.264  35.206  28.367  1.00  0.00     0.054 A 
BRANCH  80  81
ATOM     81  S   UNL A   1      49.081  36.824  28.446  1.00  0.00     0.124 S 
ATOM     82  O   UNL A   1      50.458  36.453  28.761  1.00  0.00    -0.237 OA
ATOM     83  O   UNL A   1      48.866  37.360  27.104  1.00  0.00    -0.237 OA
ATOM     84  O   UNL A   1      48.363  37.522  29.510  1.00  0.00    -0.744 OA
ENDBRANCH  80  81
ENDBRANCH  54  75
ENDBRANCH  28  29
ENDBRANCH  21  23
ENDBRANCH  20  21
ENDBRANCH  19  20
ENDBRANCH   1  19
TORSDOF 20
ENDMDL
