MODEL 1
REMARK VINA RESULT:     -12.2      0.000      0.000
REMARK SMILES Cc1c(C#N)c2ccccc2n1CC(=O)N1CC[C@H](O)C[C@@H]1C(=O)OCCOC(=O)c1ccc(-c2c3nc(c(-c4ccc(S(=O)(=O)[O-])cc4)c4ccc([nH]4)c(-c4ccc(S(=O)(=O)[O-])cc4)c4nc(c(-c5ccc(S(=O)(=O)[O-])cc5)c5ccc2[nH]5)C=C4)C=C3)cc1
REMARK SMILES IDX 26 1 25 2 23 3 24 4 22 5 16 6 17 7 18 8 21 9 19 10 14 11
REMARK SMILES IDX 15 12 13 13 12 14 1 15 2 16 3 17 6 18 11 19 7 20 10 21 8 22
REMARK SMILES IDX 9 23 4 24 5 25 20 26 27 28 28 29 29 30 30 31 31 32 32 33
REMARK SMILES IDX 90 34 33 35 89 36 34 37 35 38 36 39 83 40 37 41 88 42 82 43
REMARK SMILES IDX 84 44 38 45 87 46 81 47 80 48 39 50 69 51 50 52 68 53 51 54
REMARK SMILES IDX 54 55 67 56 85 57 52 58 53 59 66 61 86 62 55 63 40 64 41 65
REMARK SMILES IDX 49 66 42 67 48 68 43 69 44 70 45 71 46 72 47 73 70 74 71 75
REMARK SMILES IDX 79 76 72 77 78 78 73 79 74 80 75 81 76 82 77 83 56 84 57 85
REMARK SMILES IDX 65 86 58 87 64 88 59 89 60 90 61 91 62 92 63 93
REMARK H PARENT 20 27 84 49 54 60
REMARK Flexibility Score: inf
ROOT
ATOM      1  C   UNL A   1      36.317  21.619  25.712  1.00  0.00     0.274 C 
ENDROOT
BRANCH   1   2
ATOM      2  O   UNL A   1      35.622  22.858  25.426  1.00  0.00    -0.461 OA
BRANCH   2   3
ATOM      3  C   UNL A   1      34.285  22.852  25.681  1.00  0.00     0.329 C 
ATOM      4  O   UNL A   1      33.652  21.832  25.928  1.00  0.00    -0.250 OA
BRANCH   3   5
ATOM      5  C   UNL A   1      33.636  24.246  25.517  1.00  0.00     0.197 C 
ATOM      6  N   UNL A   1      32.156  24.202  25.274  1.00  0.00    -0.327 N 
ATOM      7  C   UNL A   1      31.774  23.942  23.877  1.00  0.00     0.123 C 
ATOM      8  C   UNL A   1      32.614  24.517  22.739  1.00  0.00     0.053 C 
ATOM      9  C   UNL A   1      34.414  24.957  24.387  1.00  0.00     0.069 C 
ATOM     10  C   UNL A   1      34.111  24.415  22.992  1.00  0.00     0.118 C 
BRANCH   6  11
ATOM     11  C   UNL A   1      31.272  24.772  26.212  1.00  0.00     0.243 C 
ATOM     12  O   UNL A   1      30.782  23.997  27.053  1.00  0.00    -0.273 OA
BRANCH  11  13
ATOM     13  C   UNL A   1      30.575  26.208  26.096  1.00  0.00     0.222 C 
BRANCH  13  14
ATOM     14  N   UNL A   1      31.224  27.345  25.424  1.00  0.00    -0.334 N 
ATOM     15  C   UNL A   1      30.041  27.205  23.186  1.00  0.00     0.066 C 
ATOM     16  C   UNL A   1      30.763  27.917  24.270  1.00  0.00     0.034 A 
ATOM     17  C   UNL A   1      30.899  29.270  24.508  1.00  0.00     0.080 A 
ATOM     18  C   UNL A   1      31.954  29.413  25.489  1.00  0.00     0.018 A 
ATOM     19  C   UNL A   1      32.312  28.110  25.857  1.00  0.00     0.050 A 
ATOM     20  C   UNL A   1      32.570  30.401  26.301  1.00  0.00     0.012 A 
ATOM     21  C   UNL A   1      33.452  27.876  26.672  1.00  0.00     0.027 A 
ATOM     22  C   UNL A   1      33.708  30.236  27.072  1.00  0.00     0.001 A 
ATOM     23  C   UNL A   1      34.193  28.962  27.191  1.00  0.00     0.002 A 
BRANCH  17  24
ATOM     24  C   UNL A   1      29.961  30.112  23.837  1.00  0.00     0.102 C 
ATOM     25  N   UNL A   1      29.133  30.890  23.563  1.00  0.00    -0.192 NA
ENDBRANCH  17  24
ENDBRANCH  13  14
ENDBRANCH  11  13
ENDBRANCH   6  11
BRANCH  10  26
ATOM     26  O   UNL A   1      34.666  23.119  22.798  1.00  0.00    -0.393 OA
ATOM     27  H   UNL A   1      34.416  22.546  23.538  1.00  0.00     0.210 HD
ENDBRANCH  10  26
ENDBRANCH   3   5
ENDBRANCH   2   3
ENDBRANCH   1   2
BRANCH   1  28
ATOM     28  C   UNL A   1      37.795  21.717  25.316  1.00  0.00     0.275 C 
BRANCH  28  29
ATOM     29  O   UNL A   1      38.451  22.694  26.168  1.00  0.00    -0.458 OA
BRANCH  29  30
ATOM     30  C   UNL A   1      39.575  22.267  26.797  1.00  0.00     0.338 C 
ATOM     31  O   UNL A   1      40.009  21.122  26.740  1.00  0.00    -0.246 OA
BRANCH  30  32
ATOM     32  C   UNL A   1      40.406  23.452  27.225  1.00  0.00     0.060 A 
ATOM     33  C   UNL A   1      41.534  23.532  28.039  1.00  0.00     0.016 A 
ATOM     34  C   UNL A   1      39.865  24.663  26.878  1.00  0.00     0.016 A 
ATOM     35  C   UNL A   1      41.987  24.810  28.599  1.00  0.00     0.010 A 
ATOM     36  C   UNL A   1      40.320  25.883  27.424  1.00  0.00     0.010 A 
ATOM     37  C   UNL A   1      41.324  26.033  28.365  1.00  0.00    -0.014 A 
BRANCH  37  38
ATOM     38  C   UNL A   1      41.496  27.479  28.897  1.00  0.00     0.031 A 
ATOM     39  C   UNL A   1      42.669  28.422  28.441  1.00  0.00     0.074 A 
ATOM     40  C   UNL A   1      40.442  28.190  29.446  1.00  0.00     0.049 A 
ATOM     41  N   UNL A   1      42.740  29.714  28.649  1.00  0.00    -0.248 NA
ATOM     42  C   UNL A   1      43.829  28.022  27.632  1.00  0.00     0.031 C 
ATOM     43  C   UNL A   1      39.147  27.762  29.989  1.00  0.00     0.029 A 
ATOM     44  N   UNL A   1      40.326  29.567  29.602  1.00  0.00    -0.354 N 
ATOM     45  C   UNL A   1      43.844  30.220  27.958  1.00  0.00     0.074 A 
ATOM     46  C   UNL A   1      44.270  29.150  27.076  1.00  0.00     0.031 C 
ATOM     47  C   UNL A   1      38.379  28.842  30.335  1.00  0.00     0.029 A 
ATOM     48  C   UNL A   1      39.106  30.086  30.068  1.00  0.00     0.049 A 
ATOM     49  H   UNL A   1      41.081  30.164  29.391  1.00  0.00     0.167 HD
ATOM     50  C   UNL A   1      44.938  30.784  28.551  1.00  0.00     0.031 A 
ATOM     51  C   UNL A   1      38.837  31.324  30.618  1.00  0.00     0.031 A 
ATOM     52  C   UNL A   1      45.289  30.166  29.803  1.00  0.00     0.049 A 
ATOM     53  C   UNL A   1      40.137  31.775  31.163  1.00  0.00     0.074 A 
ATOM     54  C   UNL A   1      45.548  28.844  30.158  1.00  0.00     0.029 A 
ATOM     55  N   UNL A   1      44.799  30.746  30.946  1.00  0.00    -0.354 N 
ATOM     56  N   UNL A   1      40.691  31.235  32.206  1.00  0.00    -0.248 NA
ATOM     57  C   UNL A   1      40.999  32.558  30.291  1.00  0.00     0.031 C 
ATOM     58  C   UNL A   1      44.619  28.571  31.210  1.00  0.00     0.029 A 
ATOM     59  C   UNL A   1      44.014  29.780  31.531  1.00  0.00     0.049 A 
ATOM     60  H   UNL A   1      44.973  31.657  31.275  1.00  0.00     0.167 HD
ATOM     61  C   UNL A   1      42.012  31.143  31.825  1.00  0.00     0.074 A 
ATOM     62  C   UNL A   1      42.167  32.068  30.700  1.00  0.00     0.031 C 
ATOM     63  C   UNL A   1      42.803  30.112  32.234  1.00  0.00     0.031 A 
BRANCH  50  64
ATOM     64  C   UNL A   1      45.669  31.827  27.778  1.00  0.00    -0.014 A 
ATOM     65  C   UNL A   1      45.019  33.030  27.412  1.00  0.00     0.010 A 
ATOM     66  C   UNL A   1      47.034  31.695  27.490  1.00  0.00     0.010 A 
ATOM     67  C   UNL A   1      45.710  34.079  26.816  1.00  0.00     0.020 A 
ATOM     68  C   UNL A   1      47.741  32.757  26.906  1.00  0.00     0.020 A 
ATOM     69  C   UNL A   1      47.074  33.943  26.586  1.00  0.00     0.054 A 
BRANCH  69  70
ATOM     70  S   UNL A   1      47.957  35.372  25.912  1.00  0.00     0.124 S 
ATOM     71  O   UNL A   1      46.884  36.352  25.765  1.00  0.00    -0.237 OA
ATOM     72  O   UNL A   1      48.934  35.659  26.959  1.00  0.00    -0.237 OA
ATOM     73  O   UNL A   1      48.517  34.870  24.659  1.00  0.00    -0.744 OA
ENDBRANCH  69  70
ENDBRANCH  50  64
BRANCH  51  74
ATOM     74  C   UNL A   1      37.864  32.441  30.283  1.00  0.00    -0.014 A 
ATOM     75  C   UNL A   1      37.050  33.055  31.246  1.00  0.00     0.010 A 
ATOM     76  C   UNL A   1      37.511  32.677  28.919  1.00  0.00     0.010 A 
ATOM     77  C   UNL A   1      35.874  33.751  30.875  1.00  0.00     0.020 A 
ATOM     78  C   UNL A   1      36.333  33.360  28.541  1.00  0.00     0.020 A 
ATOM     79  C   UNL A   1      35.493  33.853  29.532  1.00  0.00     0.054 A 
BRANCH  79  80
ATOM     80  S   UNL A   1      33.844  34.528  29.122  1.00  0.00     0.124 S 
ATOM     81  O   UNL A   1      33.319  33.521  28.204  1.00  0.00    -0.237 OA
ATOM     82  O   UNL A   1      33.188  34.587  30.426  1.00  0.00    -0.237 OA
ATOM     83  O   UNL A   1      34.132  35.828  28.519  1.00  0.00    -0.744 OA
ENDBRANCH  79  80
ENDBRANCH  51  74
BRANCH  63  84
ATOM     84  C   UNL A   1      42.349  29.157  33.305  1.00  0.00    -0.014 A 
ATOM     85  C   UNL A   1      42.836  29.424  34.594  1.00  0.00     0.010 A 
ATOM     86  C   UNL A   1      41.613  27.973  33.102  1.00  0.00     0.010 A 
ATOM     87  C   UNL A   1      42.616  28.546  35.647  1.00  0.00     0.020 A 
ATOM     88  C   UNL A   1      41.364  27.089  34.167  1.00  0.00     0.020 A 
ATOM     89  C   UNL A   1      41.880  27.383  35.431  1.00  0.00     0.054 A 
BRANCH  89  90
ATOM     90  S   UNL A   1      41.621  26.295  36.854  1.00  0.00     0.124 S 
ATOM     91  O   UNL A   1      42.876  26.445  37.588  1.00  0.00    -0.237 OA
ATOM     92  O   UNL A   1      40.449  26.889  37.496  1.00  0.00    -0.237 OA
ATOM     93  O   UNL A   1      41.402  24.979  36.262  1.00  0.00    -0.744 OA
ENDBRANCH  89  90
ENDBRANCH  63  84
ENDBRANCH  37  38
ENDBRANCH  30  32
ENDBRANCH  29  30
ENDBRANCH  28  29
ENDBRANCH   1  28
TORSDOF 19
ENDMDL
MODEL 2
REMARK VINA RESULT:     -11.6      1.484      2.489
REMARK SMILES Cc1c(C#N)c2ccccc2n1CC(=O)N1CC[C@H](O)C[C@@H]1C(=O)OCCOC(=O)c1ccc(-c2c3nc(c(-c4ccc(S(=O)(=O)[O-])cc4)c4ccc([nH]4)c(-c4ccc(S(=O)(=O)[O-])cc4)c4nc(c(-c5ccc(S(=O)(=O)[O-])cc5)c5ccc2[nH]5)C=C4)C=C3)cc1
REMARK SMILES IDX 26 1 25 2 23 3 24 4 22 5 16 6 17 7 18 8 21 9 19 10 14 11
REMARK SMILES IDX 15 12 13 13 12 14 1 15 2 16 3 17 6 18 11 19 7 20 10 21 8 22
REMARK SMILES IDX 9 23 4 24 5 25 20 26 27 28 28 29 29 30 30 31 31 32 32 33
REMARK SMILES IDX 90 34 33 35 89 36 34 37 35 38 36 39 83 40 37 41 88 42 82 43
REMARK SMILES IDX 84 44 38 45 87 46 81 47 80 48 39 50 69 51 50 52 68 53 51 54
REMARK SMILES IDX 54 55 67 56 85 57 52 58 53 59 66 61 86 62 55 63 40 64 41 65
REMARK SMILES IDX 49 66 42 67 48 68 43 69 44 70 45 71 46 72 47 73 70 74 71 75
REMARK SMILES IDX 79 76 72 77 78 78 73 79 74 80 75 81 76 82 77 83 56 84 57 85
REMARK SMILES IDX 65 86 58 87 64 88 59 89 60 90 61 91 62 92 63 93
REMARK H PARENT 20 27 84 49 54 60
REMARK Flexibility Score: inf
ROOT
ATOM      1  C   UNL A   1      36.185  22.262  25.686  1.00  0.00     0.274 C 
ENDROOT
BRANCH   1   2
ATOM      2  O   UNL A   1      35.484  22.567  24.456  1.00  0.00    -0.461 OA
BRANCH   2   3
ATOM      3  C   UNL A   1      34.672  23.659  24.499  1.00  0.00     0.329 C 
ATOM      4  O   UNL A   1      34.515  24.341  25.505  1.00  0.00    -0.250 OA
BRANCH   3   5
ATOM      5  C   UNL A   1      33.890  23.878  23.183  1.00  0.00     0.197 C 
ATOM      6  N   UNL A   1      32.961  25.055  23.218  1.00  0.00    -0.327 N 
ATOM      7  C   UNL A   1      31.663  24.790  23.857  1.00  0.00     0.123 C 
ATOM      8  C   UNL A   1      30.997  23.426  23.690  1.00  0.00     0.053 C 
ATOM      9  C   UNL A   1      33.168  22.546  22.879  1.00  0.00     0.069 C 
ATOM     10  C   UNL A   1      31.977  22.267  23.792  1.00  0.00     0.118 C 
BRANCH   6  11
ATOM     11  C   UNL A   1      33.173  26.146  22.350  1.00  0.00     0.243 C 
ATOM     12  O   UNL A   1      33.741  25.893  21.273  1.00  0.00    -0.273 OA
BRANCH  11  13
ATOM     13  C   UNL A   1      33.080  27.694  22.744  1.00  0.00     0.222 C 
BRANCH  13  14
ATOM     14  N   UNL A   1      32.132  28.193  23.752  1.00  0.00    -0.334 N 
ATOM     15  C   UNL A   1      33.479  27.693  25.841  1.00  0.00     0.066 C 
ATOM     16  C   UNL A   1      32.459  28.435  25.058  1.00  0.00     0.034 A 
ATOM     17  C   UNL A   1      31.830  29.634  25.328  1.00  0.00     0.080 A 
ATOM     18  C   UNL A   1      30.711  29.729  24.415  1.00  0.00     0.018 A 
ATOM     19  C   UNL A   1      30.809  28.612  23.575  1.00  0.00     0.050 A 
ATOM     20  C   UNL A   1      29.715  30.648  23.992  1.00  0.00     0.012 A 
ATOM     21  C   UNL A   1      29.759  28.292  22.672  1.00  0.00     0.027 A 
ATOM     22  C   UNL A   1      28.647  30.371  23.156  1.00  0.00     0.001 A 
ATOM     23  C   UNL A   1      28.637  29.144  22.552  1.00  0.00     0.002 A 
BRANCH  17  24
ATOM     24  C   UNL A   1      32.463  30.455  26.310  1.00  0.00     0.102 C 
ATOM     25  N   UNL A   1      33.000  30.871  27.262  1.00  0.00    -0.192 NA
ENDBRANCH  17  24
ENDBRANCH  13  14
ENDBRANCH  11  13
ENDBRANCH   6  11
BRANCH  10  26
ATOM     26  O   UNL A   1      32.389  21.945  25.115  1.00  0.00    -0.393 OA
ATOM     27  H   UNL A   1      32.695  22.748  25.563  1.00  0.00     0.210 HD
ENDBRANCH  10  26
ENDBRANCH   3   5
ENDBRANCH   2   3
ENDBRANCH   1   2
BRANCH   1  28
ATOM     28  C   UNL A   1      37.677  22.026  25.423  1.00  0.00     0.275 C 
BRANCH  28  29
ATOM     29  O   UNL A   1      38.445  23.081  26.058  1.00  0.00    -0.458 OA
BRANCH  29  30
ATOM     30  C   UNL A   1      39.594  22.692  26.664  1.00  0.00     0.338 C 
ATOM     31  O   UNL A   1      40.135  21.605  26.492  1.00  0.00    -0.246 OA
BRANCH  30  32
ATOM     32  C   UNL A   1      40.305  23.892  27.240  1.00  0.00     0.060 A 
ATOM     33  C   UNL A   1      41.389  23.982  28.112  1.00  0.00     0.016 A 
ATOM     34  C   UNL A   1      39.680  25.084  26.981  1.00  0.00     0.016 A 
ATOM     35  C   UNL A   1      41.709  25.232  28.810  1.00  0.00     0.010 A 
ATOM     36  C   UNL A   1      40.008  26.277  27.660  1.00  0.00     0.010 A 
ATOM     37  C   UNL A   1      40.957  26.415  28.659  1.00  0.00    -0.014 A 
BRANCH  37  38
ATOM     38  C   UNL A   1      40.984  27.812  29.331  1.00  0.00     0.031 A 
ATOM     39  C   UNL A   1      42.003  28.937  28.918  1.00  0.00     0.074 A 
ATOM     40  C   UNL A   1      39.889  28.326  30.004  1.00  0.00     0.049 A 
ATOM     41  N   UNL A   1      41.930  30.201  29.257  1.00  0.00    -0.248 NA
ATOM     42  C   UNL A   1      43.149  28.769  28.014  1.00  0.00     0.031 C 
ATOM     43  C   UNL A   1      38.693  27.685  30.564  1.00  0.00     0.029 A 
ATOM     44  N   UNL A   1      39.616  29.655  30.310  1.00  0.00    -0.354 N 
ATOM     45  C   UNL A   1      42.918  30.909  28.568  1.00  0.00     0.074 A 
ATOM     46  C   UNL A   1      43.414  29.994  27.558  1.00  0.00     0.031 C 
ATOM     47  C   UNL A   1      37.823  28.619  31.060  1.00  0.00     0.029 A 
ATOM     48  C   UNL A   1      38.375  29.965  30.890  1.00  0.00     0.049 A 
ATOM     49  H   UNL A   1      40.278  30.361  30.126  1.00  0.00     0.167 HD
ATOM     50  C   UNL A   1      43.970  31.547  29.161  1.00  0.00     0.031 A 
ATOM     51  C   UNL A   1      37.993  31.100  31.580  1.00  0.00     0.031 A 
ATOM     52  C   UNL A   1      44.472  30.858  30.321  1.00  0.00     0.049 A 
ATOM     53  C   UNL A   1      39.259  31.656  32.103  1.00  0.00     0.074 A 
ATOM     54  C   UNL A   1      44.913  29.551  30.522  1.00  0.00     0.029 A 
ATOM     55  N   UNL A   1      43.989  31.256  31.542  1.00  0.00    -0.354 N 
ATOM     56  N   UNL A   1      39.940  31.092  33.053  1.00  0.00    -0.248 NA
ATOM     57  C   UNL A   1      39.963  32.625  31.275  1.00  0.00     0.031 C 
ATOM     58  C   UNL A   1      44.092  29.061  31.585  1.00  0.00     0.029 A 
ATOM     59  C   UNL A   1      43.365  30.146  32.062  1.00  0.00     0.049 A 
ATOM     60  H   UNL A   1      44.072  32.145  31.957  1.00  0.00     0.167 HD
ATOM     61  C   UNL A   1      41.236  31.207  32.599  1.00  0.00     0.074 A 
ATOM     62  C   UNL A   1      41.205  32.250  31.571  1.00  0.00     0.031 C 
ATOM     63  C   UNL A   1      42.171  30.250  32.856  1.00  0.00     0.031 A 
BRANCH  50  64
ATOM     64  C   UNL A   1      44.519  32.745  28.467  1.00  0.00    -0.014 A 
ATOM     65  C   UNL A   1      43.818  33.974  28.504  1.00  0.00     0.010 A 
ATOM     66  C   UNL A   1      45.780  32.718  27.856  1.00  0.00     0.010 A 
ATOM     67  C   UNL A   1      44.368  35.142  27.989  1.00  0.00     0.020 A 
ATOM     68  C   UNL A   1      46.348  33.896  27.351  1.00  0.00     0.020 A 
ATOM     69  C   UNL A   1      45.641  35.100  27.432  1.00  0.00     0.054 A 
BRANCH  69  70
ATOM     70  S   UNL A   1      46.366  36.662  26.875  1.00  0.00     0.124 S 
ATOM     71  O   UNL A   1      46.998  36.272  25.617  1.00  0.00    -0.237 OA
ATOM     72  O   UNL A   1      45.194  37.524  26.750  1.00  0.00    -0.237 OA
ATOM     73  O   UNL A   1      47.288  37.016  27.951  1.00  0.00    -0.744 OA
ENDBRANCH  69  70
ENDBRANCH  50  64
BRANCH  51  74
ATOM     74  C   UNL A   1      36.871  32.111  31.414  1.00  0.00    -0.014 A 
ATOM     75  C   UNL A   1      37.098  33.440  31.024  1.00  0.00     0.010 A 
ATOM     76  C   UNL A   1      35.585  31.828  31.969  1.00  0.00     0.010 A 
ATOM     77  C   UNL A   1      36.147  34.454  31.294  1.00  0.00     0.020 A 
ATOM     78  C   UNL A   1      34.637  32.837  32.252  1.00  0.00     0.020 A 
ATOM     79  C   UNL A   1      34.948  34.158  31.954  1.00  0.00     0.054 A 
BRANCH  79  80
ATOM     80  S   UNL A   1      33.877  35.530  32.514  1.00  0.00     0.124 S 
ATOM     81  O   UNL A   1      32.639  34.835  32.853  1.00  0.00    -0.237 OA
ATOM     82  O   UNL A   1      34.619  36.074  33.649  1.00  0.00    -0.237 OA
ATOM     83  O   UNL A   1      33.796  36.413  31.352  1.00  0.00    -0.744 OA
ENDBRANCH  79  80
ENDBRANCH  51  74
BRANCH  63  84
ATOM     84  C   UNL A   1      41.905  29.144  33.842  1.00  0.00    -0.014 A 
ATOM     85  C   UNL A   1      42.359  29.383  35.149  1.00  0.00     0.010 A 
ATOM     86  C   UNL A   1      41.380  27.872  33.540  1.00  0.00     0.010 A 
ATOM     87  C   UNL A   1      42.311  28.394  36.124  1.00  0.00     0.020 A 
ATOM     88  C   UNL A   1      41.304  26.873  34.526  1.00  0.00     0.020 A 
ATOM     89  C   UNL A   1      41.782  27.144  35.810  1.00  0.00     0.054 A 
BRANCH  89  90
ATOM     90  S   UNL A   1      41.736  25.912  37.135  1.00  0.00     0.124 S 
ATOM     91  O   UNL A   1      42.815  26.364  38.011  1.00  0.00    -0.237 OA
ATOM     92  O   UNL A   1      40.387  26.077  37.673  1.00  0.00    -0.237 OA
ATOM     93  O   UNL A   1      41.981  24.645  36.453  1.00  0.00    -0.744 OA
ENDBRANCH  89  90
ENDBRANCH  63  84
ENDBRANCH  37  38
ENDBRANCH  30  32
ENDBRANCH  29  30
ENDBRANCH  28  29
ENDBRANCH   1  28
TORSDOF 19
ENDMDL
MODEL 3
REMARK VINA RESULT:     -11.3      1.876      2.451
REMARK SMILES Cc1c(C#N)c2ccccc2n1CC(=O)N1CC[C@H](O)C[C@@H]1C(=O)OCCOC(=O)c1ccc(-c2c3nc(c(-c4ccc(S(=O)(=O)[O-])cc4)c4ccc([nH]4)c(-c4ccc(S(=O)(=O)[O-])cc4)c4nc(c(-c5ccc(S(=O)(=O)[O-])cc5)c5ccc2[nH]5)C=C4)C=C3)cc1
REMARK SMILES IDX 26 1 25 2 23 3 24 4 22 5 16 6 17 7 18 8 21 9 19 10 14 11
REMARK SMILES IDX 15 12 13 13 12 14 1 15 2 16 3 17 6 18 11 19 7 20 10 21 8 22
REMARK SMILES IDX 9 23 4 24 5 25 20 26 27 28 28 29 29 30 30 31 31 32 32 33
REMARK SMILES IDX 90 34 33 35 89 36 34 37 35 38 36 39 83 40 37 41 88 42 82 43
REMARK SMILES IDX 84 44 38 45 87 46 81 47 80 48 39 50 69 51 50 52 68 53 51 54
REMARK SMILES IDX 54 55 67 56 85 57 52 58 53 59 66 61 86 62 55 63 40 64 41 65
REMARK SMILES IDX 49 66 42 67 48 68 43 69 44 70 45 71 46 72 47 73 70 74 71 75
REMARK SMILES IDX 79 76 72 77 78 78 73 79 74 80 75 81 76 82 77 83 56 84 57 85
REMARK SMILES IDX 65 86 58 87 64 88 59 89 60 90 61 91 62 92 63 93
REMARK H PARENT 20 27 84 49 54 60
REMARK Flexibility Score: inf
ROOT
ATOM      1  C   UNL A   1      37.179  22.581  24.930  1.00  0.00     0.274 C 
ENDROOT
BRANCH   1   2
ATOM      2  O   UNL A   1      36.276  23.379  25.734  1.00  0.00    -0.461 OA
BRANCH   2   3
ATOM      3  C   UNL A   1      35.093  22.785  26.052  1.00  0.00     0.329 C 
ATOM      4  O   UNL A   1      34.996  21.877  26.870  1.00  0.00    -0.250 OA
BRANCH   3   5
ATOM      5  C   UNL A   1      33.912  23.301  25.198  1.00  0.00     0.197 C 
ATOM      6  N   UNL A   1      32.575  23.156  25.861  1.00  0.00    -0.327 N 
ATOM      7  C   UNL A   1      31.977  21.817  25.744  1.00  0.00     0.123 C 
ATOM      8  C   UNL A   1      32.173  21.005  24.466  1.00  0.00     0.053 C 
ATOM      9  C   UNL A   1      34.000  22.561  23.844  1.00  0.00     0.069 C 
ATOM     10  C   UNL A   1      33.588  21.093  23.914  1.00  0.00     0.118 C 
BRANCH   6  11
ATOM     11  C   UNL A   1      31.818  24.303  26.177  1.00  0.00     0.243 C 
ATOM     12  O   UNL A   1      31.489  24.437  27.369  1.00  0.00    -0.273 OA
BRANCH  11  13
ATOM     13  C   UNL A   1      31.056  25.245  25.131  1.00  0.00     0.222 C 
BRANCH  13  14
ATOM     14  N   UNL A   1      31.617  26.525  24.672  1.00  0.00    -0.334 N 
ATOM     15  C   UNL A   1      31.514  26.124  22.170  1.00  0.00     0.066 C 
ATOM     16  C   UNL A   1      31.535  26.978  23.384  1.00  0.00     0.034 A 
ATOM     17  C   UNL A   1      31.224  28.315  23.535  1.00  0.00     0.080 A 
ATOM     18  C   UNL A   1      31.722  28.710  24.835  1.00  0.00     0.018 A 
ATOM     19  C   UNL A   1      32.212  27.539  25.429  1.00  0.00     0.050 A 
ATOM     20  C   UNL A   1      31.693  29.809  25.734  1.00  0.00     0.012 A 
ATOM     21  C   UNL A   1      32.945  27.596  26.645  1.00  0.00     0.027 A 
ATOM     22  C   UNL A   1      32.426  29.932  26.903  1.00  0.00     0.001 A 
ATOM     23  C   UNL A   1      33.120  28.829  27.315  1.00  0.00     0.002 A 
BRANCH  17  24
ATOM     24  C   UNL A   1      30.461  28.895  22.477  1.00  0.00     0.102 C 
ATOM     25  N   UNL A   1      30.051  29.574  21.618  1.00  0.00    -0.192 NA
ENDBRANCH  17  24
ENDBRANCH  13  14
ENDBRANCH  11  13
ENDBRANCH   6  11
BRANCH  10  26
ATOM     26  O   UNL A   1      34.552  20.307  24.606  1.00  0.00    -0.393 OA
ATOM     27  H   UNL A   1      34.935  19.656  23.998  1.00  0.00     0.210 HD
ENDBRANCH  10  26
ENDBRANCH   3   5
ENDBRANCH   2   3
ENDBRANCH   1   2
BRANCH   1  28
ATOM     28  C   UNL A   1      38.365  22.086  25.765  1.00  0.00     0.275 C 
BRANCH  28  29
ATOM     29  O   UNL A   1      38.966  23.215  26.452  1.00  0.00    -0.458 OA
BRANCH  29  30
ATOM     30  C   UNL A   1      40.281  23.086  26.760  1.00  0.00     0.338 C 
ATOM     31  O   UNL A   1      41.007  22.193  26.338  1.00  0.00    -0.246 OA
BRANCH  30  32
ATOM     32  C   UNL A   1      40.802  24.377  27.342  1.00  0.00     0.060 A 
ATOM     33  C   UNL A   1      41.987  24.663  28.018  1.00  0.00     0.016 A 
ATOM     34  C   UNL A   1      39.887  25.398  27.337  1.00  0.00     0.016 A 
ATOM     35  C   UNL A   1      42.149  25.899  28.792  1.00  0.00     0.010 A 
ATOM     36  C   UNL A   1      40.065  26.582  28.085  1.00  0.00     0.010 A 
ATOM     37  C   UNL A   1      41.135  26.871  28.914  1.00  0.00    -0.014 A 
BRANCH  37  38
ATOM     38  C   UNL A   1      40.979  28.181  29.731  1.00  0.00     0.031 A 
ATOM     39  C   UNL A   1      41.804  29.482  29.420  1.00  0.00     0.074 A 
ATOM     40  C   UNL A   1      39.845  28.450  30.477  1.00  0.00     0.049 A 
ATOM     41  N   UNL A   1      41.556  30.679  29.893  1.00  0.00    -0.248 NA
ATOM     42  C   UNL A   1      42.929  29.584  28.480  1.00  0.00     0.031 C 
ATOM     43  C   UNL A   1      38.778  27.581  30.989  1.00  0.00     0.029 A 
ATOM     44  N   UNL A   1      39.389  29.684  30.929  1.00  0.00    -0.354 N 
ATOM     45  C   UNL A   1      42.403  31.596  29.265  1.00  0.00     0.074 A 
ATOM     46  C   UNL A   1      42.993  30.875  28.152  1.00  0.00     0.031 C 
ATOM     47  C   UNL A   1      37.797  28.317  31.599  1.00  0.00     0.029 A 
ATOM     48  C   UNL A   1      38.137  29.742  31.563  1.00  0.00     0.049 A 
ATOM     49  H   UNL A   1      39.931  30.497  30.807  1.00  0.00     0.167 HD
ATOM     50  C   UNL A   1      43.369  32.322  29.901  1.00  0.00     0.031 A 
ATOM     51  C   UNL A   1      37.615  30.728  32.377  1.00  0.00     0.031 A 
ATOM     52  C   UNL A   1      44.010  31.602  30.971  1.00  0.00     0.049 A 
ATOM     53  C   UNL A   1      38.803  31.414  32.931  1.00  0.00     0.074 A 
ATOM     54  C   UNL A   1      44.646  30.363  31.022  1.00  0.00     0.029 A 
ATOM     55  N   UNL A   1      43.517  31.794  32.237  1.00  0.00    -0.354 N 
ATOM     56  N   UNL A   1      39.594  30.865  33.802  1.00  0.00    -0.248 NA
ATOM     57  C   UNL A   1      39.325  32.557  32.198  1.00  0.00     0.031 C 
ATOM     58  C   UNL A   1      43.946  29.647  32.042  1.00  0.00     0.029 A 
ATOM     59  C   UNL A   1      43.084  30.555  32.647  1.00  0.00     0.049 A 
ATOM     60  H   UNL A   1      43.481  32.638  32.742  1.00  0.00     0.167 HD
ATOM     61  C   UNL A   1      40.841  31.220  33.337  1.00  0.00     0.074 A 
ATOM     62  C   UNL A   1      40.619  32.347  32.427  1.00  0.00     0.031 C 
ATOM     63  C   UNL A   1      41.917  30.395  33.471  1.00  0.00     0.031 A 
BRANCH  50  64
ATOM     64  C   UNL A   1      43.709  33.654  29.328  1.00  0.00    -0.014 A 
ATOM     65  C   UNL A   1      43.878  33.807  27.931  1.00  0.00     0.010 A 
ATOM     66  C   UNL A   1      43.762  34.800  30.132  1.00  0.00     0.010 A 
ATOM     67  C   UNL A   1      44.055  35.058  27.351  1.00  0.00     0.020 A 
ATOM     68  C   UNL A   1      43.922  36.067  29.552  1.00  0.00     0.020 A 
ATOM     69  C   UNL A   1      44.055  36.184  28.165  1.00  0.00     0.054 A 
BRANCH  69  70
ATOM     70  S   UNL A   1      44.176  37.801  27.361  1.00  0.00     0.124 S 
ATOM     71  O   UNL A   1      45.412  37.667  26.593  1.00  0.00    -0.237 OA
ATOM     72  O   UNL A   1      42.947  37.853  26.574  1.00  0.00    -0.237 OA
ATOM     73  O   UNL A   1      44.239  38.738  28.480  1.00  0.00    -0.744 OA
ENDBRANCH  69  70
ENDBRANCH  50  64
BRANCH  51  74
ATOM     74  C   UNL A   1      36.351  31.570  32.343  1.00  0.00    -0.014 A 
ATOM     75  C   UNL A   1      35.636  31.821  31.163  1.00  0.00     0.010 A 
ATOM     76  C   UNL A   1      36.035  32.404  33.460  1.00  0.00     0.010 A 
ATOM     77  C   UNL A   1      34.754  32.924  31.061  1.00  0.00     0.020 A 
ATOM     78  C   UNL A   1      35.166  33.513  33.362  1.00  0.00     0.020 A 
ATOM     79  C   UNL A   1      34.566  33.795  32.141  1.00  0.00     0.054 A 
BRANCH  79  80
ATOM     80  S   UNL A   1      33.630  35.345  31.883  1.00  0.00     0.124 S 
ATOM     81  O   UNL A   1      34.416  36.310  32.645  1.00  0.00    -0.237 OA
ATOM     82  O   UNL A   1      33.675  35.509  30.432  1.00  0.00    -0.237 OA
ATOM     83  O   UNL A   1      32.305  35.053  32.427  1.00  0.00    -0.744 OA
ENDBRANCH  79  80
ENDBRANCH  51  74
BRANCH  63  84
ATOM     84  C   UNL A   1      41.853  29.166  34.339  1.00  0.00    -0.014 A 
ATOM     85  C   UNL A   1      42.474  29.284  35.593  1.00  0.00     0.010 A 
ATOM     86  C   UNL A   1      41.362  27.903  33.953  1.00  0.00     0.010 A 
ATOM     87  C   UNL A   1      42.617  28.188  36.435  1.00  0.00     0.020 A 
ATOM     88  C   UNL A   1      41.481  26.794  34.809  1.00  0.00     0.020 A 
ATOM     89  C   UNL A   1      42.119  26.948  36.041  1.00  0.00     0.054 A 
BRANCH  89  90
ATOM     90  S   UNL A   1      42.328  25.571  37.197  1.00  0.00     0.124 S 
ATOM     91  O   UNL A   1      43.000  26.216  38.324  1.00  0.00    -0.237 OA
ATOM     92  O   UNL A   1      40.949  25.158  37.448  1.00  0.00    -0.237 OA
ATOM     93  O   UNL A   1      43.140  24.607  36.460  1.00  0.00    -0.744 OA
ENDBRANCH  89  90
ENDBRANCH  63  84
ENDBRANCH  37  38
ENDBRANCH  30  32
ENDBRANCH  29  30
ENDBRANCH  28  29
ENDBRANCH   1  28
TORSDOF 19
ENDMDL
