MODEL 1
REMARK VINA RESULT:     -10.1      0.000      0.000
REMARK SMILES Cc1c(CC(=O)OCCOC(=O)c2ccc(-c3c4nc(c(-c5ccc(S(=O)(=O)[O-])cc5)c5ccc([nH]5)c(-c5ccc(S(=O)(=O)[O-])cc5)c5nc(c(-c6ccc(S(=O)(=O)[O-])cc6)c6ccc3[nH]6)C=C5)C=C4)cc2)cc(-c2ccc(S(C)(=O)=O)cc2)n1-c1cccc(F)c1
REMARK SMILES IDX 8 1 7 2 5 3 6 4 4 5 3 6 1 7 2 8 85 9 73 10 74 11 86 12 87 13
REMARK SMILES IDX 92 14 88 15 90 16 89 17 91 18 75 19 76 20 84 21 77 22 83 23
REMARK SMILES IDX 78 24 79 25 80 26 81 27 82 28 9 29 10 30 11 31 12 32 13 33
REMARK SMILES IDX 14 34 72 35 15 36 71 37 16 38 17 39 18 40 65 41 19 42 70 43
REMARK SMILES IDX 64 44 66 45 20 46 69 47 63 48 62 49 21 51 51 52 32 53 50 54
REMARK SMILES IDX 33 55 36 56 49 57 67 58 34 59 35 60 48 62 68 63 37 64 22 65
REMARK SMILES IDX 23 66 31 67 24 68 30 69 25 70 26 71 27 72 28 73 29 74 52 75
REMARK SMILES IDX 53 76 61 77 54 78 60 79 55 80 56 81 57 82 58 83 59 84 38 85
REMARK SMILES IDX 39 86 47 87 40 88 46 89 41 90 42 91 43 92 44 93 45 94
REMARK H PARENT 66 50 36 61
REMARK Flexibility Score: inf
ROOT
ATOM      1  C   UNL A   1      41.631  33.973  36.708  1.00  0.00     0.274 C 
ENDROOT
BRANCH   1   2
ATOM      2  O   UNL A   1      40.949  32.881  36.079  1.00  0.00    -0.462 OA
BRANCH   2   3
ATOM      3  C   UNL A   1      40.073  32.132  36.795  1.00  0.00     0.310 C 
ATOM      4  O   UNL A   1      39.733  32.371  37.953  1.00  0.00    -0.252 OA
BRANCH   3   5
ATOM      5  C   UNL A   1      39.447  31.037  35.946  1.00  0.00     0.160 C 
BRANCH   5   6
ATOM      6  C   UNL A   1      38.529  31.473  34.832  1.00  0.00    -0.015 A 
ATOM      7  C   UNL A   1      39.743  30.563  32.701  1.00  0.00     0.065 C 
ATOM      8  C   UNL A   1      38.655  31.244  33.467  1.00  0.00     0.024 A 
ATOM      9  N   UNL A   1      37.594  31.842  32.811  1.00  0.00    -0.313 N 
ATOM     10  C   UNL A   1      37.422  32.365  34.968  1.00  0.00     0.033 A 
ATOM     11  C   UNL A   1      36.903  32.639  33.711  1.00  0.00     0.053 A 
BRANCH   9  12
ATOM     12  C   UNL A   1      37.374  31.738  31.418  1.00  0.00     0.049 A 
ATOM     13  C   UNL A   1      37.985  32.650  30.552  1.00  0.00     0.027 A 
ATOM     14  C   UNL A   1      36.651  30.646  30.929  1.00  0.00     0.065 A 
ATOM     15  C   UNL A   1      37.884  32.450  29.175  1.00  0.00     0.005 A 
ATOM     16  C   UNL A   1      36.533  30.487  29.556  1.00  0.00     0.125 A 
ATOM     17  C   UNL A   1      37.154  31.368  28.677  1.00  0.00     0.039 A 
ATOM     18  F   UNL A   1      35.806  29.470  29.075  1.00  0.00    -0.207 F 
ENDBRANCH   9  12
BRANCH  11  19
ATOM     19  C   UNL A   1      35.827  33.558  33.342  1.00  0.00    -0.001 A 
ATOM     20  C   UNL A   1      34.501  33.117  33.236  1.00  0.00     0.011 A 
ATOM     21  C   UNL A   1      36.133  34.895  33.054  1.00  0.00     0.011 A 
ATOM     22  C   UNL A   1      33.494  33.994  32.827  1.00  0.00     0.021 A 
ATOM     23  C   UNL A   1      35.134  35.778  32.638  1.00  0.00     0.021 A 
ATOM     24  C   UNL A   1      33.822  35.318  32.517  1.00  0.00     0.067 A 
BRANCH  24  25
ATOM     25  S   UNL A   1      32.533  36.421  31.993  1.00  0.00     0.175 S 
ATOM     26  C   UNL A   1      31.066  35.750  32.731  1.00  0.00     0.163 C 
ATOM     27  O   UNL A   1      32.800  37.708  32.579  1.00  0.00    -0.224 OA
ATOM     28  O   UNL A   1      32.391  36.278  30.543  1.00  0.00    -0.224 OA
ENDBRANCH  24  25
ENDBRANCH  11  19
ENDBRANCH   5   6
ENDBRANCH   3   5
ENDBRANCH   2   3
ENDBRANCH   1   2
BRANCH   1  29
ATOM     29  C   UNL A   1      41.285  35.313  36.013  1.00  0.00     0.275 C 
BRANCH  29  30
ATOM     30  O   UNL A   1      41.221  35.512  34.537  1.00  0.00    -0.458 OA
BRANCH  30  31
ATOM     31  C   UNL A   1      40.528  34.862  33.548  1.00  0.00     0.338 C 
ATOM     32  O   UNL A   1      39.312  34.904  33.437  1.00  0.00    -0.246 OA
BRANCH  31  33
ATOM     33  C   UNL A   1      41.475  34.124  32.531  1.00  0.00     0.060 A 
ATOM     34  C   UNL A   1      42.480  33.157  32.803  1.00  0.00     0.016 A 
ATOM     35  C   UNL A   1      41.296  34.279  31.189  1.00  0.00     0.016 A 
ATOM     36  C   UNL A   1      43.146  32.256  31.756  1.00  0.00     0.010 A 
ATOM     37  C   UNL A   1      41.977  33.405  30.240  1.00  0.00     0.010 A 
ATOM     38  C   UNL A   1      42.876  32.290  30.367  1.00  0.00    -0.014 A 
BRANCH  38  39
ATOM     39  C   UNL A   1      42.656  30.875  29.304  1.00  0.00     0.031 A 
ATOM     40  C   UNL A   1      43.627  31.232  28.200  1.00  0.00     0.074 A 
ATOM     41  C   UNL A   1      42.266  29.464  29.214  1.00  0.00     0.049 A 
ATOM     42  N   UNL A   1      44.749  31.749  28.621  1.00  0.00    -0.248 NA
ATOM     43  C   UNL A   1      43.814  30.578  26.916  1.00  0.00     0.031 C 
ATOM     44  C   UNL A   1      41.593  28.552  30.191  1.00  0.00     0.029 A 
ATOM     45  N   UNL A   1      42.520  28.411  28.190  1.00  0.00    -0.354 N 
ATOM     46  C   UNL A   1      45.578  30.706  28.400  1.00  0.00     0.074 A 
ATOM     47  C   UNL A   1      45.111  30.246  27.070  1.00  0.00     0.031 C 
ATOM     48  C   UNL A   1      41.466  27.245  29.747  1.00  0.00     0.029 A 
ATOM     49  C   UNL A   1      42.041  27.027  28.408  1.00  0.00     0.049 A 
ATOM     50  H   UNL A   1      43.009  28.637  27.366  1.00  0.00     0.167 HD
ATOM     51  C   UNL A   1      46.201  29.974  29.388  1.00  0.00     0.031 A 
ATOM     52  C   UNL A   1      42.257  25.857  27.602  1.00  0.00     0.031 A 
ATOM     53  C   UNL A   1      47.153  29.070  28.878  1.00  0.00     0.049 A 
ATOM     54  C   UNL A   1      43.725  25.902  27.755  1.00  0.00     0.074 A 
ATOM     55  C   UNL A   1      47.845  28.910  27.702  1.00  0.00     0.029 A 
ATOM     56  N   UNL A   1      47.485  27.990  29.648  1.00  0.00    -0.354 N 
ATOM     57  N   UNL A   1      44.372  25.225  28.656  1.00  0.00    -0.248 NA
ATOM     58  C   UNL A   1      44.489  26.408  26.610  1.00  0.00     0.031 C 
ATOM     59  C   UNL A   1      47.937  27.491  27.575  1.00  0.00     0.029 A 
ATOM     60  C   UNL A   1      47.419  26.948  28.762  1.00  0.00     0.049 A 
ATOM     61  H   UNL A   1      47.715  27.967  30.604  1.00  0.00     0.167 HD
ATOM     62  C   UNL A   1      45.674  25.443  28.304  1.00  0.00     0.074 A 
ATOM     63  C   UNL A   1      45.648  25.825  26.914  1.00  0.00     0.031 C 
ATOM     64  C   UNL A   1      46.582  25.860  29.211  1.00  0.00     0.031 A 
BRANCH  51  65
ATOM     65  C   UNL A   1      45.982  29.995  30.949  1.00  0.00    -0.014 A 
ATOM     66  C   UNL A   1      45.100  29.157  31.709  1.00  0.00     0.010 A 
ATOM     67  C   UNL A   1      46.688  30.937  31.711  1.00  0.00     0.010 A 
ATOM     68  C   UNL A   1      44.732  29.434  33.056  1.00  0.00     0.020 A 
ATOM     69  C   UNL A   1      46.386  31.175  33.070  1.00  0.00     0.020 A 
ATOM     70  C   UNL A   1      45.346  30.494  33.708  1.00  0.00     0.054 A 
BRANCH  70  71
ATOM     71  S   UNL A   1      44.742  31.117  35.314  1.00  0.00     0.124 S 
ATOM     72  O   UNL A   1      45.023  32.550  35.200  1.00  0.00    -0.237 OA
ATOM     73  O   UNL A   1      43.322  30.777  35.331  1.00  0.00    -0.237 OA
ATOM     74  O   UNL A   1      45.577  30.407  36.278  1.00  0.00    -0.744 OA
ENDBRANCH  70  71
ENDBRANCH  51  65
BRANCH  52  75
ATOM     75  C   UNL A   1      42.154  24.260  26.955  1.00  0.00    -0.014 A 
ATOM     76  C   UNL A   1      42.656  23.681  25.775  1.00  0.00     0.010 A 
ATOM     77  C   UNL A   1      41.558  23.192  27.765  1.00  0.00     0.010 A 
ATOM     78  C   UNL A   1      42.571  22.225  25.485  1.00  0.00     0.020 A 
ATOM     79  C   UNL A   1      41.442  21.801  27.510  1.00  0.00     0.020 A 
ATOM     80  C   UNL A   1      41.970  21.298  26.357  1.00  0.00     0.054 A 
BRANCH  80  81
ATOM     81  S   UNL A   1      41.929  19.473  26.126  1.00  0.00     0.124 S 
ATOM     82  O   UNL A   1      42.390  18.964  27.414  1.00  0.00    -0.237 OA
ATOM     83  O   UNL A   1      40.530  19.208  25.804  1.00  0.00    -0.237 OA
ATOM     84  O   UNL A   1      42.854  19.240  25.013  1.00  0.00    -0.744 OA
ENDBRANCH  80  81
ENDBRANCH  52  75
BRANCH  64  85
ATOM     85  C   UNL A   1      46.113  25.627  30.636  1.00  0.00    -0.014 A 
ATOM     86  C   UNL A   1      44.750  25.690  30.932  1.00  0.00     0.010 A 
ATOM     87  C   UNL A   1      47.022  25.554  31.720  1.00  0.00     0.010 A 
ATOM     88  C   UNL A   1      44.310  25.663  32.262  1.00  0.00     0.020 A 
ATOM     89  C   UNL A   1      46.591  25.493  33.053  1.00  0.00     0.020 A 
ATOM     90  C   UNL A   1      45.226  25.548  33.314  1.00  0.00     0.054 A 
BRANCH  90  91
ATOM     91  S   UNL A   1      44.607  25.610  35.023  1.00  0.00     0.124 S 
ATOM     92  O   UNL A   1      43.219  25.168  34.883  1.00  0.00    -0.237 OA
ATOM     93  O   UNL A   1      45.485  24.663  35.703  1.00  0.00    -0.237 OA
ATOM     94  O   UNL A   1      44.759  27.012  35.403  1.00  0.00    -0.744 OA
ENDBRANCH  90  91
ENDBRANCH  64  85
ENDBRANCH  38  39
ENDBRANCH  31  33
ENDBRANCH  30  31
ENDBRANCH  29  30
ENDBRANCH   1  29
TORSDOF 18
ENDMDL
MODEL 2
REMARK VINA RESULT:      -9.8      4.133      7.012
REMARK SMILES Cc1c(CC(=O)OCCOC(=O)c2ccc(-c3c4nc(c(-c5ccc(S(=O)(=O)[O-])cc5)c5ccc([nH]5)c(-c5ccc(S(=O)(=O)[O-])cc5)c5nc(c(-c6ccc(S(=O)(=O)[O-])cc6)c6ccc3[nH]6)C=C5)C=C4)cc2)cc(-c2ccc(S(C)(=O)=O)cc2)n1-c1cccc(F)c1
REMARK SMILES IDX 8 1 7 2 5 3 6 4 4 5 3 6 1 7 2 8 85 9 73 10 74 11 86 12 87 13
REMARK SMILES IDX 92 14 88 15 90 16 89 17 91 18 75 19 76 20 84 21 77 22 83 23
REMARK SMILES IDX 78 24 79 25 80 26 81 27 82 28 9 29 10 30 11 31 12 32 13 33
REMARK SMILES IDX 14 34 72 35 15 36 71 37 16 38 17 39 18 40 65 41 19 42 70 43
REMARK SMILES IDX 64 44 66 45 20 46 69 47 63 48 62 49 21 51 51 52 32 53 50 54
REMARK SMILES IDX 33 55 36 56 49 57 67 58 34 59 35 60 48 62 68 63 37 64 22 65
REMARK SMILES IDX 23 66 31 67 24 68 30 69 25 70 26 71 27 72 28 73 29 74 52 75
REMARK SMILES IDX 53 76 61 77 54 78 60 79 55 80 56 81 57 82 58 83 59 84 38 85
REMARK SMILES IDX 39 86 47 87 40 88 46 89 41 90 42 91 43 92 44 93 45 94
REMARK H PARENT 66 50 36 61
REMARK Flexibility Score: inf
ROOT
ATOM      1  C   UNL A   1      33.551  35.778  31.540  1.00  0.00     0.274 C 
ENDROOT
BRANCH   1   2
ATOM      2  O   UNL A   1      33.145  34.909  30.474  1.00  0.00    -0.462 OA
BRANCH   2   3
ATOM      3  C   UNL A   1      33.111  35.377  29.201  1.00  0.00     0.310 C 
ATOM      4  O   UNL A   1      32.288  36.186  28.775  1.00  0.00    -0.252 OA
BRANCH   3   5
ATOM      5  C   UNL A   1      34.304  34.890  28.393  1.00  0.00     0.160 C 
BRANCH   5   6
ATOM      6  C   UNL A   1      34.544  33.401  28.353  1.00  0.00    -0.015 A 
ATOM      7  C   UNL A   1      37.089  33.216  28.927  1.00  0.00     0.065 C 
ATOM      8  C   UNL A   1      35.721  32.707  28.606  1.00  0.00     0.024 A 
ATOM      9  N   UNL A   1      35.491  31.354  28.435  1.00  0.00    -0.313 N 
ATOM     10  C   UNL A   1      33.620  32.422  27.875  1.00  0.00     0.033 A 
ATOM     11  C   UNL A   1      34.239  31.181  27.863  1.00  0.00     0.053 A 
BRANCH   9  12
ATOM     12  C   UNL A   1      36.460  30.356  28.686  1.00  0.00     0.049 A 
ATOM     13  C   UNL A   1      37.412  30.053  27.707  1.00  0.00     0.027 A 
ATOM     14  C   UNL A   1      36.522  29.781  29.959  1.00  0.00     0.065 A 
ATOM     15  C   UNL A   1      38.452  29.178  28.019  1.00  0.00     0.005 A 
ATOM     16  C   UNL A   1      37.544  28.885  30.236  1.00  0.00     0.125 A 
ATOM     17  C   UNL A   1      38.516  28.590  29.285  1.00  0.00     0.039 A 
ATOM     18  F   UNL A   1      37.589  28.294  31.436  1.00  0.00    -0.207 F 
ENDBRANCH   9  12
BRANCH  11  19
ATOM     19  C   UNL A   1      33.723  29.902  27.378  1.00  0.00    -0.001 A 
ATOM     20  C   UNL A   1      34.559  28.975  26.743  1.00  0.00     0.011 A 
ATOM     21  C   UNL A   1      32.359  29.614  27.520  1.00  0.00     0.011 A 
ATOM     22  C   UNL A   1      34.039  27.783  26.235  1.00  0.00     0.021 A 
ATOM     23  C   UNL A   1      31.828  28.427  27.010  1.00  0.00     0.021 A 
ATOM     24  C   UNL A   1      32.670  27.524  26.361  1.00  0.00     0.067 A 
BRANCH  24  25
ATOM     25  S   UNL A   1      32.021  26.007  25.705  1.00  0.00     0.175 S 
ATOM     26  C   UNL A   1      33.283  24.811  26.058  1.00  0.00     0.163 C 
ATOM     27  O   UNL A   1      30.844  25.677  26.465  1.00  0.00    -0.224 OA
ATOM     28  O   UNL A   1      31.953  26.148  24.250  1.00  0.00    -0.224 OA
ENDBRANCH  24  25
ENDBRANCH  11  19
ENDBRANCH   5   6
ENDBRANCH   3   5
ENDBRANCH   2   3
ENDBRANCH   1   2
BRANCH   1  29
ATOM     29  C   UNL A   1      34.076  34.961  32.746  1.00  0.00     0.275 C 
BRANCH  29  30
ATOM     30  O   UNL A   1      35.517  34.757  33.070  1.00  0.00    -0.458 OA
BRANCH  30  31
ATOM     31  C   UNL A   1      36.149  34.023  34.040  1.00  0.00     0.338 C 
ATOM     32  O   UNL A   1      35.680  33.828  35.151  1.00  0.00    -0.246 OA
BRANCH  31  33
ATOM     33  C   UNL A   1      37.503  33.398  33.539  1.00  0.00     0.060 A 
ATOM     34  C   UNL A   1      38.780  33.445  34.160  1.00  0.00     0.016 A 
ATOM     35  C   UNL A   1      37.522  32.587  32.444  1.00  0.00     0.016 A 
ATOM     36  C   UNL A   1      39.978  32.564  33.787  1.00  0.00     0.010 A 
ATOM     37  C   UNL A   1      38.702  31.789  32.127  1.00  0.00     0.010 A 
ATOM     38  C   UNL A   1      39.986  31.605  32.746  1.00  0.00    -0.014 A 
BRANCH  38  39
ATOM     39  C   UNL A   1      40.676  29.963  32.836  1.00  0.00     0.031 A 
ATOM     40  C   UNL A   1      41.298  29.872  31.460  1.00  0.00     0.074 A 
ATOM     41  C   UNL A   1      41.189  28.898  33.706  1.00  0.00     0.049 A 
ATOM     42  N   UNL A   1      41.889  30.967  31.066  1.00  0.00    -0.248 NA
ATOM     43  C   UNL A   1      41.882  28.713  30.807  1.00  0.00     0.031 C 
ATOM     44  C   UNL A   1      41.138  28.714  35.189  1.00  0.00     0.029 A 
ATOM     45  N   UNL A   1      42.050  27.711  33.445  1.00  0.00    -0.354 N 
ATOM     46  C   UNL A   1      43.179  30.585  31.182  1.00  0.00     0.074 A 
ATOM     47  C   UNL A   1      43.121  29.211  30.629  1.00  0.00     0.031 C 
ATOM     48  C   UNL A   1      41.816  27.594  35.642  1.00  0.00     0.029 A 
ATOM     49  C   UNL A   1      42.462  26.829  34.561  1.00  0.00     0.049 A 
ATOM     50  H   UNL A   1      42.346  27.512  32.528  1.00  0.00     0.167 HD
ATOM     51  C   UNL A   1      44.073  31.103  32.094  1.00  0.00     0.031 A 
ATOM     52  C   UNL A   1      43.353  25.701  34.541  1.00  0.00     0.031 A 
ATOM     53  C   UNL A   1      45.393  30.664  31.873  1.00  0.00     0.049 A 
ATOM     54  C   UNL A   1      44.509  26.497  34.088  1.00  0.00     0.074 A 
ATOM     55  C   UNL A   1      46.093  30.096  30.837  1.00  0.00     0.029 A 
ATOM     56  N   UNL A   1      46.263  30.699  32.927  1.00  0.00    -0.354 N 
ATOM     57  N   UNL A   1      45.395  27.000  34.895  1.00  0.00    -0.248 NA
ATOM     58  C   UNL A   1      44.877  26.372  32.673  1.00  0.00     0.031 C 
ATOM     59  C   UNL A   1      47.002  29.221  31.506  1.00  0.00     0.029 A 
ATOM     60  C   UNL A   1      46.853  29.464  32.881  1.00  0.00     0.049 A 
ATOM     61  H   UNL A   1      46.426  31.432  33.563  1.00  0.00     0.167 HD
ATOM     62  C   UNL A   1      46.336  27.482  34.032  1.00  0.00     0.074 A 
ATOM     63  C   UNL A   1      46.146  26.762  32.798  1.00  0.00     0.031 C 
ATOM     64  C   UNL A   1      46.793  28.748  34.134  1.00  0.00     0.031 A 
BRANCH  51  65
ATOM     65  C   UNL A   1      43.822  32.064  33.319  1.00  0.00    -0.014 A 
ATOM     66  C   UNL A   1      43.561  31.682  34.677  1.00  0.00     0.010 A 
ATOM     67  C   UNL A   1      43.821  33.448  33.095  1.00  0.00     0.010 A 
ATOM     68  C   UNL A   1      43.049  32.582  35.654  1.00  0.00     0.020 A 
ATOM     69  C   UNL A   1      43.384  34.363  34.078  1.00  0.00     0.020 A 
ATOM     70  C   UNL A   1      42.908  33.920  35.315  1.00  0.00     0.054 A 
BRANCH  70  71
ATOM     71  S   UNL A   1      41.993  35.091  36.375  1.00  0.00     0.124 S 
ATOM     72  O   UNL A   1      41.652  36.149  35.422  1.00  0.00    -0.237 OA
ATOM     73  O   UNL A   1      40.851  34.327  36.867  1.00  0.00    -0.237 OA
ATOM     74  O   UNL A   1      42.983  35.471  37.378  1.00  0.00    -0.744 OA
ENDBRANCH  70  71
ENDBRANCH  51  65
BRANCH  52  75
ATOM     75  C   UNL A   1      44.227  24.284  34.998  1.00  0.00    -0.014 A 
ATOM     76  C   UNL A   1      44.752  23.850  36.229  1.00  0.00     0.010 A 
ATOM     77  C   UNL A   1      44.407  23.203  34.022  1.00  0.00     0.010 A 
ATOM     78  C   UNL A   1      45.351  22.503  36.426  1.00  0.00     0.020 A 
ATOM     79  C   UNL A   1      44.992  21.919  34.171  1.00  0.00     0.020 A 
ATOM     80  C   UNL A   1      45.461  21.549  35.397  1.00  0.00     0.054 A 
BRANCH  80  81
ATOM     81  S   UNL A   1      46.081  19.827  35.589  1.00  0.00     0.124 S 
ATOM     82  O   UNL A   1      44.946  19.016  35.160  1.00  0.00    -0.237 OA
ATOM     83  O   UNL A   1      47.250  19.794  34.716  1.00  0.00    -0.237 OA
ATOM     84  O   UNL A   1      46.397  19.725  37.017  1.00  0.00    -0.744 OA
ENDBRANCH  80  81
ENDBRANCH  52  75
BRANCH  64  85
ATOM     85  C   UNL A   1      46.494  29.355  35.493  1.00  0.00    -0.014 A 
ATOM     86  C   UNL A   1      47.539  29.869  36.262  1.00  0.00     0.010 A 
ATOM     87  C   UNL A   1      45.222  29.230  36.104  1.00  0.00     0.010 A 
ATOM     88  C   UNL A   1      47.317  30.262  37.589  1.00  0.00     0.020 A 
ATOM     89  C   UNL A   1      44.982  29.651  37.420  1.00  0.00     0.020 A 
ATOM     90  C   UNL A   1      46.041  30.168  38.158  1.00  0.00     0.054 A 
BRANCH  90  91
ATOM     91  S   UNL A   1      45.830  30.607  39.910  1.00  0.00     0.124 S 
ATOM     92  O   UNL A   1      46.730  29.676  40.590  1.00  0.00    -0.237 OA
ATOM     93  O   UNL A   1      46.259  32.002  39.932  1.00  0.00    -0.237 OA
ATOM     94  O   UNL A   1      44.411  30.369  40.163  1.00  0.00    -0.744 OA
ENDBRANCH  90  91
ENDBRANCH  64  85
ENDBRANCH  38  39
ENDBRANCH  31  33
ENDBRANCH  30  31
ENDBRANCH  29  30
ENDBRANCH   1  29
TORSDOF 18
ENDMDL
MODEL 3
REMARK VINA RESULT:      -9.2      5.065      8.113
REMARK SMILES Cc1c(CC(=O)OCCOC(=O)c2ccc(-c3c4nc(c(-c5ccc(S(=O)(=O)[O-])cc5)c5ccc([nH]5)c(-c5ccc(S(=O)(=O)[O-])cc5)c5nc(c(-c6ccc(S(=O)(=O)[O-])cc6)c6ccc3[nH]6)C=C5)C=C4)cc2)cc(-c2ccc(S(C)(=O)=O)cc2)n1-c1cccc(F)c1
REMARK SMILES IDX 8 1 7 2 5 3 6 4 4 5 3 6 1 7 2 8 85 9 73 10 74 11 86 12 87 13
REMARK SMILES IDX 92 14 88 15 90 16 89 17 91 18 75 19 76 20 84 21 77 22 83 23
REMARK SMILES IDX 78 24 79 25 80 26 81 27 82 28 9 29 10 30 11 31 12 32 13 33
REMARK SMILES IDX 14 34 72 35 15 36 71 37 16 38 17 39 18 40 65 41 19 42 70 43
REMARK SMILES IDX 64 44 66 45 20 46 69 47 63 48 62 49 21 51 51 52 32 53 50 54
REMARK SMILES IDX 33 55 36 56 49 57 67 58 34 59 35 60 48 62 68 63 37 64 22 65
REMARK SMILES IDX 23 66 31 67 24 68 30 69 25 70 26 71 27 72 28 73 29 74 52 75
REMARK SMILES IDX 53 76 61 77 54 78 60 79 55 80 56 81 57 82 58 83 59 84 38 85
REMARK SMILES IDX 39 86 47 87 40 88 46 89 41 90 42 91 43 92 44 93 45 94
REMARK H PARENT 66 50 36 61
REMARK Flexibility Score: inf
ROOT
ATOM      1  C   UNL A   1      36.800  31.876  30.217  1.00  0.00     0.274 C 
ENDROOT
BRANCH   1   2
ATOM      2  O   UNL A   1      35.511  32.006  29.604  1.00  0.00    -0.462 OA
BRANCH   2   3
ATOM      3  C   UNL A   1      35.312  31.536  28.347  1.00  0.00     0.310 C 
ATOM      4  O   UNL A   1      36.201  31.111  27.611  1.00  0.00    -0.252 OA
BRANCH   3   5
ATOM      5  C   UNL A   1      33.832  31.461  28.005  1.00  0.00     0.160 C 
BRANCH   5   6
ATOM      6  C   UNL A   1      33.421  30.462  26.951  1.00  0.00    -0.015 A 
ATOM      7  C   UNL A   1      31.093  31.370  26.180  1.00  0.00     0.065 C 
ATOM      8  C   UNL A   1      32.271  30.451  26.171  1.00  0.00     0.024 A 
ATOM      9  N   UNL A   1      32.295  29.338  25.350  1.00  0.00    -0.313 N 
ATOM     10  C   UNL A   1      34.080  29.225  26.677  1.00  0.00     0.033 A 
ATOM     11  C   UNL A   1      33.339  28.514  25.744  1.00  0.00     0.053 A 
BRANCH   9  12
ATOM     12  C   UNL A   1      31.310  29.062  24.375  1.00  0.00     0.049 A 
ATOM     13  C   UNL A   1      31.368  29.702  23.132  1.00  0.00     0.027 A 
ATOM     14  C   UNL A   1      30.370  28.059  24.630  1.00  0.00     0.065 A 
ATOM     15  C   UNL A   1      30.483  29.313  22.127  1.00  0.00     0.005 A 
ATOM     16  C   UNL A   1      29.476  27.713  23.628  1.00  0.00     0.125 A 
ATOM     17  C   UNL A   1      29.533  28.319  22.377  1.00  0.00     0.039 A 
ATOM     18  F   UNL A   1      28.544  26.785  23.874  1.00  0.00    -0.207 F 
ENDBRANCH   9  12
BRANCH  11  19
ATOM     19  C   UNL A   1      33.569  27.168  25.221  1.00  0.00    -0.001 A 
ATOM     20  C   UNL A   1      33.653  26.062  26.076  1.00  0.00     0.011 A 
ATOM     21  C   UNL A   1      33.747  26.988  23.843  1.00  0.00     0.011 A 
ATOM     22  C   UNL A   1      33.931  24.792  25.566  1.00  0.00     0.021 A 
ATOM     23  C   UNL A   1      34.032  25.723  23.324  1.00  0.00     0.021 A 
ATOM     24  C   UNL A   1      34.133  24.634  24.191  1.00  0.00     0.067 A 
BRANCH  24  25
ATOM     25  S   UNL A   1      34.491  23.015  23.557  1.00  0.00     0.175 S 
ATOM     26  C   UNL A   1      36.263  22.953  23.513  1.00  0.00     0.163 C 
ATOM     27  O   UNL A   1      34.018  22.058  24.522  1.00  0.00    -0.224 OA
ATOM     28  O   UNL A   1      34.022  22.970  22.171  1.00  0.00    -0.224 OA
ENDBRANCH  24  25
ENDBRANCH  11  19
ENDBRANCH   5   6
ENDBRANCH   3   5
ENDBRANCH   2   3
ENDBRANCH   1   2
BRANCH   1  29
ATOM     29  C   UNL A   1      36.708  31.050  31.523  1.00  0.00     0.275 C 
BRANCH  29  30
ATOM     30  O   UNL A   1      36.624  29.563  31.584  1.00  0.00    -0.458 OA
BRANCH  30  31
ATOM     31  C   UNL A   1      37.563  28.596  31.832  1.00  0.00     0.338 C 
ATOM     32  O   UNL A   1      37.864  28.220  32.955  1.00  0.00    -0.246 OA
BRANCH  31  33
ATOM     33  C   UNL A   1      38.151  27.971  30.514  1.00  0.00     0.060 A 
ATOM     34  C   UNL A   1      38.238  28.557  29.221  1.00  0.00     0.016 A 
ATOM     35  C   UNL A   1      38.792  26.769  30.548  1.00  0.00     0.016 A 
ATOM     36  C   UNL A   1      39.093  28.025  28.065  1.00  0.00     0.010 A 
ATOM     37  C   UNL A   1      39.571  26.305  29.405  1.00  0.00     0.010 A 
ATOM     38  C   UNL A   1      39.887  26.855  28.115  1.00  0.00    -0.014 A 
BRANCH  38  39
ATOM     39  C   UNL A   1      41.546  26.682  27.483  1.00  0.00     0.031 A 
ATOM     40  C   UNL A   1      41.597  27.886  26.569  1.00  0.00     0.074 A 
ATOM     41  C   UNL A   1      42.894  26.154  27.718  1.00  0.00     0.049 A 
ATOM     42  N   UNL A   1      41.037  28.957  27.063  1.00  0.00    -0.248 NA
ATOM     43  C   UNL A   1      42.622  28.244  25.603  1.00  0.00     0.031 C 
ATOM     44  C   UNL A   1      43.426  25.199  28.740  1.00  0.00     0.029 A 
ATOM     45  N   UNL A   1      44.221  26.478  27.124  1.00  0.00    -0.354 N 
ATOM     46  C   UNL A   1      42.140  29.684  27.341  1.00  0.00     0.074 A 
ATOM     47  C   UNL A   1      42.960  29.437  26.131  1.00  0.00     0.031 C 
ATOM     48  C   UNL A   1      44.796  25.007  28.674  1.00  0.00     0.029 A 
ATOM     49  C   UNL A   1      45.445  25.805  27.618  1.00  0.00     0.049 A 
ATOM     50  H   UNL A   1      44.285  27.142  26.400  1.00  0.00     0.167 HD
ATOM     51  C   UNL A   1      42.567  30.010  28.611  1.00  0.00     0.031 A 
ATOM     52  C   UNL A   1      46.815  26.036  27.251  1.00  0.00     0.031 A 
ATOM     53  C   UNL A   1      43.634  30.930  28.609  1.00  0.00     0.049 A 
ATOM     54  C   UNL A   1      46.804  27.439  27.709  1.00  0.00     0.074 A 
ATOM     55  C   UNL A   1      44.182  31.816  27.713  1.00  0.00     0.029 A 
ATOM     56  N   UNL A   1      44.442  30.974  29.710  1.00  0.00    -0.354 N 
ATOM     57  N   UNL A   1      47.206  27.812  28.886  1.00  0.00    -0.248 NA
ATOM     58  C   UNL A   1      46.714  28.468  26.667  1.00  0.00     0.031 C 
ATOM     59  C   UNL A   1      45.575  31.762  28.024  1.00  0.00     0.029 A 
ATOM     60  C   UNL A   1      45.700  30.960  29.170  1.00  0.00     0.049 A 
ATOM     61  H   UNL A   1      44.184  31.007  30.659  1.00  0.00     0.167 HD
ATOM     62  C   UNL A   1      47.177  29.174  28.786  1.00  0.00     0.074 A 
ATOM     63  C   UNL A   1      47.238  29.467  27.376  1.00  0.00     0.031 C 
ATOM     64  C   UNL A   1      46.551  29.928  29.714  1.00  0.00     0.031 A 
BRANCH  51  65
ATOM     65  C   UNL A   1      42.057  29.492  30.010  1.00  0.00    -0.014 A 
ATOM     66  C   UNL A   1      41.192  30.182  30.924  1.00  0.00     0.010 A 
ATOM     67  C   UNL A   1      42.492  28.237  30.459  1.00  0.00     0.010 A 
ATOM     68  C   UNL A   1      41.022  29.789  32.282  1.00  0.00     0.020 A 
ATOM     69  C   UNL A   1      42.270  27.798  31.783  1.00  0.00     0.020 A 
ATOM     70  C   UNL A   1      41.624  28.616  32.714  1.00  0.00     0.054 A 
BRANCH  70  71
ATOM     71  S   UNL A   1      41.720  28.178  34.484  1.00  0.00     0.124 S 
ATOM     72  O   UNL A   1      40.683  29.038  35.058  1.00  0.00    -0.237 OA
ATOM     73  O   UNL A   1      41.419  26.751  34.527  1.00  0.00    -0.237 OA
ATOM     74  O   UNL A   1      43.086  28.550  34.841  1.00  0.00    -0.744 OA
ENDBRANCH  70  71
ENDBRANCH  51  65
BRANCH  52  75
ATOM     75  C   UNL A   1      48.526  25.874  27.085  1.00  0.00    -0.014 A 
ATOM     76  C   UNL A   1      49.522  25.393  27.955  1.00  0.00     0.010 A 
ATOM     77  C   UNL A   1      49.151  26.142  25.785  1.00  0.00     0.010 A 
ATOM     78  C   UNL A   1      50.937  25.203  27.543  1.00  0.00     0.020 A 
ATOM     79  C   UNL A   1      50.499  25.992  25.365  1.00  0.00     0.020 A 
ATOM     80  C   UNL A   1      51.411  25.500  26.251  1.00  0.00     0.054 A 
BRANCH  80  81
ATOM     81  S   UNL A   1      53.115  25.184  25.632  1.00  0.00     0.124 S 
ATOM     82  O   UNL A   1      53.197  26.024  24.441  1.00  0.00    -0.237 OA
ATOM     83  O   UNL A   1      53.958  25.590  26.752  1.00  0.00    -0.237 OA
ATOM     84  O   UNL A   1      53.129  23.742  25.363  1.00  0.00    -0.744 OA
ENDBRANCH  80  81
ENDBRANCH  52  75
BRANCH  64  85
ATOM     85  C   UNL A   1      46.312  29.165  31.004  1.00  0.00    -0.014 A 
ATOM     86  C   UNL A   1      46.825  29.661  32.203  1.00  0.00     0.010 A 
ATOM     87  C   UNL A   1      45.768  27.857  31.008  1.00  0.00     0.010 A 
ATOM     88  C   UNL A   1      46.779  28.886  33.370  1.00  0.00     0.020 A 
ATOM     89  C   UNL A   1      45.686  27.086  32.177  1.00  0.00     0.020 A 
ATOM     90  C   UNL A   1      46.198  27.613  33.359  1.00  0.00     0.054 A 
BRANCH  90  91
ATOM     91  S   UNL A   1      46.246  26.615  34.879  1.00  0.00     0.124 S 
ATOM     92  O   UNL A   1      47.545  25.948  34.789  1.00  0.00    -0.237 OA
ATOM     93  O   UNL A   1      46.151  27.634  35.919  1.00  0.00    -0.237 OA
ATOM     94  O   UNL A   1      45.098  25.722  34.750  1.00  0.00    -0.744 OA
ENDBRANCH  90  91
ENDBRANCH  64  85
ENDBRANCH  38  39
ENDBRANCH  31  33
ENDBRANCH  30  31
ENDBRANCH  29  30
ENDBRANCH   1  29
TORSDOF 18
ENDMDL
