MODEL 1
REMARK VINA RESULT:     -10.8      0.000      0.000
REMARK SMILES O=C(OCCOC(=O)c1cn(C[C@@H]2CCS(=O)(=O)C2)c(=O)[nH]c1=O)c1ccc(-c2c3nc(c(-c4ccc(S(=O)(=O)[O-])cc4)c4ccc([nH]4)c(-c4ccc(S(=O)(=O)[O-])cc4)c4nc(c(-c5ccc(S(=O)(=O)[O-])cc5)c5ccc2[nH]5)C=C4)C=C3)cc1
REMARK SMILES IDX 4 1 3 2 2 3 1 4 25 5 26 6 84 7 27 8 83 9 28 10 29 11 30 12
REMARK SMILES IDX 77 13 31 14 82 15 76 16 78 17 32 18 81 19 75 20 74 21 33 23
REMARK SMILES IDX 63 24 44 25 62 26 45 27 48 28 61 29 79 30 46 31 47 32 60 34
REMARK SMILES IDX 80 35 49 36 34 37 35 38 43 39 36 40 42 41 37 42 38 43 39 44
REMARK SMILES IDX 40 45 41 46 64 47 65 48 73 49 66 50 72 51 67 52 68 53 69 54
REMARK SMILES IDX 70 55 71 56 50 57 51 58 59 59 52 60 58 61 53 62 54 63 55 64
REMARK SMILES IDX 56 65 57 66 5 67 6 68 7 69 8 70 9 71 10 72 23 73 11 74 22 75
REMARK SMILES IDX 24 76 20 77 21 79 12 80 13 81 14 82 19 83 15 84 16 85 17 86
REMARK SMILES IDX 18 87
REMARK H PARENT 78 22 48 33 22 78
REMARK Flexibility Score: inf
ROOT
ATOM      1  C   UNL A   1      40.620  21.274  26.766  1.00  0.00     0.275 C 
ENDROOT
BRANCH   1   2
ATOM      2  O   UNL A   1      39.762  21.923  25.815  1.00  0.00    -0.458 OA
BRANCH   2   3
ATOM      3  C   UNL A   1      38.849  22.874  26.152  1.00  0.00     0.338 C 
ATOM      4  O   UNL A   1      37.698  22.828  25.731  1.00  0.00    -0.246 OA
BRANCH   3   5
ATOM      5  C   UNL A   1      39.352  24.129  26.777  1.00  0.00     0.060 A 
ATOM      6  C   UNL A   1      39.013  24.339  28.115  1.00  0.00     0.016 A 
ATOM      7  C   UNL A   1      40.134  25.091  26.127  1.00  0.00     0.016 A 
ATOM      8  C   UNL A   1      39.327  25.552  28.733  1.00  0.00     0.010 A 
ATOM      9  C   UNL A   1      40.449  26.310  26.747  1.00  0.00     0.010 A 
ATOM     10  C   UNL A   1      40.024  26.569  28.048  1.00  0.00    -0.014 A 
BRANCH  10  11
ATOM     11  C   UNL A   1      40.499  27.759  28.806  1.00  0.00     0.031 A 
ATOM     12  C   UNL A   1      41.881  27.894  29.395  1.00  0.00     0.074 A 
ATOM     13  C   UNL A   1      39.629  28.781  28.895  1.00  0.00     0.049 A 
ATOM     14  N   UNL A   1      42.533  28.996  29.674  1.00  0.00    -0.248 NA
ATOM     15  C   UNL A   1      42.659  26.673  29.664  1.00  0.00     0.031 C 
ATOM     16  C   UNL A   1      38.239  28.733  28.428  1.00  0.00     0.029 A 
ATOM     17  N   UNL A   1      39.775  30.050  29.382  1.00  0.00    -0.354 N 
ATOM     18  C   UNL A   1      43.827  28.616  30.024  1.00  0.00     0.074 A 
ATOM     19  C   UNL A   1      43.845  27.170  30.021  1.00  0.00     0.031 C 
ATOM     20  C   UNL A   1      37.671  29.928  28.620  1.00  0.00     0.029 A 
ATOM     21  C   UNL A   1      38.635  30.806  29.268  1.00  0.00     0.049 A 
ATOM     22  H   UNL A   1      40.613  30.388  29.774  1.00  0.00     0.167 HD
ATOM     23  C   UNL A   1      44.892  29.425  30.264  1.00  0.00     0.031 A 
ATOM     24  C   UNL A   1      38.378  32.069  29.653  1.00  0.00     0.031 A 
ATOM     25  C   UNL A   1      44.762  30.851  30.440  1.00  0.00     0.049 A 
ATOM     26  C   UNL A   1      39.509  32.884  30.191  1.00  0.00     0.074 A 
ATOM     27  C   UNL A   1      45.756  31.782  30.684  1.00  0.00     0.029 A 
ATOM     28  N   UNL A   1      43.555  31.540  30.489  1.00  0.00    -0.354 N 
ATOM     29  N   UNL A   1      40.780  32.561  30.269  1.00  0.00    -0.248 NA
ATOM     30  C   UNL A   1      39.187  34.227  30.676  1.00  0.00     0.031 C 
ATOM     31  C   UNL A   1      45.142  32.999  31.007  1.00  0.00     0.029 A 
ATOM     32  C   UNL A   1      43.769  32.852  30.880  1.00  0.00     0.049 A 
ATOM     33  H   UNL A   1      42.676  31.152  30.275  1.00  0.00     0.167 HD
ATOM     34  C   UNL A   1      41.416  33.663  30.823  1.00  0.00     0.074 A 
ATOM     35  C   UNL A   1      40.390  34.673  31.021  1.00  0.00     0.031 C 
ATOM     36  C   UNL A   1      42.726  33.820  31.140  1.00  0.00     0.031 A 
BRANCH  23  37
ATOM     37  C   UNL A   1      46.292  28.844  30.310  1.00  0.00    -0.014 A 
ATOM     38  C   UNL A   1      47.030  28.563  29.149  1.00  0.00     0.010 A 
ATOM     39  C   UNL A   1      46.791  28.359  31.532  1.00  0.00     0.010 A 
ATOM     40  C   UNL A   1      48.223  27.819  29.220  1.00  0.00     0.020 A 
ATOM     41  C   UNL A   1      47.983  27.635  31.620  1.00  0.00     0.020 A 
ATOM     42  C   UNL A   1      48.688  27.354  30.455  1.00  0.00     0.054 A 
BRANCH  42  43
ATOM     43  S   UNL A   1      50.205  26.359  30.538  1.00  0.00     0.124 S 
ATOM     44  O   UNL A   1      50.152  25.826  31.895  1.00  0.00    -0.237 OA
ATOM     45  O   UNL A   1      50.004  25.390  29.465  1.00  0.00    -0.237 OA
ATOM     46  O   UNL A   1      51.264  27.337  30.291  1.00  0.00    -0.744 OA
ENDBRANCH  42  43
ENDBRANCH  23  37
BRANCH  24  47
ATOM     47  C   UNL A   1      36.981  32.563  29.523  1.00  0.00    -0.014 A 
ATOM     48  C   UNL A   1      36.558  33.096  28.285  1.00  0.00     0.010 A 
ATOM     49  C   UNL A   1      36.151  32.699  30.645  1.00  0.00     0.010 A 
ATOM     50  C   UNL A   1      35.390  33.852  28.200  1.00  0.00     0.020 A 
ATOM     51  C   UNL A   1      34.956  33.425  30.552  1.00  0.00     0.020 A 
ATOM     52  C   UNL A   1      34.610  34.034  29.342  1.00  0.00     0.054 A 
BRANCH  52  53
ATOM     53  S   UNL A   1      33.170  35.132  29.235  1.00  0.00     0.124 S 
ATOM     54  O   UNL A   1      32.641  35.061  30.595  1.00  0.00    -0.237 OA
ATOM     55  O   UNL A   1      33.772  36.410  28.861  1.00  0.00    -0.237 OA
ATOM     56  O   UNL A   1      32.341  34.510  28.207  1.00  0.00    -0.744 OA
ENDBRANCH  52  53
ENDBRANCH  24  47
BRANCH  36  57
ATOM     57  C   UNL A   1      43.108  35.106  31.826  1.00  0.00    -0.014 A 
ATOM     58  C   UNL A   1      43.627  36.186  31.089  1.00  0.00     0.010 A 
ATOM     59  C   UNL A   1      43.003  35.221  33.225  1.00  0.00     0.010 A 
ATOM     60  C   UNL A   1      44.057  37.345  31.739  1.00  0.00     0.020 A 
ATOM     61  C   UNL A   1      43.392  36.393  33.874  1.00  0.00     0.020 A 
ATOM     62  C   UNL A   1      43.938  37.440  33.129  1.00  0.00     0.054 A 
BRANCH  62  63
ATOM     63  S   UNL A   1      44.490  38.957  33.953  1.00  0.00     0.124 S 
ATOM     64  O   UNL A   1      44.337  38.611  35.363  1.00  0.00    -0.237 OA
ATOM     65  O   UNL A   1      45.866  39.094  33.482  1.00  0.00    -0.237 OA
ATOM     66  O   UNL A   1      43.566  39.973  33.454  1.00  0.00    -0.744 OA
ENDBRANCH  62  63
ENDBRANCH  36  57
ENDBRANCH  10  11
ENDBRANCH   3   5
ENDBRANCH   2   3
ENDBRANCH   1   2
BRANCH   1  67
ATOM     67  C   UNL A   1      40.911  19.799  26.450  1.00  0.00     0.275 C 
BRANCH  67  68
ATOM     68  O   UNL A   1      41.819  19.624  25.349  1.00  0.00    -0.458 OA
BRANCH  68  69
ATOM     69  C   UNL A   1      43.000  19.015  25.658  1.00  0.00     0.345 C 
ATOM     70  O   UNL A   1      43.124  17.857  26.022  1.00  0.00    -0.246 OA
BRANCH  69  71
ATOM     71  C   UNL A   1      44.118  19.935  25.375  1.00  0.00     0.141 A 
ATOM     72  C   UNL A   1      44.416  20.963  26.185  1.00  0.00     0.112 A 
ATOM     73  C   UNL A   1      44.907  19.780  24.138  1.00  0.00     0.268 A 
ATOM     74  N   UNL A   1      45.385  21.908  25.857  1.00  0.00    -0.299 N 
ATOM     75  N   UNL A   1      45.780  20.791  23.851  1.00  0.00    -0.273 N 
ATOM     76  O   UNL A   1      44.733  18.861  23.345  1.00  0.00    -0.268 OA
ATOM     77  C   UNL A   1      45.999  21.901  24.612  1.00  0.00     0.328 A 
ATOM     78  H   UNL A   1      46.298  20.712  23.018  1.00  0.00     0.175 HD
ATOM     79  O   UNL A   1      46.693  22.815  24.178  1.00  0.00    -0.248 OA
BRANCH  74  80
ATOM     80  C   UNL A   1      45.655  23.026  26.748  1.00  0.00     0.131 C 
BRANCH  80  81
ATOM     81  C   UNL A   1      44.543  24.062  26.966  1.00  0.00     0.025 C 
ATOM     82  C   UNL A   1      43.354  24.067  26.005  1.00  0.00     0.022 C 
ATOM     83  C   UNL A   1      45.052  25.501  27.048  1.00  0.00     0.142 C 
ATOM     84  C   UNL A   1      43.658  24.982  24.829  1.00  0.00     0.137 C 
ATOM     85  S   UNL A   1      44.845  26.177  25.409  1.00  0.00     0.150 S 
ATOM     86  O   UNL A   1      46.079  26.005  24.670  1.00  0.00    -0.229 OA
ATOM     87  O   UNL A   1      44.197  27.469  25.507  1.00  0.00    -0.229 OA
ENDBRANCH  80  81
ENDBRANCH  74  80
ENDBRANCH  69  71
ENDBRANCH  68  69
ENDBRANCH  67  68
ENDBRANCH   1  67
TORSDOF 16
ENDMDL
MODEL 2
REMARK VINA RESULT:     -10.6      3.106     12.386
REMARK SMILES O=C(OCCOC(=O)c1cn(C[C@@H]2CCS(=O)(=O)C2)c(=O)[nH]c1=O)c1ccc(-c2c3nc(c(-c4ccc(S(=O)(=O)[O-])cc4)c4ccc([nH]4)c(-c4ccc(S(=O)(=O)[O-])cc4)c4nc(c(-c5ccc(S(=O)(=O)[O-])cc5)c5ccc2[nH]5)C=C4)C=C3)cc1
REMARK SMILES IDX 4 1 3 2 2 3 1 4 25 5 26 6 84 7 27 8 83 9 28 10 29 11 30 12
REMARK SMILES IDX 77 13 31 14 82 15 76 16 78 17 32 18 81 19 75 20 74 21 33 23
REMARK SMILES IDX 63 24 44 25 62 26 45 27 48 28 61 29 79 30 46 31 47 32 60 34
REMARK SMILES IDX 80 35 49 36 34 37 35 38 43 39 36 40 42 41 37 42 38 43 39 44
REMARK SMILES IDX 40 45 41 46 64 47 65 48 73 49 66 50 72 51 67 52 68 53 69 54
REMARK SMILES IDX 70 55 71 56 50 57 51 58 59 59 52 60 58 61 53 62 54 63 55 64
REMARK SMILES IDX 56 65 57 66 5 67 6 68 7 69 8 70 9 71 10 72 23 73 11 74 22 75
REMARK SMILES IDX 24 76 20 77 21 79 12 80 13 81 14 82 19 83 15 84 16 85 17 86
REMARK SMILES IDX 18 87
REMARK H PARENT 78 22 48 33 22 78
REMARK Flexibility Score: inf
ROOT
ATOM      1  C   UNL A   1      35.021  33.005  28.008  1.00  0.00     0.275 C 
ENDROOT
BRANCH   1   2
ATOM      2  O   UNL A   1      34.166  31.978  27.483  1.00  0.00    -0.458 OA
BRANCH   2   3
ATOM      3  C   UNL A   1      34.384  30.648  27.672  1.00  0.00     0.338 C 
ATOM      4  O   UNL A   1      33.454  29.851  27.712  1.00  0.00    -0.246 OA
BRANCH   3   5
ATOM      5  C   UNL A   1      35.734  30.227  28.142  1.00  0.00     0.060 A 
ATOM      6  C   UNL A   1      36.750  30.213  27.186  1.00  0.00     0.016 A 
ATOM      7  C   UNL A   1      36.046  29.856  29.455  1.00  0.00     0.016 A 
ATOM      8  C   UNL A   1      38.008  29.699  27.510  1.00  0.00     0.010 A 
ATOM      9  C   UNL A   1      37.309  29.340  29.782  1.00  0.00     0.010 A 
ATOM     10  C   UNL A   1      38.298  29.226  28.807  1.00  0.00    -0.014 A 
BRANCH  10  11
ATOM     11  C   UNL A   1      39.701  28.869  29.152  1.00  0.00     0.031 A 
ATOM     12  C   UNL A   1      40.646  29.770  29.905  1.00  0.00     0.074 A 
ATOM     13  C   UNL A   1      40.092  27.629  28.803  1.00  0.00     0.049 A 
ATOM     14  N   UNL A   1      41.689  29.426  30.621  1.00  0.00    -0.248 NA
ATOM     15  C   UNL A   1      40.386  31.220  29.915  1.00  0.00     0.031 C 
ATOM     16  C   UNL A   1      39.287  26.698  28.003  1.00  0.00     0.029 A 
ATOM     17  N   UNL A   1      41.235  26.932  29.079  1.00  0.00    -0.354 N 
ATOM     18  C   UNL A   1      42.129  30.580  31.265  1.00  0.00     0.074 A 
ATOM     19  C   UNL A   1      41.303  31.662  30.778  1.00  0.00     0.031 C 
ATOM     20  C   UNL A   1      39.946  25.541  27.883  1.00  0.00     0.029 A 
ATOM     21  C   UNL A   1      41.236  25.666  28.549  1.00  0.00     0.049 A 
ATOM     22  H   UNL A   1      41.981  27.301  29.605  1.00  0.00     0.167 HD
ATOM     23  C   UNL A   1      43.099  30.682  32.211  1.00  0.00     0.031 A 
ATOM     24  C   UNL A   1      42.176  24.704  28.577  1.00  0.00     0.031 A 
ATOM     25  C   UNL A   1      44.013  29.605  32.509  1.00  0.00     0.049 A 
ATOM     26  C   UNL A   1      43.396  24.938  29.408  1.00  0.00     0.074 A 
ATOM     27  C   UNL A   1      45.034  29.577  33.442  1.00  0.00     0.029 A 
ATOM     28  N   UNL A   1      44.079  28.403  31.815  1.00  0.00    -0.354 N 
ATOM     29  N   UNL A   1      43.655  25.947  30.207  1.00  0.00    -0.248 NA
ATOM     30  C   UNL A   1      44.438  23.911  29.360  1.00  0.00     0.031 C 
ATOM     31  C   UNL A   1      45.791  28.419  33.222  1.00  0.00     0.029 A 
ATOM     32  C   UNL A   1      45.194  27.682  32.210  1.00  0.00     0.049 A 
ATOM     33  H   UNL A   1      43.427  28.106  31.139  1.00  0.00     0.167 HD
ATOM     34  C   UNL A   1      44.901  25.683  30.756  1.00  0.00     0.074 A 
ATOM     35  C   UNL A   1      45.320  24.397  30.224  1.00  0.00     0.031 C 
ATOM     36  C   UNL A   1      45.631  26.438  31.617  1.00  0.00     0.031 A 
BRANCH  23  37
ATOM     37  C   UNL A   1      43.226  31.948  33.036  1.00  0.00    -0.014 A 
ATOM     38  C   UNL A   1      44.080  33.002  32.674  1.00  0.00     0.010 A 
ATOM     39  C   UNL A   1      42.649  31.989  34.319  1.00  0.00     0.010 A 
ATOM     40  C   UNL A   1      44.343  34.054  33.573  1.00  0.00     0.020 A 
ATOM     41  C   UNL A   1      42.887  33.036  35.214  1.00  0.00     0.020 A 
ATOM     42  C   UNL A   1      43.750  34.059  34.839  1.00  0.00     0.054 A 
BRANCH  42  43
ATOM     43  S   UNL A   1      44.125  35.395  36.011  1.00  0.00     0.124 S 
ATOM     44  O   UNL A   1      42.836  35.609  36.660  1.00  0.00    -0.237 OA
ATOM     45  O   UNL A   1      45.166  34.800  36.843  1.00  0.00    -0.237 OA
ATOM     46  O   UNL A   1      44.578  36.485  35.147  1.00  0.00    -0.744 OA
ENDBRANCH  42  43
ENDBRANCH  23  37
BRANCH  24  47
ATOM     47  C   UNL A   1      41.936  23.477  27.772  1.00  0.00    -0.014 A 
ATOM     48  C   UNL A   1      41.242  22.398  28.362  1.00  0.00     0.010 A 
ATOM     49  C   UNL A   1      42.556  23.291  26.528  1.00  0.00     0.010 A 
ATOM     50  C   UNL A   1      41.271  21.131  27.780  1.00  0.00     0.020 A 
ATOM     51  C   UNL A   1      42.552  22.029  25.921  1.00  0.00     0.020 A 
ATOM     52  C   UNL A   1      41.950  20.950  26.575  1.00  0.00     0.054 A 
BRANCH  52  53
ATOM     53  S   UNL A   1      42.087  19.268  25.910  1.00  0.00     0.124 S 
ATOM     54  O   UNL A   1      42.639  18.541  27.051  1.00  0.00    -0.237 OA
ATOM     55  O   UNL A   1      40.703  18.946  25.570  1.00  0.00    -0.237 OA
ATOM     56  O   UNL A   1      42.988  19.423  24.771  1.00  0.00    -0.744 OA
ENDBRANCH  52  53
ENDBRANCH  24  47
BRANCH  36  57
ATOM     57  C   UNL A   1      47.007  25.931  31.965  1.00  0.00    -0.014 A 
ATOM     58  C   UNL A   1      47.227  25.214  33.154  1.00  0.00     0.010 A 
ATOM     59  C   UNL A   1      48.101  26.221  31.128  1.00  0.00     0.010 A 
ATOM     60  C   UNL A   1      48.518  24.819  33.513  1.00  0.00     0.020 A 
ATOM     61  C   UNL A   1      49.386  25.791  31.461  1.00  0.00     0.020 A 
ATOM     62  C   UNL A   1      49.590  25.112  32.664  1.00  0.00     0.054 A 
BRANCH  62  63
ATOM     63  S   UNL A   1      51.255  24.580  33.141  1.00  0.00     0.124 S 
ATOM     64  O   UNL A   1      51.443  23.390  32.317  1.00  0.00    -0.237 OA
ATOM     65  O   UNL A   1      52.076  25.733  32.780  1.00  0.00    -0.237 OA
ATOM     66  O   UNL A   1      51.139  24.335  34.577  1.00  0.00    -0.744 OA
ENDBRANCH  62  63
ENDBRANCH  36  57
ENDBRANCH  10  11
ENDBRANCH   3   5
ENDBRANCH   2   3
ENDBRANCH   1   2
BRANCH   1  67
ATOM     67  C   UNL A   1      34.310  34.340  28.278  1.00  0.00     0.275 C 
BRANCH  67  68
ATOM     68  O   UNL A   1      33.291  34.246  29.288  1.00  0.00    -0.458 OA
BRANCH  68  69
ATOM     69  C   UNL A   1      33.097  35.375  30.029  1.00  0.00     0.345 C 
ATOM     70  O   UNL A   1      32.364  36.302  29.724  1.00  0.00    -0.246 OA
BRANCH  69  71
ATOM     71  C   UNL A   1      33.818  35.255  31.309  1.00  0.00     0.141 A 
ATOM     72  C   UNL A   1      34.576  34.187  31.602  1.00  0.00     0.112 A 
ATOM     73  C   UNL A   1      33.669  36.298  32.343  1.00  0.00     0.268 A 
ATOM     74  N   UNL A   1      35.153  34.009  32.857  1.00  0.00    -0.299 N 
ATOM     75  N   UNL A   1      34.197  36.011  33.569  1.00  0.00    -0.273 N 
ATOM     76  O   UNL A   1      33.021  37.325  32.167  1.00  0.00    -0.268 OA
ATOM     77  C   UNL A   1      34.864  34.870  33.906  1.00  0.00     0.328 A 
ATOM     78  H   UNL A   1      34.087  36.688  34.274  1.00  0.00     0.175 HD
ATOM     79  O   UNL A   1      35.160  34.656  35.078  1.00  0.00    -0.248 OA
BRANCH  74  80
ATOM     80  C   UNL A   1      35.940  32.819  33.144  1.00  0.00     0.131 C 
BRANCH  80  81
ATOM     81  C   UNL A   1      37.285  32.649  32.424  1.00  0.00     0.025 C 
ATOM     82  C   UNL A   1      38.352  31.770  33.075  1.00  0.00     0.022 C 
ATOM     83  C   UNL A   1      37.961  33.972  32.066  1.00  0.00     0.142 C 
ATOM     84  C   UNL A   1      39.215  32.618  33.997  1.00  0.00     0.137 C 
ATOM     85  S   UNL A   1      39.129  34.287  33.378  1.00  0.00     0.150 S 
ATOM     86  O   UNL A   1      38.497  35.122  34.379  1.00  0.00    -0.229 OA
ATOM     87  O   UNL A   1      40.410  34.637  32.800  1.00  0.00    -0.229 OA
ENDBRANCH  80  81
ENDBRANCH  74  80
ENDBRANCH  69  71
ENDBRANCH  68  69
ENDBRANCH  67  68
ENDBRANCH   1  67
TORSDOF 16
ENDMDL
MODEL 3
REMARK VINA RESULT:     -10.2      3.645      6.250
REMARK SMILES O=C(OCCOC(=O)c1cn(C[C@@H]2CCS(=O)(=O)C2)c(=O)[nH]c1=O)c1ccc(-c2c3nc(c(-c4ccc(S(=O)(=O)[O-])cc4)c4ccc([nH]4)c(-c4ccc(S(=O)(=O)[O-])cc4)c4nc(c(-c5ccc(S(=O)(=O)[O-])cc5)c5ccc2[nH]5)C=C4)C=C3)cc1
REMARK SMILES IDX 4 1 3 2 2 3 1 4 25 5 26 6 84 7 27 8 83 9 28 10 29 11 30 12
REMARK SMILES IDX 77 13 31 14 82 15 76 16 78 17 32 18 81 19 75 20 74 21 33 23
REMARK SMILES IDX 63 24 44 25 62 26 45 27 48 28 61 29 79 30 46 31 47 32 60 34
REMARK SMILES IDX 80 35 49 36 34 37 35 38 43 39 36 40 42 41 37 42 38 43 39 44
REMARK SMILES IDX 40 45 41 46 64 47 65 48 73 49 66 50 72 51 67 52 68 53 69 54
REMARK SMILES IDX 70 55 71 56 50 57 51 58 59 59 52 60 58 61 53 62 54 63 55 64
REMARK SMILES IDX 56 65 57 66 5 67 6 68 7 69 8 70 9 71 10 72 23 73 11 74 22 75
REMARK SMILES IDX 24 76 20 77 21 79 12 80 13 81 14 82 19 83 15 84 16 85 17 86
REMARK SMILES IDX 18 87
REMARK H PARENT 78 22 48 33 22 78
REMARK Flexibility Score: inf
ROOT
ATOM      1  C   UNL A   1      36.896  21.547  25.521  1.00  0.00     0.275 C 
ENDROOT
BRANCH   1   2
ATOM      2  O   UNL A   1      37.599  22.778  25.754  1.00  0.00    -0.458 OA
BRANCH   2   3
ATOM      3  C   UNL A   1      38.908  22.839  26.121  1.00  0.00     0.338 C 
ATOM      4  O   UNL A   1      39.598  21.828  26.182  1.00  0.00    -0.246 OA
BRANCH   3   5
ATOM      5  C   UNL A   1      39.395  24.101  26.745  1.00  0.00     0.060 A 
ATOM      6  C   UNL A   1      39.006  24.335  28.065  1.00  0.00     0.016 A 
ATOM      7  C   UNL A   1      40.208  25.048  26.111  1.00  0.00     0.016 A 
ATOM      8  C   UNL A   1      39.303  25.555  28.675  1.00  0.00     0.010 A 
ATOM      9  C   UNL A   1      40.507  26.274  26.723  1.00  0.00     0.010 A 
ATOM     10  C   UNL A   1      40.033  26.557  28.003  1.00  0.00    -0.014 A 
BRANCH  10  11
ATOM     11  C   UNL A   1      40.486  27.756  28.759  1.00  0.00     0.031 A 
ATOM     12  C   UNL A   1      41.856  27.907  29.369  1.00  0.00     0.074 A 
ATOM     13  C   UNL A   1      39.605  28.772  28.828  1.00  0.00     0.049 A 
ATOM     14  N   UNL A   1      42.495  29.017  29.650  1.00  0.00    -0.248 NA
ATOM     15  C   UNL A   1      42.641  26.695  29.658  1.00  0.00     0.031 C 
ATOM     16  C   UNL A   1      38.223  28.707  28.340  1.00  0.00     0.029 A 
ATOM     17  N   UNL A   1      39.733  30.045  29.308  1.00  0.00    -0.354 N 
ATOM     18  C   UNL A   1      43.787  28.650  30.023  1.00  0.00     0.074 A 
ATOM     19  C   UNL A   1      43.817  27.205  30.030  1.00  0.00     0.031 C 
ATOM     20  C   UNL A   1      37.641  29.898  28.514  1.00  0.00     0.029 A 
ATOM     21  C   UNL A   1      38.588  30.790  29.171  1.00  0.00     0.049 A 
ATOM     22  H   UNL A   1      40.562  30.392  29.711  1.00  0.00     0.167 HD
ATOM     23  C   UNL A   1      44.840  29.470  30.273  1.00  0.00     0.031 A 
ATOM     24  C   UNL A   1      38.313  32.053  29.544  1.00  0.00     0.031 A 
ATOM     25  C   UNL A   1      44.695  30.897  30.439  1.00  0.00     0.049 A 
ATOM     26  C   UNL A   1      39.429  32.882  30.093  1.00  0.00     0.074 A 
ATOM     27  C   UNL A   1      45.677  31.838  30.691  1.00  0.00     0.029 A 
ATOM     28  N   UNL A   1      43.482  31.576  30.463  1.00  0.00    -0.354 N 
ATOM     29  N   UNL A   1      40.701  32.570  30.193  1.00  0.00    -0.248 NA
ATOM     30  C   UNL A   1      39.088  34.225  30.564  1.00  0.00     0.031 C 
ATOM     31  C   UNL A   1      45.047  33.052  30.996  1.00  0.00     0.029 A 
ATOM     32  C   UNL A   1      43.678  32.892  30.849  1.00  0.00     0.049 A 
ATOM     33  H   UNL A   1      42.609  31.178  30.239  1.00  0.00     0.167 HD
ATOM     34  C   UNL A   1      41.319  33.681  30.749  1.00  0.00     0.074 A 
ATOM     35  C   UNL A   1      40.281  34.684  30.924  1.00  0.00     0.031 C 
ATOM     36  C   UNL A   1      42.623  33.853  31.086  1.00  0.00     0.031 A 
BRANCH  23  37
ATOM     37  C   UNL A   1      46.244  28.903  30.345  1.00  0.00    -0.014 A 
ATOM     38  C   UNL A   1      47.035  28.699  29.203  1.00  0.00     0.010 A 
ATOM     39  C   UNL A   1      46.697  28.350  31.557  1.00  0.00     0.010 A 
ATOM     40  C   UNL A   1      48.234  27.965  29.281  1.00  0.00     0.020 A 
ATOM     41  C   UNL A   1      47.894  27.634  31.653  1.00  0.00     0.020 A 
ATOM     42  C   UNL A   1      48.651  27.431  30.505  1.00  0.00     0.054 A 
BRANCH  42  43
ATOM     43  S   UNL A   1      50.176  26.449  30.593  1.00  0.00     0.124 S 
ATOM     44  O   UNL A   1      51.210  27.473  30.490  1.00  0.00    -0.237 OA
ATOM     45  O   UNL A   1      50.054  25.796  31.893  1.00  0.00    -0.237 OA
ATOM     46  O   UNL A   1      50.068  25.552  29.443  1.00  0.00    -0.744 OA
ENDBRANCH  42  43
ENDBRANCH  23  37
BRANCH  24  47
ATOM     47  C   UNL A   1      36.915  32.533  29.389  1.00  0.00    -0.014 A 
ATOM     48  C   UNL A   1      36.517  33.090  28.153  1.00  0.00     0.010 A 
ATOM     49  C   UNL A   1      36.054  32.635  30.491  1.00  0.00     0.010 A 
ATOM     50  C   UNL A   1      35.342  33.834  28.054  1.00  0.00     0.020 A 
ATOM     51  C   UNL A   1      34.854  33.348  30.384  1.00  0.00     0.020 A 
ATOM     52  C   UNL A   1      34.532  33.981  29.179  1.00  0.00     0.054 A 
BRANCH  52  53
ATOM     53  S   UNL A   1      33.082  35.065  29.060  1.00  0.00     0.124 S 
ATOM     54  O   UNL A   1      32.547  34.996  30.418  1.00  0.00    -0.237 OA
ATOM     55  O   UNL A   1      33.673  36.346  28.681  1.00  0.00    -0.237 OA
ATOM     56  O   UNL A   1      32.263  34.429  28.031  1.00  0.00    -0.744 OA
ENDBRANCH  52  53
ENDBRANCH  24  47
BRANCH  36  57
ATOM     57  C   UNL A   1      42.983  35.147  31.769  1.00  0.00    -0.014 A 
ATOM     58  C   UNL A   1      43.576  36.197  31.047  1.00  0.00     0.010 A 
ATOM     59  C   UNL A   1      42.781  35.296  33.154  1.00  0.00     0.010 A 
ATOM     60  C   UNL A   1      43.984  37.363  31.701  1.00  0.00     0.020 A 
ATOM     61  C   UNL A   1      43.148  36.476  33.803  1.00  0.00     0.020 A 
ATOM     62  C   UNL A   1      43.769  37.493  33.076  1.00  0.00     0.054 A 
BRANCH  62  63
ATOM     63  S   UNL A   1      44.293  39.017  33.904  1.00  0.00     0.124 S 
ATOM     64  O   UNL A   1      43.061  39.799  33.914  1.00  0.00    -0.237 OA
ATOM     65  O   UNL A   1      44.746  38.535  35.207  1.00  0.00    -0.237 OA
ATOM     66  O   UNL A   1      45.352  39.530  33.037  1.00  0.00    -0.744 OA
ENDBRANCH  62  63
ENDBRANCH  36  57
ENDBRANCH  10  11
ENDBRANCH   3   5
ENDBRANCH   2   3
ENDBRANCH   1   2
BRANCH   1  67
ATOM     67  C   UNL A   1      35.425  21.727  25.117  1.00  0.00     0.275 C 
BRANCH  67  68
ATOM     68  O   UNL A   1      34.678  22.536  26.041  1.00  0.00    -0.458 OA
BRANCH  68  69
ATOM     69  C   UNL A   1      33.321  22.443  25.934  1.00  0.00     0.345 C 
ATOM     70  O   UNL A   1      32.683  21.403  25.922  1.00  0.00    -0.246 OA
BRANCH  69  71
ATOM     71  C   UNL A   1      32.732  23.795  25.949  1.00  0.00     0.141 A 
ATOM     72  C   UNL A   1      33.250  24.806  25.234  1.00  0.00     0.112 A 
ATOM     73  C   UNL A   1      31.576  24.088  26.819  1.00  0.00     0.268 A 
ATOM     74  N   UNL A   1      32.776  26.111  25.345  1.00  0.00    -0.299 N 
ATOM     75  N   UNL A   1      31.226  25.403  26.933  1.00  0.00    -0.273 N 
ATOM     76  O   UNL A   1      31.013  23.231  27.492  1.00  0.00    -0.268 OA
ATOM     77  C   UNL A   1      31.829  26.450  26.300  1.00  0.00     0.328 A 
ATOM     78  H   UNL A   1      30.470  25.615  27.525  1.00  0.00     0.175 HD
ATOM     79  O   UNL A   1      31.527  27.602  26.597  1.00  0.00    -0.248 OA
BRANCH  74  80
ATOM     80  C   UNL A   1      33.388  27.184  24.576  1.00  0.00     0.131 C 
BRANCH  80  81
ATOM     81  C   UNL A   1      32.777  27.539  23.213  1.00  0.00     0.025 C 
ATOM     82  C   UNL A   1      31.374  27.025  22.890  1.00  0.00     0.022 C 
ATOM     83  C   UNL A   1      33.667  27.170  22.027  1.00  0.00     0.142 C 
ATOM     84  C   UNL A   1      31.473  25.658  22.231  1.00  0.00     0.137 C 
ATOM     85  S   UNL A   1      33.078  25.583  21.459  1.00  0.00     0.150 S 
ATOM     86  O   UNL A   1      33.853  24.539  22.095  1.00  0.00    -0.229 OA
ATOM     87  O   UNL A   1      32.906  25.628  20.021  1.00  0.00    -0.229 OA
ENDBRANCH  80  81
ENDBRANCH  74  80
ENDBRANCH  69  71
ENDBRANCH  68  69
ENDBRANCH  67  68
ENDBRANCH   1  67
TORSDOF 16
ENDMDL
