MODEL 1
REMARK VINA RESULT:     -11.9      0.000      0.000
REMARK SMILES Cc1cccc(-c2cc(C(=O)OCCOC(=O)c3ccc(-c4c5nc(c(-c6ccc(S(=O)(=O)[O-])cc6)c6ccc([nH]6)c(-c6ccc(S(=O)(=O)[O-])cc6)c6nc(c(-c7ccc(S(=O)(=O)[O-])cc7)c7ccc4[nH]7)C=C6)C=C5)cc3)ccn2)c1
REMARK SMILES IDX 14 1 13 2 12 3 10 4 11 5 9 6 7 7 8 8 80 9 79 10 78 11 6 12
REMARK SMILES IDX 1 13 2 14 3 15 81 16 4 17 5 18 15 19 16 20 17 21 18 22 19 23
REMARK SMILES IDX 77 24 20 25 76 26 21 27 22 28 23 29 70 30 24 31 75 32 69 33
REMARK SMILES IDX 71 34 25 35 74 36 68 37 67 38 26 40 56 41 37 42 55 43 38 44
REMARK SMILES IDX 41 45 54 46 72 47 39 48 40 49 53 51 73 52 42 53 27 54 28 55
REMARK SMILES IDX 36 56 29 57 35 58 30 59 31 60 32 61 33 62 34 63 57 64 58 65
REMARK SMILES IDX 66 66 59 67 65 68 60 69 61 70 62 71 63 72 64 73 43 74 44 75
REMARK SMILES IDX 52 76 45 77 51 78 46 79 47 80 48 81 49 82 50 83
REMARK H PARENT 71 39 41 50
REMARK Flexibility Score: inf
ROOT
ATOM      1  C   UNL A   1      33.813  30.841  27.302  1.00  0.00     0.275 C 
ENDROOT
BRANCH   1   2
ATOM      2  C   UNL A   1      32.864  30.261  26.266  1.00  0.00     0.275 C 
BRANCH   2   3
ATOM      3  O   UNL A   1      33.402  28.978  26.041  1.00  0.00    -0.458 OA
BRANCH   3   4
ATOM      4  C   UNL A   1      32.473  28.026  25.991  1.00  0.00     0.338 C 
ATOM      5  O   UNL A   1      31.331  28.175  26.372  1.00  0.00    -0.246 OA
BRANCH   4   6
ATOM      6  C   UNL A   1      33.068  26.803  25.290  1.00  0.00     0.063 A 
ATOM      7  C   UNL A   1      34.403  23.995  24.305  1.00  0.00     0.071 A 
ATOM      8  C   UNL A   1      33.899  24.998  25.700  1.00  0.00     0.044 A 
ATOM      9  N   UNL A   1      34.186  24.568  22.718  1.00  0.00    -0.256 NA
ATOM     10  C   UNL A   1      33.476  26.089  22.376  1.00  0.00     0.112 A 
ATOM     11  C   UNL A   1      32.916  27.222  23.542  1.00  0.00     0.036 A 
BRANCH   7  12
ATOM     12  C   UNL A   1      35.217  22.791  24.427  1.00  0.00     0.000 A 
ATOM     13  C   UNL A   1      34.912  19.009  24.832  1.00  0.00     0.044 C 
ATOM     14  C   UNL A   1      35.496  20.386  24.713  1.00  0.00    -0.050 A 
ATOM     15  C   UNL A   1      36.882  20.562  24.815  1.00  0.00     0.003 A 
ATOM     16  C   UNL A   1      34.673  21.504  24.516  1.00  0.00     0.013 A 
ATOM     17  C   UNL A   1      37.440  21.830  24.684  1.00  0.00     0.001 A 
ATOM     18  C   UNL A   1      36.612  22.932  24.479  1.00  0.00     0.010 A 
ENDBRANCH   7  12
ENDBRANCH   4   6
ENDBRANCH   3   4
ENDBRANCH   2   3
ENDBRANCH   1   2
BRANCH   1  19
ATOM     19  O   UNL A   1      35.107  30.148  27.642  1.00  0.00    -0.458 OA
BRANCH  19  20
ATOM     20  C   UNL A   1      36.349  30.559  28.071  1.00  0.00     0.338 C 
ATOM     21  O   UNL A   1      36.580  31.714  28.404  1.00  0.00    -0.246 OA
BRANCH  20  22
ATOM     22  C   UNL A   1      37.369  29.520  28.368  1.00  0.00     0.060 A 
ATOM     23  C   UNL A   1      37.782  28.973  30.052  1.00  0.00     0.016 A 
ATOM     24  C   UNL A   1      38.551  29.308  27.109  1.00  0.00     0.016 A 
ATOM     25  C   UNL A   1      39.667  28.290  30.382  1.00  0.00     0.010 A 
ATOM     26  C   UNL A   1      40.179  28.775  27.401  1.00  0.00     0.010 A 
ATOM     27  C   UNL A   1      40.792  28.298  28.980  1.00  0.00    -0.014 A 
BRANCH  27  28
ATOM     28  C   UNL A   1      42.188  27.958  28.854  1.00  0.00     0.031 A 
ATOM     29  C   UNL A   1      42.477  26.537  28.667  1.00  0.00     0.074 A 
ATOM     30  C   UNL A   1      43.022  28.907  28.373  1.00  0.00     0.049 A 
ATOM     31  N   UNL A   1      43.633  26.002  28.814  1.00  0.00    -0.248 NA
ATOM     32  C   UNL A   1      41.429  25.570  28.353  1.00  0.00     0.031 C 
ATOM     33  C   UNL A   1      44.141  28.743  27.449  1.00  0.00     0.029 A 
ATOM     34  N   UNL A   1      43.025  30.262  28.602  1.00  0.00    -0.354 N 
ATOM     35  C   UNL A   1      43.537  24.742  28.269  1.00  0.00     0.074 A 
ATOM     36  C   UNL A   1      42.131  24.444  28.234  1.00  0.00     0.031 C 
ATOM     37  C   UNL A   1      44.812  29.909  27.343  1.00  0.00     0.029 A 
ATOM     38  C   UNL A   1      44.238  30.859  28.286  1.00  0.00     0.049 A 
ATOM     39  H   UNL A   1      42.249  30.756  28.953  1.00  0.00     0.167 HD
ATOM     40  C   UNL A   1      44.627  24.187  27.671  1.00  0.00     0.031 A 
ATOM     41  C   UNL A   1      44.918  31.516  29.274  1.00  0.00     0.031 A 
ATOM     42  C   UNL A   1      45.758  25.125  27.704  1.00  0.00     0.049 A 
ATOM     43  C   UNL A   1      45.988  30.610  29.855  1.00  0.00     0.074 A 
ATOM     44  C   UNL A   1      46.324  25.948  26.744  1.00  0.00     0.029 A 
ATOM     45  N   UNL A   1      46.204  25.603  28.932  1.00  0.00    -0.354 N 
ATOM     46  N   UNL A   1      46.166  29.380  29.450  1.00  0.00    -0.248 NA
ATOM     47  C   UNL A   1      46.953  30.974  30.890  1.00  0.00     0.031 C 
ATOM     48  C   UNL A   1      47.024  26.991  27.421  1.00  0.00     0.029 A 
ATOM     49  C   UNL A   1      46.918  26.780  28.785  1.00  0.00     0.049 A 
ATOM     50  H   UNL A   1      46.033  25.161  29.795  1.00  0.00     0.167 HD
ATOM     51  C   UNL A   1      47.151  28.770  30.157  1.00  0.00     0.074 A 
ATOM     52  C   UNL A   1      47.642  29.822  31.031  1.00  0.00     0.031 C 
ATOM     53  C   UNL A   1      47.451  27.450  29.974  1.00  0.00     0.031 A 
BRANCH  40  54
ATOM     54  C   UNL A   1      44.586  22.939  26.815  1.00  0.00    -0.014 A 
ATOM     55  C   UNL A   1      45.765  22.494  26.187  1.00  0.00     0.010 A 
ATOM     56  C   UNL A   1      43.440  22.147  26.592  1.00  0.00     0.010 A 
ATOM     57  C   UNL A   1      45.788  21.349  25.371  1.00  0.00     0.020 A 
ATOM     58  C   UNL A   1      43.436  21.022  25.758  1.00  0.00     0.020 A 
ATOM     59  C   UNL A   1      44.619  20.621  25.159  1.00  0.00     0.054 A 
BRANCH  59  60
ATOM     60  S   UNL A   1      44.668  19.126  24.142  1.00  0.00     0.124 S 
ATOM     61  O   UNL A   1      46.032  18.649  24.352  1.00  0.00    -0.237 OA
ATOM     62  O   UNL A   1      43.613  18.311  24.737  1.00  0.00    -0.237 OA
ATOM     63  O   UNL A   1      44.386  19.614  22.793  1.00  0.00    -0.744 OA
ENDBRANCH  59  60
ENDBRANCH  40  54
BRANCH  41  64
ATOM     64  C   UNL A   1      44.059  32.546  29.956  1.00  0.00    -0.014 A 
ATOM     65  C   UNL A   1      43.505  33.531  29.108  1.00  0.00     0.010 A 
ATOM     66  C   UNL A   1      43.373  32.266  31.153  1.00  0.00     0.010 A 
ATOM     67  C   UNL A   1      42.204  34.011  29.305  1.00  0.00     0.020 A 
ATOM     68  C   UNL A   1      42.068  32.776  31.365  1.00  0.00     0.020 A 
ATOM     69  C   UNL A   1      41.448  33.566  30.386  1.00  0.00     0.054 A 
BRANCH  69  70
ATOM     70  S   UNL A   1      39.634  33.912  30.348  1.00  0.00     0.124 S 
ATOM     71  O   UNL A   1      39.074  32.584  30.135  1.00  0.00    -0.237 OA
ATOM     72  O   UNL A   1      39.372  34.509  31.657  1.00  0.00    -0.237 OA
ATOM     73  O   UNL A   1      39.444  34.838  29.241  1.00  0.00    -0.744 OA
ENDBRANCH  69  70
ENDBRANCH  41  64
BRANCH  53  74
ATOM     74  C   UNL A   1      48.327  26.645  30.895  1.00  0.00    -0.014 A 
ATOM     75  C   UNL A   1      49.659  26.319  30.612  1.00  0.00     0.010 A 
ATOM     76  C   UNL A   1      47.832  26.311  32.179  1.00  0.00     0.010 A 
ATOM     77  C   UNL A   1      50.430  25.601  31.530  1.00  0.00     0.020 A 
ATOM     78  C   UNL A   1      48.616  25.664  33.129  1.00  0.00     0.020 A 
ATOM     79  C   UNL A   1      49.899  25.269  32.778  1.00  0.00     0.054 A 
BRANCH  79  80
ATOM     80  S   UNL A   1      50.901  24.325  33.943  1.00  0.00     0.124 S 
ATOM     81  O   UNL A   1      50.449  24.865  35.224  1.00  0.00    -0.237 OA
ATOM     82  O   UNL A   1      50.504  22.946  33.669  1.00  0.00    -0.237 OA
ATOM     83  O   UNL A   1      52.273  24.660  33.572  1.00  0.00    -0.744 OA
ENDBRANCH  79  80
ENDBRANCH  53  74
ENDBRANCH  27  28
ENDBRANCH  20  22
ENDBRANCH  19  20
ENDBRANCH   1  19
TORSDOF 15
ENDMDL
MODEL 2
REMARK VINA RESULT:     -11.9      4.285      8.986
REMARK SMILES Cc1cccc(-c2cc(C(=O)OCCOC(=O)c3ccc(-c4c5nc(c(-c6ccc(S(=O)(=O)[O-])cc6)c6ccc([nH]6)c(-c6ccc(S(=O)(=O)[O-])cc6)c6nc(c(-c7ccc(S(=O)(=O)[O-])cc7)c7ccc4[nH]7)C=C6)C=C5)cc3)ccn2)c1
REMARK SMILES IDX 14 1 13 2 12 3 10 4 11 5 9 6 7 7 8 8 80 9 79 10 78 11 6 12
REMARK SMILES IDX 1 13 2 14 3 15 81 16 4 17 5 18 15 19 16 20 17 21 18 22 19 23
REMARK SMILES IDX 77 24 20 25 76 26 21 27 22 28 23 29 70 30 24 31 75 32 69 33
REMARK SMILES IDX 71 34 25 35 74 36 68 37 67 38 26 40 56 41 37 42 55 43 38 44
REMARK SMILES IDX 41 45 54 46 72 47 39 48 40 49 53 51 73 52 42 53 27 54 28 55
REMARK SMILES IDX 36 56 29 57 35 58 30 59 31 60 32 61 33 62 34 63 57 64 58 65
REMARK SMILES IDX 66 66 59 67 65 68 60 69 61 70 62 71 63 72 64 73 43 74 44 75
REMARK SMILES IDX 52 76 45 77 51 78 46 79 47 80 48 81 49 82 50 83
REMARK H PARENT 71 39 41 50
REMARK Flexibility Score: inf
ROOT
ATOM      1  C   UNL A   1      35.659  30.737  28.500  1.00  0.00     0.275 C 
ENDROOT
BRANCH   1   2
ATOM      2  C   UNL A   1      34.999  29.749  27.553  1.00  0.00     0.275 C 
BRANCH   2   3
ATOM      3  O   UNL A   1      34.084  30.559  26.852  1.00  0.00    -0.458 OA
BRANCH   3   4
ATOM      4  C   UNL A   1      32.933  29.940  26.594  1.00  0.00     0.338 C 
ATOM      5  O   UNL A   1      31.844  30.395  26.872  1.00  0.00    -0.246 OA
BRANCH   4   6
ATOM      6  C   UNL A   1      33.236  28.660  25.813  1.00  0.00     0.063 A 
ATOM      7  C   UNL A   1      33.914  25.691  24.647  1.00  0.00     0.071 A 
ATOM      8  C   UNL A   1      33.670  26.698  26.105  1.00  0.00     0.044 A 
ATOM      9  N   UNL A   1      33.787  26.383  23.098  1.00  0.00    -0.256 NA
ATOM     10  C   UNL A   1      33.412  28.036  22.855  1.00  0.00     0.112 A 
ATOM     11  C   UNL A   1      33.137  29.197  24.094  1.00  0.00     0.036 A 
BRANCH   7  12
ATOM     12  C   UNL A   1      34.453  24.336  24.681  1.00  0.00     0.000 A 
ATOM     13  C   UNL A   1      37.695  22.428  25.329  1.00  0.00     0.044 C 
ATOM     14  C   UNL A   1      36.270  22.735  24.974  1.00  0.00    -0.050 A 
ATOM     15  C   UNL A   1      35.420  21.701  24.561  1.00  0.00     0.003 A 
ATOM     16  C   UNL A   1      35.777  24.047  25.034  1.00  0.00     0.013 A 
ATOM     17  C   UNL A   1      34.090  21.967  24.250  1.00  0.00     0.001 A 
ATOM     18  C   UNL A   1      33.611  23.273  24.323  1.00  0.00     0.010 A 
ENDBRANCH   7  12
ENDBRANCH   4   6
ENDBRANCH   3   4
ENDBRANCH   2   3
ENDBRANCH   1   2
BRANCH   1  19
ATOM     19  O   UNL A   1      36.450  30.261  29.691  1.00  0.00    -0.458 OA
BRANCH  19  20
ATOM     20  C   UNL A   1      37.596  29.520  29.866  1.00  0.00     0.338 C 
ATOM     21  O   UNL A   1      37.633  28.524  30.577  1.00  0.00    -0.246 OA
BRANCH  20  22
ATOM     22  C   UNL A   1      38.755  29.798  28.978  1.00  0.00     0.060 A 
ATOM     23  C   UNL A   1      38.832  29.276  27.239  1.00  0.00     0.016 A 
ATOM     24  C   UNL A   1      40.245  30.090  29.828  1.00  0.00     0.016 A 
ATOM     25  C   UNL A   1      40.668  28.915  26.446  1.00  0.00     0.010 A 
ATOM     26  C   UNL A   1      41.812  29.730  29.169  1.00  0.00     0.010 A 
ATOM     27  C   UNL A   1      42.081  29.122  27.539  1.00  0.00    -0.014 A 
BRANCH  27  28
ATOM     28  C   UNL A   1      43.493  28.899  27.353  1.00  0.00     0.031 A 
ATOM     29  C   UNL A   1      44.282  30.085  27.025  1.00  0.00     0.074 A 
ATOM     30  C   UNL A   1      44.050  27.849  27.997  1.00  0.00     0.049 A 
ATOM     31  N   UNL A   1      45.474  30.061  26.552  1.00  0.00    -0.248 NA
ATOM     32  C   UNL A   1      43.737  31.435  27.148  1.00  0.00     0.031 C 
ATOM     33  C   UNL A   1      45.354  27.778  28.652  1.00  0.00     0.029 A 
ATOM     34  N   UNL A   1      43.538  26.595  28.224  1.00  0.00    -0.354 N 
ATOM     35  C   UNL A   1      45.949  31.348  26.665  1.00  0.00     0.074 A 
ATOM     36  C   UNL A   1      44.783  32.179  26.795  1.00  0.00     0.031 C 
ATOM     37  C   UNL A   1      45.596  26.509  29.039  1.00  0.00     0.029 A 
ATOM     38  C   UNL A   1      44.516  25.663  28.546  1.00  0.00     0.049 A 
ATOM     39  H   UNL A   1      42.579  26.380  28.165  1.00  0.00     0.167 HD
ATOM     40  C   UNL A   1      47.276  31.553  26.891  1.00  0.00     0.031 A 
ATOM     41  C   UNL A   1      44.662  24.566  27.743  1.00  0.00     0.031 A 
ATOM     42  C   UNL A   1      47.977  30.267  27.010  1.00  0.00     0.049 A 
ATOM     43  C   UNL A   1      45.792  24.796  26.756  1.00  0.00     0.074 A 
ATOM     44  C   UNL A   1      48.455  29.554  28.098  1.00  0.00     0.029 A 
ATOM     45  N   UNL A   1      47.910  29.362  25.956  1.00  0.00    -0.354 N 
ATOM     46  N   UNL A   1      46.471  25.912  26.709  1.00  0.00    -0.248 NA
ATOM     47  C   UNL A   1      46.284  23.833  25.773  1.00  0.00     0.031 C 
ATOM     48  C   UNL A   1      48.567  28.185  27.708  1.00  0.00     0.029 A 
ATOM     49  C   UNL A   1      48.197  28.074  26.378  1.00  0.00     0.049 A 
ATOM     50  H   UNL A   1      47.687  29.605  25.029  1.00  0.00     0.167 HD
ATOM     51  C   UNL A   1      47.391  25.883  25.712  1.00  0.00     0.074 A 
ATOM     52  C   UNL A   1      47.261  24.541  25.169  1.00  0.00     0.031 C 
ATOM     53  C   UNL A   1      48.155  26.975  25.411  1.00  0.00     0.031 A 
BRANCH  40  54
ATOM     54  C   UNL A   1      47.876  32.884  27.291  1.00  0.00    -0.014 A 
ATOM     55  C   UNL A   1      48.163  33.839  26.297  1.00  0.00     0.010 A 
ATOM     56  C   UNL A   1      48.172  33.275  28.614  1.00  0.00     0.010 A 
ATOM     57  C   UNL A   1      48.730  35.088  26.604  1.00  0.00     0.020 A 
ATOM     58  C   UNL A   1      48.767  34.501  28.936  1.00  0.00     0.020 A 
ATOM     59  C   UNL A   1      49.033  35.409  27.925  1.00  0.00     0.054 A 
BRANCH  59  60
ATOM     60  S   UNL A   1      49.723  37.035  28.315  1.00  0.00     0.124 S 
ATOM     61  O   UNL A   1      51.161  36.796  28.217  1.00  0.00    -0.237 OA
ATOM     62  O   UNL A   1      49.148  37.877  27.271  1.00  0.00    -0.237 OA
ATOM     63  O   UNL A   1      49.234  37.305  29.667  1.00  0.00    -0.744 OA
ENDBRANCH  59  60
ENDBRANCH  40  54
BRANCH  41  64
ATOM     64  C   UNL A   1      43.363  23.829  27.560  1.00  0.00    -0.014 A 
ATOM     65  C   UNL A   1      43.021  23.525  26.224  1.00  0.00     0.010 A 
ATOM     66  C   UNL A   1      42.833  23.000  28.566  1.00  0.00     0.010 A 
ATOM     67  C   UNL A   1      42.414  22.308  25.888  1.00  0.00     0.020 A 
ATOM     68  C   UNL A   1      42.191  21.783  28.226  1.00  0.00     0.020 A 
ATOM     69  C   UNL A   1      42.079  21.393  26.883  1.00  0.00     0.054 A 
BRANCH  69  70
ATOM     70  S   UNL A   1      41.676  19.672  26.347  1.00  0.00     0.124 S 
ATOM     71  O   UNL A   1      42.524  19.512  25.174  1.00  0.00    -0.237 OA
ATOM     72  O   UNL A   1      42.037  18.859  27.507  1.00  0.00    -0.237 OA
ATOM     73  O   UNL A   1      40.247  19.683  26.068  1.00  0.00    -0.744 OA
ENDBRANCH  69  70
ENDBRANCH  41  64
BRANCH  53  74
ATOM     74  C   UNL A   1      48.989  27.107  24.166  1.00  0.00    -0.014 A 
ATOM     75  C   UNL A   1      50.372  26.892  24.130  1.00  0.00     0.010 A 
ATOM     76  C   UNL A   1      48.332  27.329  22.932  1.00  0.00     0.010 A 
ATOM     77  C   UNL A   1      51.082  26.993  22.930  1.00  0.00     0.020 A 
ATOM     78  C   UNL A   1      49.018  27.356  21.722  1.00  0.00     0.020 A 
ATOM     79  C   UNL A   1      50.400  27.235  21.736  1.00  0.00     0.054 A 
BRANCH  79  80
ATOM     80  S   UNL A   1      51.333  27.383  20.200  1.00  0.00     0.124 S 
ATOM     81  O   UNL A   1      50.329  27.004  19.208  1.00  0.00    -0.237 OA
ATOM     82  O   UNL A   1      51.722  28.791  20.192  1.00  0.00    -0.237 OA
ATOM     83  O   UNL A   1      52.433  26.438  20.369  1.00  0.00    -0.744 OA
ENDBRANCH  79  80
ENDBRANCH  53  74
ENDBRANCH  27  28
ENDBRANCH  20  22
ENDBRANCH  19  20
ENDBRANCH   1  19
TORSDOF 15
ENDMDL
MODEL 3
REMARK VINA RESULT:     -11.6      4.468      9.305
REMARK SMILES Cc1cccc(-c2cc(C(=O)OCCOC(=O)c3ccc(-c4c5nc(c(-c6ccc(S(=O)(=O)[O-])cc6)c6ccc([nH]6)c(-c6ccc(S(=O)(=O)[O-])cc6)c6nc(c(-c7ccc(S(=O)(=O)[O-])cc7)c7ccc4[nH]7)C=C6)C=C5)cc3)ccn2)c1
REMARK SMILES IDX 14 1 13 2 12 3 10 4 11 5 9 6 7 7 8 8 80 9 79 10 78 11 6 12
REMARK SMILES IDX 1 13 2 14 3 15 81 16 4 17 5 18 15 19 16 20 17 21 18 22 19 23
REMARK SMILES IDX 77 24 20 25 76 26 21 27 22 28 23 29 70 30 24 31 75 32 69 33
REMARK SMILES IDX 71 34 25 35 74 36 68 37 67 38 26 40 56 41 37 42 55 43 38 44
REMARK SMILES IDX 41 45 54 46 72 47 39 48 40 49 53 51 73 52 42 53 27 54 28 55
REMARK SMILES IDX 36 56 29 57 35 58 30 59 31 60 32 61 33 62 34 63 57 64 58 65
REMARK SMILES IDX 66 66 59 67 65 68 60 69 61 70 62 71 63 72 64 73 43 74 44 75
REMARK SMILES IDX 52 76 45 77 51 78 46 79 47 80 48 81 49 82 50 83
REMARK H PARENT 71 39 41 50
REMARK Flexibility Score: inf
ROOT
ATOM      1  C   UNL A   1      37.150  31.902  30.576  1.00  0.00     0.275 C 
ENDROOT
BRANCH   1   2
ATOM      2  C   UNL A   1      36.050  32.850  30.128  1.00  0.00     0.275 C 
BRANCH   2   3
ATOM      3  O   UNL A   1      35.162  31.991  29.450  1.00  0.00    -0.458 OA
BRANCH   3   4
ATOM      4  C   UNL A   1      35.138  32.202  28.135  1.00  0.00     0.338 C 
ATOM      5  O   UNL A   1      35.675  33.143  27.591  1.00  0.00    -0.246 OA
BRANCH   4   6
ATOM      6  C   UNL A   1      34.431  31.020  27.468  1.00  0.00     0.063 A 
ATOM      7  C   UNL A   1      33.406  28.237  26.111  1.00  0.00     0.071 A 
ATOM      8  C   UNL A   1      34.774  29.114  26.861  1.00  0.00     0.044 A 
ATOM      9  N   UNL A   1      31.899  29.003  25.926  1.00  0.00    -0.256 NA
ATOM     10  C   UNL A   1      31.610  30.608  26.448  1.00  0.00     0.112 A 
ATOM     11  C   UNL A   1      32.763  31.646  27.191  1.00  0.00     0.036 A 
BRANCH   7  12
ATOM     12  C   UNL A   1      33.545  26.961  25.419  1.00  0.00     0.000 A 
ATOM     13  C   UNL A   1      33.841  23.216  26.091  1.00  0.00     0.044 C 
ATOM     14  C   UNL A   1      33.789  24.534  25.378  1.00  0.00    -0.050 A 
ATOM     15  C   UNL A   1      33.974  24.580  23.990  1.00  0.00     0.003 A 
ATOM     16  C   UNL A   1      33.572  25.728  26.082  1.00  0.00     0.013 A 
ATOM     17  C   UNL A   1      33.906  25.794  23.312  1.00  0.00     0.001 A 
ATOM     18  C   UNL A   1      33.680  26.971  24.023  1.00  0.00     0.010 A 
ENDBRANCH   7  12
ENDBRANCH   4   6
ENDBRANCH   3   4
ENDBRANCH   2   3
ENDBRANCH   1   2
BRANCH   1  19
ATOM     19  O   UNL A   1      37.039  30.418  30.341  1.00  0.00    -0.458 OA
BRANCH  19  20
ATOM     20  C   UNL A   1      37.927  29.408  30.051  1.00  0.00     0.338 C 
ATOM     21  O   UNL A   1      37.709  28.238  30.340  1.00  0.00    -0.246 OA
BRANCH  20  22
ATOM     22  C   UNL A   1      39.068  29.713  29.150  1.00  0.00     0.060 A 
ATOM     23  C   UNL A   1      39.097  29.275  27.386  1.00  0.00     0.016 A 
ATOM     24  C   UNL A   1      40.582  29.944  29.977  1.00  0.00     0.016 A 
ATOM     25  C   UNL A   1      40.909  28.929  26.533  1.00  0.00     0.010 A 
ATOM     26  C   UNL A   1      42.128  29.596  29.264  1.00  0.00     0.010 A 
ATOM     27  C   UNL A   1      42.349  29.064  27.600  1.00  0.00    -0.014 A 
BRANCH  27  28
ATOM     28  C   UNL A   1      43.753  28.831  27.370  1.00  0.00     0.031 A 
ATOM     29  C   UNL A   1      44.546  30.018  27.049  1.00  0.00     0.074 A 
ATOM     30  C   UNL A   1      44.317  27.760  27.971  1.00  0.00     0.049 A 
ATOM     31  N   UNL A   1      45.724  29.994  26.543  1.00  0.00    -0.248 NA
ATOM     32  C   UNL A   1      44.019  31.369  27.221  1.00  0.00     0.031 C 
ATOM     33  C   UNL A   1      45.637  27.660  28.588  1.00  0.00     0.029 A 
ATOM     34  N   UNL A   1      43.798  26.506  28.181  1.00  0.00    -0.354 N 
ATOM     35  C   UNL A   1      46.216  31.273  26.675  1.00  0.00     0.074 A 
ATOM     36  C   UNL A   1      45.063  32.111  26.858  1.00  0.00     0.031 C 
ATOM     37  C   UNL A   1      45.876  26.379  28.936  1.00  0.00     0.029 A 
ATOM     38  C   UNL A   1      44.775  25.556  28.453  1.00  0.00     0.049 A 
ATOM     39  H   UNL A   1      42.836  26.302  28.143  1.00  0.00     0.167 HD
ATOM     40  C   UNL A   1      47.551  31.459  26.869  1.00  0.00     0.031 A 
ATOM     41  C   UNL A   1      44.887  24.479  27.618  1.00  0.00     0.031 A 
ATOM     42  C   UNL A   1      48.240  30.163  26.936  1.00  0.00     0.049 A 
ATOM     43  C   UNL A   1      45.992  24.722  26.606  1.00  0.00     0.074 A 
ATOM     44  C   UNL A   1      48.741  29.418  27.992  1.00  0.00     0.029 A 
ATOM     45  N   UNL A   1      48.135  29.285  25.863  1.00  0.00    -0.354 N 
ATOM     46  N   UNL A   1      46.680  25.832  26.569  1.00  0.00    -0.248 NA
ATOM     47  C   UNL A   1      46.446  23.780  25.586  1.00  0.00     0.031 C 
ATOM     48  C   UNL A   1      48.828  28.059  27.566  1.00  0.00     0.029 A 
ATOM     49  C   UNL A   1      48.420  27.985  26.244  1.00  0.00     0.049 A 
ATOM     50  H   UNL A   1      47.890  29.554  24.948  1.00  0.00     0.167 HD
ATOM     51  C   UNL A   1      47.573  25.819  25.546  1.00  0.00     0.074 A 
ATOM     52  C   UNL A   1      47.414  24.493  24.974  1.00  0.00     0.031 C 
ATOM     53  C   UNL A   1      48.340  26.911  25.251  1.00  0.00     0.031 A 
BRANCH  40  54
ATOM     54  C   UNL A   1      48.176  32.773  27.285  1.00  0.00    -0.014 A 
ATOM     55  C   UNL A   1      49.232  33.308  26.523  1.00  0.00     0.010 A 
ATOM     56  C   UNL A   1      47.775  33.545  28.397  1.00  0.00     0.010 A 
ATOM     57  C   UNL A   1      49.859  34.518  26.864  1.00  0.00     0.020 A 
ATOM     58  C   UNL A   1      48.408  34.737  28.770  1.00  0.00     0.020 A 
ATOM     59  C   UNL A   1      49.445  35.224  27.991  1.00  0.00     0.054 A 
BRANCH  59  60
ATOM     60  S   UNL A   1      50.230  36.802  28.399  1.00  0.00     0.124 S 
ATOM     61  O   UNL A   1      50.997  36.470  29.596  1.00  0.00    -0.237 OA
ATOM     62  O   UNL A   1      51.014  37.078  27.199  1.00  0.00    -0.237 OA
ATOM     63  O   UNL A   1      49.101  37.705  28.621  1.00  0.00    -0.744 OA
ENDBRANCH  59  60
ENDBRANCH  40  54
BRANCH  41  64
ATOM     64  C   UNL A   1      43.575  23.760  27.453  1.00  0.00    -0.014 A 
ATOM     65  C   UNL A   1      43.230  23.425  26.125  1.00  0.00     0.010 A 
ATOM     66  C   UNL A   1      43.029  22.967  28.481  1.00  0.00     0.010 A 
ATOM     67  C   UNL A   1      42.602  22.210  25.822  1.00  0.00     0.020 A 
ATOM     68  C   UNL A   1      42.368  21.753  28.172  1.00  0.00     0.020 A 
ATOM     69  C   UNL A   1      42.251  21.329  26.841  1.00  0.00     0.054 A 
BRANCH  69  70
ATOM     70  S   UNL A   1      41.818  19.601  26.351  1.00  0.00     0.124 S 
ATOM     71  O   UNL A   1      40.375  19.686  26.174  1.00  0.00    -0.237 OA
ATOM     72  O   UNL A   1      42.596  19.386  25.133  1.00  0.00    -0.237 OA
ATOM     73  O   UNL A   1      42.246  18.769  27.467  1.00  0.00    -0.744 OA
ENDBRANCH  69  70
ENDBRANCH  41  64
BRANCH  53  74
ATOM     74  C   UNL A   1      49.141  27.066  23.987  1.00  0.00    -0.014 A 
ATOM     75  C   UNL A   1      50.540  27.087  23.952  1.00  0.00     0.010 A 
ATOM     76  C   UNL A   1      48.457  27.056  22.748  1.00  0.00     0.010 A 
ATOM     77  C   UNL A   1      51.224  27.196  22.737  1.00  0.00     0.020 A 
ATOM     78  C   UNL A   1      49.130  27.086  21.530  1.00  0.00     0.020 A 
ATOM     79  C   UNL A   1      50.512  27.205  21.536  1.00  0.00     0.054 A 
BRANCH  79  80
ATOM     80  S   UNL A   1      51.409  27.366  19.979  1.00  0.00     0.124 S 
ATOM     81  O   UNL A   1      51.997  28.697  20.115  1.00  0.00    -0.237 OA
ATOM     82  O   UNL A   1      52.354  26.253  20.034  1.00  0.00    -0.237 OA
ATOM     83  O   UNL A   1      50.367  27.243  18.964  1.00  0.00    -0.744 OA
ENDBRANCH  79  80
ENDBRANCH  53  74
ENDBRANCH  27  28
ENDBRANCH  20  22
ENDBRANCH  19  20
ENDBRANCH   1  19
TORSDOF 15
ENDMDL
