MODEL 1
REMARK VINA RESULT:     -12.0      0.000      0.000
REMARK SMILES CC1=C(CC(=O)OCCOC(=O)c2ccc(-c3c4nc(c(-c5ccc(S(=O)(=O)[O-])cc5)c5ccc([nH]5)c(-c5ccc(S(=O)(=O)[O-])cc5)c5nc(c(-c6ccc(S(=O)(=O)[O-])cc6)c6ccc3[nH]6)C=C5)C=C4)cc2)c2cc(F)ccc2/C1=C\c1ccc([S@@+](C)[O-])cc1
REMARK SMILES IDX 8 1 7 2 5 3 6 4 4 5 3 6 1 7 2 8 80 9 73 10 79 11 81 12 74 13
REMARK SMILES IDX 78 14 75 15 77 16 76 17 82 18 83 19 90 20 84 21 89 22 85 23
REMARK SMILES IDX 86 24 87 25 88 26 9 27 10 28 11 29 12 30 13 31 14 32 72 33
REMARK SMILES IDX 15 34 71 35 16 36 17 37 18 38 65 39 19 40 70 41 64 42 66 43
REMARK SMILES IDX 20 44 69 45 63 46 62 47 21 49 51 50 32 51 50 52 33 53 36 54
REMARK SMILES IDX 49 55 67 56 34 57 35 58 48 60 68 61 37 62 22 63 23 64 31 65
REMARK SMILES IDX 24 66 30 67 25 68 26 69 27 70 28 71 29 72 52 73 53 74 61 75
REMARK SMILES IDX 54 76 60 77 55 78 56 79 57 80 58 81 59 82 38 83 39 84 47 85
REMARK SMILES IDX 40 86 46 87 41 88 42 89 43 90 44 91 45 92
REMARK H PARENT 66 48 36 59
REMARK Flexibility Score: inf
ROOT
ATOM      1  C   UNL A   1      33.097  29.029  25.102  1.00  0.00     0.274 C 
ENDROOT
BRANCH   1   2
ATOM      2  O   UNL A   1      32.013  28.081  25.190  1.00  0.00    -0.462 OA
BRANCH   2   3
ATOM      3  C   UNL A   1      30.936  28.345  24.405  1.00  0.00     0.310 C 
ATOM      4  O   UNL A   1      30.604  29.468  24.037  1.00  0.00    -0.252 OA
BRANCH   3   5
ATOM      5  C   UNL A   1      30.143  27.115  23.988  1.00  0.00     0.159 C 
BRANCH   5   6
ATOM      6  C   UNL A   1      30.856  25.804  23.988  1.00  0.00    -0.025 C 
ATOM      7  C   UNL A   1      30.069  24.891  26.213  1.00  0.00     0.045 C 
ATOM      8  C   UNL A   1      30.820  24.831  24.926  1.00  0.00    -0.039 C 
ATOM      9  C   UNL A   1      31.608  23.674  24.469  1.00  0.00    -0.014 C 
ATOM     10  C   UNL A   1      31.634  25.301  22.845  1.00  0.00    -0.011 A 
ATOM     11  C   UNL A   1      32.109  24.008  23.117  1.00  0.00    -0.010 A 
ATOM     12  C   UNL A   1      31.797  22.545  25.179  1.00  0.00     0.017 C 
ATOM     13  C   UNL A   1      31.882  25.897  21.618  1.00  0.00     0.048 A 
ATOM     14  C   UNL A   1      32.849  23.322  22.158  1.00  0.00     0.012 A 
ATOM     15  C   UNL A   1      32.644  25.213  20.677  1.00  0.00     0.123 A 
ATOM     16  C   UNL A   1      33.132  23.937  20.937  1.00  0.00     0.040 A 
ATOM     17  F   UNL A   1      32.894  25.782  19.492  1.00  0.00    -0.207 F 
BRANCH  12  18
ATOM     18  C   UNL A   1      32.569  21.395  24.707  1.00  0.00    -0.025 A 
ATOM     19  C   UNL A   1      31.973  20.439  23.878  1.00  0.00     0.013 A 
ATOM     20  C   UNL A   1      33.845  21.165  25.226  1.00  0.00     0.013 A 
ATOM     21  C   UNL A   1      32.600  19.206  23.669  1.00  0.00     0.061 A 
ATOM     22  C   UNL A   1      34.479  19.942  24.996  1.00  0.00     0.061 A 
ATOM     23  C   UNL A   1      33.847  18.938  24.251  1.00  0.00     0.152 A 
BRANCH  23  24
ATOM     24  S   UNL A   1      34.570  17.277  24.236  1.00  0.00    -0.018 S 
ATOM     25  C   UNL A   1      33.582  16.483  25.517  1.00  0.00     0.346 C 
ATOM     26  O   UNL A   1      34.181  16.626  22.861  1.00  0.00    -0.612 OA
ENDBRANCH  23  24
ENDBRANCH  12  18
ENDBRANCH   5   6
ENDBRANCH   3   5
ENDBRANCH   2   3
ENDBRANCH   1   2
BRANCH   1  27
ATOM     27  C   UNL A   1      34.145  28.751  26.176  1.00  0.00     0.275 C 
BRANCH  27  28
ATOM     28  O   UNL A   1      33.751  29.383  27.404  1.00  0.00    -0.458 OA
BRANCH  28  29
ATOM     29  C   UNL A   1      34.433  30.506  27.726  1.00  0.00     0.338 C 
ATOM     30  O   UNL A   1      34.022  31.652  27.704  1.00  0.00    -0.246 OA
BRANCH  29  31
ATOM     31  C   UNL A   1      35.810  30.144  28.105  1.00  0.00     0.060 A 
ATOM     32  C   UNL A   1      36.020  29.509  29.327  1.00  0.00     0.016 A 
ATOM     33  C   UNL A   1      36.873  30.343  27.220  1.00  0.00     0.016 A 
ATOM     34  C   UNL A   1      37.310  29.113  29.677  1.00  0.00     0.010 A 
ATOM     35  C   UNL A   1      38.140  29.852  27.528  1.00  0.00     0.010 A 
ATOM     36  C   UNL A   1      38.381  29.267  28.777  1.00  0.00    -0.014 A 
BRANCH  36  37
ATOM     37  C   UNL A   1      39.749  28.840  29.167  1.00  0.00     0.031 A 
ATOM     38  C   UNL A   1      40.578  29.692  30.089  1.00  0.00     0.074 A 
ATOM     39  C   UNL A   1      40.232  27.664  28.720  1.00  0.00     0.049 A 
ATOM     40  N   UNL A   1      41.722  29.408  30.658  1.00  0.00    -0.248 NA
ATOM     41  C   UNL A   1      40.070  31.036  30.409  1.00  0.00     0.031 C 
ATOM     42  C   UNL A   1      39.545  26.778  27.778  1.00  0.00     0.029 A 
ATOM     43  N   UNL A   1      41.393  26.998  29.021  1.00  0.00    -0.354 N 
ATOM     44  C   UNL A   1      42.055  30.524  31.414  1.00  0.00     0.074 A 
ATOM     45  C   UNL A   1      41.039  31.521  31.172  1.00  0.00     0.031 C 
ATOM     46  C   UNL A   1      40.266  25.656  27.629  1.00  0.00     0.029 A 
ATOM     47  C   UNL A   1      41.477  25.752  28.444  1.00  0.00     0.049 A 
ATOM     48  H   UNL A   1      42.099  27.375  29.595  1.00  0.00     0.167 HD
ATOM     49  C   UNL A   1      43.092  30.691  32.267  1.00  0.00     0.031 A 
ATOM     50  C   UNL A   1      42.402  24.781  28.575  1.00  0.00     0.031 A 
ATOM     51  C   UNL A   1      44.103  29.697  32.506  1.00  0.00     0.049 A 
ATOM     52  C   UNL A   1      43.557  24.987  29.514  1.00  0.00     0.074 A 
ATOM     53  C   UNL A   1      45.172  29.755  33.381  1.00  0.00     0.029 A 
ATOM     54  N   UNL A   1      44.171  28.468  31.868  1.00  0.00    -0.354 N 
ATOM     55  N   UNL A   1      43.815  26.020  30.281  1.00  0.00    -0.248 NA
ATOM     56  C   UNL A   1      44.537  23.897  29.621  1.00  0.00     0.031 C 
ATOM     57  C   UNL A   1      45.919  28.585  33.231  1.00  0.00     0.029 A 
ATOM     58  C   UNL A   1      45.281  27.769  32.310  1.00  0.00     0.049 A 
ATOM     59  H   UNL A   1      43.526  28.140  31.201  1.00  0.00     0.167 HD
ATOM     60  C   UNL A   1      44.982  25.703  30.966  1.00  0.00     0.074 A 
ATOM     61  C   UNL A   1      45.370  24.374  30.539  1.00  0.00     0.031 C 
ATOM     62  C   UNL A   1      45.667  26.451  31.865  1.00  0.00     0.031 A 
BRANCH  49  63
ATOM     63  C   UNL A   1      43.168  31.985  33.034  1.00  0.00    -0.014 A 
ATOM     64  C   UNL A   1      43.918  33.064  32.535  1.00  0.00     0.010 A 
ATOM     65  C   UNL A   1      42.551  32.106  34.294  1.00  0.00     0.010 A 
ATOM     66  C   UNL A   1      44.059  34.236  33.283  1.00  0.00     0.020 A 
ATOM     67  C   UNL A   1      42.666  33.286  35.033  1.00  0.00     0.020 A 
ATOM     68  C   UNL A   1      43.436  34.338  34.530  1.00  0.00     0.054 A 
BRANCH  68  69
ATOM     69  S   UNL A   1      43.618  35.870  35.485  1.00  0.00     0.124 S 
ATOM     70  O   UNL A   1      42.941  36.844  34.636  1.00  0.00    -0.237 OA
ATOM     71  O   UNL A   1      42.944  35.548  36.742  1.00  0.00    -0.237 OA
ATOM     72  O   UNL A   1      45.067  36.032  35.593  1.00  0.00    -0.744 OA
ENDBRANCH  68  69
ENDBRANCH  49  63
BRANCH  50  73
ATOM     73  C   UNL A   1      42.205  23.502  27.838  1.00  0.00    -0.014 A 
ATOM     74  C   UNL A   1      41.337  22.516  28.341  1.00  0.00     0.010 A 
ATOM     75  C   UNL A   1      42.983  23.214  26.703  1.00  0.00     0.010 A 
ATOM     76  C   UNL A   1      41.298  21.244  27.765  1.00  0.00     0.020 A 
ATOM     77  C   UNL A   1      42.929  21.949  26.108  1.00  0.00     0.020 A 
ATOM     78  C   UNL A   1      42.112  20.962  26.664  1.00  0.00     0.054 A 
BRANCH  78  79
ATOM     79  S   UNL A   1      42.117  19.278  25.990  1.00  0.00     0.124 S 
ATOM     80  O   UNL A   1      42.969  19.429  24.813  1.00  0.00    -0.237 OA
ATOM     81  O   UNL A   1      42.689  18.496  27.084  1.00  0.00    -0.237 OA
ATOM     82  O   UNL A   1      40.708  19.016  25.711  1.00  0.00    -0.744 OA
ENDBRANCH  78  79
ENDBRANCH  50  73
BRANCH  62  83
ATOM     83  C   UNL A   1      46.933  25.883  32.449  1.00  0.00    -0.014 A 
ATOM     84  C   UNL A   1      48.148  26.018  31.750  1.00  0.00     0.010 A 
ATOM     85  C   UNL A   1      46.891  25.084  33.604  1.00  0.00     0.010 A 
ATOM     86  C   UNL A   1      49.287  25.327  32.170  1.00  0.00     0.020 A 
ATOM     87  C   UNL A   1      48.036  24.411  34.042  1.00  0.00     0.020 A 
ATOM     88  C   UNL A   1      49.219  24.515  33.306  1.00  0.00     0.054 A 
BRANCH  88  89
ATOM     89  S   UNL A   1      50.692  23.582  33.804  1.00  0.00     0.124 S 
ATOM     90  O   UNL A   1      50.190  22.789  34.922  1.00  0.00    -0.237 OA
ATOM     91  O   UNL A   1      51.021  22.830  32.596  1.00  0.00    -0.237 OA
ATOM     92  O   UNL A   1      51.653  24.625  34.159  1.00  0.00    -0.744 OA
ENDBRANCH  88  89
ENDBRANCH  62  83
ENDBRANCH  36  37
ENDBRANCH  29  31
ENDBRANCH  28  29
ENDBRANCH  27  28
ENDBRANCH   1  27
TORSDOF 17
ENDMDL
MODEL 2
REMARK VINA RESULT:     -11.6      6.729     12.803
REMARK SMILES CC1=C(CC(=O)OCCOC(=O)c2ccc(-c3c4nc(c(-c5ccc(S(=O)(=O)[O-])cc5)c5ccc([nH]5)c(-c5ccc(S(=O)(=O)[O-])cc5)c5nc(c(-c6ccc(S(=O)(=O)[O-])cc6)c6ccc3[nH]6)C=C5)C=C4)cc2)c2cc(F)ccc2/C1=C\c1ccc([S@@+](C)[O-])cc1
REMARK SMILES IDX 8 1 7 2 5 3 6 4 4 5 3 6 1 7 2 8 80 9 73 10 79 11 81 12 74 13
REMARK SMILES IDX 78 14 75 15 77 16 76 17 82 18 83 19 90 20 84 21 89 22 85 23
REMARK SMILES IDX 86 24 87 25 88 26 9 27 10 28 11 29 12 30 13 31 14 32 72 33
REMARK SMILES IDX 15 34 71 35 16 36 17 37 18 38 65 39 19 40 70 41 64 42 66 43
REMARK SMILES IDX 20 44 69 45 63 46 62 47 21 49 51 50 32 51 50 52 33 53 36 54
REMARK SMILES IDX 49 55 67 56 34 57 35 58 48 60 68 61 37 62 22 63 23 64 31 65
REMARK SMILES IDX 24 66 30 67 25 68 26 69 27 70 28 71 29 72 52 73 53 74 61 75
REMARK SMILES IDX 54 76 60 77 55 78 56 79 57 80 58 81 59 82 38 83 39 84 47 85
REMARK SMILES IDX 40 86 46 87 41 88 42 89 43 90 44 91 45 92
REMARK H PARENT 66 48 36 59
REMARK Flexibility Score: inf
ROOT
ATOM      1  C   UNL A   1      44.598  23.356  26.049  1.00  0.00     0.274 C 
ENDROOT
BRANCH   1   2
ATOM      2  O   UNL A   1      45.305  24.604  26.210  1.00  0.00    -0.462 OA
BRANCH   2   3
ATOM      3  C   UNL A   1      45.859  24.812  27.433  1.00  0.00     0.310 C 
ATOM      4  O   UNL A   1      46.955  24.382  27.781  1.00  0.00    -0.252 OA
BRANCH   3   5
ATOM      5  C   UNL A   1      45.007  25.649  28.376  1.00  0.00     0.159 C 
BRANCH   5   6
ATOM      6  C   UNL A   1      44.936  25.219  29.803  1.00  0.00    -0.025 C 
ATOM      7  C   UNL A   1      43.246  23.346  29.600  1.00  0.00     0.045 C 
ATOM      8  C   UNL A   1      44.200  24.220  30.342  1.00  0.00    -0.039 C 
ATOM      9  C   UNL A   1      44.511  24.095  31.775  1.00  0.00    -0.014 C 
ATOM     10  C   UNL A   1      45.805  25.760  30.859  1.00  0.00    -0.011 A 
ATOM     11  C   UNL A   1      45.559  25.096  32.072  1.00  0.00    -0.010 A 
ATOM     12  C   UNL A   1      43.931  23.212  32.612  1.00  0.00     0.017 C 
ATOM     13  C   UNL A   1      46.788  26.734  30.779  1.00  0.00     0.048 A 
ATOM     14  C   UNL A   1      46.292  25.427  33.208  1.00  0.00     0.012 A 
ATOM     15  C   UNL A   1      47.497  27.075  31.925  1.00  0.00     0.123 A 
ATOM     16  C   UNL A   1      47.256  26.435  33.137  1.00  0.00     0.040 A 
ATOM     17  F   UNL A   1      48.445  28.017  31.859  1.00  0.00    -0.207 F 
BRANCH  12  18
ATOM     18  C   UNL A   1      44.260  23.086  34.032  1.00  0.00    -0.025 A 
ATOM     19  C   UNL A   1      43.739  23.995  34.959  1.00  0.00     0.013 A 
ATOM     20  C   UNL A   1      45.231  22.167  34.434  1.00  0.00     0.013 A 
ATOM     21  C   UNL A   1      44.275  24.064  36.249  1.00  0.00     0.061 A 
ATOM     22  C   UNL A   1      45.748  22.222  35.729  1.00  0.00     0.061 A 
ATOM     23  C   UNL A   1      45.305  23.195  36.635  1.00  0.00     0.152 A 
BRANCH  23  24
ATOM     24  S   UNL A   1      46.212  23.420  38.187  1.00  0.00    -0.018 S 
ATOM     25  C   UNL A   1      46.091  21.759  38.874  1.00  0.00     0.346 C 
ATOM     26  O   UNL A   1      47.714  23.670  37.803  1.00  0.00    -0.612 OA
ENDBRANCH  23  24
ENDBRANCH  12  18
ENDBRANCH   5   6
ENDBRANCH   3   5
ENDBRANCH   2   3
ENDBRANCH   1   2
BRANCH   1  27
ATOM     27  C   UNL A   1      43.249  23.583  25.372  1.00  0.00     0.275 C 
BRANCH  27  28
ATOM     28  O   UNL A   1      42.423  24.402  26.215  1.00  0.00    -0.458 OA
BRANCH  28  29
ATOM     29  C   UNL A   1      42.249  25.677  25.798  1.00  0.00     0.338 C 
ATOM     30  O   UNL A   1      42.365  26.106  24.664  1.00  0.00    -0.246 OA
BRANCH  29  31
ATOM     31  C   UNL A   1      41.902  26.521  26.954  1.00  0.00     0.060 A 
ATOM     32  C   UNL A   1      41.224  25.942  28.024  1.00  0.00     0.016 A 
ATOM     33  C   UNL A   1      42.325  27.851  27.023  1.00  0.00     0.016 A 
ATOM     34  C   UNL A   1      40.935  26.715  29.148  1.00  0.00     0.010 A 
ATOM     35  C   UNL A   1      42.128  28.588  28.189  1.00  0.00     0.010 A 
ATOM     36  C   UNL A   1      41.395  28.042  29.248  1.00  0.00    -0.014 A 
BRANCH  36  37
ATOM     37  C   UNL A   1      41.076  28.851  30.452  1.00  0.00     0.031 A 
ATOM     38  C   UNL A   1      41.987  28.824  31.650  1.00  0.00     0.074 A 
ATOM     39  C   UNL A   1      39.984  29.641  30.453  1.00  0.00     0.049 A 
ATOM     40  N   UNL A   1      41.953  29.577  32.720  1.00  0.00    -0.248 NA
ATOM     41  C   UNL A   1      43.066  27.822  31.657  1.00  0.00     0.031 C 
ATOM     42  C   UNL A   1      38.997  29.710  29.375  1.00  0.00     0.029 A 
ATOM     43  N   UNL A   1      39.540  30.557  31.374  1.00  0.00    -0.354 N 
ATOM     44  C   UNL A   1      43.013  29.154  33.512  1.00  0.00     0.074 A 
ATOM     45  C   UNL A   1      43.622  28.028  32.842  1.00  0.00     0.031 C 
ATOM     46  C   UNL A   1      38.100  30.666  29.664  1.00  0.00     0.029 A 
ATOM     47  C   UNL A   1      38.433  31.259  30.959  1.00  0.00     0.049 A 
ATOM     48  H   UNL A   1      39.973  30.699  32.247  1.00  0.00     0.167 HD
ATOM     49  C   UNL A   1      43.466  29.680  34.672  1.00  0.00     0.031 A 
ATOM     50  C   UNL A   1      37.774  32.286  31.533  1.00  0.00     0.031 A 
ATOM     51  C   UNL A   1      42.857  30.801  35.338  1.00  0.00     0.049 A 
ATOM     52  C   UNL A   1      38.280  32.849  32.831  1.00  0.00     0.074 A 
ATOM     53  C   UNL A   1      43.264  31.433  36.498  1.00  0.00     0.029 A 
ATOM     54  N   UNL A   1      41.713  31.453  34.903  1.00  0.00    -0.354 N 
ATOM     55  N   UNL A   1      39.331  32.486  33.528  1.00  0.00    -0.248 NA
ATOM     56  C   UNL A   1      37.527  33.968  33.415  1.00  0.00     0.031 C 
ATOM     57  C   UNL A   1      42.335  32.432  36.796  1.00  0.00     0.029 A 
ATOM     58  C   UNL A   1      41.384  32.464  35.788  1.00  0.00     0.049 A 
ATOM     59  H   UNL A   1      41.210  31.230  34.087  1.00  0.00     0.167 HD
ATOM     60  C   UNL A   1      39.369  33.335  34.628  1.00  0.00     0.074 A 
ATOM     61  C   UNL A   1      38.248  34.243  34.496  1.00  0.00     0.031 C 
ATOM     62  C   UNL A   1      40.255  33.354  35.654  1.00  0.00     0.031 A 
BRANCH  49  63
ATOM     63  C   UNL A   1      44.702  29.074  35.283  1.00  0.00    -0.014 A 
ATOM     64  C   UNL A   1      44.592  28.050  36.241  1.00  0.00     0.010 A 
ATOM     65  C   UNL A   1      45.978  29.572  34.958  1.00  0.00     0.010 A 
ATOM     66  C   UNL A   1      45.733  27.543  36.870  1.00  0.00     0.020 A 
ATOM     67  C   UNL A   1      47.123  29.049  35.565  1.00  0.00     0.020 A 
ATOM     68  C   UNL A   1      46.991  28.049  36.531  1.00  0.00     0.054 A 
BRANCH  68  69
ATOM     69  S   UNL A   1      48.463  27.373  37.348  1.00  0.00     0.124 S 
ATOM     70  O   UNL A   1      49.263  28.571  37.583  1.00  0.00    -0.237 OA
ATOM     71  O   UNL A   1      47.907  26.738  38.541  1.00  0.00    -0.237 OA
ATOM     72  O   UNL A   1      49.004  26.444  36.357  1.00  0.00    -0.744 OA
ENDBRANCH  68  69
ENDBRANCH  49  63
BRANCH  50  73
ATOM     73  C   UNL A   1      36.608  32.875  30.820  1.00  0.00    -0.014 A 
ATOM     74  C   UNL A   1      36.804  33.745  29.732  1.00  0.00     0.010 A 
ATOM     75  C   UNL A   1      35.305  32.673  31.308  1.00  0.00     0.010 A 
ATOM     76  C   UNL A   1      35.729  34.453  29.186  1.00  0.00     0.020 A 
ATOM     77  C   UNL A   1      34.223  33.361  30.749  1.00  0.00     0.020 A 
ATOM     78  C   UNL A   1      34.448  34.272  29.715  1.00  0.00     0.054 A 
BRANCH  78  79
ATOM     79  S   UNL A   1      33.083  35.270  29.056  1.00  0.00     0.124 S 
ATOM     80  O   UNL A   1      32.288  35.518  30.256  1.00  0.00    -0.237 OA
ATOM     81  O   UNL A   1      33.774  36.436  28.507  1.00  0.00    -0.237 OA
ATOM     82  O   UNL A   1      32.464  34.394  28.066  1.00  0.00    -0.744 OA
ENDBRANCH  78  79
ENDBRANCH  50  73
BRANCH  62  83
ATOM     83  C   UNL A   1      40.056  34.366  36.750  1.00  0.00    -0.014 A 
ATOM     84  C   UNL A   1      40.710  35.611  36.680  1.00  0.00     0.010 A 
ATOM     85  C   UNL A   1      39.355  34.025  37.919  1.00  0.00     0.010 A 
ATOM     86  C   UNL A   1      40.703  36.478  37.775  1.00  0.00     0.020 A 
ATOM     87  C   UNL A   1      39.325  34.901  39.009  1.00  0.00     0.020 A 
ATOM     88  C   UNL A   1      40.022  36.110  38.939  1.00  0.00     0.054 A 
BRANCH  88  89
ATOM     89  S   UNL A   1      40.071  37.222  40.370  1.00  0.00     0.124 S 
ATOM     90  O   UNL A   1      40.477  36.322  41.446  1.00  0.00    -0.237 OA
ATOM     91  O   UNL A   1      41.064  38.217  39.972  1.00  0.00    -0.237 OA
ATOM     92  O   UNL A   1      38.701  37.724  40.460  1.00  0.00    -0.744 OA
ENDBRANCH  88  89
ENDBRANCH  62  83
ENDBRANCH  36  37
ENDBRANCH  29  31
ENDBRANCH  28  29
ENDBRANCH  27  28
ENDBRANCH   1  27
TORSDOF 17
ENDMDL
MODEL 3
REMARK VINA RESULT:     -11.3      2.049      8.358
REMARK SMILES CC1=C(CC(=O)OCCOC(=O)c2ccc(-c3c4nc(c(-c5ccc(S(=O)(=O)[O-])cc5)c5ccc([nH]5)c(-c5ccc(S(=O)(=O)[O-])cc5)c5nc(c(-c6ccc(S(=O)(=O)[O-])cc6)c6ccc3[nH]6)C=C5)C=C4)cc2)c2cc(F)ccc2/C1=C\c1ccc([S@@+](C)[O-])cc1
REMARK SMILES IDX 8 1 7 2 5 3 6 4 4 5 3 6 1 7 2 8 80 9 73 10 79 11 81 12 74 13
REMARK SMILES IDX 78 14 75 15 77 16 76 17 82 18 83 19 90 20 84 21 89 22 85 23
REMARK SMILES IDX 86 24 87 25 88 26 9 27 10 28 11 29 12 30 13 31 14 32 72 33
REMARK SMILES IDX 15 34 71 35 16 36 17 37 18 38 65 39 19 40 70 41 64 42 66 43
REMARK SMILES IDX 20 44 69 45 63 46 62 47 21 49 51 50 32 51 50 52 33 53 36 54
REMARK SMILES IDX 49 55 67 56 34 57 35 58 48 60 68 61 37 62 22 63 23 64 31 65
REMARK SMILES IDX 24 66 30 67 25 68 26 69 27 70 28 71 29 72 52 73 53 74 61 75
REMARK SMILES IDX 54 76 60 77 55 78 56 79 57 80 58 81 59 82 38 83 39 84 47 85
REMARK SMILES IDX 40 86 46 87 41 88 42 89 43 90 44 91 45 92
REMARK H PARENT 66 48 36 59
REMARK Flexibility Score: inf
ROOT
ATOM      1  C   UNL A   1      32.328  28.441  25.657  1.00  0.00     0.274 C 
ENDROOT
BRANCH   1   2
ATOM      2  O   UNL A   1      32.558  28.127  24.267  1.00  0.00    -0.462 OA
BRANCH   2   3
ATOM      3  C   UNL A   1      33.381  27.073  24.031  1.00  0.00     0.310 C 
ATOM      4  O   UNL A   1      33.750  26.716  22.916  1.00  0.00    -0.252 OA
BRANCH   3   5
ATOM      5  C   UNL A   1      33.841  26.340  25.283  1.00  0.00     0.159 C 
BRANCH   5   6
ATOM      6  C   UNL A   1      33.766  24.850  25.274  1.00  0.00    -0.025 C 
ATOM      7  C   UNL A   1      31.315  24.551  24.716  1.00  0.00     0.045 C 
ATOM      8  C   UNL A   1      32.695  24.067  25.014  1.00  0.00    -0.039 C 
ATOM      9  C   UNL A   1      33.101  22.652  25.029  1.00  0.00    -0.014 C 
ATOM     10  C   UNL A   1      34.939  23.975  25.421  1.00  0.00    -0.011 A 
ATOM     11  C   UNL A   1      34.559  22.631  25.284  1.00  0.00    -0.010 A 
ATOM     12  C   UNL A   1      32.267  21.612  24.832  1.00  0.00     0.017 C 
ATOM     13  C   UNL A   1      36.271  24.312  25.614  1.00  0.00     0.048 A 
ATOM     14  C   UNL A   1      35.517  21.624  25.358  1.00  0.00     0.012 A 
ATOM     15  C   UNL A   1      37.216  23.297  25.713  1.00  0.00     0.123 A 
ATOM     16  C   UNL A   1      36.852  21.961  25.591  1.00  0.00     0.040 A 
ATOM     17  F   UNL A   1      38.503  23.612  25.904  1.00  0.00    -0.207 F 
BRANCH  12  18
ATOM     18  C   UNL A   1      32.686  20.210  24.834  1.00  0.00    -0.025 A 
ATOM     19  C   UNL A   1      32.835  19.517  23.628  1.00  0.00     0.013 A 
ATOM     20  C   UNL A   1      32.768  19.519  26.045  1.00  0.00     0.013 A 
ATOM     21  C   UNL A   1      32.943  18.122  23.631  1.00  0.00     0.061 A 
ATOM     22  C   UNL A   1      32.898  18.129  26.046  1.00  0.00     0.061 A 
ATOM     23  C   UNL A   1      32.946  17.415  24.841  1.00  0.00     0.152 A 
BRANCH  23  24
ATOM     24  S   UNL A   1      32.811  15.609  24.892  1.00  0.00    -0.018 S 
ATOM     25  C   UNL A   1      34.545  15.160  25.077  1.00  0.00     0.346 C 
ATOM     26  O   UNL A   1      32.078  15.246  26.233  1.00  0.00    -0.612 OA
ENDBRANCH  23  24
ENDBRANCH  12  18
ENDBRANCH   5   6
ENDBRANCH   3   5
ENDBRANCH   2   3
ENDBRANCH   1   2
BRANCH   1  27
ATOM     27  C   UNL A   1      33.110  29.687  26.065  1.00  0.00     0.275 C 
BRANCH  27  28
ATOM     28  O   UNL A   1      34.096  29.331  27.047  1.00  0.00    -0.458 OA
BRANCH  28  29
ATOM     29  C   UNL A   1      34.543  30.349  27.818  1.00  0.00     0.338 C 
ATOM     30  O   UNL A   1      33.937  31.357  28.134  1.00  0.00    -0.246 OA
BRANCH  29  31
ATOM     31  C   UNL A   1      35.930  30.072  28.229  1.00  0.00     0.060 A 
ATOM     32  C   UNL A   1      36.162  29.602  29.520  1.00  0.00     0.016 A 
ATOM     33  C   UNL A   1      36.983  30.184  27.318  1.00  0.00     0.016 A 
ATOM     34  C   UNL A   1      37.464  29.285  29.907  1.00  0.00     0.010 A 
ATOM     35  C   UNL A   1      38.264  29.766  27.675  1.00  0.00     0.010 A 
ATOM     36  C   UNL A   1      38.526  29.351  28.986  1.00  0.00    -0.014 A 
BRANCH  36  37
ATOM     37  C   UNL A   1      39.906  29.011  29.416  1.00  0.00     0.031 A 
ATOM     38  C   UNL A   1      40.504  27.674  29.070  1.00  0.00     0.074 A 
ATOM     39  C   UNL A   1      40.638  29.922  30.087  1.00  0.00     0.049 A 
ATOM     40  N   UNL A   1      41.737  27.265  29.224  1.00  0.00    -0.248 NA
ATOM     41  C   UNL A   1      39.607  26.663  28.486  1.00  0.00     0.031 C 
ATOM     42  C   UNL A   1      40.150  31.231  30.529  1.00  0.00     0.029 A 
ATOM     43  N   UNL A   1      41.951  29.902  30.487  1.00  0.00    -0.354 N 
ATOM     44  C   UNL A   1      41.766  25.963  28.740  1.00  0.00     0.074 A 
ATOM     45  C   UNL A   1      40.415  25.620  28.361  1.00  0.00     0.031 C 
ATOM     46  C   UNL A   1      41.167  31.913  31.078  1.00  0.00     0.029 A 
ATOM     47  C   UNL A   1      42.371  31.084  31.052  1.00  0.00     0.049 A 
ATOM     48  H   UNL A   1      42.536  29.117  30.379  1.00  0.00     0.167 HD
ATOM     49  C   UNL A   1      42.828  25.140  28.584  1.00  0.00     0.031 A 
ATOM     50  C   UNL A   1      43.591  31.473  31.473  1.00  0.00     0.031 A 
ATOM     51  C   UNL A   1      44.172  25.484  28.964  1.00  0.00     0.049 A 
ATOM     52  C   UNL A   1      44.758  30.542  31.309  1.00  0.00     0.074 A 
ATOM     53  C   UNL A   1      45.324  24.734  28.811  1.00  0.00     0.029 A 
ATOM     54  N   UNL A   1      44.544  26.674  29.570  1.00  0.00    -0.354 N 
ATOM     55  N   UNL A   1      44.781  29.343  30.777  1.00  0.00    -0.248 NA
ATOM     56  C   UNL A   1      46.066  31.016  31.784  1.00  0.00     0.031 C 
ATOM     57  C   UNL A   1      46.383  25.447  29.377  1.00  0.00     0.029 A 
ATOM     58  C   UNL A   1      45.904  26.668  29.824  1.00  0.00     0.049 A 
ATOM     59  H   UNL A   1      43.931  27.414  29.788  1.00  0.00     0.167 HD
ATOM     60  C   UNL A   1      46.103  28.921  30.848  1.00  0.00     0.074 A 
ATOM     61  C   UNL A   1      46.855  30.000  31.455  1.00  0.00     0.031 C 
ATOM     62  C   UNL A   1      46.641  27.743  30.445  1.00  0.00     0.031 A 
BRANCH  49  63
ATOM     63  C   UNL A   1      42.588  23.797  27.946  1.00  0.00    -0.014 A 
ATOM     64  C   UNL A   1      42.310  22.672  28.741  1.00  0.00     0.010 A 
ATOM     65  C   UNL A   1      42.712  23.637  26.552  1.00  0.00     0.010 A 
ATOM     66  C   UNL A   1      42.169  21.409  28.158  1.00  0.00     0.020 A 
ATOM     67  C   UNL A   1      42.545  22.381  25.963  1.00  0.00     0.020 A 
ATOM     68  C   UNL A   1      42.292  21.271  26.772  1.00  0.00     0.054 A 
BRANCH  68  69
ATOM     69  S   UNL A   1      42.095  19.628  26.028  1.00  0.00     0.124 S 
ATOM     70  O   UNL A   1      42.531  18.748  27.107  1.00  0.00    -0.237 OA
ATOM     71  O   UNL A   1      40.669  19.586  25.713  1.00  0.00    -0.237 OA
ATOM     72  O   UNL A   1      42.977  19.676  24.863  1.00  0.00    -0.744 OA
ENDBRANCH  68  69
ENDBRANCH  49  63
BRANCH  50  73
ATOM     73  C   UNL A   1      43.751  32.849  32.021  1.00  0.00    -0.014 A 
ATOM     74  C   UNL A   1      43.521  33.104  33.385  1.00  0.00     0.010 A 
ATOM     75  C   UNL A   1      44.006  33.928  31.157  1.00  0.00     0.010 A 
ATOM     76  C   UNL A   1      43.476  34.417  33.864  1.00  0.00     0.020 A 
ATOM     77  C   UNL A   1      43.986  35.242  31.636  1.00  0.00     0.020 A 
ATOM     78  C   UNL A   1      43.687  35.478  32.980  1.00  0.00     0.054 A 
BRANCH  78  79
ATOM     79  S   UNL A   1      43.531  37.176  33.601  1.00  0.00     0.124 S 
ATOM     80  O   UNL A   1      44.719  37.298  34.443  1.00  0.00    -0.237 OA
ATOM     81  O   UNL A   1      43.547  37.969  32.373  1.00  0.00    -0.237 OA
ATOM     82  O   UNL A   1      42.258  37.164  34.315  1.00  0.00    -0.744 OA
ENDBRANCH  78  79
ENDBRANCH  50  73
BRANCH  62  83
ATOM     83  C   UNL A   1      48.113  27.519  30.662  1.00  0.00    -0.014 A 
ATOM     84  C   UNL A   1      49.036  27.939  29.685  1.00  0.00     0.010 A 
ATOM     85  C   UNL A   1      48.566  26.754  31.750  1.00  0.00     0.010 A 
ATOM     86  C   UNL A   1      50.379  27.561  29.770  1.00  0.00     0.020 A 
ATOM     87  C   UNL A   1      49.914  26.395  31.852  1.00  0.00     0.020 A 
ATOM     88  C   UNL A   1      50.805  26.778  30.846  1.00  0.00     0.054 A 
BRANCH  88  89
ATOM     89  S   UNL A   1      52.539  26.250  30.911  1.00  0.00     0.124 S 
ATOM     90  O   UNL A   1      52.454  25.008  31.674  1.00  0.00    -0.237 OA
ATOM     91  O   UNL A   1      52.883  26.100  29.499  1.00  0.00    -0.237 OA
ATOM     92  O   UNL A   1      53.208  27.357  31.592  1.00  0.00    -0.744 OA
ENDBRANCH  88  89
ENDBRANCH  62  83
ENDBRANCH  36  37
ENDBRANCH  29  31
ENDBRANCH  28  29
ENDBRANCH  27  28
ENDBRANCH   1  27
TORSDOF 17
ENDMDL
