MODEL 1
REMARK VINA RESULT:     -11.8      0.000      0.000
REMARK SMILES O=C(OCCOC(=O)c1ccc(-c2c3nc(c(-c4ccc(S(=O)(=O)[O-])cc4)c4ccc([nH]4)c(-c4ccc(S(=O)(=O)[O-])cc4)c4nc(c(-c5ccc(S(=O)(=O)[O-])cc5)c5ccc2[nH]5)C=C4)C=C3)cc1)C1=Cc2cc(S(F)(F)(F)(F)F)cc(Br)c2O[C@@H]1C(F)(F)F
REMARK SMILES IDX 5 1 4 2 3 3 2 4 1 5 69 6 70 7 85 8 71 9 84 10 72 11 83 12
REMARK SMILES IDX 73 13 81 14 80 15 82 16 86 17 87 18 88 19 89 20 74 21 75 22
REMARK SMILES IDX 76 23 77 24 78 25 79 26 6 27 7 28 8 29 9 30 10 31 68 32
REMARK SMILES IDX 11 33 67 34 12 35 13 36 14 37 61 38 15 39 66 40 60 41 62 42
REMARK SMILES IDX 16 43 65 44 59 45 58 46 17 48 47 49 28 50 46 51 29 52 32 53
REMARK SMILES IDX 45 54 63 55 30 56 31 57 44 59 64 60 33 61 18 62 19 63 27 64
REMARK SMILES IDX 20 65 26 66 21 67 22 68 23 69 24 70 25 71 48 72 49 73 57 74
REMARK SMILES IDX 50 75 56 76 51 77 52 78 53 79 54 80 55 81 34 82 35 83 43 84
REMARK SMILES IDX 36 85 42 86 37 87 38 88 39 89 40 90 41 91
REMARK H PARENT 62 47 32 58
REMARK Flexibility Score: inf
ROOT
ATOM      1  C   UNL A   1      34.786  29.710  27.893  1.00  0.00     0.275 C 
ENDROOT
BRANCH   1   2
ATOM      2  C   UNL A   1      34.312  28.833  26.743  1.00  0.00     0.275 C 
BRANCH   2   3
ATOM      3  O   UNL A   1      33.322  27.930  27.214  1.00  0.00    -0.459 OA
BRANCH   3   4
ATOM      4  C   UNL A   1      32.062  27.855  26.562  1.00  0.00     0.338 C 
ATOM      5  O   UNL A   1      31.013  27.602  27.233  1.00  0.00    -0.246 OA
BRANCH   4   6
ATOM      6  C   UNL A   1      31.968  28.078  25.061  1.00  0.00     0.087 C 
ATOM      7  C   UNL A   1      32.471  27.149  24.202  1.00  0.00     0.027 C 
ATOM      8  C   UNL A   1      31.313  29.337  24.519  1.00  0.00     0.316 C 
ATOM      9  C   UNL A   1      33.126  25.889  24.745  1.00  0.00     0.020 A 
ATOM     10  O   UNL A   1      31.403  25.779  26.378  1.00  0.00    -0.474 OA
ATOM     11  C   UNL A   1      34.320  25.453  24.196  1.00  0.00     0.036 A 
ATOM     12  C   UNL A   1      32.537  25.222  25.730  1.00  0.00     0.142 A 
ATOM     13  C   UNL A   1      34.672  24.133  24.563  1.00  0.00     0.109 A 
ATOM     14  C   UNL A   1      33.015  23.998  26.130  1.00  0.00     0.062 A 
ATOM     15  C   UNL A   1      34.158  23.478  25.587  1.00  0.00     0.044 A 
ATOM     16  Br  UNL A   1      32.045  22.980  27.496  1.00  0.00    -0.047 Br
BRANCH   8  17
ATOM     17  C   UNL A   1      30.124  28.957  23.653  1.00  0.00     0.430 C 
ATOM     18  F   UNL A   1      29.210  29.921  23.705  1.00  0.00    -0.167 F 
ATOM     19  F   UNL A   1      30.526  28.795  22.394  1.00  0.00    -0.167 F 
ATOM     20  F   UNL A   1      29.595  27.820  24.098  1.00  0.00    -0.167 F 
ENDBRANCH   8  17
BRANCH  13  21
ATOM     21  S   UNL A   1      35.912  23.280  23.556  1.00  0.00     0.310 S 
ATOM     22  F   UNL A   1      35.688  21.913  24.327  1.00  0.00    -0.094 F 
ATOM     23  F   UNL A   1      36.997  23.636  24.642  1.00  0.00    -0.094 F 
ATOM     24  F   UNL A   1      36.977  22.549  22.691  1.00  0.00    -0.094 F 
ATOM     25  F   UNL A   1      34.787  22.815  22.551  1.00  0.00    -0.094 F 
ATOM     26  F   UNL A   1      34.801  23.922  24.479  1.00  0.00    -0.094 F 
ENDBRANCH  13  21
ENDBRANCH   4   6
ENDBRANCH   3   4
ENDBRANCH   2   3
ENDBRANCH   1   2
BRANCH   1  27
ATOM     27  O   UNL A   1      36.179  29.950  27.760  1.00  0.00    -0.458 OA
BRANCH  27  28
ATOM     28  C   UNL A   1      37.071  29.533  28.783  1.00  0.00     0.338 C 
ATOM     29  O   UNL A   1      36.634  29.297  29.953  1.00  0.00    -0.246 OA
BRANCH  28  30
ATOM     30  C   UNL A   1      38.552  29.368  28.478  1.00  0.00     0.060 A 
ATOM     31  C   UNL A   1      38.989  29.441  27.166  1.00  0.00     0.016 A 
ATOM     32  C   UNL A   1      39.404  29.173  29.477  1.00  0.00     0.016 A 
ATOM     33  C   UNL A   1      40.322  29.006  26.980  1.00  0.00     0.010 A 
ATOM     34  C   UNL A   1      40.724  28.885  29.226  1.00  0.00     0.010 A 
ATOM     35  C   UNL A   1      41.211  28.882  27.948  1.00  0.00    -0.014 A 
BRANCH  35  36
ATOM     36  C   UNL A   1      42.697  28.744  27.659  1.00  0.00     0.031 A 
ATOM     37  C   UNL A   1      43.508  29.863  27.853  1.00  0.00     0.074 A 
ATOM     38  C   UNL A   1      43.161  27.522  27.203  1.00  0.00     0.049 A 
ATOM     39  N   UNL A   1      44.827  29.952  27.678  1.00  0.00    -0.248 NA
ATOM     40  C   UNL A   1      43.012  31.172  28.304  1.00  0.00     0.031 C 
ATOM     41  C   UNL A   1      42.350  26.386  27.012  1.00  0.00     0.029 A 
ATOM     42  N   UNL A   1      44.450  27.181  26.858  1.00  0.00    -0.354 N 
ATOM     43  C   UNL A   1      45.251  31.180  27.984  1.00  0.00     0.074 A 
ATOM     44  C   UNL A   1      44.088  31.984  28.385  1.00  0.00     0.031 C 
ATOM     45  C   UNL A   1      43.137  25.379  26.548  1.00  0.00     0.029 A 
ATOM     46  C   UNL A   1      44.453  25.869  26.442  1.00  0.00     0.049 A 
ATOM     47  H   UNL A   1      45.235  27.775  26.902  1.00  0.00     0.167 HD
ATOM     48  C   UNL A   1      46.562  31.660  27.946  1.00  0.00     0.031 A 
ATOM     49  C   UNL A   1      45.531  25.125  25.990  1.00  0.00     0.031 A 
ATOM     50  C   UNL A   1      47.645  30.902  27.535  1.00  0.00     0.049 A 
ATOM     51  C   UNL A   1      46.832  25.622  25.897  1.00  0.00     0.074 A 
ATOM     52  C   UNL A   1      48.974  31.368  27.498  1.00  0.00     0.029 A 
ATOM     53  N   UNL A   1      47.644  29.596  27.095  1.00  0.00    -0.354 N 
ATOM     54  N   UNL A   1      47.262  26.838  26.239  1.00  0.00    -0.248 NA
ATOM     55  C   UNL A   1      47.976  24.852  25.388  1.00  0.00     0.031 C 
ATOM     56  C   UNL A   1      49.762  30.362  27.033  1.00  0.00     0.029 A 
ATOM     57  C   UNL A   1      48.938  29.250  26.772  1.00  0.00     0.049 A 
ATOM     58  H   UNL A   1      46.856  29.012  27.024  1.00  0.00     0.167 HD
ATOM     59  C   UNL A   1      48.575  26.938  26.025  1.00  0.00     0.074 A 
ATOM     60  C   UNL A   1      49.052  25.666  25.467  1.00  0.00     0.031 C 
ATOM     61  C   UNL A   1      49.395  28.040  26.275  1.00  0.00     0.031 A 
BRANCH  48  62
ATOM     62  C   UNL A   1      46.812  33.095  28.379  1.00  0.00    -0.014 A 
ATOM     63  C   UNL A   1      46.767  34.118  27.445  1.00  0.00     0.010 A 
ATOM     64  C   UNL A   1      47.091  33.339  29.654  1.00  0.00     0.010 A 
ATOM     65  C   UNL A   1      47.319  35.337  27.903  1.00  0.00     0.020 A 
ATOM     66  C   UNL A   1      47.495  34.590  30.055  1.00  0.00     0.020 A 
ATOM     67  C   UNL A   1      47.530  35.634  29.173  1.00  0.00     0.054 A 
BRANCH  67  68
ATOM     68  S   UNL A   1      47.849  37.330  29.716  1.00  0.00     0.124 S 
ATOM     69  O   UNL A   1      46.610  38.190  29.457  1.00  0.00    -0.237 OA
ATOM     70  O   UNL A   1      48.168  37.336  31.214  1.00  0.00    -0.237 OA
ATOM     71  O   UNL A   1      49.177  37.967  28.848  1.00  0.00    -0.744 OA
ENDBRANCH  67  68
ENDBRANCH  48  62
BRANCH  49  72
ATOM     72  C   UNL A   1      45.282  23.684  25.573  1.00  0.00    -0.014 A 
ATOM     73  C   UNL A   1      45.505  22.649  26.466  1.00  0.00     0.010 A 
ATOM     74  C   UNL A   1      44.847  23.449  24.340  1.00  0.00     0.010 A 
ATOM     75  C   UNL A   1      45.512  21.366  25.867  1.00  0.00     0.020 A 
ATOM     76  C   UNL A   1      44.750  22.163  23.866  1.00  0.00     0.020 A 
ATOM     77  C   UNL A   1      45.012  21.093  24.677  1.00  0.00     0.054 A 
BRANCH  77  78
ATOM     78  S   UNL A   1      44.689  19.393  24.146  1.00  0.00     0.124 S 
ATOM     79  O   UNL A   1      45.806  18.479  24.656  1.00  0.00    -0.237 OA
ATOM     80  O   UNL A   1      43.348  18.926  24.715  1.00  0.00    -0.237 OA
ATOM     81  O   UNL A   1      44.636  19.330  22.438  1.00  0.00    -0.744 OA
ENDBRANCH  77  78
ENDBRANCH  49  72
BRANCH  61  82
ATOM     82  C   UNL A   1      50.881  27.903  25.984  1.00  0.00    -0.014 A 
ATOM     83  C   UNL A   1      51.735  27.478  26.989  1.00  0.00     0.010 A 
ATOM     84  C   UNL A   1      51.333  28.176  24.766  1.00  0.00     0.010 A 
ATOM     85  C   UNL A   1      53.106  27.652  26.686  1.00  0.00     0.020 A 
ATOM     86  C   UNL A   1      52.682  28.195  24.508  1.00  0.00     0.020 A 
ATOM     87  C   UNL A   1      53.587  27.844  25.471  1.00  0.00     0.054 A 
BRANCH  87  88
ATOM     88  S   UNL A   1      55.348  27.654  25.101  1.00  0.00     0.124 S 
ATOM     89  O   UNL A   1      55.951  29.021  24.772  1.00  0.00    -0.237 OA
ATOM     90  O   UNL A   1      56.065  27.060  26.317  1.00  0.00    -0.237 OA
ATOM     91  O   UNL A   1      55.540  26.610  23.760  1.00  0.00    -0.744 OA
ENDBRANCH  87  88
ENDBRANCH  61  82
ENDBRANCH  35  36
ENDBRANCH  28  30
ENDBRANCH  27  28
ENDBRANCH   1  27
TORSDOF 16
ENDMDL
MODEL 2
REMARK VINA RESULT:     -11.7      7.418     12.666
REMARK SMILES O=C(OCCOC(=O)c1ccc(-c2c3nc(c(-c4ccc(S(=O)(=O)[O-])cc4)c4ccc([nH]4)c(-c4ccc(S(=O)(=O)[O-])cc4)c4nc(c(-c5ccc(S(=O)(=O)[O-])cc5)c5ccc2[nH]5)C=C4)C=C3)cc1)C1=Cc2cc(S(F)(F)(F)(F)F)cc(Br)c2O[C@@H]1C(F)(F)F
REMARK SMILES IDX 5 1 4 2 3 3 2 4 1 5 69 6 70 7 85 8 71 9 84 10 72 11 83 12
REMARK SMILES IDX 73 13 81 14 80 15 82 16 86 17 87 18 88 19 89 20 74 21 75 22
REMARK SMILES IDX 76 23 77 24 78 25 79 26 6 27 7 28 8 29 9 30 10 31 68 32
REMARK SMILES IDX 11 33 67 34 12 35 13 36 14 37 61 38 15 39 66 40 60 41 62 42
REMARK SMILES IDX 16 43 65 44 59 45 58 46 17 48 47 49 28 50 46 51 29 52 32 53
REMARK SMILES IDX 45 54 63 55 30 56 31 57 44 59 64 60 33 61 18 62 19 63 27 64
REMARK SMILES IDX 20 65 26 66 21 67 22 68 23 69 24 70 25 71 48 72 49 73 57 74
REMARK SMILES IDX 50 75 56 76 51 77 52 78 53 79 54 80 55 81 34 82 35 83 43 84
REMARK SMILES IDX 36 85 42 86 37 87 38 88 39 89 40 90 41 91
REMARK H PARENT 62 47 32 58
REMARK Flexibility Score: inf
ROOT
ATOM      1  C   UNL A   1      38.007  24.371  26.649  1.00  0.00     0.275 C 
ENDROOT
BRANCH   1   2
ATOM      2  C   UNL A   1      37.844  23.592  25.353  1.00  0.00     0.275 C 
BRANCH   2   3
ATOM      3  O   UNL A   1      36.637  23.982  24.715  1.00  0.00    -0.459 OA
BRANCH   3   4
ATOM      4  C   UNL A   1      35.812  23.005  24.097  1.00  0.00     0.338 C 
ATOM      5  O   UNL A   1      35.938  22.760  22.856  1.00  0.00    -0.246 OA
BRANCH   4   6
ATOM      6  C   UNL A   1      34.778  22.252  24.919  1.00  0.00     0.087 C 
ATOM      7  C   UNL A   1      33.711  22.915  25.443  1.00  0.00     0.027 C 
ATOM      8  C   UNL A   1      34.936  20.760  25.155  1.00  0.00     0.316 C 
ATOM      9  C   UNL A   1      33.553  24.409  25.205  1.00  0.00     0.020 A 
ATOM     10  O   UNL A   1      34.266  24.057  22.965  1.00  0.00    -0.474 OA
ATOM     11  C   UNL A   1      33.200  25.231  26.261  1.00  0.00     0.036 A 
ATOM     12  C   UNL A   1      33.749  24.898  23.986  1.00  0.00     0.142 A 
ATOM     13  C   UNL A   1      32.791  26.527  25.866  1.00  0.00     0.109 A 
ATOM     14  C   UNL A   1      33.456  26.210  23.704  1.00  0.00     0.062 A 
ATOM     15  C   UNL A   1      33.044  27.066  24.688  1.00  0.00     0.044 A 
ATOM     16  Br  UNL A   1      33.630  26.865  21.865  1.00  0.00    -0.047 Br
BRANCH   8  17
ATOM     17  C   UNL A   1      33.733  20.027  24.586  1.00  0.00     0.430 C 
ATOM     18  F   UNL A   1      34.117  18.844  24.113  1.00  0.00    -0.167 F 
ATOM     19  F   UNL A   1      32.828  19.848  25.545  1.00  0.00    -0.167 F 
ATOM     20  F   UNL A   1      33.200  20.745  23.602  1.00  0.00    -0.167 F 
ENDBRANCH   8  17
BRANCH  13  21
ATOM     21  S   UNL A   1      31.855  27.516  27.060  1.00  0.00     0.310 S 
ATOM     22  F   UNL A   1      31.621  28.677  26.007  1.00  0.00    -0.094 F 
ATOM     23  F   UNL A   1      33.193  28.243  27.463  1.00  0.00    -0.094 F 
ATOM     24  F   UNL A   1      31.051  28.364  28.086  1.00  0.00    -0.094 F 
ATOM     25  F   UNL A   1      30.507  26.875  26.545  1.00  0.00    -0.094 F 
ATOM     26  F   UNL A   1      32.641  26.728  25.937  1.00  0.00    -0.094 F 
ENDBRANCH  13  21
ENDBRANCH   4   6
ENDBRANCH   3   4
ENDBRANCH   2   3
ENDBRANCH   1   2
BRANCH   1  27
ATOM     27  O   UNL A   1      39.388  24.485  26.961  1.00  0.00    -0.458 OA
BRANCH  27  28
ATOM     28  C   UNL A   1      40.023  25.755  26.917  1.00  0.00     0.338 C 
ATOM     29  O   UNL A   1      40.527  26.177  25.830  1.00  0.00    -0.246 OA
BRANCH  28  30
ATOM     30  C   UNL A   1      40.100  26.608  28.173  1.00  0.00     0.060 A 
ATOM     31  C   UNL A   1      39.312  26.284  29.266  1.00  0.00     0.016 A 
ATOM     32  C   UNL A   1      40.933  27.642  28.207  1.00  0.00     0.016 A 
ATOM     33  C   UNL A   1      39.265  27.292  30.257  1.00  0.00     0.010 A 
ATOM     34  C   UNL A   1      40.927  28.511  29.271  1.00  0.00     0.010 A 
ATOM     35  C   UNL A   1      40.130  28.284  30.360  1.00  0.00    -0.014 A 
BRANCH  35  36
ATOM     36  C   UNL A   1      40.236  29.128  31.619  1.00  0.00     0.031 A 
ATOM     37  C   UNL A   1      41.281  28.856  32.503  1.00  0.00     0.074 A 
ATOM     38  C   UNL A   1      39.282  30.109  31.828  1.00  0.00     0.049 A 
ATOM     39  N   UNL A   1      41.565  29.483  33.645  1.00  0.00    -0.248 NA
ATOM     40  C   UNL A   1      42.276  27.791  32.300  1.00  0.00     0.031 C 
ATOM     41  C   UNL A   1      38.229  30.396  30.937  1.00  0.00     0.029 A 
ATOM     42  N   UNL A   1      39.171  30.967  32.900  1.00  0.00    -0.354 N 
ATOM     43  C   UNL A   1      42.653  28.951  34.205  1.00  0.00     0.074 A 
ATOM     44  C   UNL A   1      43.123  27.851  33.351  1.00  0.00     0.031 C 
ATOM     45  C   UNL A   1      37.488  31.403  31.470  1.00  0.00     0.029 A 
ATOM     46  C   UNL A   1      38.065  31.763  32.702  1.00  0.00     0.049 A 
ATOM     47  H   UNL A   1      39.778  31.003  33.675  1.00  0.00     0.167 HD
ATOM     48  C   UNL A   1      43.274  29.341  35.393  1.00  0.00     0.031 A 
ATOM     49  C   UNL A   1      37.571  32.751  33.539  1.00  0.00     0.031 A 
ATOM     50  C   UNL A   1      42.804  30.358  36.207  1.00  0.00     0.049 A 
ATOM     51  C   UNL A   1      38.159  33.103  34.755  1.00  0.00     0.074 A 
ATOM     52  C   UNL A   1      43.423  30.769  37.405  1.00  0.00     0.029 A 
ATOM     53  N   UNL A   1      41.685  31.139  36.021  1.00  0.00    -0.354 N 
ATOM     54  N   UNL A   1      39.269  32.597  35.296  1.00  0.00    -0.248 NA
ATOM     55  C   UNL A   1      37.625  34.126  35.665  1.00  0.00     0.031 C 
ATOM     56  C   UNL A   1      42.681  31.776  37.938  1.00  0.00     0.029 A 
ATOM     57  C   UNL A   1      41.587  32.011  37.083  1.00  0.00     0.049 A 
ATOM     58  H   UNL A   1      41.062  31.082  35.261  1.00  0.00     0.167 HD
ATOM     59  C   UNL A   1      39.529  33.197  36.459  1.00  0.00     0.074 A 
ATOM     60  C   UNL A   1      38.471  34.184  36.717  1.00  0.00     0.031 C 
ATOM     61  C   UNL A   1      40.607  32.964  37.314  1.00  0.00     0.031 A 
BRANCH  48  62
ATOM     62  C   UNL A   1      44.537  28.607  35.817  1.00  0.00    -0.014 A 
ATOM     63  C   UNL A   1      44.447  27.495  36.638  1.00  0.00     0.010 A 
ATOM     64  C   UNL A   1      45.712  29.065  35.403  1.00  0.00     0.010 A 
ATOM     65  C   UNL A   1      45.682  27.102  37.207  1.00  0.00     0.020 A 
ATOM     66  C   UNL A   1      46.881  28.542  35.900  1.00  0.00     0.020 A 
ATOM     67  C   UNL A   1      46.866  27.480  36.762  1.00  0.00     0.054 A 
BRANCH  67  68
ATOM     68  S   UNL A   1      48.387  26.638  37.263  1.00  0.00     0.124 S 
ATOM     69  O   UNL A   1      48.612  26.840  38.763  1.00  0.00    -0.237 OA
ATOM     70  O   UNL A   1      48.264  25.141  36.964  1.00  0.00    -0.237 OA
ATOM     71  O   UNL A   1      49.711  27.285  36.396  1.00  0.00    -0.744 OA
ENDBRANCH  67  68
ENDBRANCH  48  62
BRANCH  49  72
ATOM     72  C   UNL A   1      36.318  33.496  33.105  1.00  0.00    -0.014 A 
ATOM     73  C   UNL A   1      36.415  34.613  32.292  1.00  0.00     0.010 A 
ATOM     74  C   UNL A   1      35.140  33.048  33.523  1.00  0.00     0.010 A 
ATOM     75  C   UNL A   1      35.219  35.365  32.206  1.00  0.00     0.020 A 
ATOM     76  C   UNL A   1      33.994  33.768  33.285  1.00  0.00     0.020 A 
ATOM     77  C   UNL A   1      34.024  34.912  32.539  1.00  0.00     0.054 A 
BRANCH  77  78
ATOM     78  S   UNL A   1      32.508  35.762  32.033  1.00  0.00     0.124 S 
ATOM     79  O   UNL A   1      31.295  35.009  32.582  1.00  0.00    -0.237 OA
ATOM     80  O   UNL A   1      32.515  37.190  32.583  1.00  0.00    -0.237 OA
ATOM     81  O   UNL A   1      32.425  35.809  30.325  1.00  0.00    -0.744 OA
ENDBRANCH  77  78
ENDBRANCH  49  72
BRANCH  61  82
ATOM     82  C   UNL A   1      40.713  33.807  38.575  1.00  0.00    -0.014 A 
ATOM     83  C   UNL A   1      40.079  33.384  39.731  1.00  0.00     0.010 A 
ATOM     84  C   UNL A   1      41.429  34.925  38.550  1.00  0.00     0.010 A 
ATOM     85  C   UNL A   1      40.019  34.370  40.744  1.00  0.00     0.020 A 
ATOM     86  C   UNL A   1      41.433  35.776  39.628  1.00  0.00     0.020 A 
ATOM     87  C   UNL A   1      40.778  35.451  40.784  1.00  0.00     0.054 A 
BRANCH  87  88
ATOM     88  S   UNL A   1      40.942  36.447  42.286  1.00  0.00     0.124 S 
ATOM     89  O   UNL A   1      41.838  35.716  43.287  1.00  0.00    -0.237 OA
ATOM     90  O   UNL A   1      41.567  37.800  41.935  1.00  0.00    -0.237 OA
ATOM     91  O   UNL A   1      39.398  36.693  42.978  1.00  0.00    -0.744 OA
ENDBRANCH  87  88
ENDBRANCH  61  82
ENDBRANCH  35  36
ENDBRANCH  28  30
ENDBRANCH  27  28
ENDBRANCH   1  27
TORSDOF 16
ENDMDL
MODEL 3
REMARK VINA RESULT:     -11.5      7.532     12.114
REMARK SMILES O=C(OCCOC(=O)c1ccc(-c2c3nc(c(-c4ccc(S(=O)(=O)[O-])cc4)c4ccc([nH]4)c(-c4ccc(S(=O)(=O)[O-])cc4)c4nc(c(-c5ccc(S(=O)(=O)[O-])cc5)c5ccc2[nH]5)C=C4)C=C3)cc1)C1=Cc2cc(S(F)(F)(F)(F)F)cc(Br)c2O[C@@H]1C(F)(F)F
REMARK SMILES IDX 5 1 4 2 3 3 2 4 1 5 69 6 70 7 85 8 71 9 84 10 72 11 83 12
REMARK SMILES IDX 73 13 81 14 80 15 82 16 86 17 87 18 88 19 89 20 74 21 75 22
REMARK SMILES IDX 76 23 77 24 78 25 79 26 6 27 7 28 8 29 9 30 10 31 68 32
REMARK SMILES IDX 11 33 67 34 12 35 13 36 14 37 61 38 15 39 66 40 60 41 62 42
REMARK SMILES IDX 16 43 65 44 59 45 58 46 17 48 47 49 28 50 46 51 29 52 32 53
REMARK SMILES IDX 45 54 63 55 30 56 31 57 44 59 64 60 33 61 18 62 19 63 27 64
REMARK SMILES IDX 20 65 26 66 21 67 22 68 23 69 24 70 25 71 48 72 49 73 57 74
REMARK SMILES IDX 50 75 56 76 51 77 52 78 53 79 54 80 55 81 34 82 35 83 43 84
REMARK SMILES IDX 36 85 42 86 37 87 38 88 39 89 40 90 41 91
REMARK H PARENT 62 47 32 58
REMARK Flexibility Score: inf
ROOT
ATOM      1  C   UNL A   1      38.515  24.099  26.047  1.00  0.00     0.275 C 
ENDROOT
BRANCH   1   2
ATOM      2  C   UNL A   1      37.015  23.948  25.844  1.00  0.00     0.275 C 
BRANCH   2   3
ATOM      3  O   UNL A   1      36.721  23.968  24.455  1.00  0.00    -0.459 OA
BRANCH   3   4
ATOM      4  C   UNL A   1      35.782  23.049  23.915  1.00  0.00     0.338 C 
ATOM      5  O   UNL A   1      35.734  22.853  22.660  1.00  0.00    -0.246 OA
BRANCH   4   6
ATOM      6  C   UNL A   1      34.833  22.301  24.838  1.00  0.00     0.087 C 
ATOM      7  C   UNL A   1      33.777  22.949  25.399  1.00  0.00     0.027 C 
ATOM      8  C   UNL A   1      35.065  20.828  25.132  1.00  0.00     0.316 C 
ATOM      9  C   UNL A   1      33.545  24.422  25.103  1.00  0.00     0.020 A 
ATOM     10  O   UNL A   1      34.126  23.987  22.840  1.00  0.00    -0.474 OA
ATOM     11  C   UNL A   1      33.227  25.282  26.140  1.00  0.00     0.036 A 
ATOM     12  C   UNL A   1      33.642  24.857  23.853  1.00  0.00     0.142 A 
ATOM     13  C   UNL A   1      32.742  26.541  25.713  1.00  0.00     0.109 A 
ATOM     14  C   UNL A   1      33.280  26.142  23.529  1.00  0.00     0.062 A 
ATOM     15  C   UNL A   1      32.898  27.030  24.497  1.00  0.00     0.044 A 
ATOM     16  Br  UNL A   1      33.310  26.713  21.654  1.00  0.00    -0.047 Br
BRANCH   8  17
ATOM     17  C   UNL A   1      33.858  20.024  24.679  1.00  0.00     0.430 C 
ATOM     18  F   UNL A   1      33.376  20.544  23.553  1.00  0.00    -0.167 F 
ATOM     19  F   UNL A   1      34.221  18.762  24.463  1.00  0.00    -0.167 F 
ATOM     20  F   UNL A   1      32.920  20.061  25.621  1.00  0.00    -0.167 F 
ENDBRANCH   8  17
BRANCH  13  21
ATOM     21  S   UNL A   1      31.846  27.552  26.919  1.00  0.00     0.310 S 
ATOM     22  F   UNL A   1      31.397  28.589  25.807  1.00  0.00    -0.094 F 
ATOM     23  F   UNL A   1      33.145  28.423  27.111  1.00  0.00    -0.094 F 
ATOM     24  F   UNL A   1      31.076  28.420  27.954  1.00  0.00    -0.094 F 
ATOM     25  F   UNL A   1      30.518  26.756  26.610  1.00  0.00    -0.094 F 
ATOM     26  F   UNL A   1      32.583  26.734  25.784  1.00  0.00    -0.094 F 
ENDBRANCH  13  21
ENDBRANCH   4   6
ENDBRANCH   3   4
ENDBRANCH   2   3
ENDBRANCH   1   2
BRANCH   1  27
ATOM     27  O   UNL A   1      38.760  24.816  27.248  1.00  0.00    -0.458 OA
BRANCH  27  28
ATOM     28  C   UNL A   1      39.681  25.896  27.254  1.00  0.00     0.338 C 
ATOM     29  O   UNL A   1      40.406  26.120  26.235  1.00  0.00    -0.246 OA
BRANCH  28  30
ATOM     30  C   UNL A   1      39.798  26.786  28.481  1.00  0.00     0.060 A 
ATOM     31  C   UNL A   1      40.696  27.841  28.474  1.00  0.00     0.016 A 
ATOM     32  C   UNL A   1      39.026  26.547  29.534  1.00  0.00     0.016 A 
ATOM     33  C   UNL A   1      40.913  28.419  29.747  1.00  0.00     0.010 A 
ATOM     34  C   UNL A   1      39.203  27.244  30.705  1.00  0.00     0.010 A 
ATOM     35  C   UNL A   1      40.115  28.261  30.786  1.00  0.00    -0.014 A 
BRANCH  35  36
ATOM     36  C   UNL A   1      40.203  29.160  32.008  1.00  0.00     0.031 A 
ATOM     37  C   UNL A   1      39.235  30.154  32.161  1.00  0.00     0.074 A 
ATOM     38  C   UNL A   1      41.246  28.955  32.894  1.00  0.00     0.049 A 
ATOM     39  N   UNL A   1      39.119  31.030  33.159  1.00  0.00    -0.248 NA
ATOM     40  C   UNL A   1      38.145  30.397  31.203  1.00  0.00     0.031 C 
ATOM     41  C   UNL A   1      42.222  27.949  32.752  1.00  0.00     0.029 A 
ATOM     42  N   UNL A   1      41.533  29.659  34.043  1.00  0.00    -0.354 N 
ATOM     43  C   UNL A   1      38.055  31.813  32.964  1.00  0.00     0.074 A 
ATOM     44  C   UNL A   1      37.417  31.420  31.700  1.00  0.00     0.031 C 
ATOM     45  C   UNL A   1      43.090  28.053  33.793  1.00  0.00     0.029 A 
ATOM     46  C   UNL A   1      42.671  29.125  34.604  1.00  0.00     0.049 A 
ATOM     47  H   UNL A   1      41.012  30.415  34.400  1.00  0.00     0.167 HD
ATOM     48  C   UNL A   1      37.591  32.836  33.793  1.00  0.00     0.031 A 
ATOM     49  C   UNL A   1      43.323  29.537  35.755  1.00  0.00     0.031 A 
ATOM     50  C   UNL A   1      38.218  33.219  34.967  1.00  0.00     0.049 A 
ATOM     51  C   UNL A   1      42.891  30.598  36.553  1.00  0.00     0.074 A 
ATOM     52  C   UNL A   1      37.759  34.244  35.817  1.00  0.00     0.029 A 
ATOM     53  N   UNL A   1      39.371  32.700  35.515  1.00  0.00    -0.354 N 
ATOM     54  N   UNL A   1      41.806  31.354  36.379  1.00  0.00    -0.248 NA
ATOM     55  C   UNL A   1      43.593  31.064  37.758  1.00  0.00     0.031 C 
ATOM     56  C   UNL A   1      38.627  34.348  36.859  1.00  0.00     0.029 A 
ATOM     57  C   UNL A   1      39.644  33.391  36.676  1.00  0.00     0.049 A 
ATOM     58  H   UNL A   1      39.906  31.964  35.142  1.00  0.00     0.167 HD
ATOM     59  C   UNL A   1      41.714  32.257  37.358  1.00  0.00     0.074 A 
ATOM     60  C   UNL A   1      42.865  32.089  38.253  1.00  0.00     0.031 C 
ATOM     61  C   UNL A   1      40.713  33.214  37.540  1.00  0.00     0.031 A 
BRANCH  48  62
ATOM     62  C   UNL A   1      36.325  33.572  33.383  1.00  0.00    -0.014 A 
ATOM     63  C   UNL A   1      35.084  33.031  33.680  1.00  0.00     0.010 A 
ATOM     64  C   UNL A   1      36.436  34.720  32.726  1.00  0.00     0.010 A 
ATOM     65  C   UNL A   1      34.013  33.637  32.981  1.00  0.00     0.020 A 
ATOM     66  C   UNL A   1      35.328  35.327  32.186  1.00  0.00     0.020 A 
ATOM     67  C   UNL A   1      34.077  34.816  32.389  1.00  0.00     0.054 A 
BRANCH  67  68
ATOM     68  S   UNL A   1      32.588  35.706  31.874  1.00  0.00     0.124 S 
ATOM     69  O   UNL A   1      32.358  35.492  30.376  1.00  0.00    -0.237 OA
ATOM     70  O   UNL A   1      31.382  35.178  32.655  1.00  0.00    -0.237 OA
ATOM     71  O   UNL A   1      32.784  37.375  32.188  1.00  0.00    -0.744 OA
ENDBRANCH  67  68
ENDBRANCH  48  62
BRANCH  49  72
ATOM     72  C   UNL A   1      44.579  28.789  36.173  1.00  0.00    -0.014 A 
ATOM     73  C   UNL A   1      45.823  29.210  35.733  1.00  0.00     0.010 A 
ATOM     74  C   UNL A   1      44.451  27.732  36.967  1.00  0.00     0.010 A 
ATOM     75  C   UNL A   1      46.858  28.271  35.955  1.00  0.00     0.020 A 
ATOM     76  C   UNL A   1      45.533  26.935  37.250  1.00  0.00     0.020 A 
ATOM     77  C   UNL A   1      46.783  27.259  36.800  1.00  0.00     0.054 A 
BRANCH  77  78
ATOM     78  S   UNL A   1      48.255  26.350  37.332  1.00  0.00     0.124 S 
ATOM     79  O   UNL A   1      49.450  26.766  36.472  1.00  0.00    -0.237 OA
ATOM     80  O   UNL A   1      48.547  26.667  38.800  1.00  0.00    -0.237 OA
ATOM     81  O   UNL A   1      47.982  24.671  37.155  1.00  0.00    -0.744 OA
ENDBRANCH  77  78
ENDBRANCH  49  72
BRANCH  61  82
ATOM     82  C   UNL A   1      40.801  34.115  38.761  1.00  0.00    -0.014 A 
ATOM     83  C   UNL A   1      41.463  35.328  38.665  1.00  0.00     0.010 A 
ATOM     84  C   UNL A   1      40.226  33.731  39.895  1.00  0.00     0.010 A 
ATOM     85  C   UNL A   1      41.715  35.943  39.914  1.00  0.00     0.020 A 
ATOM     86  C   UNL A   1      40.403  34.455  41.048  1.00  0.00     0.020 A 
ATOM     87  C   UNL A   1      41.097  35.633  41.040  1.00  0.00     0.054 A 
BRANCH  87  88
ATOM     88  S   UNL A   1      41.164  36.710  42.493  1.00  0.00     0.124 S 
ATOM     89  O   UNL A   1      41.914  35.999  43.621  1.00  0.00    -0.237 OA
ATOM     90  O   UNL A   1      41.895  38.007  42.133  1.00  0.00    -0.237 OA
ATOM     91  O   UNL A   1      39.575  37.075  43.007  1.00  0.00    -0.744 OA
ENDBRANCH  87  88
ENDBRANCH  61  82
ENDBRANCH  35  36
ENDBRANCH  28  30
ENDBRANCH  27  28
ENDBRANCH   1  27
TORSDOF 16
ENDMDL
