MODEL 1
REMARK VINA RESULT:     -10.6      0.000      0.000
REMARK SMILES C[C@H]1Cc2ccccc2N1/C=C\C(=O)OCCOC(=O)c1ccc(-c2c3nc(c(-c4ccc(S(=O)(=O)[O-])cc4)c4ccc([nH]4)c(-c4ccc(S(=O)(=O)[O-])cc4)c4nc(c(-c5ccc(S(=O)(=O)[O-])cc5)c5ccc2[nH]5)C=C4)C=C3)cc1
REMARK SMILES IDX 17 1 16 2 15 3 13 4 14 5 12 6 11 7 10 8 1 9 2 10 3 11 4 12
REMARK SMILES IDX 9 13 5 14 8 15 6 16 7 17 18 18 19 19 20 20 21 21 22 22 80 23
REMARK SMILES IDX 23 24 79 25 24 26 25 27 26 28 73 29 27 30 78 31 72 32 74 33
REMARK SMILES IDX 28 34 77 35 71 36 70 37 29 39 59 40 40 41 58 42 41 43 44 44
REMARK SMILES IDX 57 45 75 46 42 47 43 48 56 50 76 51 45 52 30 53 31 54 39 55
REMARK SMILES IDX 32 56 38 57 33 58 34 59 35 60 36 61 37 62 60 63 61 64 69 65
REMARK SMILES IDX 62 66 68 67 63 68 64 69 65 70 66 71 67 72 46 73 47 74 55 75
REMARK SMILES IDX 48 76 54 77 49 78 50 79 51 80 52 81 53 82
REMARK H PARENT 74 38 44 49
REMARK Flexibility Score: inf
ROOT
ATOM      1  C   UNL A   1      32.383  29.489  27.187  1.00  0.00     0.275 C 
ENDROOT
BRANCH   1   2
ATOM      2  C   UNL A   1      31.694  28.135  27.353  1.00  0.00     0.275 C 
BRANCH   2   3
ATOM      3  O   UNL A   1      31.667  27.453  26.088  1.00  0.00    -0.459 OA
BRANCH   3   4
ATOM      4  C   UNL A   1      32.345  26.298  25.964  1.00  0.00     0.332 C 
ATOM      5  O   UNL A   1      32.076  25.241  26.513  1.00  0.00    -0.247 OA
BRANCH   4   6
ATOM      6  C   UNL A   1      33.431  26.411  24.972  1.00  0.00     0.111 C 
ATOM      7  C   UNL A   1      34.201  25.486  24.380  1.00  0.00     0.094 C 
BRANCH   7   8
ATOM      8  N   UNL A   1      34.283  24.109  24.394  1.00  0.00    -0.344 N 
ATOM      9  C   UNL A   1      33.118  23.215  22.395  1.00  0.00     0.032 C 
ATOM     10  C   UNL A   1      33.288  23.124  23.913  1.00  0.00     0.088 C 
ATOM     11  C   UNL A   1      33.760  21.710  24.318  1.00  0.00     0.062 C 
ATOM     12  C   UNL A   1      35.160  21.963  24.744  1.00  0.00    -0.022 A 
ATOM     13  C   UNL A   1      35.400  23.337  24.815  1.00  0.00     0.044 A 
ATOM     14  C   UNL A   1      36.114  21.019  25.092  1.00  0.00     0.006 A 
ATOM     15  C   UNL A   1      36.636  23.782  25.265  1.00  0.00     0.026 A 
ATOM     16  C   UNL A   1      37.358  21.470  25.525  1.00  0.00     0.000 A 
ATOM     17  C   UNL A   1      37.615  22.843  25.617  1.00  0.00     0.002 A 
ENDBRANCH   7   8
ENDBRANCH   4   6
ENDBRANCH   3   4
ENDBRANCH   2   3
ENDBRANCH   1   2
BRANCH   1  18
ATOM     18  O   UNL A   1      33.788  29.347  27.433  1.00  0.00    -0.458 OA
BRANCH  18  19
ATOM     19  C   UNL A   1      34.439  30.478  27.804  1.00  0.00     0.338 C 
ATOM     20  O   UNL A   1      33.957  31.582  27.989  1.00  0.00    -0.246 OA
BRANCH  19  21
ATOM     21  C   UNL A   1      35.815  30.096  28.167  1.00  0.00     0.060 A 
ATOM     22  C   UNL A   1      36.845  30.146  27.225  1.00  0.00     0.016 A 
ATOM     23  C   UNL A   1      36.052  29.621  29.461  1.00  0.00     0.016 A 
ATOM     24  C   UNL A   1      38.112  29.692  27.576  1.00  0.00     0.010 A 
ATOM     25  C   UNL A   1      37.322  29.167  29.811  1.00  0.00     0.010 A 
ATOM     26  C   UNL A   1      38.356  29.198  28.869  1.00  0.00    -0.014 A 
BRANCH  26  27
ATOM     27  C   UNL A   1      39.731  28.823  29.258  1.00  0.00     0.031 A 
ATOM     28  C   UNL A   1      40.582  29.742  30.079  1.00  0.00     0.074 A 
ATOM     29  C   UNL A   1      40.186  27.621  28.860  1.00  0.00     0.049 A 
ATOM     30  N   UNL A   1      41.766  29.516  30.584  1.00  0.00    -0.248 NA
ATOM     31  C   UNL A   1      40.045  31.080  30.372  1.00  0.00     0.031 C 
ATOM     32  C   UNL A   1      39.428  26.674  28.036  1.00  0.00     0.029 A 
ATOM     33  N   UNL A   1      41.372  26.980  29.102  1.00  0.00    -0.354 N 
ATOM     34  C   UNL A   1      42.108  30.669  31.276  1.00  0.00     0.074 A 
ATOM     35  C   UNL A   1      41.030  31.615  31.084  1.00  0.00     0.031 C 
ATOM     36  C   UNL A   1      40.154  25.561  27.870  1.00  0.00     0.029 A 
ATOM     37  C   UNL A   1      41.438  25.724  28.547  1.00  0.00     0.049 A 
ATOM     38  H   UNL A   1      42.106  27.380  29.622  1.00  0.00     0.167 HD
ATOM     39  C   UNL A   1      43.216  30.898  32.020  1.00  0.00     0.031 A 
ATOM     40  C   UNL A   1      42.417  24.800  28.587  1.00  0.00     0.031 A 
ATOM     41  C   UNL A   1      44.282  29.940  32.180  1.00  0.00     0.049 A 
ATOM     42  C   UNL A   1      43.651  25.094  29.391  1.00  0.00     0.074 A 
ATOM     43  C   UNL A   1      45.433  30.061  32.940  1.00  0.00     0.029 A 
ATOM     44  N   UNL A   1      44.334  28.693  31.573  1.00  0.00    -0.354 N 
ATOM     45  N   UNL A   1      43.927  26.160  30.103  1.00  0.00    -0.248 NA
ATOM     46  C   UNL A   1      44.695  24.063  29.416  1.00  0.00     0.031 C 
ATOM     47  C   UNL A   1      46.211  28.921  32.735  1.00  0.00     0.029 A 
ATOM     48  C   UNL A   1      45.513  28.050  31.914  1.00  0.00     0.049 A 
ATOM     49  H   UNL A   1      43.636  28.319  30.989  1.00  0.00     0.167 HD
ATOM     50  C   UNL A   1      45.173  25.925  30.672  1.00  0.00     0.074 A 
ATOM     51  C   UNL A   1      45.585  24.604  30.241  1.00  0.00     0.031 C 
ATOM     52  C   UNL A   1      45.910  26.735  31.471  1.00  0.00     0.031 A 
BRANCH  39  53
ATOM     53  C   UNL A   1      43.341  32.210  32.753  1.00  0.00    -0.014 A 
ATOM     54  C   UNL A   1      42.936  32.309  34.097  1.00  0.00     0.010 A 
ATOM     55  C   UNL A   1      43.703  33.381  32.062  1.00  0.00     0.010 A 
ATOM     56  C   UNL A   1      42.845  33.556  34.722  1.00  0.00     0.020 A 
ATOM     57  C   UNL A   1      43.639  34.627  32.692  1.00  0.00     0.020 A 
ATOM     58  C   UNL A   1      43.182  34.709  34.009  1.00  0.00     0.054 A 
BRANCH  58  59
ATOM     59  S   UNL A   1      42.987  36.324  34.815  1.00  0.00     0.124 S 
ATOM     60  O   UNL A   1      41.777  36.132  35.606  1.00  0.00    -0.237 OA
ATOM     61  O   UNL A   1      44.227  36.451  35.577  1.00  0.00    -0.237 OA
ATOM     62  O   UNL A   1      42.858  37.253  33.693  1.00  0.00    -0.744 OA
ENDBRANCH  58  59
ENDBRANCH  39  53
BRANCH  40  63
ATOM     63  C   UNL A   1      42.221  23.507  27.876  1.00  0.00    -0.014 A 
ATOM     64  C   UNL A   1      41.455  22.482  28.466  1.00  0.00     0.010 A 
ATOM     65  C   UNL A   1      42.879  23.251  26.661  1.00  0.00     0.010 A 
ATOM     66  C   UNL A   1      41.397  21.213  27.885  1.00  0.00     0.020 A 
ATOM     67  C   UNL A   1      42.796  21.992  26.059  1.00  0.00     0.020 A 
ATOM     68  C   UNL A   1      42.081  20.972  26.691  1.00  0.00     0.054 A 
BRANCH  68  69
ATOM     69  S   UNL A   1      42.035  19.302  25.985  1.00  0.00     0.124 S 
ATOM     70  O   UNL A   1      42.888  19.451  24.808  1.00  0.00    -0.237 OA
ATOM     71  O   UNL A   1      42.587  18.484  27.062  1.00  0.00    -0.237 OA
ATOM     72  O   UNL A   1      40.618  19.087  25.706  1.00  0.00    -0.744 OA
ENDBRANCH  68  69
ENDBRANCH  40  63
BRANCH  52  73
ATOM     73  C   UNL A   1      47.256  26.240  31.932  1.00  0.00    -0.014 A 
ATOM     74  C   UNL A   1      48.389  26.432  31.119  1.00  0.00     0.010 A 
ATOM     75  C   UNL A   1      47.371  25.457  33.094  1.00  0.00     0.010 A 
ATOM     76  C   UNL A   1      49.600  25.812  31.434  1.00  0.00     0.020 A 
ATOM     77  C   UNL A   1      48.590  24.861  33.430  1.00  0.00     0.020 A 
ATOM     78  C   UNL A   1      49.689  25.018  32.580  1.00  0.00     0.054 A 
BRANCH  78  79
ATOM     79  S   UNL A   1      51.253  24.176  32.942  1.00  0.00     0.124 S 
ATOM     80  O   UNL A   1      51.057  22.877  32.305  1.00  0.00    -0.237 OA
ATOM     81  O   UNL A   1      52.240  25.046  32.307  1.00  0.00    -0.237 OA
ATOM     82  O   UNL A   1      51.302  24.154  34.402  1.00  0.00    -0.744 OA
ENDBRANCH  78  79
ENDBRANCH  52  73
ENDBRANCH  26  27
ENDBRANCH  19  21
ENDBRANCH  18  19
ENDBRANCH   1  18
TORSDOF 15
ENDMDL
MODEL 2
REMARK VINA RESULT:     -10.4      2.781      5.594
REMARK SMILES C[C@H]1Cc2ccccc2N1/C=C\C(=O)OCCOC(=O)c1ccc(-c2c3nc(c(-c4ccc(S(=O)(=O)[O-])cc4)c4ccc([nH]4)c(-c4ccc(S(=O)(=O)[O-])cc4)c4nc(c(-c5ccc(S(=O)(=O)[O-])cc5)c5ccc2[nH]5)C=C4)C=C3)cc1
REMARK SMILES IDX 17 1 16 2 15 3 13 4 14 5 12 6 11 7 10 8 1 9 2 10 3 11 4 12
REMARK SMILES IDX 9 13 5 14 8 15 6 16 7 17 18 18 19 19 20 20 21 21 22 22 80 23
REMARK SMILES IDX 23 24 79 25 24 26 25 27 26 28 73 29 27 30 78 31 72 32 74 33
REMARK SMILES IDX 28 34 77 35 71 36 70 37 29 39 59 40 40 41 58 42 41 43 44 44
REMARK SMILES IDX 57 45 75 46 42 47 43 48 56 50 76 51 45 52 30 53 31 54 39 55
REMARK SMILES IDX 32 56 38 57 33 58 34 59 35 60 36 61 37 62 60 63 61 64 69 65
REMARK SMILES IDX 62 66 68 67 63 68 64 69 65 70 66 71 67 72 46 73 47 74 55 75
REMARK SMILES IDX 48 76 54 77 49 78 50 79 51 80 52 81 53 82
REMARK H PARENT 74 38 44 49
REMARK Flexibility Score: inf
ROOT
ATOM      1  C   UNL A   1      33.631  32.293  28.123  1.00  0.00     0.275 C 
ENDROOT
BRANCH   1   2
ATOM      2  C   UNL A   1      34.512  33.151  29.030  1.00  0.00     0.275 C 
BRANCH   2   3
ATOM      3  O   UNL A   1      34.821  32.419  30.229  1.00  0.00    -0.459 OA
BRANCH   3   4
ATOM      4  C   UNL A   1      35.774  32.899  31.048  1.00  0.00     0.332 C 
ATOM      5  O   UNL A   1      36.884  33.285  30.717  1.00  0.00    -0.247 OA
BRANCH   4   6
ATOM      6  C   UNL A   1      35.286  33.019  32.436  1.00  0.00     0.111 C 
ATOM      7  C   UNL A   1      35.903  32.872  33.617  1.00  0.00     0.094 C 
BRANCH   7   8
ATOM      8  N   UNL A   1      37.192  32.612  34.035  1.00  0.00    -0.344 N 
ATOM      9  C   UNL A   1      37.473  33.464  36.348  1.00  0.00     0.032 C 
ATOM     10  C   UNL A   1      38.049  33.421  34.931  1.00  0.00     0.088 C 
ATOM     11  C   UNL A   1      39.466  32.807  34.944  1.00  0.00     0.062 C 
ATOM     12  C   UNL A   1      39.239  31.496  34.282  1.00  0.00    -0.022 A 
ATOM     13  C   UNL A   1      37.951  31.446  33.744  1.00  0.00     0.044 A 
ATOM     14  C   UNL A   1      40.151  30.462  34.136  1.00  0.00     0.006 A 
ATOM     15  C   UNL A   1      37.568  30.325  33.020  1.00  0.00     0.026 A 
ATOM     16  C   UNL A   1      39.755  29.333  33.424  1.00  0.00     0.000 A 
ATOM     17  C   UNL A   1      38.474  29.267  32.864  1.00  0.00     0.002 A 
ENDBRANCH   7   8
ENDBRANCH   4   6
ENDBRANCH   3   4
ENDBRANCH   2   3
ENDBRANCH   1   2
BRANCH   1  18
ATOM     18  O   UNL A   1      34.456  31.493  27.266  1.00  0.00    -0.458 OA
BRANCH  18  19
ATOM     19  C   UNL A   1      34.461  30.162  27.525  1.00  0.00     0.338 C 
ATOM     20  O   UNL A   1      33.571  29.361  27.297  1.00  0.00    -0.246 OA
BRANCH  19  21
ATOM     21  C   UNL A   1      35.828  29.796  27.936  1.00  0.00     0.060 A 
ATOM     22  C   UNL A   1      36.091  29.343  29.230  1.00  0.00     0.016 A 
ATOM     23  C   UNL A   1      36.867  29.975  27.016  1.00  0.00     0.016 A 
ATOM     24  C   UNL A   1      37.406  29.093  29.611  1.00  0.00     0.010 A 
ATOM     25  C   UNL A   1      38.183  29.725  27.399  1.00  0.00     0.010 A 
ATOM     26  C   UNL A   1      38.457  29.286  28.699  1.00  0.00    -0.014 A 
BRANCH  26  27
ATOM     27  C   UNL A   1      39.834  28.913  29.085  1.00  0.00     0.031 A 
ATOM     28  C   UNL A   1      40.697  29.847  29.875  1.00  0.00     0.074 A 
ATOM     29  C   UNL A   1      40.279  27.698  28.713  1.00  0.00     0.049 A 
ATOM     30  N   UNL A   1      41.884  29.628  30.375  1.00  0.00    -0.248 NA
ATOM     31  C   UNL A   1      40.169  31.195  30.139  1.00  0.00     0.031 C 
ATOM     32  C   UNL A   1      39.509  26.736  27.920  1.00  0.00     0.029 A 
ATOM     33  N   UNL A   1      41.463  27.057  28.961  1.00  0.00    -0.354 N 
ATOM     34  C   UNL A   1      42.238  30.796  31.035  1.00  0.00     0.074 A 
ATOM     35  C   UNL A   1      41.164  31.742  30.829  1.00  0.00     0.031 C 
ATOM     36  C   UNL A   1      40.228  25.615  27.775  1.00  0.00     0.029 A 
ATOM     37  C   UNL A   1      41.518  25.788  28.438  1.00  0.00     0.049 A 
ATOM     38  H   UNL A   1      42.204  27.467  29.465  1.00  0.00     0.167 HD
ATOM     39  C   UNL A   1      43.354  31.037  31.764  1.00  0.00     0.031 A 
ATOM     40  C   UNL A   1      42.493  24.859  28.492  1.00  0.00     0.031 A 
ATOM     41  C   UNL A   1      44.416  30.078  31.939  1.00  0.00     0.049 A 
ATOM     42  C   UNL A   1      43.735  25.167  29.278  1.00  0.00     0.074 A 
ATOM     43  C   UNL A   1      45.574  30.212  32.685  1.00  0.00     0.029 A 
ATOM     44  N   UNL A   1      44.456  28.816  31.363  1.00  0.00    -0.354 N 
ATOM     45  N   UNL A   1      44.023  26.249  29.961  1.00  0.00    -0.248 NA
ATOM     46  C   UNL A   1      44.774  24.131  29.320  1.00  0.00     0.031 C 
ATOM     47  C   UNL A   1      46.345  29.063  32.503  1.00  0.00     0.029 A 
ATOM     48  C   UNL A   1      45.635  28.175  31.710  1.00  0.00     0.049 A 
ATOM     49  H   UNL A   1      43.751  28.431  30.794  1.00  0.00     0.167 HD
ATOM     50  C   UNL A   1      45.273  26.021  30.524  1.00  0.00     0.074 A 
ATOM     51  C   UNL A   1      45.674  24.688  30.123  1.00  0.00     0.031 C 
ATOM     52  C   UNL A   1      46.021  26.847  31.296  1.00  0.00     0.031 A 
BRANCH  39  53
ATOM     53  C   UNL A   1      43.493  32.366  32.462  1.00  0.00    -0.014 A 
ATOM     54  C   UNL A   1      44.179  33.424  31.836  1.00  0.00     0.010 A 
ATOM     55  C   UNL A   1      43.089  32.515  33.801  1.00  0.00     0.010 A 
ATOM     56  C   UNL A   1      44.501  34.583  32.548  1.00  0.00     0.020 A 
ATOM     57  C   UNL A   1      43.385  33.684  34.509  1.00  0.00     0.020 A 
ATOM     58  C   UNL A   1      44.115  34.698  33.886  1.00  0.00     0.054 A 
BRANCH  58  59
ATOM     59  S   UNL A   1      44.605  36.179  34.814  1.00  0.00     0.124 S 
ATOM     60  O   UNL A   1      44.368  35.772  36.195  1.00  0.00    -0.237 OA
ATOM     61  O   UNL A   1      46.006  36.343  34.435  1.00  0.00    -0.237 OA
ATOM     62  O   UNL A   1      43.706  37.215  34.306  1.00  0.00    -0.744 OA
ENDBRANCH  58  59
ENDBRANCH  39  53
BRANCH  40  63
ATOM     63  C   UNL A   1      42.283  23.550  27.815  1.00  0.00    -0.014 A 
ATOM     64  C   UNL A   1      41.708  22.473  28.518  1.00  0.00     0.010 A 
ATOM     65  C   UNL A   1      42.750  23.339  26.507  1.00  0.00     0.010 A 
ATOM     66  C   UNL A   1      41.655  21.200  27.946  1.00  0.00     0.020 A 
ATOM     67  C   UNL A   1      42.668  22.072  25.919  1.00  0.00     0.020 A 
ATOM     68  C   UNL A   1      42.149  21.004  26.655  1.00  0.00     0.054 A 
BRANCH  68  69
ATOM     69  S   UNL A   1      42.118  19.330  25.956  1.00  0.00     0.124 S 
ATOM     70  O   UNL A   1      42.994  19.475  24.796  1.00  0.00    -0.237 OA
ATOM     71  O   UNL A   1      42.649  18.518  27.047  1.00  0.00    -0.237 OA
ATOM     72  O   UNL A   1      40.706  19.114  25.650  1.00  0.00    -0.744 OA
ENDBRANCH  68  69
ENDBRANCH  40  63
BRANCH  52  73
ATOM     73  C   UNL A   1      47.369  26.357  31.758  1.00  0.00    -0.014 A 
ATOM     74  C   UNL A   1      48.474  26.425  30.889  1.00  0.00     0.010 A 
ATOM     75  C   UNL A   1      47.505  25.695  32.991  1.00  0.00     0.010 A 
ATOM     76  C   UNL A   1      49.677  25.799  31.223  1.00  0.00     0.020 A 
ATOM     77  C   UNL A   1      48.717  25.095  33.343  1.00  0.00     0.020 A 
ATOM     78  C   UNL A   1      49.786  25.125  32.443  1.00  0.00     0.054 A 
BRANCH  78  79
ATOM     79  S   UNL A   1      51.337  24.272  32.834  1.00  0.00     0.124 S 
ATOM     80  O   UNL A   1      51.310  24.239  34.293  1.00  0.00    -0.237 OA
ATOM     81  O   UNL A   1      51.169  22.980  32.172  1.00  0.00    -0.237 OA
ATOM     82  O   UNL A   1      52.361  25.134  32.249  1.00  0.00    -0.744 OA
ENDBRANCH  78  79
ENDBRANCH  52  73
ENDBRANCH  26  27
ENDBRANCH  19  21
ENDBRANCH  18  19
ENDBRANCH   1  18
TORSDOF 15
ENDMDL
MODEL 3
REMARK VINA RESULT:     -10.3      3.020     10.190
REMARK SMILES C[C@H]1Cc2ccccc2N1/C=C\C(=O)OCCOC(=O)c1ccc(-c2c3nc(c(-c4ccc(S(=O)(=O)[O-])cc4)c4ccc([nH]4)c(-c4ccc(S(=O)(=O)[O-])cc4)c4nc(c(-c5ccc(S(=O)(=O)[O-])cc5)c5ccc2[nH]5)C=C4)C=C3)cc1
REMARK SMILES IDX 17 1 16 2 15 3 13 4 14 5 12 6 11 7 10 8 1 9 2 10 3 11 4 12
REMARK SMILES IDX 9 13 5 14 8 15 6 16 7 17 18 18 19 19 20 20 21 21 22 22 80 23
REMARK SMILES IDX 23 24 79 25 24 26 25 27 26 28 73 29 27 30 78 31 72 32 74 33
REMARK SMILES IDX 28 34 77 35 71 36 70 37 29 39 59 40 40 41 58 42 41 43 44 44
REMARK SMILES IDX 57 45 75 46 42 47 43 48 56 50 76 51 45 52 30 53 31 54 39 55
REMARK SMILES IDX 32 56 38 57 33 58 34 59 35 60 36 61 37 62 60 63 61 64 69 65
REMARK SMILES IDX 62 66 68 67 63 68 64 69 65 70 66 71 67 72 46 73 47 74 55 75
REMARK SMILES IDX 48 76 54 77 49 78 50 79 51 80 52 81 53 82
REMARK H PARENT 74 38 44 49
REMARK Flexibility Score: inf
ROOT
ATOM      1  C   UNL A   1      33.873  32.493  28.435  1.00  0.00     0.275 C 
ENDROOT
BRANCH   1   2
ATOM      2  C   UNL A   1      34.797  33.393  29.254  1.00  0.00     0.275 C 
BRANCH   2   3
ATOM      3  O   UNL A   1      34.081  33.908  30.390  1.00  0.00    -0.459 OA
BRANCH   3   4
ATOM      4  C   UNL A   1      34.671  33.863  31.597  1.00  0.00     0.332 C 
ATOM      5  O   UNL A   1      34.960  34.822  32.296  1.00  0.00    -0.247 OA
BRANCH   4   6
ATOM      6  C   UNL A   1      34.845  32.474  32.065  1.00  0.00     0.111 C 
ATOM      7  C   UNL A   1      35.858  31.864  32.697  1.00  0.00     0.094 C 
BRANCH   7   8
ATOM      8  N   UNL A   1      37.084  32.246  33.204  1.00  0.00    -0.344 N 
ATOM      9  C   UNL A   1      36.718  33.796  35.106  1.00  0.00     0.032 C 
ATOM     10  C   UNL A   1      37.468  33.548  33.796  1.00  0.00     0.088 C 
ATOM     11  C   UNL A   1      38.993  33.545  34.041  1.00  0.00     0.062 C 
ATOM     12  C   UNL A   1      39.333  32.112  33.849  1.00  0.00    -0.022 A 
ATOM     13  C   UNL A   1      38.234  31.421  33.332  1.00  0.00     0.044 A 
ATOM     14  C   UNL A   1      40.559  31.504  34.073  1.00  0.00     0.006 A 
ATOM     15  C   UNL A   1      38.373  30.077  33.016  1.00  0.00     0.026 A 
ATOM     16  C   UNL A   1      40.687  30.151  33.771  1.00  0.00     0.000 A 
ATOM     17  C   UNL A   1      39.602  29.443  33.239  1.00  0.00     0.002 A 
ENDBRANCH   7   8
ENDBRANCH   4   6
ENDBRANCH   3   4
ENDBRANCH   2   3
ENDBRANCH   1   2
BRANCH   1  18
ATOM     18  O   UNL A   1      34.654  31.682  27.548  1.00  0.00    -0.458 OA
BRANCH  18  19
ATOM     19  C   UNL A   1      34.627  30.348  27.790  1.00  0.00     0.338 C 
ATOM     20  O   UNL A   1      33.703  29.578  27.590  1.00  0.00    -0.246 OA
BRANCH  19  21
ATOM     21  C   UNL A   1      35.997  29.934  28.138  1.00  0.00     0.060 A 
ATOM     22  C   UNL A   1      36.312  29.509  29.431  1.00  0.00     0.016 A 
ATOM     23  C   UNL A   1      36.991  30.037  27.158  1.00  0.00     0.016 A 
ATOM     24  C   UNL A   1      37.634  29.212  29.748  1.00  0.00     0.010 A 
ATOM     25  C   UNL A   1      38.314  29.741  27.477  1.00  0.00     0.010 A 
ATOM     26  C   UNL A   1      38.640  29.329  28.774  1.00  0.00    -0.014 A 
BRANCH  26  27
ATOM     27  C   UNL A   1      40.019  28.907  29.098  1.00  0.00     0.031 A 
ATOM     28  C   UNL A   1      40.507  27.532  28.760  1.00  0.00     0.074 A 
ATOM     29  C   UNL A   1      40.824  29.806  29.693  1.00  0.00     0.049 A 
ATOM     30  N   UNL A   1      41.713  27.046  28.887  1.00  0.00    -0.248 NA
ATOM     31  C   UNL A   1      39.526  26.581  28.214  1.00  0.00     0.031 C 
ATOM     32  C   UNL A   1      40.418  31.160  30.079  1.00  0.00     0.029 A 
ATOM     33  N   UNL A   1      42.140  29.733  30.062  1.00  0.00    -0.354 N 
ATOM     34  C   UNL A   1      41.647  25.743  28.414  1.00  0.00     0.074 A 
ATOM     35  C   UNL A   1      40.271  25.494  28.046  1.00  0.00     0.031 C 
ATOM     36  C   UNL A   1      41.473  31.802  30.598  1.00  0.00     0.029 A 
ATOM     37  C   UNL A   1      42.620  30.898  30.611  1.00  0.00     0.049 A 
ATOM     38  H   UNL A   1      42.690  28.924  29.945  1.00  0.00     0.167 HD
ATOM     39  C   UNL A   1      42.658  24.850  28.283  1.00  0.00     0.031 A 
ATOM     40  C   UNL A   1      43.849  31.211  31.065  1.00  0.00     0.031 A 
ATOM     41  C   UNL A   1      44.019  25.122  28.674  1.00  0.00     0.049 A 
ATOM     42  C   UNL A   1      44.943  30.189  30.940  1.00  0.00     0.074 A 
ATOM     43  C   UNL A   1      45.124  24.298  28.553  1.00  0.00     0.029 A 
ATOM     44  N   UNL A   1      44.462  26.299  29.262  1.00  0.00    -0.354 N 
ATOM     45  N   UNL A   1      44.882  28.986  30.421  1.00  0.00    -0.248 NA
ATOM     46  C   UNL A   1      46.271  30.565  31.441  1.00  0.00     0.031 C 
ATOM     47  C   UNL A   1      46.216  24.946  29.131  1.00  0.00     0.029 A 
ATOM     48  C   UNL A   1      45.815  26.208  29.541  1.00  0.00     0.049 A 
ATOM     49  H   UNL A   1      43.898  27.083  29.452  1.00  0.00     0.167 HD
ATOM     50  C   UNL A   1      46.166  28.464  30.521  1.00  0.00     0.074 A 
ATOM     51  C   UNL A   1      46.988  29.492  31.128  1.00  0.00     0.031 C 
ATOM     52  C   UNL A   1      46.619  27.240  30.151  1.00  0.00     0.031 A 
BRANCH  39  53
ATOM     53  C   UNL A   1      42.364  23.505  27.668  1.00  0.00    -0.014 A 
ATOM     54  C   UNL A   1      42.050  22.407  28.490  1.00  0.00     0.010 A 
ATOM     55  C   UNL A   1      42.561  23.292  26.292  1.00  0.00     0.010 A 
ATOM     56  C   UNL A   1      41.987  21.116  27.958  1.00  0.00     0.020 A 
ATOM     57  C   UNL A   1      42.472  22.006  25.751  1.00  0.00     0.020 A 
ATOM     58  C   UNL A   1      42.215  20.922  26.593  1.00  0.00     0.054 A 
BRANCH  58  59
ATOM     59  S   UNL A   1      42.199  19.230  25.934  1.00  0.00     0.124 S 
ATOM     60  O   UNL A   1      42.749  18.460  27.045  1.00  0.00    -0.237 OA
ATOM     61  O   UNL A   1      40.783  19.011  25.653  1.00  0.00    -0.237 OA
ATOM     62  O   UNL A   1      43.054  19.316  24.750  1.00  0.00    -0.744 OA
ENDBRANCH  58  59
ENDBRANCH  39  53
BRANCH  40  63
ATOM     63  C   UNL A   1      44.089  32.568  31.628  1.00  0.00    -0.014 A 
ATOM     64  C   UNL A   1      43.725  32.858  32.957  1.00  0.00     0.010 A 
ATOM     65  C   UNL A   1      44.581  33.602  30.814  1.00  0.00     0.010 A 
ATOM     66  C   UNL A   1      43.796  34.166  33.443  1.00  0.00     0.020 A 
ATOM     67  C   UNL A   1      44.685  34.907  31.308  1.00  0.00     0.020 A 
ATOM     68  C   UNL A   1      44.262  35.185  32.611  1.00  0.00     0.054 A 
BRANCH  68  69
ATOM     69  S   UNL A   1      44.295  36.883  33.248  1.00  0.00     0.124 S 
ATOM     70  O   UNL A   1      45.709  37.054  33.573  1.00  0.00    -0.237 OA
ATOM     71  O   UNL A   1      43.814  37.660  32.109  1.00  0.00    -0.237 OA
ATOM     72  O   UNL A   1      43.391  36.836  34.393  1.00  0.00    -0.744 OA
ENDBRANCH  68  69
ENDBRANCH  40  63
BRANCH  52  73
ATOM     73  C   UNL A   1      48.068  26.916  30.400  1.00  0.00    -0.014 A 
ATOM     74  C   UNL A   1      48.462  26.374  31.638  1.00  0.00     0.010 A 
ATOM     75  C   UNL A   1      49.054  27.286  29.468  1.00  0.00     0.010 A 
ATOM     76  C   UNL A   1      49.815  26.252  31.959  1.00  0.00     0.020 A 
ATOM     77  C   UNL A   1      50.410  27.136  29.774  1.00  0.00     0.020 A 
ATOM     78  C   UNL A   1      50.781  26.648  31.030  1.00  0.00     0.054 A 
BRANCH  78  79
ATOM     79  S   UNL A   1      52.532  26.535  31.487  1.00  0.00     0.124 S 
ATOM     80  O   UNL A   1      52.725  27.751  32.270  1.00  0.00    -0.237 OA
ATOM     81  O   UNL A   1      52.587  25.284  32.241  1.00  0.00    -0.237 OA
ATOM     82  O   UNL A   1      53.222  26.506  30.199  1.00  0.00    -0.744 OA
ENDBRANCH  78  79
ENDBRANCH  52  73
ENDBRANCH  26  27
ENDBRANCH  19  21
ENDBRANCH  18  19
ENDBRANCH   1  18
TORSDOF 15
ENDMDL
