MODEL 1
REMARK VINA RESULT:     -11.1      0.000      0.000
REMARK SMILES CCOC(=O)c1c(NC(=O)[C@@H]2[C@@H]3CC[C@@H](C3)[C@@H]2C(=O)OCCOC(=O)c2ccc(-c3c4nc(c(-c5ccc(S(=O)(=O)[O-])cc5)c5ccc([nH]5)c(-c5ccc(S(=O)(=O)[O-])cc5)c5nc(c(-c6ccc(S(=O)(=O)[O-])cc6)c6ccc3[nH]6)C=C5)C=C4)cc2)sc2c1CCCC2
REMARK SMILES IDX 21 1 20 2 18 3 19 4 17 5 11 6 12 7 13 8 16 9 15 10 14 11
REMARK SMILES IDX 9 12 8 13 10 15 7 16 6 17 88 18 86 19 87 20 89 21 92 22
REMARK SMILES IDX 90 23 91 24 4 25 5 26 3 27 2 28 1 29 22 30 23 31 24 32 25 33
REMARK SMILES IDX 26 34 27 35 85 36 28 37 84 38 29 39 30 40 31 41 78 42 32 43
REMARK SMILES IDX 83 44 77 45 79 46 33 47 82 48 76 49 75 50 34 52 64 53 45 54
REMARK SMILES IDX 63 55 46 56 49 57 62 58 80 59 47 60 48 61 61 63 81 64 50 65
REMARK SMILES IDX 35 66 36 67 44 68 37 69 43 70 38 71 39 72 40 73 41 74 42 75
REMARK SMILES IDX 65 76 66 77 74 78 67 79 73 80 68 81 69 82 70 83 71 84 72 85
REMARK SMILES IDX 51 86 52 87 60 88 53 89 59 90 54 91 55 92 56 93 57 94 58 95
REMARK H PARENT 8 14 79 51 49 62
REMARK Flexibility Score: inf
ROOT
ATOM      1  C   UNL A   1      31.803  30.211  26.496  1.00  0.00     0.274 C 
ENDROOT
BRANCH   1   2
ATOM      2  O   UNL A   1      32.109  29.282  25.434  1.00  0.00    -0.462 OA
BRANCH   2   3
ATOM      3  C   UNL A   1      32.445  28.008  25.819  1.00  0.00     0.310 C 
ATOM      4  O   UNL A   1      33.468  27.727  26.422  1.00  0.00    -0.252 OA
BRANCH   3   5
ATOM      5  C   UNL A   1      31.459  27.019  25.203  1.00  0.00     0.115 C 
ATOM      6  C   UNL A   1      31.883  25.891  24.228  1.00  0.00     0.096 C 
ATOM      7  C   UNL A   1      30.820  26.006  23.101  1.00  0.00     0.003 C 
ATOM      8  C   UNL A   1      31.067  27.248  22.222  1.00  0.00     0.005 C 
ATOM      9  C   UNL A   1      29.582  26.456  23.877  1.00  0.00     0.009 C 
ATOM     10  C   UNL A   1      30.283  27.692  24.456  1.00  0.00     0.004 C 
ATOM     11  C   UNL A   1      30.744  28.405  23.171  1.00  0.00     0.005 C 
BRANCH   6  12
ATOM     12  C   UNL A   1      33.261  25.915  23.640  1.00  0.00     0.229 C 
ATOM     13  N   UNL A   1      33.995  24.794  23.435  1.00  0.00    -0.317 N 
ATOM     14  H   UNL A   1      34.832  24.998  22.960  1.00  0.00     0.170 HD
ATOM     15  O   UNL A   1      33.733  26.978  23.231  1.00  0.00    -0.274 OA
BRANCH  13  16
ATOM     16  C   UNL A   1      33.888  23.454  23.713  1.00  0.00     0.110 A 
ATOM     17  C   UNL A   1      34.331  22.485  24.596  1.00  0.00     0.098 A 
ATOM     18  C   UNL A   1      33.728  21.195  24.293  1.00  0.00    -0.017 A 
ATOM     19  S   UNL A   1      32.829  22.792  22.528  1.00  0.00    -0.122 S 
ATOM     20  C   UNL A   1      32.946  21.236  23.160  1.00  0.00     0.011 A 
ATOM     21  C   UNL A   1      33.881  19.928  25.090  1.00  0.00     0.038 C 
ATOM     22  C   UNL A   1      32.264  20.065  22.524  1.00  0.00     0.047 C 
ATOM     23  C   UNL A   1      33.416  18.685  24.314  1.00  0.00     0.005 C 
ATOM     24  C   UNL A   1      32.109  18.932  23.548  1.00  0.00     0.006 C 
BRANCH  17  25
ATOM     25  C   UNL A   1      35.261  22.630  25.699  1.00  0.00     0.341 C 
ATOM     26  O   UNL A   1      36.391  22.167  25.692  1.00  0.00    -0.246 OA
BRANCH  25  27
ATOM     27  O   UNL A   1      34.758  23.448  26.670  1.00  0.00    -0.462 OA
BRANCH  27  28
ATOM     28  C   UNL A   1      33.372  23.276  27.004  1.00  0.00     0.230 C 
ATOM     29  C   UNL A   1      33.234  22.182  28.044  1.00  0.00     0.049 C 
ENDBRANCH  27  28
ENDBRANCH  25  27
ENDBRANCH  17  25
ENDBRANCH  13  16
ENDBRANCH   6  12
ENDBRANCH   3   5
ENDBRANCH   2   3
ENDBRANCH   1   2
BRANCH   1  30
ATOM     30  C   UNL A   1      33.051  31.002  26.873  1.00  0.00     0.275 C 
BRANCH  30  31
ATOM     31  O   UNL A   1      33.583  30.457  28.091  1.00  0.00    -0.458 OA
BRANCH  31  32
ATOM     32  C   UNL A   1      34.643  31.106  28.626  1.00  0.00     0.338 C 
ATOM     33  O   UNL A   1      34.637  32.201  29.163  1.00  0.00    -0.246 OA
BRANCH  32  34
ATOM     34  C   UNL A   1      35.850  30.257  28.528  1.00  0.00     0.060 A 
ATOM     35  C   UNL A   1      36.383  29.679  29.669  1.00  0.00     0.016 A 
ATOM     36  C   UNL A   1      36.556  30.157  27.330  1.00  0.00     0.016 A 
ATOM     37  C   UNL A   1      37.685  29.166  29.647  1.00  0.00     0.010 A 
ATOM     38  C   UNL A   1      37.813  29.522  27.299  1.00  0.00     0.010 A 
ATOM     39  C   UNL A   1      38.460  29.102  28.478  1.00  0.00    -0.014 A 
BRANCH  39  40
ATOM     40  C   UNL A   1      39.938  28.747  28.498  1.00  0.00     0.031 A 
ATOM     41  C   UNL A   1      40.953  29.708  29.115  1.00  0.00     0.074 A 
ATOM     42  C   UNL A   1      40.437  27.550  28.101  1.00  0.00     0.049 A 
ATOM     43  N   UNL A   1      42.258  29.748  28.971  1.00  0.00    -0.248 NA
ATOM     44  C   UNL A   1      40.435  30.766  29.998  1.00  0.00     0.031 C 
ATOM     45  C   UNL A   1      39.672  26.414  27.591  1.00  0.00     0.029 A 
ATOM     46  N   UNL A   1      41.732  27.068  28.126  1.00  0.00    -0.354 N 
ATOM     47  C   UNL A   1      42.684  30.909  29.611  1.00  0.00     0.074 A 
ATOM     48  C   UNL A   1      41.506  31.523  30.184  1.00  0.00     0.031 C 
ATOM     49  C   UNL A   1      40.466  25.337  27.515  1.00  0.00     0.029 A 
ATOM     50  C   UNL A   1      41.843  25.744  27.764  1.00  0.00     0.049 A 
ATOM     51  H   UNL A   1      42.505  27.620  28.381  1.00  0.00     0.167 HD
ATOM     52  C   UNL A   1      43.934  31.429  29.702  1.00  0.00     0.031 A 
ATOM     53  C   UNL A   1      42.916  24.947  27.566  1.00  0.00     0.031 A 
ATOM     54  C   UNL A   1      45.132  30.753  29.275  1.00  0.00     0.049 A 
ATOM     55  C   UNL A   1      44.298  25.535  27.626  1.00  0.00     0.074 A 
ATOM     56  C   UNL A   1      46.441  31.210  29.313  1.00  0.00     0.029 A 
ATOM     57  N   UNL A   1      45.179  29.460  28.783  1.00  0.00    -0.354 N 
ATOM     58  N   UNL A   1      44.670  26.731  28.007  1.00  0.00    -0.248 NA
ATOM     59  C   UNL A   1      45.399  24.679  27.158  1.00  0.00     0.031 C 
ATOM     60  C   UNL A   1      47.274  30.201  28.814  1.00  0.00     0.029 A 
ATOM     61  C   UNL A   1      46.490  29.103  28.512  1.00  0.00     0.049 A 
ATOM     62  H   UNL A   1      44.396  28.880  28.648  1.00  0.00     0.167 HD
ATOM     63  C   UNL A   1      46.046  26.778  27.807  1.00  0.00     0.074 A 
ATOM     64  C   UNL A   1      46.446  25.481  27.308  1.00  0.00     0.031 C 
ATOM     65  C   UNL A   1      46.894  27.817  28.003  1.00  0.00     0.031 A 
BRANCH  52  66
ATOM     66  C   UNL A   1      44.064  32.847  30.198  1.00  0.00    -0.014 A 
ATOM     67  C   UNL A   1      44.331  33.165  31.540  1.00  0.00     0.010 A 
ATOM     68  C   UNL A   1      43.933  33.893  29.262  1.00  0.00     0.010 A 
ATOM     69  C   UNL A   1      44.400  34.503  31.946  1.00  0.00     0.020 A 
ATOM     70  C   UNL A   1      44.032  35.229  29.657  1.00  0.00     0.020 A 
ATOM     71  C   UNL A   1      44.238  35.526  31.004  1.00  0.00     0.054 A 
BRANCH  71  72
ATOM     72  S   UNL A   1      44.313  37.252  31.555  1.00  0.00     0.124 S 
ATOM     73  O   UNL A   1      43.478  37.220  32.753  1.00  0.00    -0.237 OA
ATOM     74  O   UNL A   1      45.740  37.454  31.792  1.00  0.00    -0.237 OA
ATOM     75  O   UNL A   1      43.759  38.001  30.430  1.00  0.00    -0.744 OA
ENDBRANCH  71  72
ENDBRANCH  52  66
BRANCH  53  76
ATOM     76  C   UNL A   1      42.725  23.520  27.168  1.00  0.00    -0.014 A 
ATOM     77  C   UNL A   1      42.896  23.121  25.831  1.00  0.00     0.010 A 
ATOM     78  C   UNL A   1      42.389  22.549  28.131  1.00  0.00     0.010 A 
ATOM     79  C   UNL A   1      42.759  21.774  25.471  1.00  0.00     0.020 A 
ATOM     80  C   UNL A   1      42.292  21.201  27.783  1.00  0.00     0.020 A 
ATOM     81  C   UNL A   1      42.472  20.821  26.453  1.00  0.00     0.054 A 
BRANCH  81  82
ATOM     82  S   UNL A   1      42.406  19.066  25.993  1.00  0.00     0.124 S 
ATOM     83  O   UNL A   1      40.974  18.854  25.817  1.00  0.00    -0.237 OA
ATOM     84  O   UNL A   1      43.208  19.024  24.772  1.00  0.00    -0.237 OA
ATOM     85  O   UNL A   1      43.005  18.393  27.144  1.00  0.00    -0.744 OA
ENDBRANCH  81  82
ENDBRANCH  53  76
BRANCH  65  86
ATOM     86  C   UNL A   1      48.349  27.593  27.697  1.00  0.00    -0.014 A 
ATOM     87  C   UNL A   1      49.212  27.027  28.654  1.00  0.00     0.010 A 
ATOM     88  C   UNL A   1      48.855  27.919  26.425  1.00  0.00     0.010 A 
ATOM     89  C   UNL A   1      50.561  26.819  28.353  1.00  0.00     0.020 A 
ATOM     90  C   UNL A   1      50.199  27.692  26.115  1.00  0.00     0.020 A 
ATOM     91  C   UNL A   1      51.047  27.156  27.086  1.00  0.00     0.054 A 
BRANCH  91  92
ATOM     92  S   UNL A   1      52.794  26.846  26.706  1.00  0.00     0.124 S 
ATOM     93  O   UNL A   1      53.472  27.625  27.739  1.00  0.00    -0.237 OA
ATOM     94  O   UNL A   1      52.900  25.395  26.841  1.00  0.00    -0.237 OA
ATOM     95  O   UNL A   1      52.947  27.351  25.344  1.00  0.00    -0.744 OA
ENDBRANCH  91  92
ENDBRANCH  65  86
ENDBRANCH  39  40
ENDBRANCH  32  34
ENDBRANCH  31  32
ENDBRANCH  30  31
ENDBRANCH   1  30
TORSDOF 19
ENDMDL
MODEL 2
REMARK VINA RESULT:     -11.0      2.228      9.244
REMARK SMILES CCOC(=O)c1c(NC(=O)[C@@H]2[C@@H]3CC[C@@H](C3)[C@@H]2C(=O)OCCOC(=O)c2ccc(-c3c4nc(c(-c5ccc(S(=O)(=O)[O-])cc5)c5ccc([nH]5)c(-c5ccc(S(=O)(=O)[O-])cc5)c5nc(c(-c6ccc(S(=O)(=O)[O-])cc6)c6ccc3[nH]6)C=C5)C=C4)cc2)sc2c1CCCC2
REMARK SMILES IDX 21 1 20 2 18 3 19 4 17 5 11 6 12 7 13 8 16 9 15 10 14 11
REMARK SMILES IDX 9 12 8 13 10 15 7 16 6 17 88 18 86 19 87 20 89 21 92 22
REMARK SMILES IDX 90 23 91 24 4 25 5 26 3 27 2 28 1 29 22 30 23 31 24 32 25 33
REMARK SMILES IDX 26 34 27 35 85 36 28 37 84 38 29 39 30 40 31 41 78 42 32 43
REMARK SMILES IDX 83 44 77 45 79 46 33 47 82 48 76 49 75 50 34 52 64 53 45 54
REMARK SMILES IDX 63 55 46 56 49 57 62 58 80 59 47 60 48 61 61 63 81 64 50 65
REMARK SMILES IDX 35 66 36 67 44 68 37 69 43 70 38 71 39 72 40 73 41 74 42 75
REMARK SMILES IDX 65 76 66 77 74 78 67 79 73 80 68 81 69 82 70 83 71 84 72 85
REMARK SMILES IDX 51 86 52 87 60 88 53 89 59 90 54 91 55 92 56 93 57 94 58 95
REMARK H PARENT 8 14 79 51 49 62
REMARK Flexibility Score: inf
ROOT
ATOM      1  C   UNL A   1      37.032  21.702  24.257  1.00  0.00     0.274 C 
ENDROOT
BRANCH   1   2
ATOM      2  O   UNL A   1      36.309  22.510  25.212  1.00  0.00    -0.462 OA
BRANCH   2   3
ATOM      3  C   UNL A   1      35.082  22.036  25.602  1.00  0.00     0.310 C 
ATOM      4  O   UNL A   1      34.909  21.306  26.563  1.00  0.00    -0.252 OA
BRANCH   3   5
ATOM      5  C   UNL A   1      34.043  22.397  24.543  1.00  0.00     0.115 C 
ATOM      6  C   UNL A   1      32.953  23.479  24.755  1.00  0.00     0.096 C 
ATOM      7  C   UNL A   1      31.673  22.771  24.230  1.00  0.00     0.003 C 
ATOM      8  C   UNL A   1      31.191  21.685  25.212  1.00  0.00     0.005 C 
ATOM      9  C   UNL A   1      32.232  21.900  23.104  1.00  0.00     0.009 C 
ATOM     10  C   UNL A   1      33.229  21.187  24.027  1.00  0.00     0.004 C 
ATOM     11  C   UNL A   1      32.287  20.621  25.106  1.00  0.00     0.005 C 
BRANCH   6  12
ATOM     12  C   UNL A   1      32.715  24.014  26.135  1.00  0.00     0.229 C 
ATOM     13  N   UNL A   1      32.114  25.206  26.370  1.00  0.00    -0.317 N 
ATOM     14  H   UNL A   1      31.964  25.346  27.332  1.00  0.00     0.170 HD
ATOM     15  O   UNL A   1      32.985  23.318  27.116  1.00  0.00    -0.274 OA
BRANCH  13  16
ATOM     16  C   UNL A   1      31.660  26.269  25.630  1.00  0.00     0.110 A 
ATOM     17  C   UNL A   1      32.025  27.533  25.200  1.00  0.00     0.098 A 
ATOM     18  C   UNL A   1      30.994  28.107  24.348  1.00  0.00    -0.017 A 
ATOM     19  S   UNL A   1      30.093  25.838  25.064  1.00  0.00    -0.122 S 
ATOM     20  C   UNL A   1      29.882  27.300  24.257  1.00  0.00     0.011 A 
ATOM     21  C   UNL A   1      31.072  29.415  23.609  1.00  0.00     0.038 C 
ATOM     22  C   UNL A   1      28.611  27.638  23.540  1.00  0.00     0.047 C 
ATOM     23  C   UNL A   1      29.700  29.887  23.102  1.00  0.00     0.005 C 
ATOM     24  C   UNL A   1      28.873  28.740  22.504  1.00  0.00     0.006 C 
BRANCH  17  25
ATOM     25  C   UNL A   1      33.239  28.269  25.497  1.00  0.00     0.341 C 
ATOM     26  O   UNL A   1      34.115  28.483  24.673  1.00  0.00    -0.246 OA
BRANCH  25  27
ATOM     27  O   UNL A   1      33.209  28.791  26.758  1.00  0.00    -0.462 OA
BRANCH  27  28
ATOM     28  C   UNL A   1      34.029  29.945  26.998  1.00  0.00     0.230 C 
ATOM     29  C   UNL A   1      35.182  29.568  27.906  1.00  0.00     0.049 C 
ENDBRANCH  27  28
ENDBRANCH  25  27
ENDBRANCH  17  25
ENDBRANCH  13  16
ENDBRANCH   6  12
ENDBRANCH   3   5
ENDBRANCH   2   3
ENDBRANCH   1   2
BRANCH   1  30
ATOM     30  C   UNL A   1      38.150  20.939  24.959  1.00  0.00     0.275 C 
BRANCH  30  31
ATOM     31  O   UNL A   1      38.501  21.649  26.157  1.00  0.00    -0.458 OA
BRANCH  31  32
ATOM     32  C   UNL A   1      39.824  21.768  26.418  1.00  0.00     0.338 C 
ATOM     33  O   UNL A   1      40.714  21.020  26.051  1.00  0.00    -0.246 OA
BRANCH  32  34
ATOM     34  C   UNL A   1      40.072  23.007  27.188  1.00  0.00     0.060 A 
ATOM     35  C   UNL A   1      39.221  24.092  27.045  1.00  0.00     0.016 A 
ATOM     36  C   UNL A   1      41.238  23.161  27.935  1.00  0.00     0.016 A 
ATOM     37  C   UNL A   1      39.622  25.355  27.492  1.00  0.00     0.010 A 
ATOM     38  C   UNL A   1      41.565  24.414  28.489  1.00  0.00     0.010 A 
ATOM     39  C   UNL A   1      40.819  25.572  28.194  1.00  0.00    -0.014 A 
BRANCH  39  40
ATOM     40  C   UNL A   1      41.351  26.964  28.487  1.00  0.00     0.031 A 
ATOM     41  C   UNL A   1      42.773  27.348  28.080  1.00  0.00     0.074 A 
ATOM     42  C   UNL A   1      40.601  27.972  28.999  1.00  0.00     0.049 A 
ATOM     43  N   UNL A   1      43.517  28.349  28.492  1.00  0.00    -0.248 NA
ATOM     44  C   UNL A   1      43.449  26.491  27.092  1.00  0.00     0.031 C 
ATOM     45  C   UNL A   1      39.186  27.909  29.356  1.00  0.00     0.029 A 
ATOM     46  N   UNL A   1      40.927  29.291  29.251  1.00  0.00    -0.354 N 
ATOM     47  C   UNL A   1      44.779  28.149  27.935  1.00  0.00     0.074 A 
ATOM     48  C   UNL A   1      44.689  26.958  27.120  1.00  0.00     0.031 C 
ATOM     49  C   UNL A   1      38.732  29.143  29.613  1.00  0.00     0.029 A 
ATOM     50  C   UNL A   1      39.861  30.065  29.650  1.00  0.00     0.049 A 
ATOM     51  H   UNL A   1      41.840  29.646  29.154  1.00  0.00     0.167 HD
ATOM     52  C   UNL A   1      45.912  28.876  28.099  1.00  0.00     0.031 A 
ATOM     53  C   UNL A   1      39.780  31.344  30.080  1.00  0.00     0.031 A 
ATOM     54  C   UNL A   1      45.978  30.146  28.777  1.00  0.00     0.049 A 
ATOM     55  C   UNL A   1      41.040  32.133  30.299  1.00  0.00     0.074 A 
ATOM     56  C   UNL A   1      47.087  30.947  29.004  1.00  0.00     0.029 A 
ATOM     57  N   UNL A   1      44.887  30.827  29.288  1.00  0.00    -0.354 N 
ATOM     58  N   UNL A   1      42.273  31.823  29.985  1.00  0.00    -0.248 NA
ATOM     59  C   UNL A   1      40.900  33.419  31.000  1.00  0.00     0.031 C 
ATOM     60  C   UNL A   1      46.668  32.098  29.682  1.00  0.00     0.029 A 
ATOM     61  C   UNL A   1      45.294  32.034  29.832  1.00  0.00     0.049 A 
ATOM     62  H   UNL A   1      43.959  30.501  29.267  1.00  0.00     0.167 HD
ATOM     63  C   UNL A   1      43.058  32.867  30.466  1.00  0.00     0.074 A 
ATOM     64  C   UNL A   1      42.159  33.833  31.059  1.00  0.00     0.031 C 
ATOM     65  C   UNL A   1      44.406  32.995  30.434  1.00  0.00     0.031 A 
BRANCH  52  66
ATOM     66  C   UNL A   1      47.205  28.268  27.618  1.00  0.00    -0.014 A 
ATOM     67  C   UNL A   1      47.726  28.495  26.333  1.00  0.00     0.010 A 
ATOM     68  C   UNL A   1      47.929  27.452  28.512  1.00  0.00     0.010 A 
ATOM     69  C   UNL A   1      48.911  27.868  25.932  1.00  0.00     0.020 A 
ATOM     70  C   UNL A   1      49.128  26.850  28.127  1.00  0.00     0.020 A 
ATOM     71  C   UNL A   1      49.598  27.040  26.828  1.00  0.00     0.054 A 
BRANCH  71  72
ATOM     72  S   UNL A   1      51.122  26.223  26.281  1.00  0.00     0.124 S 
ATOM     73  O   UNL A   1      50.987  26.279  24.827  1.00  0.00    -0.237 OA
ATOM     74  O   UNL A   1      52.166  27.074  26.846  1.00  0.00    -0.237 OA
ATOM     75  O   UNL A   1      51.029  24.887  26.864  1.00  0.00    -0.744 OA
ENDBRANCH  71  72
ENDBRANCH  52  66
BRANCH  53  76
ATOM     76  C   UNL A   1      38.456  31.926  30.452  1.00  0.00    -0.014 A 
ATOM     77  C   UNL A   1      37.934  31.747  31.745  1.00  0.00     0.010 A 
ATOM     78  C   UNL A   1      37.720  32.680  29.519  1.00  0.00     0.010 A 
ATOM     79  C   UNL A   1      36.713  32.333  32.103  1.00  0.00     0.020 A 
ATOM     80  C   UNL A   1      36.524  33.299  29.884  1.00  0.00     0.020 A 
ATOM     81  C   UNL A   1      36.023  33.117  31.173  1.00  0.00     0.054 A 
BRANCH  81  82
ATOM     82  S   UNL A   1      34.499  33.961  31.682  1.00  0.00     0.124 S 
ATOM     83  O   UNL A   1      33.810  34.135  30.408  1.00  0.00    -0.237 OA
ATOM     84  O   UNL A   1      33.893  33.001  32.603  1.00  0.00    -0.237 OA
ATOM     85  O   UNL A   1      34.985  35.189  32.308  1.00  0.00    -0.744 OA
ENDBRANCH  81  82
ENDBRANCH  53  76
BRANCH  65  86
ATOM     86  C   UNL A   1      45.000  34.238  31.040  1.00  0.00    -0.014 A 
ATOM     87  C   UNL A   1      45.427  34.257  32.381  1.00  0.00     0.010 A 
ATOM     88  C   UNL A   1      45.167  35.390  30.251  1.00  0.00     0.010 A 
ATOM     89  C   UNL A   1      45.983  35.416  32.928  1.00  0.00     0.020 A 
ATOM     90  C   UNL A   1      45.742  36.544  30.790  1.00  0.00     0.020 A 
ATOM     91  C   UNL A   1      46.133  36.554  32.131  1.00  0.00     0.054 A 
BRANCH  91  92
ATOM     92  S   UNL A   1      46.888  38.038  32.854  1.00  0.00     0.124 S 
ATOM     93  O   UNL A   1      46.256  38.090  34.170  1.00  0.00    -0.237 OA
ATOM     94  O   UNL A   1      48.312  37.709  32.852  1.00  0.00    -0.237 OA
ATOM     95  O   UNL A   1      46.501  39.106  31.934  1.00  0.00    -0.744 OA
ENDBRANCH  91  92
ENDBRANCH  65  86
ENDBRANCH  39  40
ENDBRANCH  32  34
ENDBRANCH  31  32
ENDBRANCH  30  31
ENDBRANCH   1  30
TORSDOF 19
ENDMDL
MODEL 3
REMARK VINA RESULT:     -11.0      2.530      7.773
REMARK SMILES CCOC(=O)c1c(NC(=O)[C@@H]2[C@@H]3CC[C@@H](C3)[C@@H]2C(=O)OCCOC(=O)c2ccc(-c3c4nc(c(-c5ccc(S(=O)(=O)[O-])cc5)c5ccc([nH]5)c(-c5ccc(S(=O)(=O)[O-])cc5)c5nc(c(-c6ccc(S(=O)(=O)[O-])cc6)c6ccc3[nH]6)C=C5)C=C4)cc2)sc2c1CCCC2
REMARK SMILES IDX 21 1 20 2 18 3 19 4 17 5 11 6 12 7 13 8 16 9 15 10 14 11
REMARK SMILES IDX 9 12 8 13 10 15 7 16 6 17 88 18 86 19 87 20 89 21 92 22
REMARK SMILES IDX 90 23 91 24 4 25 5 26 3 27 2 28 1 29 22 30 23 31 24 32 25 33
REMARK SMILES IDX 26 34 27 35 85 36 28 37 84 38 29 39 30 40 31 41 78 42 32 43
REMARK SMILES IDX 83 44 77 45 79 46 33 47 82 48 76 49 75 50 34 52 64 53 45 54
REMARK SMILES IDX 63 55 46 56 49 57 62 58 80 59 47 60 48 61 61 63 81 64 50 65
REMARK SMILES IDX 35 66 36 67 44 68 37 69 43 70 38 71 39 72 40 73 41 74 42 75
REMARK SMILES IDX 65 76 66 77 74 78 67 79 73 80 68 81 69 82 70 83 71 84 72 85
REMARK SMILES IDX 51 86 52 87 60 88 53 89 59 90 54 91 55 92 56 93 57 94 58 95
REMARK H PARENT 8 14 79 51 49 62
REMARK Flexibility Score: inf
ROOT
ATOM      1  C   UNL A   1      36.215  20.858  25.397  1.00  0.00     0.274 C 
ENDROOT
BRANCH   1   2
ATOM      2  O   UNL A   1      35.298  21.859  25.889  1.00  0.00    -0.462 OA
BRANCH   2   3
ATOM      3  C   UNL A   1      34.032  21.835  25.362  1.00  0.00     0.310 C 
ATOM      4  O   UNL A   1      33.220  20.950  25.581  1.00  0.00    -0.252 OA
BRANCH   3   5
ATOM      5  C   UNL A   1      33.895  22.950  24.329  1.00  0.00     0.115 C 
ATOM      6  C   UNL A   1      33.046  24.227  24.563  1.00  0.00     0.096 C 
ATOM      7  C   UNL A   1      32.261  24.355  23.228  1.00  0.00     0.003 C 
ATOM      8  C   UNL A   1      31.151  23.291  23.127  1.00  0.00     0.005 C 
ATOM      9  C   UNL A   1      33.267  23.807  22.215  1.00  0.00     0.009 C 
ATOM     10  C   UNL A   1      33.406  22.464  22.944  1.00  0.00     0.004 C 
ATOM     11  C   UNL A   1      31.943  21.988  22.980  1.00  0.00     0.005 C 
BRANCH   6  12
ATOM     12  C   UNL A   1      32.099  24.270  25.723  1.00  0.00     0.229 C 
ATOM     13  N   UNL A   1      31.156  25.232  25.869  1.00  0.00    -0.317 N 
ATOM     14  H   UNL A   1      30.571  25.045  26.638  1.00  0.00     0.170 HD
ATOM     15  O   UNL A   1      32.096  23.351  26.545  1.00  0.00    -0.274 OA
BRANCH  13  16
ATOM     16  C   UNL A   1      30.795  26.395  25.235  1.00  0.00     0.110 A 
ATOM     17  C   UNL A   1      31.235  27.684  24.989  1.00  0.00     0.098 A 
ATOM     18  C   UNL A   1      30.291  28.400  24.144  1.00  0.00    -0.017 A 
ATOM     19  S   UNL A   1      29.261  26.104  24.512  1.00  0.00    -0.122 S 
ATOM     20  C   UNL A   1      29.161  27.659  23.877  1.00  0.00     0.011 A 
ATOM     21  C   UNL A   1      30.469  29.783  23.577  1.00  0.00     0.038 C 
ATOM     22  C   UNL A   1      27.960  28.136  23.121  1.00  0.00     0.047 C 
ATOM     23  C   UNL A   1      29.156  30.371  23.037  1.00  0.00     0.005 C 
ATOM     24  C   UNL A   1      28.337  29.340  22.248  1.00  0.00     0.006 C 
BRANCH  17  25
ATOM     25  C   UNL A   1      32.448  28.326  25.458  1.00  0.00     0.341 C 
ATOM     26  O   UNL A   1      32.491  29.048  26.441  1.00  0.00    -0.246 OA
BRANCH  25  27
ATOM     27  O   UNL A   1      33.537  27.916  24.742  1.00  0.00    -0.462 OA
BRANCH  27  28
ATOM     28  C   UNL A   1      33.768  28.573  23.487  1.00  0.00     0.230 C 
ATOM     29  C   UNL A   1      33.929  27.535  22.394  1.00  0.00     0.049 C 
ENDBRANCH  27  28
ENDBRANCH  25  27
ENDBRANCH  17  25
ENDBRANCH  13  16
ENDBRANCH   6  12
ENDBRANCH   3   5
ENDBRANCH   2   3
ENDBRANCH   1   2
BRANCH   1  30
ATOM     30  C   UNL A   1      37.397  21.528  24.706  1.00  0.00     0.275 C 
BRANCH  30  31
ATOM     31  O   UNL A   1      37.936  22.524  25.590  1.00  0.00    -0.458 OA
BRANCH  31  32
ATOM     32  C   UNL A   1      39.100  22.213  26.206  1.00  0.00     0.338 C 
ATOM     33  O   UNL A   1      39.715  21.162  26.124  1.00  0.00    -0.246 OA
BRANCH  32  34
ATOM     34  C   UNL A   1      39.586  23.379  26.975  1.00  0.00     0.060 A 
ATOM     35  C   UNL A   1      38.981  24.615  26.812  1.00  0.00     0.016 A 
ATOM     36  C   UNL A   1      40.747  23.294  27.743  1.00  0.00     0.016 A 
ATOM     37  C   UNL A   1      39.628  25.772  27.262  1.00  0.00     0.010 A 
ATOM     38  C   UNL A   1      41.317  24.456  28.298  1.00  0.00     0.010 A 
ATOM     39  C   UNL A   1      40.832  25.741  27.984  1.00  0.00    -0.014 A 
BRANCH  39  40
ATOM     40  C   UNL A   1      41.636  26.995  28.282  1.00  0.00     0.031 A 
ATOM     41  C   UNL A   1      41.018  28.133  29.094  1.00  0.00     0.074 A 
ATOM     42  C   UNL A   1      42.948  27.149  27.972  1.00  0.00     0.049 A 
ATOM     43  N   UNL A   1      41.401  29.384  29.203  1.00  0.00    -0.248 NA
ATOM     44  C   UNL A   1      39.808  27.827  29.875  1.00  0.00     0.031 C 
ATOM     45  C   UNL A   1      43.806  26.169  27.311  1.00  0.00     0.029 A 
ATOM     46  N   UNL A   1      43.814  28.192  28.239  1.00  0.00    -0.354 N 
ATOM     47  C   UNL A   1      40.404  30.033  29.928  1.00  0.00     0.074 A 
ATOM     48  C   UNL A   1      39.422  29.030  30.273  1.00  0.00     0.031 C 
ATOM     49  C   UNL A   1      45.082  26.574  27.375  1.00  0.00     0.029 A 
ATOM     50  C   UNL A   1      45.121  27.938  27.887  1.00  0.00     0.049 A 
ATOM     51  H   UNL A   1      43.523  29.040  28.644  1.00  0.00     0.167 HD
ATOM     52  C   UNL A   1      40.305  31.344  30.263  1.00  0.00     0.031 A 
ATOM     53  C   UNL A   1      46.226  28.716  27.888  1.00  0.00     0.031 A 
ATOM     54  C   UNL A   1      41.345  32.320  30.065  1.00  0.00     0.049 A 
ATOM     55  C   UNL A   1      46.105  30.176  28.219  1.00  0.00     0.074 A 
ATOM     56  C   UNL A   1      41.327  33.675  30.358  1.00  0.00     0.029 A 
ATOM     57  N   UNL A   1      42.609  32.039  29.574  1.00  0.00    -0.354 N 
ATOM     58  N   UNL A   1      45.071  30.835  28.680  1.00  0.00    -0.248 NA
ATOM     59  C   UNL A   1      47.287  31.012  27.959  1.00  0.00     0.031 C 
ATOM     60  C   UNL A   1      42.571  34.218  30.015  1.00  0.00     0.029 A 
ATOM     61  C   UNL A   1      43.377  33.193  29.554  1.00  0.00     0.049 A 
ATOM     62  H   UNL A   1      42.917  31.151  29.284  1.00  0.00     0.167 HD
ATOM     63  C   UNL A   1      45.472  32.165  28.747  1.00  0.00     0.074 A 
ATOM     64  C   UNL A   1      46.853  32.214  28.317  1.00  0.00     0.031 C 
ATOM     65  C   UNL A   1      44.748  33.250  29.115  1.00  0.00     0.031 A 
BRANCH  52  66
ATOM     66  C   UNL A   1      38.979  31.828  30.793  1.00  0.00    -0.014 A 
ATOM     67  C   UNL A   1      37.922  32.227  29.959  1.00  0.00     0.010 A 
ATOM     68  C   UNL A   1      38.792  31.857  32.191  1.00  0.00     0.010 A 
ATOM     69  C   UNL A   1      36.729  32.706  30.513  1.00  0.00     0.020 A 
ATOM     70  C   UNL A   1      37.592  32.305  32.748  1.00  0.00     0.020 A 
ATOM     71  C   UNL A   1      36.576  32.752  31.903  1.00  0.00     0.054 A 
BRANCH  71  72
ATOM     72  S   UNL A   1      35.029  33.394  32.599  1.00  0.00     0.124 S 
ATOM     73  O   UNL A   1      34.029  32.612  31.876  1.00  0.00    -0.237 OA
ATOM     74  O   UNL A   1      35.160  33.081  34.020  1.00  0.00    -0.237 OA
ATOM     75  O   UNL A   1      35.064  34.817  32.272  1.00  0.00    -0.744 OA
ENDBRANCH  71  72
ENDBRANCH  52  66
BRANCH  53  76
ATOM     76  C   UNL A   1      47.536  28.154  27.442  1.00  0.00    -0.014 A 
ATOM     77  C   UNL A   1      48.414  27.565  28.369  1.00  0.00     0.010 A 
ATOM     78  C   UNL A   1      47.903  28.188  26.083  1.00  0.00     0.010 A 
ATOM     79  C   UNL A   1      49.621  26.999  27.940  1.00  0.00     0.020 A 
ATOM     80  C   UNL A   1      49.086  27.589  25.647  1.00  0.00     0.020 A 
ATOM     81  C   UNL A   1      49.942  27.003  26.579  1.00  0.00     0.054 A 
BRANCH  81  82
ATOM     82  S   UNL A   1      51.456  26.170  26.022  1.00  0.00     0.124 S 
ATOM     83  O   UNL A   1      51.285  24.831  26.576  1.00  0.00    -0.237 OA
ATOM     84  O   UNL A   1      51.362  26.272  24.568  1.00  0.00    -0.237 OA
ATOM     85  O   UNL A   1      52.522  26.968  26.625  1.00  0.00    -0.744 OA
ENDBRANCH  81  82
ENDBRANCH  53  76
BRANCH  65  86
ATOM     86  C   UNL A   1      45.437  34.587  29.090  1.00  0.00    -0.014 A 
ATOM     87  C   UNL A   1      46.173  35.043  30.199  1.00  0.00     0.010 A 
ATOM     88  C   UNL A   1      45.379  35.382  27.932  1.00  0.00     0.010 A 
ATOM     89  C   UNL A   1      46.813  36.285  30.159  1.00  0.00     0.020 A 
ATOM     90  C   UNL A   1      46.035  36.615  27.881  1.00  0.00     0.020 A 
ATOM     91  C   UNL A   1      46.737  37.065  29.002  1.00  0.00     0.054 A 
BRANCH  91  92
ATOM     92  S   UNL A   1      47.605  38.659  28.960  1.00  0.00     0.124 S 
ATOM     93  O   UNL A   1      48.562  38.456  27.876  1.00  0.00    -0.237 OA
ATOM     94  O   UNL A   1      46.527  39.605  28.679  1.00  0.00    -0.237 OA
ATOM     95  O   UNL A   1      48.188  38.769  30.295  1.00  0.00    -0.744 OA
ENDBRANCH  91  92
ENDBRANCH  65  86
ENDBRANCH  39  40
ENDBRANCH  32  34
ENDBRANCH  31  32
ENDBRANCH  30  31
ENDBRANCH   1  30
TORSDOF 19
ENDMDL
