MODEL 1
REMARK VINA RESULT:     -10.6      0.000      0.000
REMARK SMILES CCOC(=O)C1=NN(c2ccc(C)cc2Cl)[C@@](C)(C(=O)OCCOC(=O)c2ccc(-c3c4nc(c(-c5ccc(S(=O)(=O)[O-])cc5)c5ccc([nH]5)c(-c5ccc(S(=O)(=O)[O-])cc5)c5nc(c(-c6ccc(S(=O)(=O)[O-])cc6)c6ccc3[nH]6)C=C5)C=C4)cc2)C1
REMARK SMILES IDX 22 1 21 2 19 3 20 4 17 5 6 6 7 7 87 8 8 9 18 10 4 11 5 12
REMARK SMILES IDX 3 13 2 14 1 15 9 16 10 17 15 18 11 19 14 20 16 21 12 22
REMARK SMILES IDX 13 23 23 24 24 25 25 26 26 27 27 28 28 29 86 30 29 31 85 32
REMARK SMILES IDX 30 33 31 34 32 35 79 36 33 37 84 38 78 39 80 40 34 41 83 42
REMARK SMILES IDX 77 43 76 44 35 46 65 47 46 48 64 49 47 50 50 51 63 52 81 53
REMARK SMILES IDX 48 54 49 55 62 57 82 58 51 59 36 60 37 61 45 62 38 63 44 64
REMARK SMILES IDX 39 65 40 66 41 67 42 68 43 69 66 70 67 71 75 72 68 73 74 74
REMARK SMILES IDX 69 75 70 76 71 77 72 78 73 79 52 80 53 81 61 82 54 83 60 84
REMARK SMILES IDX 55 85 56 86 57 87 58 88 59 89
REMARK H PARENT 80 45 50 56
REMARK Flexibility Score: inf
ROOT
ATOM      1  C   UNL A   1      32.095  27.833  27.434  1.00  0.00     0.274 C 
ENDROOT
BRANCH   1   2
ATOM      2  O   UNL A   1      31.041  27.121  26.752  1.00  0.00    -0.460 OA
BRANCH   2   3
ATOM      3  C   UNL A   1      31.285  25.822  26.434  1.00  0.00     0.334 C 
ATOM      4  O   UNL A   1      31.564  24.955  27.261  1.00  0.00    -0.249 OA
BRANCH   3   5
ATOM      5  C   UNL A   1      31.242  25.525  24.924  1.00  0.00     0.163 C 
ATOM      6  C   UNL A   1      31.362  27.409  23.580  1.00  0.00     0.149 C 
ATOM      7  N   UNL A   1      32.564  26.930  23.539  1.00  0.00    -0.169 NA
ATOM      8  C   UNL A   1      30.328  26.562  24.237  1.00  0.00     0.108 C 
ATOM      9  N   UNL A   1      32.531  25.749  24.226  1.00  0.00    -0.246 N 
ATOM     10  C   UNL A   1      30.656  24.125  24.747  1.00  0.00     0.050 C 
BRANCH   6  11
ATOM     11  C   UNL A   1      30.978  28.713  22.942  1.00  0.00     0.354 C 
ATOM     12  O   UNL A   1      31.768  29.379  22.302  1.00  0.00    -0.245 OA
BRANCH  11  13
ATOM     13  O   UNL A   1      29.689  28.974  23.234  1.00  0.00    -0.461 OA
BRANCH  13  14
ATOM     14  C   UNL A   1      29.248  30.307  22.932  1.00  0.00     0.230 C 
ATOM     15  C   UNL A   1      27.735  30.373  23.025  1.00  0.00     0.049 C 
ENDBRANCH  13  14
ENDBRANCH  11  13
ENDBRANCH   6  11
BRANCH   9  16
ATOM     16  C   UNL A   1      33.689  24.979  24.266  1.00  0.00     0.079 A 
ATOM     17  C   UNL A   1      34.535  25.036  25.386  1.00  0.00     0.030 A 
ATOM     18  C   UNL A   1      34.027  24.037  23.270  1.00  0.00     0.066 A 
ATOM     19  C   UNL A   1      35.659  24.213  25.518  1.00  0.00     0.006 A 
ATOM     20  C   UNL A   1      35.158  23.213  23.397  1.00  0.00     0.026 A 
ATOM     21  Cl  UNL A   1      33.111  23.852  21.808  1.00  0.00    -0.082 Cl
ATOM     22  C   UNL A   1      35.981  23.293  24.523  1.00  0.00    -0.049 A 
ATOM     23  C   UNL A   1      37.147  22.365  24.671  1.00  0.00     0.044 C 
ENDBRANCH   9  16
ENDBRANCH   3   5
ENDBRANCH   2   3
ENDBRANCH   1   2
BRANCH   1  24
ATOM     24  C   UNL A   1      32.328  29.195  26.779  1.00  0.00     0.275 C 
BRANCH  24  25
ATOM     25  O   UNL A   1      33.740  29.429  26.715  1.00  0.00    -0.458 OA
BRANCH  25  26
ATOM     26  C   UNL A   1      34.222  30.380  27.549  1.00  0.00     0.338 C 
ATOM     27  O   UNL A   1      33.641  31.398  27.885  1.00  0.00    -0.246 OA
BRANCH  26  28
ATOM     28  C   UNL A   1      35.585  29.986  28.005  1.00  0.00     0.060 A 
ATOM     29  C   UNL A   1      35.819  29.553  29.315  1.00  0.00     0.016 A 
ATOM     30  C   UNL A   1      36.657  30.062  27.112  1.00  0.00     0.016 A 
ATOM     31  C   UNL A   1      37.110  29.256  29.749  1.00  0.00     0.010 A 
ATOM     32  C   UNL A   1      37.944  29.694  27.527  1.00  0.00     0.010 A 
ATOM     33  C   UNL A   1      38.186  29.297  28.853  1.00  0.00    -0.014 A 
BRANCH  33  34
ATOM     34  C   UNL A   1      39.552  28.902  29.290  1.00  0.00     0.031 A 
ATOM     35  C   UNL A   1      40.394  29.842  30.110  1.00  0.00     0.074 A 
ATOM     36  C   UNL A   1      40.050  27.696  28.949  1.00  0.00     0.049 A 
ATOM     37  N   UNL A   1      41.664  29.750  30.415  1.00  0.00    -0.248 NA
ATOM     38  C   UNL A   1      39.726  31.034  30.657  1.00  0.00     0.031 C 
ATOM     39  C   UNL A   1      39.332  26.659  28.205  1.00  0.00     0.029 A 
ATOM     40  N   UNL A   1      41.282  27.138  29.188  1.00  0.00    -0.354 N 
ATOM     41  C   UNL A   1      41.961  30.893  31.146  1.00  0.00     0.074 A 
ATOM     42  C   UNL A   1      40.734  31.655  31.254  1.00  0.00     0.031 C 
ATOM     43  C   UNL A   1      40.122  25.581  28.079  1.00  0.00     0.029 A 
ATOM     44  C   UNL A   1      41.429  25.881  28.652  1.00  0.00     0.049 A 
ATOM     45  H   UNL A   1      41.992  27.595  29.693  1.00  0.00     0.167 HD
ATOM     46  C   UNL A   1      43.149  31.277  31.671  1.00  0.00     0.031 A 
ATOM     47  C   UNL A   1      42.504  25.074  28.575  1.00  0.00     0.031 A 
ATOM     48  C   UNL A   1      44.367  30.515  31.586  1.00  0.00     0.049 A 
ATOM     49  C   UNL A   1      43.828  25.554  29.088  1.00  0.00     0.074 A 
ATOM     50  C   UNL A   1      45.618  30.827  32.090  1.00  0.00     0.029 A 
ATOM     51  N   UNL A   1      44.485  29.285  30.958  1.00  0.00    -0.354 N 
ATOM     52  N   UNL A   1      44.110  26.674  29.706  1.00  0.00    -0.248 NA
ATOM     53  C   UNL A   1      44.986  24.680  28.854  1.00  0.00     0.031 C 
ATOM     54  C   UNL A   1      46.500  29.797  31.744  1.00  0.00     0.029 A 
ATOM     55  C   UNL A   1      45.791  28.833  31.047  1.00  0.00     0.049 A 
ATOM     56  H   UNL A   1      43.750  28.805  30.515  1.00  0.00     0.167 HD
ATOM     57  C   UNL A   1      45.483  26.652  29.915  1.00  0.00     0.074 A 
ATOM     58  C   UNL A   1      45.970  25.396  29.383  1.00  0.00     0.031 C 
ATOM     59  C   UNL A   1      46.268  27.597  30.487  1.00  0.00     0.031 A 
BRANCH  46  60
ATOM     60  C   UNL A   1      43.195  32.613  32.354  1.00  0.00    -0.014 A 
ATOM     61  C   UNL A   1      43.713  33.744  31.701  1.00  0.00     0.010 A 
ATOM     62  C   UNL A   1      42.687  32.743  33.659  1.00  0.00     0.010 A 
ATOM     63  C   UNL A   1      43.750  34.978  32.354  1.00  0.00     0.020 A 
ATOM     64  C   UNL A   1      42.712  33.978  34.312  1.00  0.00     0.020 A 
ATOM     65  C   UNL A   1      43.259  35.085  33.659  1.00  0.00     0.054 A 
BRANCH  65  66
ATOM     66  S   UNL A   1      43.305  36.699  34.488  1.00  0.00     0.124 S 
ATOM     67  O   UNL A   1      44.672  36.735  34.996  1.00  0.00    -0.237 OA
ATOM     68  O   UNL A   1      43.015  37.631  33.400  1.00  0.00    -0.237 OA
ATOM     69  O   UNL A   1      42.261  36.593  35.505  1.00  0.00    -0.744 OA
ENDBRANCH  65  66
ENDBRANCH  46  60
BRANCH  47  70
ATOM     70  C   UNL A   1      42.376  23.754  27.906  1.00  0.00    -0.014 A 
ATOM     71  C   UNL A   1      42.815  23.585  26.583  1.00  0.00     0.010 A 
ATOM     72  C   UNL A   1      41.873  22.648  28.614  1.00  0.00     0.010 A 
ATOM     73  C   UNL A   1      42.769  22.325  25.981  1.00  0.00     0.020 A 
ATOM     74  C   UNL A   1      41.843  21.384  28.022  1.00  0.00     0.020 A 
ATOM     75  C   UNL A   1      42.290  21.230  26.707  1.00  0.00     0.054 A 
BRANCH  75  76
ATOM     76  S   UNL A   1      42.338  19.574  25.966  1.00  0.00     0.124 S 
ATOM     77  O   UNL A   1      43.256  19.769  24.849  1.00  0.00    -0.237 OA
ATOM     78  O   UNL A   1      42.839  18.741  27.058  1.00  0.00    -0.237 OA
ATOM     79  O   UNL A   1      40.944  19.333  25.602  1.00  0.00    -0.744 OA
ENDBRANCH  75  76
ENDBRANCH  47  70
BRANCH  59  80
ATOM     80  C   UNL A   1      47.740  27.312  30.545  1.00  0.00    -0.014 A 
ATOM     81  C   UNL A   1      48.284  26.607  31.633  1.00  0.00     0.010 A 
ATOM     82  C   UNL A   1      48.581  27.723  29.497  1.00  0.00     0.010 A 
ATOM     83  C   UNL A   1      49.653  26.333  31.681  1.00  0.00     0.020 A 
ATOM     84  C   UNL A   1      49.948  27.441  29.537  1.00  0.00     0.020 A 
ATOM     85  C   UNL A   1      50.478  26.758  30.636  1.00  0.00     0.054 A 
BRANCH  85  86
ATOM     86  S   UNL A   1      52.249  26.363  30.690  1.00  0.00     0.124 S 
ATOM     87  O   UNL A   1      52.803  27.549  31.336  1.00  0.00    -0.237 OA
ATOM     88  O   UNL A   1      52.289  25.138  31.485  1.00  0.00    -0.237 OA
ATOM     89  O   UNL A   1      52.604  26.195  29.282  1.00  0.00    -0.744 OA
ENDBRANCH  85  86
ENDBRANCH  59  80
ENDBRANCH  33  34
ENDBRANCH  26  28
ENDBRANCH  25  26
ENDBRANCH  24  25
ENDBRANCH   1  24
TORSDOF 18
ENDMDL
MODEL 2
REMARK VINA RESULT:     -10.5      1.764      2.440
REMARK SMILES CCOC(=O)C1=NN(c2ccc(C)cc2Cl)[C@@](C)(C(=O)OCCOC(=O)c2ccc(-c3c4nc(c(-c5ccc(S(=O)(=O)[O-])cc5)c5ccc([nH]5)c(-c5ccc(S(=O)(=O)[O-])cc5)c5nc(c(-c6ccc(S(=O)(=O)[O-])cc6)c6ccc3[nH]6)C=C5)C=C4)cc2)C1
REMARK SMILES IDX 22 1 21 2 19 3 20 4 17 5 6 6 7 7 87 8 8 9 18 10 4 11 5 12
REMARK SMILES IDX 3 13 2 14 1 15 9 16 10 17 15 18 11 19 14 20 16 21 12 22
REMARK SMILES IDX 13 23 23 24 24 25 25 26 26 27 27 28 28 29 86 30 29 31 85 32
REMARK SMILES IDX 30 33 31 34 32 35 79 36 33 37 84 38 78 39 80 40 34 41 83 42
REMARK SMILES IDX 77 43 76 44 35 46 65 47 46 48 64 49 47 50 50 51 63 52 81 53
REMARK SMILES IDX 48 54 49 55 62 57 82 58 51 59 36 60 37 61 45 62 38 63 44 64
REMARK SMILES IDX 39 65 40 66 41 67 42 68 43 69 66 70 67 71 75 72 68 73 74 74
REMARK SMILES IDX 69 75 70 76 71 77 72 78 73 79 52 80 53 81 61 82 54 83 60 84
REMARK SMILES IDX 55 85 56 86 57 87 58 88 59 89
REMARK H PARENT 80 45 50 56
REMARK Flexibility Score: inf
ROOT
ATOM      1  C   UNL A   1      32.779  27.103  26.544  1.00  0.00     0.274 C 
ENDROOT
BRANCH   1   2
ATOM      2  O   UNL A   1      33.328  26.159  25.602  1.00  0.00    -0.460 OA
BRANCH   2   3
ATOM      3  C   UNL A   1      32.966  24.857  25.757  1.00  0.00     0.334 C 
ATOM      4  O   UNL A   1      33.276  24.172  26.730  1.00  0.00    -0.249 OA
BRANCH   3   5
ATOM      5  C   UNL A   1      32.174  24.278  24.570  1.00  0.00     0.163 C 
ATOM      6  C   UNL A   1      32.916  24.992  22.494  1.00  0.00     0.149 C 
ATOM      7  N   UNL A   1      33.423  23.806  22.605  1.00  0.00    -0.169 NA
ATOM      8  C   UNL A   1      31.934  25.399  23.536  1.00  0.00     0.108 C 
ATOM      9  N   UNL A   1      32.928  23.284  23.767  1.00  0.00    -0.246 N 
ATOM     10  C   UNL A   1      30.836  23.779  25.110  1.00  0.00     0.050 C 
BRANCH   6  11
ATOM     11  C   UNL A   1      33.222  25.908  21.344  1.00  0.00     0.354 C 
ATOM     12  O   UNL A   1      32.836  25.682  20.214  1.00  0.00    -0.245 OA
BRANCH  11  13
ATOM     13  O   UNL A   1      33.975  26.930  21.793  1.00  0.00    -0.461 OA
BRANCH  13  14
ATOM     14  C   UNL A   1      33.265  28.152  22.052  1.00  0.00     0.230 C 
ATOM     15  C   UNL A   1      34.054  28.998  23.033  1.00  0.00     0.049 C 
ENDBRANCH  13  14
ENDBRANCH  11  13
ENDBRANCH   6  11
BRANCH   9  16
ATOM     16  C   UNL A   1      33.254  21.971  24.090  1.00  0.00     0.079 A 
ATOM     17  C   UNL A   1      32.346  20.934  23.820  1.00  0.00     0.030 A 
ATOM     18  C   UNL A   1      34.518  21.587  24.590  1.00  0.00     0.066 A 
ATOM     19  C   UNL A   1      32.662  19.587  24.037  1.00  0.00     0.006 A 
ATOM     20  C   UNL A   1      34.837  20.237  24.813  1.00  0.00     0.026 A 
ATOM     21  Cl  UNL A   1      35.748  22.738  25.004  1.00  0.00    -0.082 Cl
ATOM     22  C   UNL A   1      33.912  19.227  24.535  1.00  0.00    -0.049 A 
ATOM     23  C   UNL A   1      34.289  17.789  24.721  1.00  0.00     0.044 C 
ENDBRANCH   9  16
ENDBRANCH   3   5
ENDBRANCH   2   3
ENDBRANCH   1   2
BRANCH   1  24
ATOM     24  C   UNL A   1      33.479  28.456  26.411  1.00  0.00     0.275 C 
BRANCH  24  25
ATOM     25  O   UNL A   1      33.473  29.095  27.693  1.00  0.00    -0.458 OA
BRANCH  25  26
ATOM     26  C   UNL A   1      34.193  30.238  27.790  1.00  0.00     0.338 C 
ATOM     27  O   UNL A   1      33.755  31.370  27.679  1.00  0.00    -0.246 OA
BRANCH  26  28
ATOM     28  C   UNL A   1      35.618  29.897  28.062  1.00  0.00     0.060 A 
ATOM     29  C   UNL A   1      36.603  30.041  27.079  1.00  0.00     0.016 A 
ATOM     30  C   UNL A   1      35.979  29.408  29.321  1.00  0.00     0.016 A 
ATOM     31  C   UNL A   1      37.919  29.650  27.325  1.00  0.00     0.010 A 
ATOM     32  C   UNL A   1      37.315  29.083  29.591  1.00  0.00     0.010 A 
ATOM     33  C   UNL A   1      38.297  29.191  28.592  1.00  0.00    -0.014 A 
BRANCH  33  34
ATOM     34  C   UNL A   1      39.716  28.850  28.883  1.00  0.00     0.031 A 
ATOM     35  C   UNL A   1      40.633  29.863  29.511  1.00  0.00     0.074 A 
ATOM     36  C   UNL A   1      40.194  27.627  28.577  1.00  0.00     0.049 A 
ATOM     37  N   UNL A   1      41.933  29.812  29.660  1.00  0.00    -0.248 NA
ATOM     38  C   UNL A   1      40.013  31.088  30.043  1.00  0.00     0.031 C 
ATOM     39  C   UNL A   1      39.412  26.523  28.015  1.00  0.00     0.029 A 
ATOM     40  N   UNL A   1      41.459  27.105  28.701  1.00  0.00    -0.354 N 
ATOM     41  C   UNL A   1      42.294  31.015  30.254  1.00  0.00     0.074 A 
ATOM     42  C   UNL A   1      41.074  31.768  30.457  1.00  0.00     0.031 C 
ATOM     43  C   UNL A   1      40.203  25.448  27.875  1.00  0.00     0.029 A 
ATOM     44  C   UNL A   1      41.566  25.811  28.252  1.00  0.00     0.049 A 
ATOM     45  H   UNL A   1      42.217  27.610  29.074  1.00  0.00     0.167 HD
ATOM     46  C   UNL A   1      43.529  31.455  30.591  1.00  0.00     0.031 A 
ATOM     47  C   UNL A   1      42.640  25.013  28.103  1.00  0.00     0.031 A 
ATOM     48  C   UNL A   1      44.744  30.703  30.413  1.00  0.00     0.049 A 
ATOM     49  C   UNL A   1      44.007  25.549  28.404  1.00  0.00     0.074 A 
ATOM     50  C   UNL A   1      46.041  31.071  30.728  1.00  0.00     0.029 A 
ATOM     51  N   UNL A   1      44.810  29.428  29.875  1.00  0.00    -0.354 N 
ATOM     52  N   UNL A   1      44.339  26.719  28.891  1.00  0.00    -0.248 NA
ATOM     53  C   UNL A   1      45.146  24.674  28.094  1.00  0.00     0.031 C 
ATOM     54  C   UNL A   1      46.896  30.026  30.355  1.00  0.00     0.029 A 
ATOM     55  C   UNL A   1      46.127  29.000  29.832  1.00  0.00     0.049 A 
ATOM     56  H   UNL A   1      44.036  28.904  29.568  1.00  0.00     0.167 HD
ATOM     57  C   UNL A   1      45.727  26.731  28.925  1.00  0.00     0.074 A 
ATOM     58  C   UNL A   1      46.172  25.442  28.436  1.00  0.00     0.031 C 
ATOM     59  C   UNL A   1      46.557  27.729  29.316  1.00  0.00     0.031 A 
BRANCH  46  60
ATOM     60  C   UNL A   1      43.631  32.842  31.155  1.00  0.00    -0.014 A 
ATOM     61  C   UNL A   1      43.529  33.073  32.537  1.00  0.00     0.010 A 
ATOM     62  C   UNL A   1      43.861  33.927  30.289  1.00  0.00     0.010 A 
ATOM     63  C   UNL A   1      43.623  34.372  33.042  1.00  0.00     0.020 A 
ATOM     64  C   UNL A   1      43.968  35.226  30.792  1.00  0.00     0.020 A 
ATOM     65  C   UNL A   1      43.832  35.442  32.165  1.00  0.00     0.054 A 
BRANCH  65  66
ATOM     66  S   UNL A   1      43.965  37.121  32.841  1.00  0.00     0.124 S 
ATOM     67  O   UNL A   1      45.288  37.091  33.457  1.00  0.00    -0.237 OA
ATOM     68  O   UNL A   1      43.845  37.960  31.651  1.00  0.00    -0.237 OA
ATOM     69  O   UNL A   1      42.842  37.207  33.772  1.00  0.00    -0.744 OA
ENDBRANCH  65  66
ENDBRANCH  46  60
BRANCH  47  70
ATOM     70  C   UNL A   1      42.459  23.641  27.563  1.00  0.00    -0.014 A 
ATOM     71  C   UNL A   1      42.714  23.375  26.208  1.00  0.00     0.010 A 
ATOM     72  C   UNL A   1      42.091  22.587  28.417  1.00  0.00     0.010 A 
ATOM     73  C   UNL A   1      42.622  22.070  25.717  1.00  0.00     0.020 A 
ATOM     74  C   UNL A   1      42.016  21.279  27.934  1.00  0.00     0.020 A 
ATOM     75  C   UNL A   1      42.280  21.029  26.585  1.00  0.00     0.054 A 
BRANCH  75  76
ATOM     76  S   UNL A   1      42.273  19.319  25.974  1.00  0.00     0.124 S 
ATOM     77  O   UNL A   1      40.853  19.094  25.723  1.00  0.00    -0.237 OA
ATOM     78  O   UNL A   1      43.122  19.392  24.786  1.00  0.00    -0.237 OA
ATOM     79  O   UNL A   1      42.844  18.566  27.089  1.00  0.00    -0.744 OA
ENDBRANCH  75  76
ENDBRANCH  47  70
BRANCH  59  80
ATOM     80  C   UNL A   1      48.031  27.468  29.209  1.00  0.00    -0.014 A 
ATOM     81  C   UNL A   1      48.729  27.811  28.038  1.00  0.00     0.010 A 
ATOM     82  C   UNL A   1      48.730  26.907  30.292  1.00  0.00     0.010 A 
ATOM     83  C   UNL A   1      50.103  27.580  27.943  1.00  0.00     0.020 A 
ATOM     84  C   UNL A   1      50.106  26.684  30.203  1.00  0.00     0.020 A 
ATOM     85  C   UNL A   1      50.782  27.010  29.025  1.00  0.00     0.054 A 
BRANCH  85  86
ATOM     86  S   UNL A   1      52.574  26.748  28.905  1.00  0.00     0.124 S 
ATOM     87  O   UNL A   1      52.678  25.908  27.717  1.00  0.00    -0.237 OA
ATOM     88  O   UNL A   1      53.096  28.106  28.761  1.00  0.00    -0.237 OA
ATOM     89  O   UNL A   1      52.908  26.092  30.167  1.00  0.00    -0.744 OA
ENDBRANCH  85  86
ENDBRANCH  59  80
ENDBRANCH  33  34
ENDBRANCH  26  28
ENDBRANCH  25  26
ENDBRANCH  24  25
ENDBRANCH   1  24
TORSDOF 18
ENDMDL
MODEL 3
REMARK VINA RESULT:     -10.1      2.582      8.391
REMARK SMILES CCOC(=O)C1=NN(c2ccc(C)cc2Cl)[C@@](C)(C(=O)OCCOC(=O)c2ccc(-c3c4nc(c(-c5ccc(S(=O)(=O)[O-])cc5)c5ccc([nH]5)c(-c5ccc(S(=O)(=O)[O-])cc5)c5nc(c(-c6ccc(S(=O)(=O)[O-])cc6)c6ccc3[nH]6)C=C5)C=C4)cc2)C1
REMARK SMILES IDX 22 1 21 2 19 3 20 4 17 5 6 6 7 7 87 8 8 9 18 10 4 11 5 12
REMARK SMILES IDX 3 13 2 14 1 15 9 16 10 17 15 18 11 19 14 20 16 21 12 22
REMARK SMILES IDX 13 23 23 24 24 25 25 26 26 27 27 28 28 29 86 30 29 31 85 32
REMARK SMILES IDX 30 33 31 34 32 35 79 36 33 37 84 38 78 39 80 40 34 41 83 42
REMARK SMILES IDX 77 43 76 44 35 46 65 47 46 48 64 49 47 50 50 51 63 52 81 53
REMARK SMILES IDX 48 54 49 55 62 57 82 58 51 59 36 60 37 61 45 62 38 63 44 64
REMARK SMILES IDX 39 65 40 66 41 67 42 68 43 69 66 70 67 71 75 72 68 73 74 74
REMARK SMILES IDX 69 75 70 76 71 77 72 78 73 79 52 80 53 81 61 82 54 83 60 84
REMARK SMILES IDX 55 85 56 86 57 87 58 88 59 89
REMARK H PARENT 80 45 50 56
REMARK Flexibility Score: inf
ROOT
ATOM      1  C   UNL A   1      31.503  27.645  26.944  1.00  0.00     0.274 C 
ENDROOT
BRANCH   1   2
ATOM      2  O   UNL A   1      32.125  26.402  26.555  1.00  0.00    -0.460 OA
BRANCH   2   3
ATOM      3  C   UNL A   1      31.300  25.417  26.112  1.00  0.00     0.334 C 
ATOM      4  O   UNL A   1      30.571  24.752  26.845  1.00  0.00    -0.249 OA
BRANCH   3   5
ATOM      5  C   UNL A   1      31.395  25.151  24.598  1.00  0.00     0.163 C 
ATOM      6  C   UNL A   1      31.605  27.065  23.308  1.00  0.00     0.149 C 
ATOM      7  N   UNL A   1      32.813  26.603  23.364  1.00  0.00    -0.169 NA
ATOM      8  C   UNL A   1      30.530  26.190  23.853  1.00  0.00     0.108 C 
ATOM      9  N   UNL A   1      32.738  25.408  24.022  1.00  0.00    -0.246 N 
ATOM     10  C   UNL A   1      30.850  23.747  24.342  1.00  0.00     0.050 C 
BRANCH   6  11
ATOM     11  C   UNL A   1      31.259  28.376  22.664  1.00  0.00     0.354 C 
ATOM     12  O   UNL A   1      32.009  29.332  22.695  1.00  0.00    -0.245 OA
BRANCH  11  13
ATOM     13  O   UNL A   1      30.031  28.280  22.119  1.00  0.00    -0.461 OA
BRANCH  13  14
ATOM     14  C   UNL A   1      29.349  29.527  21.914  1.00  0.00     0.230 C 
ATOM     15  C   UNL A   1      28.370  29.762  23.049  1.00  0.00     0.049 C 
ENDBRANCH  13  14
ENDBRANCH  11  13
ENDBRANCH   6  11
BRANCH   9  16
ATOM     16  C   UNL A   1      33.899  24.653  24.149  1.00  0.00     0.079 A 
ATOM     17  C   UNL A   1      34.733  24.826  25.266  1.00  0.00     0.030 A 
ATOM     18  C   UNL A   1      34.253  23.619  23.254  1.00  0.00     0.066 A 
ATOM     19  C   UNL A   1      35.861  24.028  25.490  1.00  0.00     0.006 A 
ATOM     20  C   UNL A   1      35.387  22.819  23.473  1.00  0.00     0.026 A 
ATOM     21  Cl  UNL A   1      33.354  23.285  21.809  1.00  0.00    -0.082 Cl
ATOM     22  C   UNL A   1      36.198  23.016  24.594  1.00  0.00    -0.049 A 
ATOM     23  C   UNL A   1      37.368  22.114  24.845  1.00  0.00     0.044 C 
ENDBRANCH   9  16
ENDBRANCH   3   5
ENDBRANCH   2   3
ENDBRANCH   1   2
BRANCH   1  24
ATOM     24  C   UNL A   1      32.346  28.831  26.475  1.00  0.00     0.275 C 
BRANCH  24  25
ATOM     25  O   UNL A   1      33.566  28.842  27.225  1.00  0.00    -0.458 OA
BRANCH  25  26
ATOM     26  C   UNL A   1      34.166  30.048  27.367  1.00  0.00     0.338 C 
ATOM     27  O   UNL A   1      33.715  31.118  26.995  1.00  0.00    -0.246 OA
BRANCH  26  28
ATOM     28  C   UNL A   1      35.472  29.867  28.059  1.00  0.00     0.060 A 
ATOM     29  C   UNL A   1      35.539  29.446  29.392  1.00  0.00     0.016 A 
ATOM     30  C   UNL A   1      36.658  30.135  27.370  1.00  0.00     0.016 A 
ATOM     31  C   UNL A   1      36.765  29.350  30.050  1.00  0.00     0.010 A 
ATOM     32  C   UNL A   1      37.894  29.969  28.010  1.00  0.00     0.010 A 
ATOM     33  C   UNL A   1      37.960  29.584  29.359  1.00  0.00    -0.014 A 
BRANCH  33  34
ATOM     34  C   UNL A   1      39.274  29.403  30.034  1.00  0.00     0.031 A 
ATOM     35  C   UNL A   1      40.249  28.368  29.545  1.00  0.00     0.074 A 
ATOM     36  C   UNL A   1      39.598  30.166  31.098  1.00  0.00     0.049 A 
ATOM     37  N   UNL A   1      41.347  27.941  30.117  1.00  0.00    -0.248 NA
ATOM     38  C   UNL A   1      39.958  27.734  28.249  1.00  0.00     0.031 C 
ATOM     39  C   UNL A   1      38.779  31.247  31.653  1.00  0.00     0.029 A 
ATOM     40  N   UNL A   1      40.711  30.149  31.904  1.00  0.00    -0.354 N 
ATOM     41  C   UNL A   1      41.851  26.954  29.279  1.00  0.00     0.074 A 
ATOM     42  C   UNL A   1      40.949  26.858  28.150  1.00  0.00     0.031 C 
ATOM     43  C   UNL A   1      39.430  31.809  32.683  1.00  0.00     0.029 A 
ATOM     44  C   UNL A   1      40.669  31.075  32.918  1.00  0.00     0.049 A 
ATOM     45  H   UNL A   1      41.465  29.532  31.768  1.00  0.00     0.167 HD
ATOM     46  C   UNL A   1      42.958  26.191  29.441  1.00  0.00     0.031 A 
ATOM     47  C   UNL A   1      41.497  31.284  33.959  1.00  0.00     0.031 A 
ATOM     48  C   UNL A   1      43.869  26.294  30.550  1.00  0.00     0.049 A 
ATOM     49  C   UNL A   1      42.670  30.374  34.164  1.00  0.00     0.074 A 
ATOM     50  C   UNL A   1      45.018  25.562  30.794  1.00  0.00     0.029 A 
ATOM     51  N   UNL A   1      43.737  27.192  31.598  1.00  0.00    -0.354 N 
ATOM     52  N   UNL A   1      43.088  29.392  33.405  1.00  0.00    -0.248 NA
ATOM     53  C   UNL A   1      43.457  30.572  35.390  1.00  0.00     0.031 C 
ATOM     54  C   UNL A   1      45.568  25.999  32.006  1.00  0.00     0.029 A 
ATOM     55  C   UNL A   1      44.774  27.020  32.501  1.00  0.00     0.049 A 
ATOM     56  H   UNL A   1      43.014  27.852  31.688  1.00  0.00     0.167 HD
ATOM     57  C   UNL A   1      44.174  28.838  34.071  1.00  0.00     0.074 A 
ATOM     58  C   UNL A   1      44.366  29.612  35.281  1.00  0.00     0.031 C 
ATOM     59  C   UNL A   1      44.935  27.775  33.714  1.00  0.00     0.031 A 
BRANCH  46  60
ATOM     60  C   UNL A   1      43.221  25.138  28.404  1.00  0.00    -0.014 A 
ATOM     61  C   UNL A   1      43.993  25.420  27.265  1.00  0.00     0.010 A 
ATOM     62  C   UNL A   1      42.710  23.840  28.588  1.00  0.00     0.010 A 
ATOM     63  C   UNL A   1      44.224  24.428  26.309  1.00  0.00     0.020 A 
ATOM     64  C   UNL A   1      42.949  22.842  27.640  1.00  0.00     0.020 A 
ATOM     65  C   UNL A   1      43.692  23.148  26.497  1.00  0.00     0.054 A 
BRANCH  65  66
ATOM     66  S   UNL A   1      44.013  21.869  25.251  1.00  0.00     0.124 S 
ATOM     67  O   UNL A   1      45.374  21.461  25.585  1.00  0.00    -0.237 OA
ATOM     68  O   UNL A   1      42.976  20.878  25.527  1.00  0.00    -0.237 OA
ATOM     69  O   UNL A   1      43.866  22.579  23.983  1.00  0.00    -0.744 OA
ENDBRANCH  65  66
ENDBRANCH  46  60
BRANCH  47  70
ATOM     70  C   UNL A   1      41.186  32.361  34.932  1.00  0.00    -0.014 A 
ATOM     71  C   UNL A   1      40.418  32.083  36.075  1.00  0.00     0.010 A 
ATOM     72  C   UNL A   1      41.710  33.654  34.750  1.00  0.00     0.010 A 
ATOM     73  C   UNL A   1      40.193  33.077  37.031  1.00  0.00     0.020 A 
ATOM     74  C   UNL A   1      41.502  34.643  35.712  1.00  0.00     0.020 A 
ATOM     75  C   UNL A   1      40.743  34.349  36.847  1.00  0.00     0.054 A 
BRANCH  75  76
ATOM     76  S   UNL A   1      40.548  35.605  38.143  1.00  0.00     0.124 S 
ATOM     77  O   UNL A   1      39.394  35.102  38.881  1.00  0.00    -0.237 OA
ATOM     78  O   UNL A   1      41.825  35.547  38.851  1.00  0.00    -0.237 OA
ATOM     79  O   UNL A   1      40.324  36.833  37.384  1.00  0.00    -0.744 OA
ENDBRANCH  75  76
ENDBRANCH  47  70
BRANCH  59  80
ATOM     80  C   UNL A   1      46.031  27.376  34.658  1.00  0.00    -0.014 A 
ATOM     81  C   UNL A   1      47.305  27.961  34.554  1.00  0.00     0.010 A 
ATOM     82  C   UNL A   1      45.782  26.437  35.673  1.00  0.00     0.010 A 
ATOM     83  C   UNL A   1      48.322  27.598  35.440  1.00  0.00     0.020 A 
ATOM     84  C   UNL A   1      46.794  26.080  36.568  1.00  0.00     0.020 A 
ATOM     85  C   UNL A   1      48.062  26.653  36.438  1.00  0.00     0.054 A 
BRANCH  85  86
ATOM     86  S   UNL A   1      49.378  26.217  37.608  1.00  0.00     0.124 S 
ATOM     87  O   UNL A   1      48.703  26.370  38.893  1.00  0.00    -0.237 OA
ATOM     88  O   UNL A   1      49.710  24.844  37.233  1.00  0.00    -0.237 OA
ATOM     89  O   UNL A   1      50.422  27.201  37.329  1.00  0.00    -0.744 OA
ENDBRANCH  85  86
ENDBRANCH  59  80
ENDBRANCH  33  34
ENDBRANCH  26  28
ENDBRANCH  25  26
ENDBRANCH  24  25
ENDBRANCH   1  24
TORSDOF 18
ENDMDL
