MODEL 1
REMARK VINA RESULT:     -11.2      0.000      0.000
REMARK SMILES CC(C)CSc1cc2c(cc1Cl)C=C(C(=O)OCCOC(=O)c1ccc(-c3c4nc(c(-c5ccc(S(=O)(=O)[O-])cc5)c5ccc([nH]5)c(-c5ccc(S(=O)(=O)[O-])cc5)c5nc(c(-c6ccc(S(=O)(=O)[O-])cc6)c6ccc3[nH]6)C=C5)C=C4)cc1)[C@@H](C(F)(F)F)O2
REMARK SMILES IDX 18 1 17 2 15 3 16 4 14 5 6 6 7 7 11 8 8 9 10 10 12 11 9 12
REMARK SMILES IDX 88 13 13 14 83 15 5 16 4 17 2 18 1 19 3 20 84 21 85 22 86 23
REMARK SMILES IDX 87 24 19 25 20 26 21 27 22 28 23 29 24 30 82 31 25 32 81 33
REMARK SMILES IDX 26 34 27 35 28 36 75 37 29 38 80 39 74 40 76 41 30 42 79 43
REMARK SMILES IDX 73 44 72 45 31 47 61 48 42 49 60 50 43 51 46 52 59 53 77 54
REMARK SMILES IDX 44 55 45 56 58 58 78 59 47 60 32 61 33 62 41 63 34 64 40 65
REMARK SMILES IDX 35 66 36 67 37 68 38 69 39 70 62 71 63 72 71 73 64 74 70 75
REMARK SMILES IDX 65 76 66 77 67 78 68 79 69 80 48 81 49 82 57 83 50 84 56 85
REMARK SMILES IDX 51 86 52 87 53 88 54 89 55 90
REMARK H PARENT 76 46 46 57
REMARK Flexibility Score: inf
ROOT
ATOM      1  C   UNL A   1      37.389  22.303  25.714  1.00  0.00     0.275 C 
ENDROOT
BRANCH   1   2
ATOM      2  O   UNL A   1      36.688  23.471  25.233  1.00  0.00    -0.459 OA
BRANCH   2   3
ATOM      3  C   UNL A   1      35.396  23.583  25.623  1.00  0.00     0.338 C 
ATOM      4  O   UNL A   1      34.857  22.983  26.538  1.00  0.00    -0.246 OA
BRANCH   3   5
ATOM      5  C   UNL A   1      34.698  24.595  24.804  1.00  0.00     0.087 C 
ATOM      6  C   UNL A   1      31.881  28.461  23.257  1.00  0.00     0.030 A 
ATOM      7  C   UNL A   1      32.435  27.334  22.620  1.00  0.00     0.063 A 
ATOM      8  C   UNL A   1      32.260  28.744  24.579  1.00  0.00     0.055 A 
ATOM      9  C   UNL A   1      33.242  26.438  23.320  1.00  0.00     0.129 A 
ATOM     10  C   UNL A   1      33.057  27.841  25.282  1.00  0.00     0.033 A 
ATOM     11  Cl  UNL A   1      31.809  30.194  25.406  1.00  0.00    -0.083 Cl
ATOM     12  C   UNL A   1      33.512  26.673  24.661  1.00  0.00     0.019 A 
ATOM     13  O   UNL A   1      33.713  25.356  22.631  1.00  0.00    -0.475 OA
ATOM     14  C   UNL A   1      34.245  25.689  25.424  1.00  0.00     0.027 C 
ATOM     15  C   UNL A   1      34.423  24.306  23.356  1.00  0.00     0.316 C 
BRANCH   6  16
ATOM     16  S   UNL A   1      30.697  29.405  22.306  1.00  0.00    -0.124 SA
BRANCH  16  17
ATOM     17  C   UNL A   1      29.115  28.981  23.145  1.00  0.00     0.078 C 
BRANCH  17  18
ATOM     18  C   UNL A   1      27.924  29.906  22.831  1.00  0.00    -0.007 C 
ATOM     19  C   UNL A   1      27.910  31.191  23.659  1.00  0.00     0.008 C 
ATOM     20  C   UNL A   1      27.968  30.289  21.345  1.00  0.00     0.008 C 
ENDBRANCH  17  18
ENDBRANCH  16  17
ENDBRANCH   6  16
BRANCH  15  21
ATOM     21  C   UNL A   1      33.633  22.996  23.201  1.00  0.00     0.430 C 
ATOM     22  F   UNL A   1      32.554  22.972  24.020  1.00  0.00    -0.167 F 
ATOM     23  F   UNL A   1      33.159  22.843  21.940  1.00  0.00    -0.167 F 
ATOM     24  F   UNL A   1      34.384  21.909  23.487  1.00  0.00    -0.167 F 
ENDBRANCH  15  21
ENDBRANCH   3   5
ENDBRANCH   2   3
ENDBRANCH   1   2
BRANCH   1  25
ATOM     25  C   UNL A   1      38.836  22.631  26.087  1.00  0.00     0.275 C 
BRANCH  25  26
ATOM     26  O   UNL A   1      38.899  23.833  26.873  1.00  0.00    -0.458 OA
BRANCH  26  27
ATOM     27  C   UNL A   1      39.816  24.741  26.468  1.00  0.00     0.338 C 
ATOM     28  O   UNL A   1      40.287  24.872  25.352  1.00  0.00    -0.246 OA
BRANCH  27  29
ATOM     29  C   UNL A   1      40.087  25.680  27.565  1.00  0.00     0.060 A 
ATOM     30  C   UNL A   1      40.998  26.720  27.443  1.00  0.00     0.016 A 
ATOM     31  C   UNL A   1      39.287  25.588  28.695  1.00  0.00     0.016 A 
ATOM     32  C   UNL A   1      41.102  27.657  28.481  1.00  0.00     0.010 A 
ATOM     33  C   UNL A   1      39.271  26.606  29.640  1.00  0.00     0.010 A 
ATOM     34  C   UNL A   1      40.212  27.636  29.576  1.00  0.00    -0.014 A 
BRANCH  34  35
ATOM     35  C   UNL A   1      40.263  28.657  30.666  1.00  0.00     0.031 A 
ATOM     36  C   UNL A   1      39.270  29.801  30.698  1.00  0.00     0.074 A 
ATOM     37  C   UNL A   1      41.227  28.586  31.607  1.00  0.00     0.049 A 
ATOM     38  N   UNL A   1      39.184  30.791  31.552  1.00  0.00    -0.248 NA
ATOM     39  C   UNL A   1      38.273  29.874  29.615  1.00  0.00     0.031 C 
ATOM     40  C   UNL A   1      42.295  27.585  31.649  1.00  0.00     0.029 A 
ATOM     41  N   UNL A   1      41.459  29.357  32.723  1.00  0.00    -0.354 N 
ATOM     42  C   UNL A   1      38.150  31.602  31.094  1.00  0.00     0.074 A 
ATOM     43  C   UNL A   1      37.694  31.043  29.845  1.00  0.00     0.031 C 
ATOM     44  C   UNL A   1      43.010  27.748  32.772  1.00  0.00     0.029 A 
ATOM     45  C   UNL A   1      42.496  28.900  33.505  1.00  0.00     0.049 A 
ATOM     46  H   UNL A   1      40.933  30.159  32.941  1.00  0.00     0.167 HD
ATOM     47  C   UNL A   1      37.590  32.684  31.683  1.00  0.00     0.031 A 
ATOM     48  C   UNL A   1      42.976  29.343  34.686  1.00  0.00     0.031 A 
ATOM     49  C   UNL A   1      37.999  33.194  32.964  1.00  0.00     0.049 A 
ATOM     50  C   UNL A   1      42.320  30.526  35.344  1.00  0.00     0.074 A 
ATOM     51  C   UNL A   1      37.442  34.234  33.686  1.00  0.00     0.029 A 
ATOM     52  N   UNL A   1      39.045  32.691  33.722  1.00  0.00    -0.354 N 
ATOM     53  N   UNL A   1      41.295  31.230  34.926  1.00  0.00    -0.248 NA
ATOM     54  C   UNL A   1      42.870  30.970  36.633  1.00  0.00     0.031 C 
ATOM     55  C   UNL A   1      38.188  34.400  34.853  1.00  0.00     0.029 A 
ATOM     56  C   UNL A   1      39.162  33.414  34.896  1.00  0.00     0.049 A 
ATOM     57  H   UNL A   1      39.619  31.934  33.465  1.00  0.00     0.167 HD
ATOM     58  C   UNL A   1      41.067  32.188  35.907  1.00  0.00     0.074 A 
ATOM     59  C   UNL A   1      42.045  31.961  36.950  1.00  0.00     0.031 C 
ATOM     60  C   UNL A   1      40.132  33.169  35.935  1.00  0.00     0.031 A 
BRANCH  47  61
ATOM     61  C   UNL A   1      36.431  33.364  30.996  1.00  0.00    -0.014 A 
ATOM     62  C   UNL A   1      36.570  33.842  29.678  1.00  0.00     0.010 A 
ATOM     63  C   UNL A   1      35.245  33.648  31.699  1.00  0.00     0.010 A 
ATOM     64  C   UNL A   1      35.565  34.617  29.093  1.00  0.00     0.020 A 
ATOM     65  C   UNL A   1      34.223  34.393  31.104  1.00  0.00     0.020 A 
ATOM     66  C   UNL A   1      34.401  34.896  29.814  1.00  0.00     0.054 A 
BRANCH  66  67
ATOM     67  S   UNL A   1      33.125  35.939  29.055  1.00  0.00     0.124 S 
ATOM     68  O   UNL A   1      32.424  36.466  30.221  1.00  0.00    -0.237 OA
ATOM     69  O   UNL A   1      33.914  36.908  28.298  1.00  0.00    -0.237 OA
ATOM     70  O   UNL A   1      32.360  35.000  28.237  1.00  0.00    -0.744 OA
ENDBRANCH  66  67
ENDBRANCH  47  61
BRANCH  48  71
ATOM     71  C   UNL A   1      44.090  28.600  35.342  1.00  0.00    -0.014 A 
ATOM     72  C   UNL A   1      45.432  28.941  35.089  1.00  0.00     0.010 A 
ATOM     73  C   UNL A   1      43.815  27.478  36.145  1.00  0.00     0.010 A 
ATOM     74  C   UNL A   1      46.473  28.139  35.567  1.00  0.00     0.020 A 
ATOM     75  C   UNL A   1      44.855  26.691  36.653  1.00  0.00     0.020 A 
ATOM     76  C   UNL A   1      46.175  27.008  36.332  1.00  0.00     0.054 A 
BRANCH  76  77
ATOM     77  S   UNL A   1      47.539  25.942  36.878  1.00  0.00     0.124 S 
ATOM     78  O   UNL A   1      46.958  24.612  36.723  1.00  0.00    -0.237 OA
ATOM     79  O   UNL A   1      48.604  26.278  35.936  1.00  0.00    -0.237 OA
ATOM     80  O   UNL A   1      47.774  26.365  38.257  1.00  0.00    -0.744 OA
ENDBRANCH  76  77
ENDBRANCH  48  71
BRANCH  60  81
ATOM     81  C   UNL A   1      40.090  34.094  37.122  1.00  0.00    -0.014 A 
ATOM     82  C   UNL A   1      39.230  33.804  38.199  1.00  0.00     0.010 A 
ATOM     83  C   UNL A   1      40.748  35.335  37.084  1.00  0.00     0.010 A 
ATOM     84  C   UNL A   1      38.980  34.762  39.183  1.00  0.00     0.020 A 
ATOM     85  C   UNL A   1      40.524  36.285  38.084  1.00  0.00     0.020 A 
ATOM     86  C   UNL A   1      39.615  36.005  39.108  1.00  0.00     0.054 A 
BRANCH  86  87
ATOM     87  S   UNL A   1      39.210  37.267  40.345  1.00  0.00     0.124 S 
ATOM     88  O   UNL A   1      38.577  38.302  39.532  1.00  0.00    -0.237 OA
ATOM     89  O   UNL A   1      38.320  36.549  41.254  1.00  0.00    -0.237 OA
ATOM     90  O   UNL A   1      40.509  37.624  40.910  1.00  0.00    -0.744 OA
ENDBRANCH  86  87
ENDBRANCH  60  81
ENDBRANCH  34  35
ENDBRANCH  27  29
ENDBRANCH  26  27
ENDBRANCH  25  26
ENDBRANCH   1  25
TORSDOF 18
ENDMDL
MODEL 2
REMARK VINA RESULT:     -10.8      5.202      9.363
REMARK SMILES CC(C)CSc1cc2c(cc1Cl)C=C(C(=O)OCCOC(=O)c1ccc(-c3c4nc(c(-c5ccc(S(=O)(=O)[O-])cc5)c5ccc([nH]5)c(-c5ccc(S(=O)(=O)[O-])cc5)c5nc(c(-c6ccc(S(=O)(=O)[O-])cc6)c6ccc3[nH]6)C=C5)C=C4)cc1)[C@@H](C(F)(F)F)O2
REMARK SMILES IDX 18 1 17 2 15 3 16 4 14 5 6 6 7 7 11 8 8 9 10 10 12 11 9 12
REMARK SMILES IDX 88 13 13 14 83 15 5 16 4 17 2 18 1 19 3 20 84 21 85 22 86 23
REMARK SMILES IDX 87 24 19 25 20 26 21 27 22 28 23 29 24 30 82 31 25 32 81 33
REMARK SMILES IDX 26 34 27 35 28 36 75 37 29 38 80 39 74 40 76 41 30 42 79 43
REMARK SMILES IDX 73 44 72 45 31 47 61 48 42 49 60 50 43 51 46 52 59 53 77 54
REMARK SMILES IDX 44 55 45 56 58 58 78 59 47 60 32 61 33 62 41 63 34 64 40 65
REMARK SMILES IDX 35 66 36 67 37 68 38 69 39 70 62 71 63 72 71 73 64 74 70 75
REMARK SMILES IDX 65 76 66 77 67 78 68 79 69 80 48 81 49 82 57 83 50 84 56 85
REMARK SMILES IDX 51 86 52 87 53 88 54 89 55 90
REMARK H PARENT 76 46 46 57
REMARK Flexibility Score: inf
ROOT
ATOM      1  C   UNL A   1      36.392  20.717  25.344  1.00  0.00     0.275 C 
ENDROOT
BRANCH   1   2
ATOM      2  O   UNL A   1      35.552  21.255  24.298  1.00  0.00    -0.459 OA
BRANCH   2   3
ATOM      3  C   UNL A   1      34.219  21.091  24.471  1.00  0.00     0.338 C 
ATOM      4  O   UNL A   1      33.623  20.031  24.568  1.00  0.00    -0.246 OA
BRANCH   3   5
ATOM      5  C   UNL A   1      33.550  22.403  24.579  1.00  0.00     0.087 C 
ATOM      6  C   UNL A   1      32.364  27.274  24.211  1.00  0.00     0.030 A 
ATOM      7  C   UNL A   1      31.938  26.221  25.043  1.00  0.00     0.063 A 
ATOM      8  C   UNL A   1      33.186  26.978  23.113  1.00  0.00     0.055 A 
ATOM      9  C   UNL A   1      32.421  24.926  24.866  1.00  0.00     0.129 A 
ATOM     10  C   UNL A   1      33.680  25.684  22.944  1.00  0.00     0.033 A 
ATOM     11  Cl  UNL A   1      33.619  28.140  21.908  1.00  0.00    -0.083 Cl
ATOM     12  C   UNL A   1      33.326  24.673  23.844  1.00  0.00     0.019 A 
ATOM     13  O   UNL A   1      31.977  23.971  25.737  1.00  0.00    -0.475 OA
ATOM     14  C   UNL A   1      33.925  23.363  23.729  1.00  0.00     0.027 C 
ATOM     15  C   UNL A   1      32.576  22.640  25.699  1.00  0.00     0.316 C 
BRANCH   6  16
ATOM     16  S   UNL A   1      31.834  28.917  24.680  1.00  0.00    -0.124 SA
BRANCH  16  17
ATOM     17  C   UNL A   1      30.770  29.391  23.255  1.00  0.00     0.078 C 
BRANCH  17  18
ATOM     18  C   UNL A   1      29.323  29.786  23.605  1.00  0.00    -0.007 C 
ATOM     19  C   UNL A   1      29.076  31.295  23.584  1.00  0.00     0.008 C 
ATOM     20  C   UNL A   1      28.368  29.126  22.601  1.00  0.00     0.008 C 
ENDBRANCH  17  18
ENDBRANCH  16  17
ENDBRANCH   6  16
BRANCH  15  21
ATOM     21  C   UNL A   1      33.235  22.370  27.062  1.00  0.00     0.430 C 
ATOM     22  F   UNL A   1      34.442  22.979  27.155  1.00  0.00    -0.167 F 
ATOM     23  F   UNL A   1      32.486  22.849  28.084  1.00  0.00    -0.167 F 
ATOM     24  F   UNL A   1      33.428  21.051  27.284  1.00  0.00    -0.167 F 
ENDBRANCH  15  21
ENDBRANCH   3   5
ENDBRANCH   2   3
ENDBRANCH   1   2
BRANCH   1  25
ATOM     25  C   UNL A   1      37.866  21.054  25.111  1.00  0.00     0.275 C 
BRANCH  25  26
ATOM     26  O   UNL A   1      38.330  22.006  26.084  1.00  0.00    -0.458 OA
BRANCH  26  27
ATOM     27  C   UNL A   1      39.620  21.862  26.461  1.00  0.00     0.338 C 
ATOM     28  O   UNL A   1      40.351  20.909  26.259  1.00  0.00    -0.246 OA
BRANCH  27  29
ATOM     29  C   UNL A   1      40.093  23.119  27.059  1.00  0.00     0.060 A 
ATOM     30  C   UNL A   1      41.049  23.147  28.066  1.00  0.00     0.016 A 
ATOM     31  C   UNL A   1      39.661  24.303  26.479  1.00  0.00     0.016 A 
ATOM     32  C   UNL A   1      41.551  24.386  28.489  1.00  0.00     0.010 A 
ATOM     33  C   UNL A   1      40.280  25.510  26.780  1.00  0.00     0.010 A 
ATOM     34  C   UNL A   1      41.204  25.582  27.825  1.00  0.00    -0.014 A 
BRANCH  34  35
ATOM     35  C   UNL A   1      41.769  26.908  28.218  1.00  0.00     0.031 A 
ATOM     36  C   UNL A   1      43.245  27.200  28.041  1.00  0.00     0.074 A 
ATOM     37  C   UNL A   1      40.969  27.839  28.778  1.00  0.00     0.049 A 
ATOM     38  N   UNL A   1      43.912  28.284  28.353  1.00  0.00    -0.248 NA
ATOM     39  C   UNL A   1      44.093  26.130  27.484  1.00  0.00     0.031 C 
ATOM     40  C   UNL A   1      39.548  27.660  29.081  1.00  0.00     0.029 A 
ATOM     41  N   UNL A   1      41.227  29.131  29.175  1.00  0.00    -0.354 N 
ATOM     42  C   UNL A   1      45.243  28.013  28.054  1.00  0.00     0.074 A 
ATOM     43  C   UNL A   1      45.309  26.640  27.617  1.00  0.00     0.031 C 
ATOM     44  C   UNL A   1      39.042  28.818  29.532  1.00  0.00     0.029 A 
ATOM     45  C   UNL A   1      40.110  29.809  29.611  1.00  0.00     0.049 A 
ATOM     46  H   UNL A   1      42.125  29.532  29.151  1.00  0.00     0.167 HD
ATOM     47  C   UNL A   1      46.310  28.845  28.084  1.00  0.00     0.031 A 
ATOM     48  C   UNL A   1      39.952  31.087  30.015  1.00  0.00     0.031 A 
ATOM     49  C   UNL A   1      46.228  30.233  28.448  1.00  0.00     0.049 A 
ATOM     50  C   UNL A   1      41.142  32.008  30.010  1.00  0.00     0.074 A 
ATOM     51  C   UNL A   1      47.234  31.182  28.432  1.00  0.00     0.029 A 
ATOM     52  N   UNL A   1      45.074  30.876  28.870  1.00  0.00    -0.354 N 
ATOM     53  N   UNL A   1      42.376  31.747  29.650  1.00  0.00    -0.248 NA
ATOM     54  C   UNL A   1      40.923  33.393  30.450  1.00  0.00     0.031 C 
ATOM     55  C   UNL A   1      46.705  32.384  28.901  1.00  0.00     0.029 A 
ATOM     56  C   UNL A   1      45.350  32.206  29.136  1.00  0.00     0.049 A 
ATOM     57  H   UNL A   1      44.191  30.452  28.966  1.00  0.00     0.167 HD
ATOM     58  C   UNL A   1      43.076  32.938  29.804  1.00  0.00     0.074 A 
ATOM     59  C   UNL A   1      42.125  33.926  30.269  1.00  0.00     0.031 C 
ATOM     60  C   UNL A   1      44.390  33.185  29.584  1.00  0.00     0.031 A 
BRANCH  47  61
ATOM     61  C   UNL A   1      47.656  28.313  27.654  1.00  0.00    -0.014 A 
ATOM     62  C   UNL A   1      48.009  28.300  26.290  1.00  0.00     0.010 A 
ATOM     63  C   UNL A   1      48.519  27.704  28.584  1.00  0.00     0.010 A 
ATOM     64  C   UNL A   1      49.177  27.661  25.864  1.00  0.00     0.020 A 
ATOM     65  C   UNL A   1      49.706  27.096  28.166  1.00  0.00     0.020 A 
ATOM     66  C   UNL A   1      50.013  27.054  26.804  1.00  0.00     0.054 A 
BRANCH  66  67
ATOM     67  S   UNL A   1      51.503  26.193  26.230  1.00  0.00     0.124 S 
ATOM     68  O   UNL A   1      51.362  26.264  24.780  1.00  0.00    -0.237 OA
ATOM     69  O   UNL A   1      52.578  26.999  26.803  1.00  0.00    -0.237 OA
ATOM     70  O   UNL A   1      51.368  24.856  26.806  1.00  0.00    -0.744 OA
ENDBRANCH  66  67
ENDBRANCH  47  61
BRANCH  48  71
ATOM     71  C   UNL A   1      38.589  31.571  30.379  1.00  0.00    -0.014 A 
ATOM     72  C   UNL A   1      37.749  32.155  29.412  1.00  0.00     0.010 A 
ATOM     73  C   UNL A   1      38.165  31.543  31.720  1.00  0.00     0.010 A 
ATOM     74  C   UNL A   1      36.546  32.762  29.787  1.00  0.00     0.020 A 
ATOM     75  C   UNL A   1      36.945  32.119  32.094  1.00  0.00     0.020 A 
ATOM     76  C   UNL A   1      36.161  32.754  31.130  1.00  0.00     0.054 A 
BRANCH  76  77
ATOM     77  S   UNL A   1      34.633  33.612  31.604  1.00  0.00     0.124 S 
ATOM     78  O   UNL A   1      33.986  32.621  32.458  1.00  0.00    -0.237 OA
ATOM     79  O   UNL A   1      35.133  34.802  32.287  1.00  0.00    -0.237 OA
ATOM     80  O   UNL A   1      33.970  33.862  30.326  1.00  0.00    -0.744 OA
ENDBRANCH  76  77
ENDBRANCH  48  71
BRANCH  60  81
ATOM     81  C   UNL A   1      44.916  34.574  29.832  1.00  0.00    -0.014 A 
ATOM     82  C   UNL A   1      45.285  34.955  31.137  1.00  0.00     0.010 A 
ATOM     83  C   UNL A   1      44.862  35.548  28.821  1.00  0.00     0.010 A 
ATOM     84  C   UNL A   1      45.529  36.295  31.440  1.00  0.00     0.020 A 
ATOM     85  C   UNL A   1      45.137  36.887  29.115  1.00  0.00     0.020 A 
ATOM     86  C   UNL A   1      45.434  37.256  30.430  1.00  0.00     0.054 A 
BRANCH  86  87
ATOM     87  S   UNL A   1      45.667  39.002  30.863  1.00  0.00     0.124 S 
ATOM     88  O   UNL A   1      46.438  38.911  32.099  1.00  0.00    -0.237 OA
ATOM     89  O   UNL A   1      46.390  39.523  29.706  1.00  0.00    -0.237 OA
ATOM     90  O   UNL A   1      44.303  39.503  31.013  1.00  0.00    -0.744 OA
ENDBRANCH  86  87
ENDBRANCH  60  81
ENDBRANCH  34  35
ENDBRANCH  27  29
ENDBRANCH  26  27
ENDBRANCH  25  26
ENDBRANCH   1  25
TORSDOF 18
ENDMDL
MODEL 3
REMARK VINA RESULT:     -10.7      3.077      3.693
REMARK SMILES CC(C)CSc1cc2c(cc1Cl)C=C(C(=O)OCCOC(=O)c1ccc(-c3c4nc(c(-c5ccc(S(=O)(=O)[O-])cc5)c5ccc([nH]5)c(-c5ccc(S(=O)(=O)[O-])cc5)c5nc(c(-c6ccc(S(=O)(=O)[O-])cc6)c6ccc3[nH]6)C=C5)C=C4)cc1)[C@@H](C(F)(F)F)O2
REMARK SMILES IDX 18 1 17 2 15 3 16 4 14 5 6 6 7 7 11 8 8 9 10 10 12 11 9 12
REMARK SMILES IDX 88 13 13 14 83 15 5 16 4 17 2 18 1 19 3 20 84 21 85 22 86 23
REMARK SMILES IDX 87 24 19 25 20 26 21 27 22 28 23 29 24 30 82 31 25 32 81 33
REMARK SMILES IDX 26 34 27 35 28 36 75 37 29 38 80 39 74 40 76 41 30 42 79 43
REMARK SMILES IDX 73 44 72 45 31 47 61 48 42 49 60 50 43 51 46 52 59 53 77 54
REMARK SMILES IDX 44 55 45 56 58 58 78 59 47 60 32 61 33 62 41 63 34 64 40 65
REMARK SMILES IDX 35 66 36 67 37 68 38 69 39 70 62 71 63 72 71 73 64 74 70 75
REMARK SMILES IDX 65 76 66 77 67 78 68 79 69 80 48 81 49 82 57 83 50 84 56 85
REMARK SMILES IDX 51 86 52 87 53 88 54 89 55 90
REMARK H PARENT 76 46 46 57
REMARK Flexibility Score: inf
ROOT
ATOM      1  C   UNL A   1      36.054  21.681  25.037  1.00  0.00     0.275 C 
ENDROOT
BRANCH   1   2
ATOM      2  O   UNL A   1      34.791  22.238  25.464  1.00  0.00    -0.459 OA
BRANCH   2   3
ATOM      3  C   UNL A   1      33.739  22.005  24.644  1.00  0.00     0.338 C 
ATOM      4  O   UNL A   1      33.412  20.931  24.166  1.00  0.00    -0.246 OA
BRANCH   3   5
ATOM      5  C   UNL A   1      32.972  23.248  24.426  1.00  0.00     0.087 C 
ATOM      6  C   UNL A   1      31.609  28.051  23.840  1.00  0.00     0.030 A 
ATOM      7  C   UNL A   1      30.911  26.861  24.117  1.00  0.00     0.063 A 
ATOM      8  C   UNL A   1      32.964  27.973  23.483  1.00  0.00     0.055 A 
ATOM      9  C   UNL A   1      31.573  25.635  24.167  1.00  0.00     0.129 A 
ATOM     10  C   UNL A   1      33.629  26.748  23.545  1.00  0.00     0.033 A 
ATOM     11  Cl  UNL A   1      33.882  29.331  22.933  1.00  0.00    -0.083 Cl
ATOM     12  C   UNL A   1      32.940  25.592  23.925  1.00  0.00     0.019 A 
ATOM     13  O   UNL A   1      30.824  24.534  24.471  1.00  0.00    -0.475 OA
ATOM     14  C   UNL A   1      33.655  24.348  24.093  1.00  0.00     0.027 C 
ATOM     15  C   UNL A   1      31.494  23.257  24.697  1.00  0.00     0.316 C 
BRANCH   6  16
ATOM     16  S   UNL A   1      30.683  29.571  24.018  1.00  0.00    -0.124 SA
BRANCH  16  17
ATOM     17  C   UNL A   1      29.843  29.694  22.385  1.00  0.00     0.078 C 
BRANCH  17  18
ATOM     18  C   UNL A   1      28.442  30.336  22.402  1.00  0.00    -0.007 C 
ATOM     19  C   UNL A   1      28.057  31.004  21.081  1.00  0.00     0.008 C 
ATOM     20  C   UNL A   1      27.401  29.253  22.718  1.00  0.00     0.008 C 
ENDBRANCH  17  18
ENDBRANCH  16  17
ENDBRANCH   6  16
BRANCH  15  21
ATOM     21  C   UNL A   1      31.202  22.809  26.139  1.00  0.00     0.430 C 
ATOM     22  F   UNL A   1      30.018  23.303  26.578  1.00  0.00    -0.167 F 
ATOM     23  F   UNL A   1      31.114  21.461  26.237  1.00  0.00    -0.167 F 
ATOM     24  F   UNL A   1      32.157  23.217  27.005  1.00  0.00    -0.167 F 
ENDBRANCH  15  21
ENDBRANCH   3   5
ENDBRANCH   2   3
ENDBRANCH   1   2
BRANCH   1  25
ATOM     25  C   UNL A   1      37.011  22.770  24.546  1.00  0.00     0.275 C 
BRANCH  25  26
ATOM     26  O   UNL A   1      37.500  23.552  25.650  1.00  0.00    -0.458 OA
BRANCH  26  27
ATOM     27  C   UNL A   1      38.687  23.151  26.159  1.00  0.00     0.338 C 
ATOM     28  O   UNL A   1      39.220  22.062  26.032  1.00  0.00    -0.246 OA
BRANCH  27  29
ATOM     29  C   UNL A   1      39.349  24.294  26.804  1.00  0.00     0.060 A 
ATOM     30  C   UNL A   1      40.045  25.253  26.081  1.00  0.00     0.016 A 
ATOM     31  C   UNL A   1      39.131  24.472  28.163  1.00  0.00     0.016 A 
ATOM     32  C   UNL A   1      40.530  26.386  26.749  1.00  0.00     0.010 A 
ATOM     33  C   UNL A   1      39.462  25.669  28.785  1.00  0.00     0.010 A 
ATOM     34  C   UNL A   1      40.211  26.630  28.102  1.00  0.00    -0.014 A 
BRANCH  34  35
ATOM     35  C   UNL A   1      40.666  27.858  28.821  1.00  0.00     0.031 A 
ATOM     36  C   UNL A   1      39.727  29.030  29.017  1.00  0.00     0.074 A 
ATOM     37  C   UNL A   1      41.938  27.944  29.264  1.00  0.00     0.049 A 
ATOM     38  N   UNL A   1      39.960  30.184  29.591  1.00  0.00    -0.248 NA
ATOM     39  C   UNL A   1      38.365  28.917  28.462  1.00  0.00     0.031 C 
ATOM     40  C   UNL A   1      42.970  26.923  29.071  1.00  0.00     0.029 A 
ATOM     41  N   UNL A   1      42.580  28.925  29.984  1.00  0.00    -0.354 N 
ATOM     42  C   UNL A   1      38.794  30.928  29.443  1.00  0.00     0.074 A 
ATOM     43  C   UNL A   1      37.882  30.136  28.653  1.00  0.00     0.031 C 
ATOM     44  C   UNL A   1      44.082  27.288  29.728  1.00  0.00     0.029 A 
ATOM     45  C   UNL A   1      43.869  28.596  30.339  1.00  0.00     0.049 A 
ATOM     46  H   UNL A   1      42.157  29.780  30.222  1.00  0.00     0.167 HD
ATOM     47  C   UNL A   1      38.482  32.138  29.962  1.00  0.00     0.031 A 
ATOM     48  C   UNL A   1      44.778  29.259  31.085  1.00  0.00     0.031 A 
ATOM     49  C   UNL A   1      39.365  32.892  30.811  1.00  0.00     0.049 A 
ATOM     50  C   UNL A   1      44.404  30.587  31.683  1.00  0.00     0.074 A 
ATOM     51  C   UNL A   1      39.115  34.090  31.456  1.00  0.00     0.029 A 
ATOM     52  N   UNL A   1      40.655  32.512  31.152  1.00  0.00    -0.354 N 
ATOM     53  N   UNL A   1      43.266  31.235  31.591  1.00  0.00    -0.248 NA
ATOM     54  C   UNL A   1      45.421  31.271  32.494  1.00  0.00     0.031 C 
ATOM     55  C   UNL A   1      40.272  34.466  32.137  1.00  0.00     0.029 A 
ATOM     56  C   UNL A   1      41.219  33.465  31.982  1.00  0.00     0.049 A 
ATOM     57  H   UNL A   1      41.103  31.690  30.849  1.00  0.00     0.167 HD
ATOM     58  C   UNL A   1      43.426  32.392  32.344  1.00  0.00     0.074 A 
ATOM     59  C   UNL A   1      44.760  32.348  32.903  1.00  0.00     0.031 C 
ATOM     60  C   UNL A   1      42.545  33.401  32.546  1.00  0.00     0.031 A 
BRANCH  47  61
ATOM     61  C   UNL A   1      37.112  32.711  29.694  1.00  0.00    -0.014 A 
ATOM     62  C   UNL A   1      36.869  33.441  28.513  1.00  0.00     0.010 A 
ATOM     63  C   UNL A   1      36.099  32.641  30.668  1.00  0.00     0.010 A 
ATOM     64  C   UNL A   1      35.658  34.115  28.331  1.00  0.00     0.020 A 
ATOM     65  C   UNL A   1      34.874  33.284  30.474  1.00  0.00     0.020 A 
ATOM     66  C   UNL A   1      34.672  34.040  29.317  1.00  0.00     0.054 A 
BRANCH  66  67
ATOM     67  S   UNL A   1      33.123  34.956  29.084  1.00  0.00     0.124 S 
ATOM     68  O   UNL A   1      33.598  36.252  28.613  1.00  0.00    -0.237 OA
ATOM     69  O   UNL A   1      32.418  34.143  28.096  1.00  0.00    -0.237 OA
ATOM     70  O   UNL A   1      32.522  34.956  30.416  1.00  0.00    -0.744 OA
ENDBRANCH  66  67
ENDBRANCH  47  61
BRANCH  48  71
ATOM     71  C   UNL A   1      46.098  28.620  31.359  1.00  0.00    -0.014 A 
ATOM     72  C   UNL A   1      47.173  28.774  30.464  1.00  0.00     0.010 A 
ATOM     73  C   UNL A   1      46.253  27.768  32.467  1.00  0.00     0.010 A 
ATOM     74  C   UNL A   1      48.350  28.039  30.633  1.00  0.00     0.020 A 
ATOM     75  C   UNL A   1      47.442  27.056  32.658  1.00  0.00     0.020 A 
ATOM     76  C   UNL A   1      48.470  27.170  31.721  1.00  0.00     0.054 A 
BRANCH  76  77
ATOM     77  S   UNL A   1      49.977  26.171  31.878  1.00  0.00     0.124 S 
ATOM     78  O   UNL A   1      50.553  26.287  30.541  1.00  0.00    -0.237 OA
ATOM     79  O   UNL A   1      50.706  26.859  32.940  1.00  0.00    -0.237 OA
ATOM     80  O   UNL A   1      49.474  24.845  32.228  1.00  0.00    -0.744 OA
ENDBRANCH  76  77
ENDBRANCH  48  71
BRANCH  60  81
ATOM     81  C   UNL A   1      42.961  34.562  33.410  1.00  0.00    -0.014 A 
ATOM     82  C   UNL A   1      43.649  35.647  32.832  1.00  0.00     0.010 A 
ATOM     83  C   UNL A   1      42.844  34.490  34.808  1.00  0.00     0.010 A 
ATOM     84  C   UNL A   1      44.266  36.604  33.639  1.00  0.00     0.020 A 
ATOM     85  C   UNL A   1      43.434  35.464  35.618  1.00  0.00     0.020 A 
ATOM     86  C   UNL A   1      44.171  36.495  35.029  1.00  0.00     0.054 A 
BRANCH  86  87
ATOM     87  S   UNL A   1      45.053  37.698  36.060  1.00  0.00     0.124 S 
ATOM     88  O   UNL A   1      44.368  38.944  35.733  1.00  0.00    -0.237 OA
ATOM     89  O   UNL A   1      44.824  37.189  37.410  1.00  0.00    -0.237 OA
ATOM     90  O   UNL A   1      46.434  37.603  35.593  1.00  0.00    -0.744 OA
ENDBRANCH  86  87
ENDBRANCH  60  81
ENDBRANCH  34  35
ENDBRANCH  27  29
ENDBRANCH  26  27
ENDBRANCH  25  26
ENDBRANCH   1  25
TORSDOF 18
ENDMDL
