MODEL 1
REMARK VINA RESULT:     -10.6      0.000      0.000
REMARK SMILES CNc1nccc(-c2cc(C(=O)OCCOC(=O)c3ccc(-c4c5nc(c(-c6ccc(S(=O)(=O)[O-])cc6)c6ccc([nH]6)c(-c6ccc(S(=O)(=O)[O-])cc6)c6nc(c(-c7ccc(S(=O)(=O)[O-])cc7)c7ccc4[nH]7)C=C6)C=C5)cc3)ccn2)n1
REMARK SMILES IDX 15 1 14 2 13 3 11 4 12 5 10 6 8 7 9 8 81 9 80 10 79 11 7 12
REMARK SMILES IDX 3 13 4 14 82 15 5 16 6 17 2 18 1 19 16 21 17 22 18 23 19 24
REMARK SMILES IDX 20 25 78 26 21 27 77 28 22 29 23 30 24 31 71 32 25 33 76 34
REMARK SMILES IDX 70 35 72 36 26 37 75 38 69 39 68 40 27 42 57 43 38 44 56 45
REMARK SMILES IDX 39 46 42 47 55 48 73 49 40 50 41 51 54 53 74 54 43 55 28 56
REMARK SMILES IDX 29 57 37 58 30 59 36 60 31 61 32 62 33 63 34 64 35 65 58 66
REMARK SMILES IDX 59 67 67 68 60 69 66 70 61 71 62 72 63 73 64 74 65 75 44 76
REMARK SMILES IDX 45 77 53 78 46 79 52 80 47 81 48 82 49 83 50 84 51 85
REMARK H PARENT 2 20 72 41 42 52
REMARK Flexibility Score: inf
ROOT
ATOM      1  C   UNL A   1      33.595  28.542  25.849  1.00  0.00     0.275 C 
ENDROOT
BRANCH   1   2
ATOM      2  C   UNL A   1      32.144  28.102  25.641  1.00  0.00     0.275 C 
BRANCH   2   3
ATOM      3  O   UNL A   1      32.064  26.754  25.133  1.00  0.00    -0.458 OA
BRANCH   3   4
ATOM      4  C   UNL A   1      31.918  25.774  26.060  1.00  0.00     0.338 C 
ATOM      5  O   UNL A   1      31.099  25.740  26.958  1.00  0.00    -0.246 OA
BRANCH   4   6
ATOM      6  C   UNL A   1      32.874  24.671  25.805  1.00  0.00     0.063 A 
ATOM      7  C   UNL A   1      33.363  22.392  25.306  1.00  0.00     0.090 A 
ATOM      8  C   UNL A   1      32.428  23.365  25.647  1.00  0.00     0.046 A 
ATOM      9  N   UNL A   1      34.692  22.656  25.204  1.00  0.00    -0.255 NA
ATOM     10  C   UNL A   1      35.099  23.922  25.384  1.00  0.00     0.112 A 
ATOM     11  C   UNL A   1      34.228  24.961  25.628  1.00  0.00     0.036 A 
BRANCH   7  12
ATOM     12  C   UNL A   1      32.957  21.058  24.860  1.00  0.00     0.094 A 
ATOM     13  C   UNL A   1      32.830  18.813  25.312  1.00  0.00     0.222 A 
ATOM     14  N   UNL A   1      32.420  18.526  24.068  1.00  0.00    -0.222 NA
ATOM     15  N   UNL A   1      33.101  20.048  25.742  1.00  0.00    -0.211 NA
ATOM     16  C   UNL A   1      32.260  19.558  23.224  1.00  0.00     0.117 A 
ATOM     17  C   UNL A   1      32.507  20.859  23.571  1.00  0.00     0.051 A 
BRANCH  13  18
ATOM     18  N   UNL A   1      32.903  17.756  26.172  1.00  0.00    -0.357 N 
ATOM     19  C   UNL A   1      33.213  16.435  25.707  1.00  0.00     0.143 C 
ATOM     20  H   UNL A   1      32.740  17.903  27.131  1.00  0.00     0.163 HD
ENDBRANCH  13  18
ENDBRANCH   7  12
ENDBRANCH   4   6
ENDBRANCH   3   4
ENDBRANCH   2   3
ENDBRANCH   1   2
BRANCH   1  21
ATOM     21  O   UNL A   1      33.886  28.721  27.248  1.00  0.00    -0.458 OA
BRANCH  21  22
ATOM     22  C   UNL A   1      34.285  29.967  27.585  1.00  0.00     0.338 C 
ATOM     23  O   UNL A   1      33.614  30.987  27.577  1.00  0.00    -0.246 OA
BRANCH  22  24
ATOM     24  C   UNL A   1      35.656  29.940  28.107  1.00  0.00     0.060 A 
ATOM     25  C   UNL A   1      36.687  30.147  27.199  1.00  0.00     0.016 A 
ATOM     26  C   UNL A   1      35.943  29.520  29.400  1.00  0.00     0.016 A 
ATOM     27  C   UNL A   1      37.990  29.794  27.517  1.00  0.00     0.010 A 
ATOM     28  C   UNL A   1      37.277  29.299  29.766  1.00  0.00     0.010 A 
ATOM     29  C   UNL A   1      38.315  29.386  28.815  1.00  0.00    -0.014 A 
BRANCH  29  30
ATOM     30  C   UNL A   1      39.723  29.033  29.163  1.00  0.00     0.031 A 
ATOM     31  C   UNL A   1      40.606  30.043  29.856  1.00  0.00     0.074 A 
ATOM     32  C   UNL A   1      40.213  27.808  28.875  1.00  0.00     0.049 A 
ATOM     33  N   UNL A   1      41.899  30.008  30.057  1.00  0.00    -0.248 NA
ATOM     34  C   UNL A   1      39.954  31.257  30.376  1.00  0.00     0.031 C 
ATOM     35  C   UNL A   1      39.458  26.706  28.270  1.00  0.00     0.029 A 
ATOM     36  N   UNL A   1      41.467  27.277  29.056  1.00  0.00    -0.354 N 
ATOM     37  C   UNL A   1      42.222  31.212  30.677  1.00  0.00     0.074 A 
ATOM     38  C   UNL A   1      40.993  31.963  30.805  1.00  0.00     0.031 C 
ATOM     39  C   UNL A   1      40.247  25.627  28.169  1.00  0.00     0.029 A 
ATOM     40  C   UNL A   1      41.593  25.987  28.591  1.00  0.00     0.049 A 
ATOM     41  H   UNL A   1      42.206  27.772  29.479  1.00  0.00     0.167 HD
ATOM     42  C   UNL A   1      43.432  31.649  31.102  1.00  0.00     0.031 A 
ATOM     43  C   UNL A   1      42.675  25.196  28.458  1.00  0.00     0.031 A 
ATOM     44  C   UNL A   1      44.645  30.879  31.001  1.00  0.00     0.049 A 
ATOM     45  C   UNL A   1      44.019  25.737  28.858  1.00  0.00     0.074 A 
ATOM     46  C   UNL A   1      45.924  31.231  31.398  1.00  0.00     0.029 A 
ATOM     47  N   UNL A   1      44.728  29.594  30.484  1.00  0.00    -0.354 N 
ATOM     48  N   UNL A   1      44.315  26.899  29.389  1.00  0.00    -0.248 NA
ATOM     49  C   UNL A   1      45.179  24.864  28.632  1.00  0.00     0.031 C 
ATOM     50  C   UNL A   1      46.788  30.182  31.071  1.00  0.00     0.029 A 
ATOM     51  C   UNL A   1      46.037  29.147  30.537  1.00  0.00     0.049 A 
ATOM     52  H   UNL A   1      43.967  29.077  30.132  1.00  0.00     0.167 HD
ATOM     53  C   UNL A   1      45.690  26.882  29.591  1.00  0.00     0.074 A 
ATOM     54  C   UNL A   1      46.164  25.590  29.141  1.00  0.00     0.031 C 
ATOM     55  C   UNL A   1      46.489  27.850  30.103  1.00  0.00     0.031 A 
BRANCH  42  56
ATOM     56  C   UNL A   1      43.521  33.036  31.688  1.00  0.00    -0.014 A 
ATOM     57  C   UNL A   1      43.699  34.168  30.874  1.00  0.00     0.010 A 
ATOM     58  C   UNL A   1      43.353  33.213  33.075  1.00  0.00     0.010 A 
ATOM     59  C   UNL A   1      43.732  35.448  31.438  1.00  0.00     0.020 A 
ATOM     60  C   UNL A   1      43.357  34.493  33.639  1.00  0.00     0.020 A 
ATOM     61  C   UNL A   1      43.558  35.602  32.817  1.00  0.00     0.054 A 
BRANCH  61  62
ATOM     62  S   UNL A   1      43.559  37.278  33.512  1.00  0.00     0.124 S 
ATOM     63  O   UNL A   1      44.764  37.263  34.337  1.00  0.00    -0.237 OA
ATOM     64  O   UNL A   1      43.625  38.118  32.319  1.00  0.00    -0.237 OA
ATOM     65  O   UNL A   1      42.300  37.350  34.252  1.00  0.00    -0.744 OA
ENDBRANCH  61  62
ENDBRANCH  42  56
BRANCH  43  66
ATOM     66  C   UNL A   1      42.548  23.836  27.860  1.00  0.00    -0.014 A 
ATOM     67  C   UNL A   1      42.243  22.724  28.663  1.00  0.00     0.010 A 
ATOM     68  C   UNL A   1      42.754  23.643  26.481  1.00  0.00     0.010 A 
ATOM     69  C   UNL A   1      42.182  21.442  28.107  1.00  0.00     0.020 A 
ATOM     70  C   UNL A   1      42.655  22.369  25.914  1.00  0.00     0.020 A 
ATOM     71  C   UNL A   1      42.390  21.274  26.735  1.00  0.00     0.054 A 
BRANCH  71  72
ATOM     72  S   UNL A   1      42.294  19.605  26.032  1.00  0.00     0.124 S 
ATOM     73  O   UNL A   1      42.744  18.781  27.149  1.00  0.00    -0.237 OA
ATOM     74  O   UNL A   1      40.879  19.488  25.689  1.00  0.00    -0.237 OA
ATOM     75  O   UNL A   1      43.202  19.662  24.889  1.00  0.00    -0.744 OA
ENDBRANCH  71  72
ENDBRANCH  43  66
BRANCH  55  76
ATOM     76  C   UNL A   1      47.949  27.527  30.268  1.00  0.00    -0.014 A 
ATOM     77  C   UNL A   1      48.416  26.765  31.354  1.00  0.00     0.010 A 
ATOM     78  C   UNL A   1      48.862  27.953  29.285  1.00  0.00     0.010 A 
ATOM     79  C   UNL A   1      49.775  26.460  31.468  1.00  0.00     0.020 A 
ATOM     80  C   UNL A   1      50.215  27.622  29.378  1.00  0.00     0.020 A 
ATOM     81  C   UNL A   1      50.665  26.888  30.476  1.00  0.00     0.054 A 
BRANCH  81  82
ATOM     82  S   UNL A   1      52.414  26.431  30.620  1.00  0.00     0.124 S 
ATOM     83  O   UNL A   1      52.352  25.261  31.492  1.00  0.00    -0.237 OA
ATOM     84  O   UNL A   1      52.789  26.161  29.234  1.00  0.00    -0.237 OA
ATOM     85  O   UNL A   1      53.035  27.615  31.209  1.00  0.00    -0.744 OA
ENDBRANCH  81  82
ENDBRANCH  55  76
ENDBRANCH  29  30
ENDBRANCH  22  24
ENDBRANCH  21  22
ENDBRANCH   1  21
TORSDOF 16
ENDMDL
MODEL 2
REMARK VINA RESULT:     -10.5      4.554     10.856
REMARK SMILES CNc1nccc(-c2cc(C(=O)OCCOC(=O)c3ccc(-c4c5nc(c(-c6ccc(S(=O)(=O)[O-])cc6)c6ccc([nH]6)c(-c6ccc(S(=O)(=O)[O-])cc6)c6nc(c(-c7ccc(S(=O)(=O)[O-])cc7)c7ccc4[nH]7)C=C6)C=C5)cc3)ccn2)n1
REMARK SMILES IDX 15 1 14 2 13 3 11 4 12 5 10 6 8 7 9 8 81 9 80 10 79 11 7 12
REMARK SMILES IDX 3 13 4 14 82 15 5 16 6 17 2 18 1 19 16 21 17 22 18 23 19 24
REMARK SMILES IDX 20 25 78 26 21 27 77 28 22 29 23 30 24 31 71 32 25 33 76 34
REMARK SMILES IDX 70 35 72 36 26 37 75 38 69 39 68 40 27 42 57 43 38 44 56 45
REMARK SMILES IDX 39 46 42 47 55 48 73 49 40 50 41 51 54 53 74 54 43 55 28 56
REMARK SMILES IDX 29 57 37 58 30 59 36 60 31 61 32 62 33 63 34 64 35 65 58 66
REMARK SMILES IDX 59 67 67 68 60 69 66 70 61 71 62 72 63 73 64 74 65 75 44 76
REMARK SMILES IDX 45 77 53 78 46 79 52 80 47 81 48 82 49 83 50 84 51 85
REMARK H PARENT 2 20 72 41 42 52
REMARK Flexibility Score: inf
ROOT
ATOM      1  C   UNL A   1      40.419  21.728  26.203  1.00  0.00     0.275 C 
ENDROOT
BRANCH   1   2
ATOM      2  C   UNL A   1      40.704  20.233  26.354  1.00  0.00     0.275 C 
BRANCH   2   3
ATOM      3  O   UNL A   1      41.540  19.740  25.286  1.00  0.00    -0.458 OA
BRANCH   3   4
ATOM      4  C   UNL A   1      42.570  18.937  25.655  1.00  0.00     0.338 C 
ATOM      5  O   UNL A   1      42.488  17.799  26.076  1.00  0.00    -0.246 OA
BRANCH   4   6
ATOM      6  C   UNL A   1      43.867  19.614  25.421  1.00  0.00     0.063 A 
ATOM      7  C   UNL A   1      45.227  21.569  25.339  1.00  0.00     0.090 A 
ATOM      8  C   UNL A   1      43.964  20.999  25.464  1.00  0.00     0.046 A 
ATOM      9  N   UNL A   1      46.344  20.833  25.099  1.00  0.00    -0.255 NA
ATOM     10  C   UNL A   1      46.218  19.498  25.039  1.00  0.00     0.112 A 
ATOM     11  C   UNL A   1      45.021  18.849  25.248  1.00  0.00     0.036 A 
BRANCH   7  12
ATOM     12  C   UNL A   1      45.466  22.983  25.637  1.00  0.00     0.094 A 
ATOM     13  C   UNL A   1      46.514  24.542  26.952  1.00  0.00     0.222 A 
ATOM     14  N   UNL A   1      45.834  25.555  26.395  1.00  0.00    -0.222 NA
ATOM     15  N   UNL A   1      46.364  23.262  26.603  1.00  0.00    -0.211 NA
ATOM     16  C   UNL A   1      44.968  25.245  25.417  1.00  0.00     0.117 A 
ATOM     17  C   UNL A   1      44.747  23.965  24.985  1.00  0.00     0.051 A 
BRANCH  13  18
ATOM     18  N   UNL A   1      47.447  24.894  27.884  1.00  0.00    -0.357 N 
ATOM     19  C   UNL A   1      48.814  25.126  27.520  1.00  0.00     0.143 C 
ATOM     20  H   UNL A   1      47.175  24.993  28.824  1.00  0.00     0.163 HD
ENDBRANCH  13  18
ENDBRANCH   7  12
ENDBRANCH   4   6
ENDBRANCH   3   4
ENDBRANCH   2   3
ENDBRANCH   1   2
BRANCH   1  21
ATOM     21  O   UNL A   1      39.054  22.032  26.549  1.00  0.00    -0.458 OA
BRANCH  21  22
ATOM     22  C   UNL A   1      38.623  23.242  26.130  1.00  0.00     0.338 C 
ATOM     23  O   UNL A   1      37.672  23.478  25.403  1.00  0.00    -0.246 OA
BRANCH  22  24
ATOM     24  C   UNL A   1      39.394  24.311  26.778  1.00  0.00     0.060 A 
ATOM     25  C   UNL A   1      39.195  24.505  28.138  1.00  0.00     0.016 A 
ATOM     26  C   UNL A   1      40.132  25.231  26.044  1.00  0.00     0.016 A 
ATOM     27  C   UNL A   1      39.594  25.685  28.749  1.00  0.00     0.010 A 
ATOM     28  C   UNL A   1      40.658  26.357  26.694  1.00  0.00     0.010 A 
ATOM     29  C   UNL A   1      40.355  26.624  28.044  1.00  0.00    -0.014 A 
BRANCH  29  30
ATOM     30  C   UNL A   1      40.807  27.880  28.711  1.00  0.00     0.031 A 
ATOM     31  C   UNL A   1      42.220  27.994  29.230  1.00  0.00     0.074 A 
ATOM     32  C   UNL A   1      39.963  28.926  28.844  1.00  0.00     0.049 A 
ATOM     33  N   UNL A   1      42.742  28.907  30.010  1.00  0.00    -0.248 NA
ATOM     34  C   UNL A   1      43.166  26.937  28.833  1.00  0.00     0.031 C 
ATOM     35  C   UNL A   1      38.590  28.988  28.332  1.00  0.00     0.029 A 
ATOM     36  N   UNL A   1      40.135  30.148  29.449  1.00  0.00    -0.354 N 
ATOM     37  C   UNL A   1      44.055  28.509  30.239  1.00  0.00     0.074 A 
ATOM     38  C   UNL A   1      44.248  27.263  29.529  1.00  0.00     0.031 C 
ATOM     39  C   UNL A   1      38.065  30.190  28.607  1.00  0.00     0.029 A 
ATOM     40  C   UNL A   1      39.012  30.945  29.413  1.00  0.00     0.049 A 
ATOM     41  H   UNL A   1      40.981  30.427  29.868  1.00  0.00     0.167 HD
ATOM     42  C   UNL A   1      45.013  29.126  30.972  1.00  0.00     0.031 A 
ATOM     43  C   UNL A   1      38.745  32.123  30.009  1.00  0.00     0.031 A 
ATOM     44  C   UNL A   1      44.822  30.384  31.647  1.00  0.00     0.049 A 
ATOM     45  C   UNL A   1      39.795  32.744  30.887  1.00  0.00     0.074 A 
ATOM     46  C   UNL A   1      45.726  31.092  32.420  1.00  0.00     0.029 A 
ATOM     47  N   UNL A   1      43.654  31.131  31.615  1.00  0.00    -0.354 N 
ATOM     48  N   UNL A   1      41.012  32.325  31.139  1.00  0.00    -0.248 NA
ATOM     49  C   UNL A   1      39.433  33.994  31.570  1.00  0.00     0.031 C 
ATOM     50  C   UNL A   1      45.087  32.240  32.899  1.00  0.00     0.029 A 
ATOM     51  C   UNL A   1      43.809  32.283  32.367  1.00  0.00     0.049 A 
ATOM     52  H   UNL A   1      42.834  30.879  31.130  1.00  0.00     0.167 HD
ATOM     53  C   UNL A   1      41.571  33.277  31.982  1.00  0.00     0.074 A 
ATOM     54  C   UNL A   1      40.566  34.301  32.183  1.00  0.00     0.031 C 
ATOM     55  C   UNL A   1      42.805  33.303  32.541  1.00  0.00     0.031 A 
BRANCH  42  56
ATOM     56  C   UNL A   1      46.350  28.442  31.116  1.00  0.00    -0.014 A 
ATOM     57  C   UNL A   1      47.403  28.688  30.217  1.00  0.00     0.010 A 
ATOM     58  C   UNL A   1      46.577  27.590  32.214  1.00  0.00     0.010 A 
ATOM     59  C   UNL A   1      48.647  28.076  30.399  1.00  0.00     0.020 A 
ATOM     60  C   UNL A   1      47.828  26.999  32.416  1.00  0.00     0.020 A 
ATOM     61  C   UNL A   1      48.853  27.238  31.499  1.00  0.00     0.054 A 
BRANCH  61  62
ATOM     62  S   UNL A   1      50.492  26.497  31.733  1.00  0.00     0.124 S 
ATOM     63  O   UNL A   1      50.696  25.806  30.462  1.00  0.00    -0.237 OA
ATOM     64  O   UNL A   1      51.341  27.664  31.957  1.00  0.00    -0.237 OA
ATOM     65  O   UNL A   1      50.318  25.625  32.893  1.00  0.00    -0.744 OA
ENDBRANCH  61  62
ENDBRANCH  42  56
BRANCH  43  66
ATOM     66  C   UNL A   1      37.405  32.760  29.855  1.00  0.00    -0.014 A 
ATOM     67  C   UNL A   1      37.127  33.589  28.754  1.00  0.00     0.010 A 
ATOM     68  C   UNL A   1      36.404  32.557  30.823  1.00  0.00     0.010 A 
ATOM     69  C   UNL A   1      35.889  34.231  28.644  1.00  0.00     0.020 A 
ATOM     70  C   UNL A   1      35.152  33.164  30.697  1.00  0.00     0.020 A 
ATOM     71  C   UNL A   1      34.910  34.014  29.618  1.00  0.00     0.054 A 
BRANCH  71  72
ATOM     72  S   UNL A   1      33.307  34.846  29.450  1.00  0.00     0.124 S 
ATOM     73  O   UNL A   1      32.590  33.941  28.557  1.00  0.00    -0.237 OA
ATOM     74  O   UNL A   1      32.827  34.887  30.830  1.00  0.00    -0.237 OA
ATOM     75  O   UNL A   1      33.655  36.146  28.880  1.00  0.00    -0.744 OA
ENDBRANCH  71  72
ENDBRANCH  43  66
BRANCH  55  76
ATOM     76  C   UNL A   1      43.167  34.505  33.369  1.00  0.00    -0.014 A 
ATOM     77  C   UNL A   1      43.030  34.504  34.769  1.00  0.00     0.010 A 
ATOM     78  C   UNL A   1      43.704  35.640  32.732  1.00  0.00     0.010 A 
ATOM     79  C   UNL A   1      43.397  35.628  35.513  1.00  0.00     0.020 A 
ATOM     80  C   UNL A   1      44.104  36.752  33.477  1.00  0.00     0.020 A 
ATOM     81  C   UNL A   1      43.936  36.743  34.862  1.00  0.00     0.054 A 
BRANCH  81  82
ATOM     82  S   UNL A   1      44.456  38.166  35.858  1.00  0.00     0.124 S 
ATOM     83  O   UNL A   1      44.014  39.290  35.038  1.00  0.00    -0.237 OA
ATOM     84  O   UNL A   1      43.718  37.970  37.104  1.00  0.00    -0.237 OA
ATOM     85  O   UNL A   1      45.904  38.004  35.965  1.00  0.00    -0.744 OA
ENDBRANCH  81  82
ENDBRANCH  55  76
ENDBRANCH  29  30
ENDBRANCH  22  24
ENDBRANCH  21  22
ENDBRANCH   1  21
TORSDOF 16
ENDMDL
MODEL 3
REMARK VINA RESULT:     -10.5      4.879      9.887
REMARK SMILES CNc1nccc(-c2cc(C(=O)OCCOC(=O)c3ccc(-c4c5nc(c(-c6ccc(S(=O)(=O)[O-])cc6)c6ccc([nH]6)c(-c6ccc(S(=O)(=O)[O-])cc6)c6nc(c(-c7ccc(S(=O)(=O)[O-])cc7)c7ccc4[nH]7)C=C6)C=C5)cc3)ccn2)n1
REMARK SMILES IDX 15 1 14 2 13 3 11 4 12 5 10 6 8 7 9 8 81 9 80 10 79 11 7 12
REMARK SMILES IDX 3 13 4 14 82 15 5 16 6 17 2 18 1 19 16 21 17 22 18 23 19 24
REMARK SMILES IDX 20 25 78 26 21 27 77 28 22 29 23 30 24 31 71 32 25 33 76 34
REMARK SMILES IDX 70 35 72 36 26 37 75 38 69 39 68 40 27 42 57 43 38 44 56 45
REMARK SMILES IDX 39 46 42 47 55 48 73 49 40 50 41 51 54 53 74 54 43 55 28 56
REMARK SMILES IDX 29 57 37 58 30 59 36 60 31 61 32 62 33 63 34 64 35 65 58 66
REMARK SMILES IDX 59 67 67 68 60 69 66 70 61 71 62 72 63 73 64 74 65 75 44 76
REMARK SMILES IDX 45 77 53 78 46 79 52 80 47 81 48 82 49 83 50 84 51 85
REMARK H PARENT 2 20 72 41 42 52
REMARK Flexibility Score: inf
ROOT
ATOM      1  C   UNL A   1      42.867  23.585  25.659  1.00  0.00     0.275 C 
ENDROOT
BRANCH   1   2
ATOM      2  C   UNL A   1      42.321  22.157  25.723  1.00  0.00     0.275 C 
BRANCH   2   3
ATOM      3  O   UNL A   1      41.211  22.051  26.639  1.00  0.00    -0.458 OA
BRANCH   3   4
ATOM      4  C   UNL A   1      40.188  21.249  26.249  1.00  0.00     0.338 C 
ATOM      5  O   UNL A   1      40.217  20.038  26.136  1.00  0.00    -0.246 OA
BRANCH   4   6
ATOM      6  C   UNL A   1      38.960  22.046  26.022  1.00  0.00     0.063 A 
ATOM      7  C   UNL A   1      36.696  22.253  25.306  1.00  0.00     0.090 A 
ATOM      8  C   UNL A   1      37.854  21.487  25.396  1.00  0.00     0.046 A 
ATOM      9  N   UNL A   1      36.635  23.542  25.733  1.00  0.00    -0.255 NA
ATOM     10  C   UNL A   1      37.726  24.067  26.314  1.00  0.00     0.112 A 
ATOM     11  C   UNL A   1      38.880  23.345  26.528  1.00  0.00     0.036 A 
BRANCH   7  12
ATOM     12  C   UNL A   1      35.414  21.667  24.911  1.00  0.00     0.094 A 
ATOM     13  C   UNL A   1      34.139  19.779  24.647  1.00  0.00     0.222 A 
ATOM     14  N   UNL A   1      33.158  20.456  24.035  1.00  0.00    -0.222 NA
ATOM     15  N   UNL A   1      35.264  20.340  25.097  1.00  0.00    -0.211 NA
ATOM     16  C   UNL A   1      33.326  21.781  23.891  1.00  0.00     0.117 A 
ATOM     17  C   UNL A   1      34.440  22.448  24.322  1.00  0.00     0.051 A 
BRANCH  13  18
ATOM     18  N   UNL A   1      33.904  18.451  24.855  1.00  0.00    -0.357 N 
ATOM     19  C   UNL A   1      32.879  18.006  25.754  1.00  0.00     0.143 C 
ATOM     20  H   UNL A   1      34.448  17.784  24.377  1.00  0.00     0.163 HD
ENDBRANCH  13  18
ENDBRANCH   7  12
ENDBRANCH   4   6
ENDBRANCH   3   4
ENDBRANCH   2   3
ENDBRANCH   1   2
BRANCH   1  21
ATOM     21  O   UNL A   1      42.166  24.448  26.574  1.00  0.00    -0.458 OA
BRANCH  21  22
ATOM     22  C   UNL A   1      41.994  25.714  26.135  1.00  0.00     0.338 C 
ATOM     23  O   UNL A   1      42.156  26.132  25.000  1.00  0.00    -0.246 OA
BRANCH  22  24
ATOM     24  C   UNL A   1      41.444  26.555  27.205  1.00  0.00     0.060 A 
ATOM     25  C   UNL A   1      41.994  27.820  27.366  1.00  0.00     0.016 A 
ATOM     26  C   UNL A   1      40.565  26.053  28.156  1.00  0.00     0.016 A 
ATOM     27  C   UNL A   1      41.798  28.531  28.541  1.00  0.00     0.010 A 
ATOM     28  C   UNL A   1      40.254  26.833  29.278  1.00  0.00     0.010 A 
ATOM     29  C   UNL A   1      40.904  28.063  29.510  1.00  0.00    -0.014 A 
BRANCH  29  30
ATOM     30  C   UNL A   1      40.673  28.843  30.761  1.00  0.00     0.031 A 
ATOM     31  C   UNL A   1      39.565  29.867  30.819  1.00  0.00     0.074 A 
ATOM     32  C   UNL A   1      41.441  28.631  31.851  1.00  0.00     0.049 A 
ATOM     33  N   UNL A   1      39.332  30.781  31.727  1.00  0.00    -0.248 NA
ATOM     34  C   UNL A   1      38.601  29.875  29.704  1.00  0.00     0.031 C 
ATOM     35  C   UNL A   1      42.504  27.627  31.967  1.00  0.00     0.029 A 
ATOM     36  N   UNL A   1      41.445  29.247  33.080  1.00  0.00    -0.354 N 
ATOM     37  C   UNL A   1      38.234  31.503  31.269  1.00  0.00     0.074 A 
ATOM     38  C   UNL A   1      37.855  30.933  29.995  1.00  0.00     0.031 C 
ATOM     39  C   UNL A   1      43.024  27.669  33.202  1.00  0.00     0.029 A 
ATOM     40  C   UNL A   1      42.419  28.773  33.931  1.00  0.00     0.049 A 
ATOM     41  H   UNL A   1      40.811  29.958  33.328  1.00  0.00     0.167 HD
ATOM     42  C   UNL A   1      37.599  32.546  31.859  1.00  0.00     0.031 A 
ATOM     43  C   UNL A   1      42.827  29.211  35.138  1.00  0.00     0.031 A 
ATOM     44  C   UNL A   1      37.963  33.085  33.144  1.00  0.00     0.049 A 
ATOM     45  C   UNL A   1      42.162  30.422  35.731  1.00  0.00     0.074 A 
ATOM     46  C   UNL A   1      37.387  34.142  33.828  1.00  0.00     0.029 A 
ATOM     47  N   UNL A   1      38.983  32.598  33.948  1.00  0.00    -0.354 N 
ATOM     48  N   UNL A   1      41.163  31.128  35.259  1.00  0.00    -0.248 NA
ATOM     49  C   UNL A   1      42.687  30.902  37.017  1.00  0.00     0.031 C 
ATOM     50  C   UNL A   1      38.094  34.328  35.020  1.00  0.00     0.029 A 
ATOM     51  C   UNL A   1      39.064  33.343  35.112  1.00  0.00     0.049 A 
ATOM     52  H   UNL A   1      39.565  31.835  33.723  1.00  0.00     0.167 HD
ATOM     53  C   UNL A   1      40.919  32.114  36.206  1.00  0.00     0.074 A 
ATOM     54  C   UNL A   1      41.862  31.904  37.285  1.00  0.00     0.031 C 
ATOM     55  C   UNL A   1      39.996  33.107  36.185  1.00  0.00     0.031 A 
BRANCH  42  56
ATOM     56  C   UNL A   1      36.463  33.200  31.113  1.00  0.00    -0.014 A 
ATOM     57  C   UNL A   1      35.179  33.307  31.675  1.00  0.00     0.010 A 
ATOM     58  C   UNL A   1      36.706  33.782  29.854  1.00  0.00     0.010 A 
ATOM     59  C   UNL A   1      34.154  33.959  30.981  1.00  0.00     0.020 A 
ATOM     60  C   UNL A   1      35.693  34.460  29.170  1.00  0.00     0.020 A 
ATOM     61  C   UNL A   1      34.419  34.534  29.735  1.00  0.00     0.054 A 
BRANCH  61  62
ATOM     62  S   UNL A   1      33.081  35.415  28.881  1.00  0.00     0.124 S 
ATOM     63  O   UNL A   1      32.544  34.375  28.008  1.00  0.00    -0.237 OA
ATOM     64  O   UNL A   1      32.212  35.820  29.983  1.00  0.00    -0.237 OA
ATOM     65  O   UNL A   1      33.766  36.510  28.196  1.00  0.00    -0.744 OA
ENDBRANCH  61  62
ENDBRANCH  42  56
BRANCH  43  66
ATOM     66  C   UNL A   1      43.964  28.546  35.837  1.00  0.00    -0.014 A 
ATOM     67  C   UNL A   1      43.735  27.489  36.736  1.00  0.00     0.010 A 
ATOM     68  C   UNL A   1      45.285  28.982  35.623  1.00  0.00     0.010 A 
ATOM     69  C   UNL A   1      44.799  26.907  37.433  1.00  0.00     0.020 A 
ATOM     70  C   UNL A   1      46.355  28.377  36.287  1.00  0.00     0.020 A 
ATOM     71  C   UNL A   1      46.103  27.358  37.204  1.00  0.00     0.054 A 
BRANCH  71  72
ATOM     72  S   UNL A   1      47.470  26.581  38.109  1.00  0.00     0.124 S 
ATOM     73  O   UNL A   1      47.018  26.693  39.492  1.00  0.00    -0.237 OA
ATOM     74  O   UNL A   1      47.486  25.229  37.555  1.00  0.00    -0.237 OA
ATOM     75  O   UNL A   1      48.624  27.405  37.757  1.00  0.00    -0.744 OA
ENDBRANCH  71  72
ENDBRANCH  43  66
BRANCH  55  76
ATOM     76  C   UNL A   1      39.913  34.002  37.392  1.00  0.00    -0.014 A 
ATOM     77  C   UNL A   1      40.618  35.216  37.458  1.00  0.00     0.010 A 
ATOM     78  C   UNL A   1      39.068  33.638  38.458  1.00  0.00     0.010 A 
ATOM     79  C   UNL A   1      40.502  36.038  38.582  1.00  0.00     0.020 A 
ATOM     80  C   UNL A   1      38.924  34.473  39.568  1.00  0.00     0.020 A 
ATOM     81  C   UNL A   1      39.652  35.662  39.628  1.00  0.00     0.054 A 
BRANCH  81  82
ATOM     82  S   UNL A   1      39.477  36.774  41.050  1.00  0.00     0.124 S 
ATOM     83  O   UNL A   1      40.859  36.912  41.501  1.00  0.00    -0.237 OA
ATOM     84  O   UNL A   1      38.890  37.970  40.450  1.00  0.00    -0.237 OA
ATOM     85  O   UNL A   1      38.597  36.042  41.957  1.00  0.00    -0.744 OA
ENDBRANCH  81  82
ENDBRANCH  55  76
ENDBRANCH  29  30
ENDBRANCH  22  24
ENDBRANCH  21  22
ENDBRANCH   1  21
TORSDOF 16
ENDMDL
