MODEL 1
REMARK VINA RESULT:     -10.1      0.000      0.000
REMARK SMILES O=C(OCCOC(=O)[C@@H]1C=C[C@H](NC(=O)[C@@H]2Cc3ccccc3O2)C1)c1ccc(-c2c3nc(c(-c4ccc(S(=O)(=O)[O-])cc4)c4ccc([nH]4)c(-c4ccc(S(=O)(=O)[O-])cc4)c4nc(c(-c5ccc(S(=O)(=O)[O-])cc5)c5ccc2[nH]5)C=C4)C=C3)cc1
REMARK SMILES IDX 4 1 3 2 2 3 1 4 26 5 27 6 85 7 28 8 84 9 29 10 30 11 31 12
REMARK SMILES IDX 78 13 32 14 83 15 77 16 79 17 33 18 82 19 76 20 75 21 34 23
REMARK SMILES IDX 64 24 45 25 63 26 46 27 49 28 62 29 80 30 47 31 48 32 61 34
REMARK SMILES IDX 81 35 50 36 35 37 36 38 44 39 37 40 43 41 38 42 39 43 40 44
REMARK SMILES IDX 41 45 42 46 65 47 66 48 74 49 67 50 73 51 68 52 69 53 70 54
REMARK SMILES IDX 71 55 72 56 51 57 52 58 60 59 53 60 59 61 54 62 55 63 56 64
REMARK SMILES IDX 57 65 58 66 5 67 6 68 7 69 8 70 9 71 10 72 25 73 11 74 12 75
REMARK SMILES IDX 13 76 14 77 15 79 16 80 17 81 24 82 18 83 23 84 19 85 22 86
REMARK SMILES IDX 20 87 21 88
REMARK H PARENT 79 22 49 33 13 78
REMARK Flexibility Score: inf
ROOT
ATOM      1  C   UNL A   1      42.695  20.191  25.994  1.00  0.00     0.275 C 
ENDROOT
BRANCH   1   2
ATOM      2  O   UNL A   1      41.668  21.198  25.625  1.00  0.00    -0.458 OA
BRANCH   2   3
ATOM      3  C   UNL A   1      40.356  21.264  26.086  1.00  0.00     0.338 C 
ATOM      4  O   UNL A   1      39.492  20.506  25.669  1.00  0.00    -0.246 OA
BRANCH   3   5
ATOM      5  C   UNL A   1      39.994  22.517  26.883  1.00  0.00     0.060 A 
ATOM      6  C   UNL A   1      40.755  22.765  27.962  1.00  0.00     0.016 A 
ATOM      7  C   UNL A   1      39.097  23.581  26.614  1.00  0.00     0.016 A 
ATOM      8  C   UNL A   1      40.833  24.119  28.432  1.00  0.00     0.010 A 
ATOM      9  C   UNL A   1      39.183  24.961  27.265  1.00  0.00     0.010 A 
ATOM     10  C   UNL A   1      40.179  25.346  28.175  1.00  0.00    -0.014 A 
BRANCH  10  11
ATOM     11  C   UNL A   1      40.558  26.906  28.789  1.00  0.00     0.031 A 
ATOM     12  C   UNL A   1      41.997  27.528  29.047  1.00  0.00     0.074 A 
ATOM     13  C   UNL A   1      39.884  28.100  28.832  1.00  0.00     0.049 A 
ATOM     14  N   UNL A   1      42.729  27.540  30.139  1.00  0.00    -0.248 NA
ATOM     15  C   UNL A   1      42.641  28.352  27.958  1.00  0.00     0.031 C 
ATOM     16  C   UNL A   1      38.915  28.651  27.904  1.00  0.00     0.029 A 
ATOM     17  N   UNL A   1      40.117  29.218  29.641  1.00  0.00    -0.354 N 
ATOM     18  C   UNL A   1      44.010  27.961  29.744  1.00  0.00     0.074 A 
ATOM     19  C   UNL A   1      43.879  28.531  28.420  1.00  0.00     0.031 C 
ATOM     20  C   UNL A   1      38.446  29.838  28.303  1.00  0.00     0.029 A 
ATOM     21  C   UNL A   1      39.204  30.232  29.469  1.00  0.00     0.049 A 
ATOM     22  H   UNL A   1      40.868  29.274  30.276  1.00  0.00     0.167 HD
ATOM     23  C   UNL A   1      45.054  28.300  30.535  1.00  0.00     0.031 A 
ATOM     24  C   UNL A   1      39.006  31.417  30.071  1.00  0.00     0.031 A 
ATOM     25  C   UNL A   1      44.991  29.469  31.366  1.00  0.00     0.049 A 
ATOM     26  C   UNL A   1      40.077  31.984  30.936  1.00  0.00     0.074 A 
ATOM     27  C   UNL A   1      45.952  30.052  32.171  1.00  0.00     0.029 A 
ATOM     28  N   UNL A   1      43.879  30.292  31.406  1.00  0.00    -0.354 N 
ATOM     29  N   UNL A   1      41.282  31.516  31.145  1.00  0.00    -0.248 NA
ATOM     30  C   UNL A   1      39.807  33.281  31.565  1.00  0.00     0.031 C 
ATOM     31  C   UNL A   1      45.420  31.249  32.679  1.00  0.00     0.029 A 
ATOM     32  C   UNL A   1      44.141  31.408  32.171  1.00  0.00     0.049 A 
ATOM     33  H   UNL A   1      43.023  30.107  30.954  1.00  0.00     0.167 HD
ATOM     34  C   UNL A   1      41.936  32.491  31.887  1.00  0.00     0.074 A 
ATOM     35  C   UNL A   1      40.991  33.571  32.087  1.00  0.00     0.031 C 
ATOM     36  C   UNL A   1      43.210  32.489  32.348  1.00  0.00     0.031 A 
BRANCH  23  37
ATOM     37  C   UNL A   1      46.334  27.515  30.396  1.00  0.00    -0.014 A 
ATOM     38  C   UNL A   1      46.817  26.598  31.347  1.00  0.00     0.010 A 
ATOM     39  C   UNL A   1      47.067  27.672  29.201  1.00  0.00     0.010 A 
ATOM     40  C   UNL A   1      48.026  25.907  31.134  1.00  0.00     0.020 A 
ATOM     41  C   UNL A   1      48.266  26.983  28.979  1.00  0.00     0.020 A 
ATOM     42  C   UNL A   1      48.757  26.126  29.962  1.00  0.00     0.054 A 
BRANCH  42  43
ATOM     43  S   UNL A   1      50.350  25.280  29.720  1.00  0.00     0.124 S 
ATOM     44  O   UNL A   1      51.282  26.403  29.641  1.00  0.00    -0.237 OA
ATOM     45  O   UNL A   1      50.471  24.452  30.918  1.00  0.00    -0.237 OA
ATOM     46  O   UNL A   1      50.164  24.537  28.475  1.00  0.00    -0.744 OA
ENDBRANCH  42  43
ENDBRANCH  23  37
BRANCH  24  47
ATOM     47  C   UNL A   1      37.710  32.115  29.828  1.00  0.00    -0.014 A 
ATOM     48  C   UNL A   1      36.537  31.823  30.540  1.00  0.00     0.010 A 
ATOM     49  C   UNL A   1      37.686  33.147  28.866  1.00  0.00     0.010 A 
ATOM     50  C   UNL A   1      35.358  32.531  30.270  1.00  0.00     0.020 A 
ATOM     51  C   UNL A   1      36.521  33.869  28.610  1.00  0.00     0.020 A 
ATOM     52  C   UNL A   1      35.357  33.545  29.305  1.00  0.00     0.054 A 
BRANCH  52  53
ATOM     53  S   UNL A   1      33.823  34.455  28.981  1.00  0.00     0.124 S 
ATOM     54  O   UNL A   1      34.324  35.699  28.407  1.00  0.00    -0.237 OA
ATOM     55  O   UNL A   1      33.123  33.566  28.057  1.00  0.00    -0.237 OA
ATOM     56  O   UNL A   1      33.209  34.578  30.302  1.00  0.00    -0.744 OA
ENDBRANCH  52  53
ENDBRANCH  24  47
BRANCH  36  57
ATOM     57  C   UNL A   1      43.677  33.695  33.097  1.00  0.00    -0.014 A 
ATOM     58  C   UNL A   1      44.167  34.813  32.402  1.00  0.00     0.010 A 
ATOM     59  C   UNL A   1      43.552  33.743  34.497  1.00  0.00     0.010 A 
ATOM     60  C   UNL A   1      44.532  35.964  33.098  1.00  0.00     0.020 A 
ATOM     61  C   UNL A   1      43.899  34.902  35.195  1.00  0.00     0.020 A 
ATOM     62  C   UNL A   1      44.388  36.004  34.488  1.00  0.00     0.054 A 
BRANCH  62  63
ATOM     63  S   UNL A   1      44.779  37.550  35.351  1.00  0.00     0.124 S 
ATOM     64  O   UNL A   1      44.160  37.333  36.656  1.00  0.00    -0.237 OA
ATOM     65  O   UNL A   1      46.241  37.558  35.341  1.00  0.00    -0.237 OA
ATOM     66  O   UNL A   1      44.152  38.576  34.523  1.00  0.00    -0.744 OA
ENDBRANCH  62  63
ENDBRANCH  36  57
ENDBRANCH  10  11
ENDBRANCH   3   5
ENDBRANCH   2   3
ENDBRANCH   1   2
BRANCH   1  67
ATOM     67  C   UNL A   1      44.113  20.511  25.417  1.00  0.00     0.274 C 
BRANCH  67  68
ATOM     68  O   UNL A   1      44.243  21.888  25.085  1.00  0.00    -0.462 OA
BRANCH  68  69
ATOM     69  C   UNL A   1      45.033  22.613  25.925  1.00  0.00     0.312 C 
ATOM     70  O   UNL A   1      46.247  22.475  26.062  1.00  0.00    -0.252 OA
BRANCH  69  71
ATOM     71  C   UNL A   1      44.195  23.686  26.580  1.00  0.00     0.124 C 
ATOM     72  C   UNL A   1      43.319  24.391  25.619  1.00  0.00    -0.014 C 
ATOM     73  C   UNL A   1      45.124  24.816  27.032  1.00  0.00     0.048 C 
ATOM     74  C   UNL A   1      43.770  25.626  25.327  1.00  0.00    -0.006 C 
ATOM     75  C   UNL A   1      44.939  26.098  26.196  1.00  0.00     0.106 C 
BRANCH  75  76
ATOM     76  N   UNL A   1      46.052  26.973  25.424  1.00  0.00    -0.347 N 
ATOM     77  C   UNL A   1      46.672  28.253  25.137  1.00  0.00     0.261 C 
ATOM     78  H   UNL A   1      46.557  26.322  24.885  1.00  0.00     0.164 HD
ATOM     79  O   UNL A   1      47.370  28.152  24.102  1.00  0.00    -0.271 OA
BRANCH  77  80
ATOM     80  C   UNL A   1      46.713  29.959  25.871  1.00  0.00     0.266 C 
ATOM     81  C   UNL A   1      47.220  30.362  27.323  1.00  0.00     0.095 C 
ATOM     82  O   UNL A   1      45.612  30.872  25.708  1.00  0.00    -0.480 OA
ATOM     83  C   UNL A   1      46.210  31.385  27.822  1.00  0.00    -0.002 A 
ATOM     84  C   UNL A   1      45.316  31.611  26.816  1.00  0.00     0.123 A 
ATOM     85  C   UNL A   1      46.021  32.089  29.011  1.00  0.00     0.008 A 
ATOM     86  C   UNL A   1      44.175  32.420  26.955  1.00  0.00     0.047 A 
ATOM     87  C   UNL A   1      44.892  32.939  29.172  1.00  0.00     0.001 A 
ATOM     88  C   UNL A   1      43.951  33.081  28.154  1.00  0.00     0.004 A 
ENDBRANCH  77  80
ENDBRANCH  75  76
ENDBRANCH  69  71
ENDBRANCH  68  69
ENDBRANCH  67  68
ENDBRANCH   1  67
TORSDOF 16
ENDMDL
MODEL 2
REMARK VINA RESULT:     -10.1      3.261     11.822
REMARK SMILES O=C(OCCOC(=O)[C@@H]1C=C[C@H](NC(=O)[C@@H]2Cc3ccccc3O2)C1)c1ccc(-c2c3nc(c(-c4ccc(S(=O)(=O)[O-])cc4)c4ccc([nH]4)c(-c4ccc(S(=O)(=O)[O-])cc4)c4nc(c(-c5ccc(S(=O)(=O)[O-])cc5)c5ccc2[nH]5)C=C4)C=C3)cc1
REMARK SMILES IDX 4 1 3 2 2 3 1 4 26 5 27 6 85 7 28 8 84 9 29 10 30 11 31 12
REMARK SMILES IDX 78 13 32 14 83 15 77 16 79 17 33 18 82 19 76 20 75 21 34 23
REMARK SMILES IDX 64 24 45 25 63 26 46 27 49 28 62 29 80 30 47 31 48 32 61 34
REMARK SMILES IDX 81 35 50 36 35 37 36 38 44 39 37 40 43 41 38 42 39 43 40 44
REMARK SMILES IDX 41 45 42 46 65 47 66 48 74 49 67 50 73 51 68 52 69 53 70 54
REMARK SMILES IDX 71 55 72 56 51 57 52 58 60 59 53 60 59 61 54 62 55 63 56 64
REMARK SMILES IDX 57 65 58 66 5 67 6 68 7 69 8 70 9 71 10 72 25 73 11 74 12 75
REMARK SMILES IDX 13 76 14 77 15 79 16 80 17 81 24 82 18 83 23 84 19 85 22 86
REMARK SMILES IDX 20 87 21 88
REMARK H PARENT 79 22 49 33 13 78
REMARK Flexibility Score: inf
ROOT
ATOM      1  C   UNL A   1      35.105  34.021  29.303  1.00  0.00     0.275 C 
ENDROOT
BRANCH   1   2
ATOM      2  O   UNL A   1      35.880  33.289  28.270  1.00  0.00    -0.458 OA
BRANCH   2   3
ATOM      3  C   UNL A   1      35.800  31.932  27.966  1.00  0.00     0.338 C 
ATOM      4  O   UNL A   1      34.759  31.425  27.576  1.00  0.00    -0.246 OA
BRANCH   3   5
ATOM      5  C   UNL A   1      36.971  31.074  28.444  1.00  0.00     0.060 A 
ATOM      6  C   UNL A   1      37.198  29.950  27.741  1.00  0.00     0.016 A 
ATOM      7  C   UNL A   1      37.987  31.312  29.402  1.00  0.00     0.016 A 
ATOM      8  C   UNL A   1      38.521  29.393  27.776  1.00  0.00     0.010 A 
ATOM      9  C   UNL A   1      39.324  30.571  29.437  1.00  0.00     0.010 A 
ATOM     10  C   UNL A   1      39.714  29.598  28.505  1.00  0.00    -0.014 A 
BRANCH  10  11
ATOM     11  C   UNL A   1      41.252  28.872  28.259  1.00  0.00     0.031 A 
ATOM     12  C   UNL A   1      42.681  29.475  28.608  1.00  0.00     0.074 A 
ATOM     13  C   UNL A   1      41.682  27.576  28.122  1.00  0.00     0.049 A 
ATOM     14  N   UNL A   1      43.514  30.163  27.860  1.00  0.00    -0.248 NA
ATOM     15  C   UNL A   1      43.301  29.150  29.946  1.00  0.00     0.031 C 
ATOM     16  C   UNL A   1      41.149  26.358  28.703  1.00  0.00     0.029 A 
ATOM     17  N   UNL A   1      42.883  27.094  27.591  1.00  0.00    -0.354 N 
ATOM     18  C   UNL A   1      44.483  30.683  28.734  1.00  0.00     0.074 A 
ATOM     19  C   UNL A   1      44.360  29.961  29.982  1.00  0.00     0.031 C 
ATOM     20  C   UNL A   1      41.820  25.271  28.308  1.00  0.00     0.029 A 
ATOM     21  C   UNL A   1      42.963  25.722  27.546  1.00  0.00     0.049 A 
ATOM     22  H   UNL A   1      43.606  27.685  27.278  1.00  0.00     0.167 HD
ATOM     23  C   UNL A   1      45.642  31.304  28.415  1.00  0.00     0.031 A 
ATOM     24  C   UNL A   1      43.871  24.859  27.060  1.00  0.00     0.031 A 
ATOM     25  C   UNL A   1      46.701  30.585  27.762  1.00  0.00     0.049 A 
ATOM     26  C   UNL A   1      45.232  25.352  26.709  1.00  0.00     0.074 A 
ATOM     27  C   UNL A   1      47.983  30.981  27.431  1.00  0.00     0.029 A 
ATOM     28  N   UNL A   1      46.592  29.247  27.427  1.00  0.00    -0.354 N 
ATOM     29  N   UNL A   1      45.731  26.549  26.890  1.00  0.00    -0.248 NA
ATOM     30  C   UNL A   1      46.182  24.365  26.186  1.00  0.00     0.031 C 
ATOM     31  C   UNL A   1      48.659  29.862  26.914  1.00  0.00     0.029 A 
ATOM     32  C   UNL A   1      47.795  28.779  26.947  1.00  0.00     0.049 A 
ATOM     33  H   UNL A   1      45.773  28.707  27.519  1.00  0.00     0.167 HD
ATOM     34  C   UNL A   1      47.075  26.446  26.553  1.00  0.00     0.074 A 
ATOM     35  C   UNL A   1      47.305  25.071  26.161  1.00  0.00     0.031 C 
ATOM     36  C   UNL A   1      48.028  27.408  26.581  1.00  0.00     0.031 A 
BRANCH  23  37
ATOM     37  C   UNL A   1      45.849  32.715  28.906  1.00  0.00    -0.014 A 
ATOM     38  C   UNL A   1      46.647  33.069  30.009  1.00  0.00     0.010 A 
ATOM     39  C   UNL A   1      45.243  33.754  28.171  1.00  0.00     0.010 A 
ATOM     40  C   UNL A   1      46.783  34.416  30.399  1.00  0.00     0.020 A 
ATOM     41  C   UNL A   1      45.379  35.097  28.547  1.00  0.00     0.020 A 
ATOM     42  C   UNL A   1      46.125  35.419  29.680  1.00  0.00     0.054 A 
BRANCH  42  43
ATOM     43  S   UNL A   1      46.251  37.151  30.225  1.00  0.00     0.124 S 
ATOM     44  O   UNL A   1      44.905  37.653  29.959  1.00  0.00    -0.237 OA
ATOM     45  O   UNL A   1      46.603  37.029  31.638  1.00  0.00    -0.237 OA
ATOM     46  O   UNL A   1      47.302  37.707  29.375  1.00  0.00    -0.744 OA
ENDBRANCH  42  43
ENDBRANCH  23  37
BRANCH  24  47
ATOM     47  C   UNL A   1      43.465  23.432  26.907  1.00  0.00    -0.014 A 
ATOM     48  C   UNL A   1      43.060  22.630  27.984  1.00  0.00     0.010 A 
ATOM     49  C   UNL A   1      43.445  22.887  25.605  1.00  0.00     0.010 A 
ATOM     50  C   UNL A   1      42.675  21.301  27.765  1.00  0.00     0.020 A 
ATOM     51  C   UNL A   1      43.041  21.571  25.379  1.00  0.00     0.020 A 
ATOM     52  C   UNL A   1      42.672  20.780  26.465  1.00  0.00     0.054 A 
BRANCH  52  53
ATOM     53  S   UNL A   1      42.159  19.061  26.204  1.00  0.00     0.124 S 
ATOM     54  O   UNL A   1      40.743  19.212  25.889  1.00  0.00    -0.237 OA
ATOM     55  O   UNL A   1      43.016  18.645  25.096  1.00  0.00    -0.237 OA
ATOM     56  O   UNL A   1      42.450  18.416  27.483  1.00  0.00    -0.744 OA
ENDBRANCH  52  53
ENDBRANCH  24  47
BRANCH  36  57
ATOM     57  C   UNL A   1      49.419  27.015  26.198  1.00  0.00    -0.014 A 
ATOM     58  C   UNL A   1      50.302  26.511  27.167  1.00  0.00     0.010 A 
ATOM     59  C   UNL A   1      49.820  27.075  24.852  1.00  0.00     0.010 A 
ATOM     60  C   UNL A   1      51.572  26.075  26.796  1.00  0.00     0.020 A 
ATOM     61  C   UNL A   1      51.085  26.621  24.474  1.00  0.00     0.020 A 
ATOM     62  C   UNL A   1      51.953  26.126  25.451  1.00  0.00     0.054 A 
BRANCH  62  63
ATOM     63  S   UNL A   1      53.575  25.461  24.988  1.00  0.00     0.124 S 
ATOM     64  O   UNL A   1      53.377  24.026  25.170  1.00  0.00    -0.237 OA
ATOM     65  O   UNL A   1      53.718  25.906  23.603  1.00  0.00    -0.237 OA
ATOM     66  O   UNL A   1      54.490  26.091  25.936  1.00  0.00    -0.744 OA
ENDBRANCH  62  63
ENDBRANCH  36  57
ENDBRANCH  10  11
ENDBRANCH   3   5
ENDBRANCH   2   3
ENDBRANCH   1   2
BRANCH   1  67
ATOM     67  C   UNL A   1      33.755  34.603  28.770  1.00  0.00     0.274 C 
BRANCH  67  68
ATOM     68  O   UNL A   1      32.898  34.995  29.836  1.00  0.00    -0.462 OA
BRANCH  68  69
ATOM     69  C   UNL A   1      32.924  36.322  30.140  1.00  0.00     0.312 C 
ATOM     70  O   UNL A   1      33.033  37.240  29.329  1.00  0.00    -0.252 OA
BRANCH  69  71
ATOM     71  C   UNL A   1      32.685  36.489  31.623  1.00  0.00     0.124 C 
ATOM     72  C   UNL A   1      33.815  37.150  32.311  1.00  0.00    -0.014 C 
ATOM     73  C   UNL A   1      32.702  35.102  32.272  1.00  0.00     0.048 C 
ATOM     74  C   UNL A   1      34.550  36.285  33.036  1.00  0.00    -0.006 C 
ATOM     75  C   UNL A   1      33.944  34.884  33.160  1.00  0.00     0.106 C 
BRANCH  75  76
ATOM     76  N   UNL A   1      35.010  33.675  33.129  1.00  0.00    -0.347 N 
ATOM     77  C   UNL A   1      36.342  33.176  32.840  1.00  0.00     0.261 C 
ATOM     78  H   UNL A   1      34.519  32.895  33.477  1.00  0.00     0.164 HD
ATOM     79  O   UNL A   1      36.317  31.925  32.804  1.00  0.00    -0.271 OA
BRANCH  77  80
ATOM     80  C   UNL A   1      38.033  33.873  32.516  1.00  0.00     0.266 C 
ATOM     81  C   UNL A   1      38.517  34.637  31.209  1.00  0.00     0.095 C 
ATOM     82  O   UNL A   1      39.224  33.140  32.856  1.00  0.00    -0.480 OA
ATOM     83  C   UNL A   1      39.912  34.095  30.931  1.00  0.00    -0.002 A 
ATOM     84  C   UNL A   1      40.231  33.231  31.939  1.00  0.00     0.123 A 
ATOM     85  C   UNL A   1      40.865  34.283  29.931  1.00  0.00     0.008 A 
ATOM     86  C   UNL A   1      41.403  32.456  31.960  1.00  0.00     0.047 A 
ATOM     87  C   UNL A   1      42.075  33.536  29.940  1.00  0.00     0.001 A 
ATOM     88  C   UNL A   1      42.331  32.598  30.939  1.00  0.00     0.004 A 
ENDBRANCH  77  80
ENDBRANCH  75  76
ENDBRANCH  69  71
ENDBRANCH  68  69
ENDBRANCH  67  68
ENDBRANCH   1  67
TORSDOF 16
ENDMDL
MODEL 3
REMARK VINA RESULT:      -9.9      4.281      7.248
REMARK SMILES O=C(OCCOC(=O)[C@@H]1C=C[C@H](NC(=O)[C@@H]2Cc3ccccc3O2)C1)c1ccc(-c2c3nc(c(-c4ccc(S(=O)(=O)[O-])cc4)c4ccc([nH]4)c(-c4ccc(S(=O)(=O)[O-])cc4)c4nc(c(-c5ccc(S(=O)(=O)[O-])cc5)c5ccc2[nH]5)C=C4)C=C3)cc1
REMARK SMILES IDX 4 1 3 2 2 3 1 4 26 5 27 6 85 7 28 8 84 9 29 10 30 11 31 12
REMARK SMILES IDX 78 13 32 14 83 15 77 16 79 17 33 18 82 19 76 20 75 21 34 23
REMARK SMILES IDX 64 24 45 25 63 26 46 27 49 28 62 29 80 30 47 31 48 32 61 34
REMARK SMILES IDX 81 35 50 36 35 37 36 38 44 39 37 40 43 41 38 42 39 43 40 44
REMARK SMILES IDX 41 45 42 46 65 47 66 48 74 49 67 50 73 51 68 52 69 53 70 54
REMARK SMILES IDX 71 55 72 56 51 57 52 58 60 59 53 60 59 61 54 62 55 63 56 64
REMARK SMILES IDX 57 65 58 66 5 67 6 68 7 69 8 70 9 71 10 72 25 73 11 74 12 75
REMARK SMILES IDX 13 76 14 77 15 79 16 80 17 81 24 82 18 83 23 84 19 85 22 86
REMARK SMILES IDX 20 87 21 88
REMARK H PARENT 79 22 49 33 13 78
REMARK Flexibility Score: inf
ROOT
ATOM      1  C   UNL A   1      37.613  21.993  25.049  1.00  0.00     0.275 C 
ENDROOT
BRANCH   1   2
ATOM      2  O   UNL A   1      38.310  22.103  26.355  1.00  0.00    -0.458 OA
BRANCH   2   3
ATOM      3  C   UNL A   1      39.650  22.419  26.567  1.00  0.00     0.338 C 
ATOM      4  O   UNL A   1      40.501  21.550  26.683  1.00  0.00    -0.246 OA
BRANCH   3   5
ATOM      5  C   UNL A   1      39.937  23.869  26.959  1.00  0.00     0.060 A 
ATOM      6  C   UNL A   1      38.858  24.634  27.202  1.00  0.00     0.016 A 
ATOM      7  C   UNL A   1      41.143  24.539  27.282  1.00  0.00     0.016 A 
ATOM      8  C   UNL A   1      39.026  25.782  28.048  1.00  0.00     0.010 A 
ATOM      9  C   UNL A   1      41.214  25.838  28.085  1.00  0.00     0.010 A 
ATOM     10  C   UNL A   1      40.100  26.495  28.627  1.00  0.00    -0.014 A 
BRANCH  10  11
ATOM     11  C   UNL A   1      40.035  27.796  29.748  1.00  0.00     0.031 A 
ATOM     12  C   UNL A   1      41.126  28.207  30.827  1.00  0.00     0.074 A 
ATOM     13  C   UNL A   1      39.351  28.985  29.786  1.00  0.00     0.049 A 
ATOM     14  N   UNL A   1      41.235  27.866  32.092  1.00  0.00    -0.248 NA
ATOM     15  C   UNL A   1      42.164  29.240  30.457  1.00  0.00     0.031 C 
ATOM     16  C   UNL A   1      38.921  29.842  28.698  1.00  0.00     0.029 A 
ATOM     17  N   UNL A   1      39.093  29.821  30.878  1.00  0.00    -0.354 N 
ATOM     18  C   UNL A   1      42.517  28.273  32.496  1.00  0.00     0.074 A 
ATOM     19  C   UNL A   1      43.009  29.187  31.487  1.00  0.00     0.031 C 
ATOM     20  C   UNL A   1      38.244  30.911  29.129  1.00  0.00     0.029 A 
ATOM     21  C   UNL A   1      38.316  30.914  30.573  1.00  0.00     0.049 A 
ATOM     22  H   UNL A   1      39.437  29.643  31.784  1.00  0.00     0.167 HD
ATOM     23  C   UNL A   1      43.024  28.301  33.750  1.00  0.00     0.031 A 
ATOM     24  C   UNL A   1      37.776  31.905  31.304  1.00  0.00     0.031 A 
ATOM     25  C   UNL A   1      42.492  29.204  34.732  1.00  0.00     0.049 A 
ATOM     26  C   UNL A   1      38.256  32.130  32.696  1.00  0.00     0.074 A 
ATOM     27  C   UNL A   1      42.904  29.469  36.025  1.00  0.00     0.029 A 
ATOM     28  N   UNL A   1      41.451  30.073  34.455  1.00  0.00    -0.354 N 
ATOM     29  N   UNL A   1      39.235  31.527  33.321  1.00  0.00    -0.248 NA
ATOM     30  C   UNL A   1      37.634  33.226  33.444  1.00  0.00     0.031 C 
ATOM     31  C   UNL A   1      42.119  30.524  36.520  1.00  0.00     0.029 A 
ATOM     32  C   UNL A   1      41.239  30.916  35.523  1.00  0.00     0.049 A 
ATOM     33  H   UNL A   1      40.935  30.086  33.616  1.00  0.00     0.167 HD
ATOM     34  C   UNL A   1      39.385  32.210  34.522  1.00  0.00     0.074 A 
ATOM     35  C   UNL A   1      38.396  33.269  34.529  1.00  0.00     0.031 C 
ATOM     36  C   UNL A   1      40.273  31.981  35.518  1.00  0.00     0.031 A 
BRANCH  23  37
ATOM     37  C   UNL A   1      44.257  27.482  34.036  1.00  0.00    -0.014 A 
ATOM     38  C   UNL A   1      45.577  27.933  33.857  1.00  0.00     0.010 A 
ATOM     39  C   UNL A   1      44.070  26.191  34.573  1.00  0.00     0.010 A 
ATOM     40  C   UNL A   1      46.672  27.096  34.150  1.00  0.00     0.020 A 
ATOM     41  C   UNL A   1      45.153  25.356  34.873  1.00  0.00     0.020 A 
ATOM     42  C   UNL A   1      46.451  25.802  34.630  1.00  0.00     0.054 A 
BRANCH  42  43
ATOM     43  S   UNL A   1      47.866  24.702  34.946  1.00  0.00     0.124 S 
ATOM     44  O   UNL A   1      47.223  23.551  35.576  1.00  0.00    -0.237 OA
ATOM     45  O   UNL A   1      48.404  24.462  33.608  1.00  0.00    -0.237 OA
ATOM     46  O   UNL A   1      48.730  25.489  35.823  1.00  0.00    -0.744 OA
ENDBRANCH  42  43
ENDBRANCH  23  37
BRANCH  24  47
ATOM     47  C   UNL A   1      36.720  32.744  30.668  1.00  0.00    -0.014 A 
ATOM     48  C   UNL A   1      36.999  33.744  29.724  1.00  0.00     0.010 A 
ATOM     49  C   UNL A   1      35.375  32.481  31.004  1.00  0.00     0.010 A 
ATOM     50  C   UNL A   1      35.955  34.484  29.154  1.00  0.00     0.020 A 
ATOM     51  C   UNL A   1      34.330  33.199  30.423  1.00  0.00     0.020 A 
ATOM     52  C   UNL A   1      34.630  34.209  29.510  1.00  0.00     0.054 A 
BRANCH  52  53
ATOM     53  S   UNL A   1      33.293  35.172  28.751  1.00  0.00     0.124 S 
ATOM     54  O   UNL A   1      32.631  34.170  27.923  1.00  0.00    -0.237 OA
ATOM     55  O   UNL A   1      32.541  35.633  29.916  1.00  0.00    -0.237 OA
ATOM     56  O   UNL A   1      33.999  36.222  28.018  1.00  0.00    -0.744 OA
ENDBRANCH  52  53
ENDBRANCH  24  47
BRANCH  36  57
ATOM     57  C   UNL A   1      40.242  32.899  36.698  1.00  0.00    -0.014 A 
ATOM     58  C   UNL A   1      41.096  34.012  36.750  1.00  0.00     0.010 A 
ATOM     59  C   UNL A   1      39.299  32.694  37.722  1.00  0.00     0.010 A 
ATOM     60  C   UNL A   1      41.014  34.908  37.814  1.00  0.00     0.020 A 
ATOM     61  C   UNL A   1      39.201  33.601  38.779  1.00  0.00     0.020 A 
ATOM     62  C   UNL A   1      40.062  34.701  38.818  1.00  0.00     0.054 A 
BRANCH  62  63
ATOM     63  S   UNL A   1      39.916  35.937  40.135  1.00  0.00     0.124 S 
ATOM     64  O   UNL A   1      40.259  35.157  41.322  1.00  0.00    -0.237 OA
ATOM     65  O   UNL A   1      40.898  36.943  39.737  1.00  0.00    -0.237 OA
ATOM     66  O   UNL A   1      38.523  36.369  40.052  1.00  0.00    -0.744 OA
ENDBRANCH  62  63
ENDBRANCH  36  57
ENDBRANCH  10  11
ENDBRANCH   3   5
ENDBRANCH   2   3
ENDBRANCH   1   2
BRANCH   1  67
ATOM     67  C   UNL A   1      36.881  23.307  24.623  1.00  0.00     0.274 C 
BRANCH  67  68
ATOM     68  O   UNL A   1      35.472  23.194  24.779  1.00  0.00    -0.462 OA
BRANCH  68  69
ATOM     69  C   UNL A   1      34.785  22.909  23.638  1.00  0.00     0.312 C 
ATOM     70  O   UNL A   1      35.053  23.335  22.516  1.00  0.00    -0.252 OA
BRANCH  69  71
ATOM     71  C   UNL A   1      33.708  21.897  23.955  1.00  0.00     0.124 C 
ATOM     72  C   UNL A   1      32.578  21.951  23.003  1.00  0.00    -0.014 C 
ATOM     73  C   UNL A   1      33.026  22.313  25.262  1.00  0.00     0.048 C 
ATOM     74  C   UNL A   1      31.486  22.532  23.536  1.00  0.00    -0.006 C 
ATOM     75  C   UNL A   1      31.583  22.808  25.039  1.00  0.00     0.106 C 
BRANCH  75  76
ATOM     76  N   UNL A   1      30.898  24.184  25.525  1.00  0.00    -0.347 N 
ATOM     77  C   UNL A   1      30.999  25.592  25.861  1.00  0.00     0.261 C 
ATOM     78  H   UNL A   1      29.948  23.961  25.659  1.00  0.00     0.164 HD
ATOM     79  O   UNL A   1      29.981  25.940  26.501  1.00  0.00    -0.271 OA
BRANCH  77  80
ATOM     80  C   UNL A   1      32.201  26.985  25.605  1.00  0.00     0.266 C 
ATOM     81  C   UNL A   1      33.735  27.013  26.022  1.00  0.00     0.095 C 
ATOM     82  O   UNL A   1      31.829  28.352  25.859  1.00  0.00    -0.480 OA
ATOM     83  C   UNL A   1      33.963  28.406  26.589  1.00  0.00    -0.002 A 
ATOM     84  C   UNL A   1      32.798  29.106  26.453  1.00  0.00     0.123 A 
ATOM     85  C   UNL A   1      35.038  29.071  27.178  1.00  0.00     0.008 A 
ATOM     86  C   UNL A   1      32.602  30.400  26.966  1.00  0.00     0.047 A 
ATOM     87  C   UNL A   1      34.880  30.392  27.680  1.00  0.00     0.001 A 
ATOM     88  C   UNL A   1      33.652  31.047  27.602  1.00  0.00     0.004 A 
ENDBRANCH  77  80
ENDBRANCH  75  76
ENDBRANCH  69  71
ENDBRANCH  68  69
ENDBRANCH  67  68
ENDBRANCH   1  67
TORSDOF 16
ENDMDL
