MODEL 1
REMARK VINA RESULT:      -8.7      0.000      0.000
REMARK SMILES [NH3+][C@@]1(C(=O)OCCOC(=O)c2ccc(-c3c4nc(c(-c5ccc(S(=O)(=O)[O-])cc5)c5ccc([nH]5)c(-c5ccc(S(=O)(=O)[O-])cc5)c5nc(c(-c6ccc(S(=O)(=O)[O-])cc6)c6ccc3[nH]6)C=C5)C=C4)cc2)CC[C@@H](Sc2ccc(Cl)c(Cl)c2)C1
REMARK SMILES IDX 7 1 6 2 5 3 3 4 4 5 2 6 71 7 83 8 72 9 73 10 1 11 74 15
REMARK SMILES IDX 75 16 76 17 82 18 77 19 80 20 78 21 81 22 79 23 8 24 9 25
REMARK SMILES IDX 10 26 11 27 12 28 70 29 13 30 69 31 14 32 15 33 16 34 63 35
REMARK SMILES IDX 17 36 68 37 62 38 64 39 18 40 67 41 61 42 60 43 19 45 49 46
REMARK SMILES IDX 30 47 48 48 31 49 34 50 47 51 65 52 32 53 33 54 46 56 66 57
REMARK SMILES IDX 35 58 20 59 21 60 29 61 22 62 28 63 23 64 24 65 25 66 26 67
REMARK SMILES IDX 27 68 50 69 51 70 59 71 52 72 58 73 53 74 54 75 55 76 56 77
REMARK SMILES IDX 57 78 36 79 37 80 45 81 38 82 44 83 39 84 40 85 41 86 42 87
REMARK SMILES IDX 43 88
REMARK H PARENT 1 12 1 13 1 14 64 44 34 55
REMARK Flexibility Score: inf
ROOT
ATOM      1  C   UNL A   1      39.811  21.133  25.752  1.00  0.00     0.275 C 
ENDROOT
BRANCH   1   2
ATOM      2  C   UNL A   1      40.761  20.432  26.723  1.00  0.00     0.274 C 
BRANCH   2   3
ATOM      3  O   UNL A   1      42.139  20.699  26.393  1.00  0.00    -0.457 OA
BRANCH   3   4
ATOM      4  C   UNL A   1      42.682  21.808  26.970  1.00  0.00     0.368 C 
ATOM      5  O   UNL A   1      42.540  22.093  28.156  1.00  0.00    -0.245 OA
BRANCH   4   6
ATOM      6  C   UNL A   1      43.450  22.710  25.952  1.00  0.00     0.193 C 
ATOM      7  C   UNL A   1      44.891  22.184  25.861  1.00  0.00     0.082 C 
ATOM      8  C   UNL A   1      43.567  24.199  26.340  1.00  0.00     0.095 C 
ATOM      9  C   UNL A   1      45.676  23.051  26.833  1.00  0.00     0.022 C 
ATOM     10  C   UNL A   1      45.024  24.430  26.752  1.00  0.00     0.059 C 
BRANCH   6  11
ATOM     11  N   UNL A   1      42.794  22.591  24.633  1.00  0.00    -0.343 N 
ATOM     12  H   UNL A   1      42.125  23.353  24.518  1.00  0.00     0.345 HD
ATOM     13  H   UNL A   1      42.305  21.698  24.576  1.00  0.00     0.345 HD
ATOM     14  H   UNL A   1      43.498  22.642  23.898  1.00  0.00     0.345 HD
ENDBRANCH   6  11
BRANCH  10  15
ATOM     15  S   UNL A   1      45.930  25.656  25.703  1.00  0.00    -0.122 SA
BRANCH  15  16
ATOM     16  C   UNL A   1      45.311  27.232  26.259  1.00  0.00     0.009 A 
ATOM     17  C   UNL A   1      46.129  28.066  27.028  1.00  0.00     0.017 A 
ATOM     18  C   UNL A   1      43.995  27.623  25.994  1.00  0.00     0.037 A 
ATOM     19  C   UNL A   1      45.655  29.302  27.478  1.00  0.00     0.023 A 
ATOM     20  C   UNL A   1      43.521  28.865  26.433  1.00  0.00     0.060 A 
ATOM     21  C   UNL A   1      44.353  29.710  27.173  1.00  0.00     0.059 A 
ATOM     22  Cl  UNL A   1      41.906  29.300  26.004  1.00  0.00    -0.083 Cl
ATOM     23  Cl  UNL A   1      43.840  31.255  27.746  1.00  0.00    -0.083 Cl
ENDBRANCH  15  16
ENDBRANCH  10  15
ENDBRANCH   4   6
ENDBRANCH   3   4
ENDBRANCH   2   3
ENDBRANCH   1   2
BRANCH   1  24
ATOM     24  O   UNL A   1      38.775  21.834  26.463  1.00  0.00    -0.458 OA
BRANCH  24  25
ATOM     25  C   UNL A   1      38.450  23.049  25.966  1.00  0.00     0.338 C 
ATOM     26  O   UNL A   1      37.679  23.295  25.055  1.00  0.00    -0.246 OA
BRANCH  25  27
ATOM     27  C   UNL A   1      39.145  24.100  26.722  1.00  0.00     0.060 A 
ATOM     28  C   UNL A   1      38.899  24.222  28.088  1.00  0.00     0.016 A 
ATOM     29  C   UNL A   1      39.916  25.053  26.058  1.00  0.00     0.016 A 
ATOM     30  C   UNL A   1      39.334  25.353  28.775  1.00  0.00     0.010 A 
ATOM     31  C   UNL A   1      40.436  26.138  26.774  1.00  0.00     0.010 A 
ATOM     32  C   UNL A   1      40.118  26.323  28.132  1.00  0.00    -0.014 A 
BRANCH  32  33
ATOM     33  C   UNL A   1      40.571  27.536  28.871  1.00  0.00     0.031 A 
ATOM     34  C   UNL A   1      41.971  27.613  29.427  1.00  0.00     0.074 A 
ATOM     35  C   UNL A   1      39.742  28.587  29.028  1.00  0.00     0.049 A 
ATOM     36  N   UNL A   1      42.495  28.515  30.219  1.00  0.00    -0.248 NA
ATOM     37  C   UNL A   1      42.898  26.531  29.057  1.00  0.00     0.031 C 
ATOM     38  C   UNL A   1      38.374  28.677  28.513  1.00  0.00     0.029 A 
ATOM     39  N   UNL A   1      39.940  29.795  29.653  1.00  0.00    -0.354 N 
ATOM     40  C   UNL A   1      43.786  28.077  30.493  1.00  0.00     0.074 A 
ATOM     41  C   UNL A   1      43.972  26.836  29.771  1.00  0.00     0.031 C 
ATOM     42  C   UNL A   1      37.877  29.893  28.793  1.00  0.00     0.029 A 
ATOM     43  C   UNL A   1      38.859  30.640  29.571  1.00  0.00     0.049 A 
ATOM     44  H   UNL A   1      40.776  30.032  30.114  1.00  0.00     0.167 HD
ATOM     45  C   UNL A   1      44.727  28.650  31.281  1.00  0.00     0.031 A 
ATOM     46  C   UNL A   1      38.662  31.869  30.084  1.00  0.00     0.031 A 
ATOM     47  C   UNL A   1      44.569  29.908  31.960  1.00  0.00     0.049 A 
ATOM     48  C   UNL A   1      39.728  32.498  30.933  1.00  0.00     0.074 A 
ATOM     49  C   UNL A   1      45.462  30.557  32.796  1.00  0.00     0.029 A 
ATOM     50  N   UNL A   1      43.454  30.724  31.856  1.00  0.00    -0.354 N 
ATOM     51  N   UNL A   1      40.906  32.022  31.255  1.00  0.00    -0.248 NA
ATOM     52  C   UNL A   1      39.426  33.816  31.507  1.00  0.00     0.031 C 
ATOM     53  C   UNL A   1      44.880  31.762  33.208  1.00  0.00     0.029 A 
ATOM     54  C   UNL A   1      43.636  31.871  32.609  1.00  0.00     0.049 A 
ATOM     55  H   UNL A   1      42.651  30.518  31.325  1.00  0.00     0.167 HD
ATOM     56  C   UNL A   1      41.482  32.978  32.083  1.00  0.00     0.074 A 
ATOM     57  C   UNL A   1      40.536  34.070  32.188  1.00  0.00     0.031 C 
ATOM     58  C   UNL A   1      42.682  32.945  32.711  1.00  0.00     0.031 A 
BRANCH  45  59
ATOM     59  C   UNL A   1      46.004  27.884  31.489  1.00  0.00    -0.014 A 
ATOM     60  C   UNL A   1      47.133  28.110  30.683  1.00  0.00     0.010 A 
ATOM     61  C   UNL A   1      46.074  26.929  32.520  1.00  0.00     0.010 A 
ATOM     62  C   UNL A   1      48.300  27.366  30.880  1.00  0.00     0.020 A 
ATOM     63  C   UNL A   1      47.243  26.195  32.730  1.00  0.00     0.020 A 
ATOM     64  C   UNL A   1      48.343  26.403  31.894  1.00  0.00     0.054 A 
BRANCH  64  65
ATOM     65  S   UNL A   1      49.862  25.441  32.141  1.00  0.00     0.124 S 
ATOM     66  O   UNL A   1      49.434  24.455  33.129  1.00  0.00    -0.237 OA
ATOM     67  O   UNL A   1      50.138  24.914  30.806  1.00  0.00    -0.237 OA
ATOM     68  O   UNL A   1      50.820  26.433  32.623  1.00  0.00    -0.744 OA
ENDBRANCH  64  65
ENDBRANCH  45  59
BRANCH  46  69
ATOM     69  C   UNL A   1      37.376  32.568  29.834  1.00  0.00    -0.014 A 
ATOM     70  C   UNL A   1      36.282  32.371  30.694  1.00  0.00     0.010 A 
ATOM     71  C   UNL A   1      37.256  33.469  28.761  1.00  0.00     0.010 A 
ATOM     72  C   UNL A   1      35.089  33.069  30.489  1.00  0.00     0.020 A 
ATOM     73  C   UNL A   1      36.070  34.182  28.565  1.00  0.00     0.020 A 
ATOM     74  C   UNL A   1      34.992  33.972  29.426  1.00  0.00     0.054 A 
BRANCH  74  75
ATOM     75  S   UNL A   1      33.473  34.944  29.217  1.00  0.00     0.124 S 
ATOM     76  O   UNL A   1      32.949  34.983  30.578  1.00  0.00    -0.237 OA
ATOM     77  O   UNL A   1      33.966  36.215  28.692  1.00  0.00    -0.237 OA
ATOM     78  O   UNL A   1      32.698  34.149  28.266  1.00  0.00    -0.744 OA
ENDBRANCH  74  75
ENDBRANCH  46  69
BRANCH  58  79
ATOM     79  C   UNL A   1      43.033  34.122  33.572  1.00  0.00    -0.014 A 
ATOM     80  C   UNL A   1      43.744  35.210  33.036  1.00  0.00     0.010 A 
ATOM     81  C   UNL A   1      42.623  34.159  34.915  1.00  0.00     0.010 A 
ATOM     82  C   UNL A   1      44.062  36.308  33.838  1.00  0.00     0.020 A 
ATOM     83  C   UNL A   1      42.929  35.261  35.718  1.00  0.00     0.020 A 
ATOM     84  C   UNL A   1      43.658  36.324  35.177  1.00  0.00     0.054 A 
BRANCH  84  85
ATOM     85  S   UNL A   1      44.045  37.773  36.198  1.00  0.00     0.124 S 
ATOM     86  O   UNL A   1      43.123  37.609  37.319  1.00  0.00    -0.237 OA
ATOM     87  O   UNL A   1      45.458  37.583  36.515  1.00  0.00    -0.237 OA
ATOM     88  O   UNL A   1      43.759  38.900  35.314  1.00  0.00    -0.744 OA
ENDBRANCH  84  85
ENDBRANCH  58  79
ENDBRANCH  32  33
ENDBRANCH  25  27
ENDBRANCH  24  25
ENDBRANCH   1  24
TORSDOF 17
ENDMDL
MODEL 2
REMARK VINA RESULT:      -8.6      4.332     11.024
REMARK SMILES [NH3+][C@@]1(C(=O)OCCOC(=O)c2ccc(-c3c4nc(c(-c5ccc(S(=O)(=O)[O-])cc5)c5ccc([nH]5)c(-c5ccc(S(=O)(=O)[O-])cc5)c5nc(c(-c6ccc(S(=O)(=O)[O-])cc6)c6ccc3[nH]6)C=C5)C=C4)cc2)CC[C@@H](Sc2ccc(Cl)c(Cl)c2)C1
REMARK SMILES IDX 7 1 6 2 5 3 3 4 4 5 2 6 71 7 83 8 72 9 73 10 1 11 74 15
REMARK SMILES IDX 75 16 76 17 82 18 77 19 80 20 78 21 81 22 79 23 8 24 9 25
REMARK SMILES IDX 10 26 11 27 12 28 70 29 13 30 69 31 14 32 15 33 16 34 63 35
REMARK SMILES IDX 17 36 68 37 62 38 64 39 18 40 67 41 61 42 60 43 19 45 49 46
REMARK SMILES IDX 30 47 48 48 31 49 34 50 47 51 65 52 32 53 33 54 46 56 66 57
REMARK SMILES IDX 35 58 20 59 21 60 29 61 22 62 28 63 23 64 24 65 25 66 26 67
REMARK SMILES IDX 27 68 50 69 51 70 59 71 52 72 58 73 53 74 54 75 55 76 56 77
REMARK SMILES IDX 57 78 36 79 37 80 45 81 38 82 44 83 39 84 40 85 41 86 42 87
REMARK SMILES IDX 43 88
REMARK H PARENT 1 12 1 13 1 14 64 44 34 55
REMARK Flexibility Score: inf
ROOT
ATOM      1  C   UNL A   1      32.365  30.047  27.287  1.00  0.00     0.275 C 
ENDROOT
BRANCH   1   2
ATOM      2  C   UNL A   1      31.813  30.551  25.953  1.00  0.00     0.274 C 
BRANCH   2   3
ATOM      3  O   UNL A   1      31.174  29.490  25.216  1.00  0.00    -0.457 OA
BRANCH   3   4
ATOM      4  C   UNL A   1      30.511  29.869  24.087  1.00  0.00     0.368 C 
ATOM      5  O   UNL A   1      29.689  30.781  24.058  1.00  0.00    -0.245 OA
BRANCH   4   6
ATOM      6  C   UNL A   1      30.860  28.982  22.849  1.00  0.00     0.193 C 
ATOM      7  C   UNL A   1      29.738  27.944  22.692  1.00  0.00     0.082 C 
ATOM      8  C   UNL A   1      32.171  28.176  22.958  1.00  0.00     0.095 C 
ATOM      9  C   UNL A   1      30.260  26.707  23.405  1.00  0.00     0.022 C 
ATOM     10  C   UNL A   1      31.768  26.711  23.160  1.00  0.00     0.059 C 
BRANCH   6  11
ATOM     11  N   UNL A   1      30.908  29.847  21.652  1.00  0.00    -0.343 N 
ATOM     12  H   UNL A   1      29.957  30.069  21.356  1.00  0.00     0.345 HD
ATOM     13  H   UNL A   1      31.392  29.359  20.899  1.00  0.00     0.345 HD
ATOM     14  H   UNL A   1      31.405  30.709  21.876  1.00  0.00     0.345 HD
ENDBRANCH   6  11
BRANCH  10  15
ATOM     15  S   UNL A   1      32.339  25.570  21.821  1.00  0.00    -0.122 SA
BRANCH  15  16
ATOM     16  C   UNL A   1      33.125  24.237  22.704  1.00  0.00     0.009 A 
ATOM     17  C   UNL A   1      32.483  22.999  22.806  1.00  0.00     0.017 A 
ATOM     18  C   UNL A   1      34.348  24.426  23.355  1.00  0.00     0.037 A 
ATOM     19  C   UNL A   1      33.084  21.945  23.503  1.00  0.00     0.023 A 
ATOM     20  C   UNL A   1      34.959  23.370  24.042  1.00  0.00     0.060 A 
ATOM     21  C   UNL A   1      34.327  22.125  24.114  1.00  0.00     0.059 A 
ATOM     22  Cl  UNL A   1      36.501  23.669  24.759  1.00  0.00    -0.083 Cl
ATOM     23  Cl  UNL A   1      35.018  20.776  24.942  1.00  0.00    -0.083 Cl
ENDBRANCH  15  16
ENDBRANCH  10  15
ENDBRANCH   4   6
ENDBRANCH   3   4
ENDBRANCH   2   3
ENDBRANCH   1   2
BRANCH   1  24
ATOM     24  O   UNL A   1      33.788  29.848  27.211  1.00  0.00    -0.458 OA
BRANCH  24  25
ATOM     25  C   UNL A   1      34.531  30.665  27.991  1.00  0.00     0.338 C 
ATOM     26  O   UNL A   1      34.187  31.719  28.499  1.00  0.00    -0.246 OA
BRANCH  25  27
ATOM     27  C   UNL A   1      35.863  30.081  28.200  1.00  0.00     0.060 A 
ATOM     28  C   UNL A   1      36.176  29.543  29.445  1.00  0.00     0.016 A 
ATOM     29  C   UNL A   1      36.847  30.204  27.219  1.00  0.00     0.016 A 
ATOM     30  C   UNL A   1      37.495  29.221  29.754  1.00  0.00     0.010 A 
ATOM     31  C   UNL A   1      38.154  29.787  27.499  1.00  0.00     0.010 A 
ATOM     32  C   UNL A   1      38.503  29.328  28.783  1.00  0.00    -0.014 A 
BRANCH  32  33
ATOM     33  C   UNL A   1      39.915  28.992  29.123  1.00  0.00     0.031 A 
ATOM     34  C   UNL A   1      40.775  29.976  29.875  1.00  0.00     0.074 A 
ATOM     35  C   UNL A   1      40.430  27.794  28.783  1.00  0.00     0.049 A 
ATOM     36  N   UNL A   1      42.058  29.924  30.129  1.00  0.00    -0.248 NA
ATOM     37  C   UNL A   1      40.110  31.181  30.399  1.00  0.00     0.031 C 
ATOM     38  C   UNL A   1      39.711  26.723  28.089  1.00  0.00     0.029 A 
ATOM     39  N   UNL A   1      41.682  27.267  28.995  1.00  0.00    -0.354 N 
ATOM     40  C   UNL A   1      42.367  31.113  30.781  1.00  0.00     0.074 A 
ATOM     41  C   UNL A   1      41.132  31.861  30.898  1.00  0.00     0.031 C 
ATOM     42  C   UNL A   1      40.513  25.651  27.983  1.00  0.00     0.029 A 
ATOM     43  C   UNL A   1      41.824  25.981  28.532  1.00  0.00     0.049 A 
ATOM     44  H   UNL A   1      42.407  27.764  29.438  1.00  0.00     0.167 HD
ATOM     45  C   UNL A   1      43.567  31.547  31.233  1.00  0.00     0.031 A 
ATOM     46  C   UNL A   1      42.892  25.162  28.521  1.00  0.00     0.031 A 
ATOM     47  C   UNL A   1      44.788  30.788  31.167  1.00  0.00     0.049 A 
ATOM     48  C   UNL A   1      44.207  25.653  29.051  1.00  0.00     0.074 A 
ATOM     49  C   UNL A   1      46.057  31.156  31.582  1.00  0.00     0.029 A 
ATOM     50  N   UNL A   1      44.886  29.495  30.681  1.00  0.00    -0.354 N 
ATOM     51  N   UNL A   1      44.496  26.817  29.579  1.00  0.00    -0.248 NA
ATOM     52  C   UNL A   1      45.345  24.728  28.958  1.00  0.00     0.031 C 
ATOM     53  C   UNL A   1      46.925  30.086  31.334  1.00  0.00     0.029 A 
ATOM     54  C   UNL A   1      46.191  29.047  30.787  1.00  0.00     0.049 A 
ATOM     55  H   UNL A   1      44.137  28.972  30.314  1.00  0.00     0.167 HD
ATOM     56  C   UNL A   1      45.854  26.771  29.870  1.00  0.00     0.074 A 
ATOM     57  C   UNL A   1      46.322  25.454  29.486  1.00  0.00     0.031 C 
ATOM     58  C   UNL A   1      46.643  27.739  30.393  1.00  0.00     0.031 A 
BRANCH  45  59
ATOM     59  C   UNL A   1      43.623  32.940  31.798  1.00  0.00    -0.014 A 
ATOM     60  C   UNL A   1      43.879  34.052  30.979  1.00  0.00     0.010 A 
ATOM     61  C   UNL A   1      43.402  33.133  33.174  1.00  0.00     0.010 A 
ATOM     62  C   UNL A   1      43.952  35.333  31.533  1.00  0.00     0.020 A 
ATOM     63  C   UNL A   1      43.458  34.414  33.729  1.00  0.00     0.020 A 
ATOM     64  C   UNL A   1      43.754  35.505  32.907  1.00  0.00     0.054 A 
BRANCH  64  65
ATOM     65  S   UNL A   1      43.852  37.172  33.617  1.00  0.00     0.124 S 
ATOM     66  O   UNL A   1      45.150  37.136  34.286  1.00  0.00    -0.237 OA
ATOM     67  O   UNL A   1      43.777  38.035  32.440  1.00  0.00    -0.237 OA
ATOM     68  O   UNL A   1      42.694  37.235  34.504  1.00  0.00    -0.744 OA
ENDBRANCH  64  65
ENDBRANCH  45  59
BRANCH  46  69
ATOM     69  C   UNL A   1      42.761  23.798  27.949  1.00  0.00    -0.014 A 
ATOM     70  C   UNL A   1      42.330  22.730  28.753  1.00  0.00     0.010 A 
ATOM     71  C   UNL A   1      43.021  23.573  26.585  1.00  0.00     0.010 A 
ATOM     72  C   UNL A   1      42.156  21.457  28.202  1.00  0.00     0.020 A 
ATOM     73  C   UNL A   1      42.830  22.307  26.027  1.00  0.00     0.020 A 
ATOM     74  C   UNL A   1      42.404  21.255  26.841  1.00  0.00     0.054 A 
BRANCH  74  75
ATOM     75  S   UNL A   1      42.090  19.624  26.109  1.00  0.00     0.124 S 
ATOM     76  O   UNL A   1      42.952  19.648  24.933  1.00  0.00    -0.237 OA
ATOM     77  O   UNL A   1      42.492  18.705  27.171  1.00  0.00    -0.237 OA
ATOM     78  O   UNL A   1      40.654  19.653  25.837  1.00  0.00    -0.744 OA
ENDBRANCH  74  75
ENDBRANCH  46  69
BRANCH  58  79
ATOM     79  C   UNL A   1      48.095  27.409  30.575  1.00  0.00    -0.014 A 
ATOM     80  C   UNL A   1      49.005  27.593  29.519  1.00  0.00     0.010 A 
ATOM     81  C   UNL A   1      48.562  26.945  31.816  1.00  0.00     0.010 A 
ATOM     82  C   UNL A   1      50.358  27.294  29.695  1.00  0.00     0.020 A 
ATOM     83  C   UNL A   1      49.917  26.656  31.999  1.00  0.00     0.020 A 
ATOM     84  C   UNL A   1      50.805  26.820  30.933  1.00  0.00     0.054 A 
BRANCH  84  85
ATOM     85  S   UNL A   1      52.570  26.470  31.159  1.00  0.00     0.124 S 
ATOM     86  O   UNL A   1      52.541  25.135  31.750  1.00  0.00    -0.237 OA
ATOM     87  O   UNL A   1      53.097  26.542  29.799  1.00  0.00    -0.237 OA
ATOM     88  O   UNL A   1      53.019  27.538  32.050  1.00  0.00    -0.744 OA
ENDBRANCH  84  85
ENDBRANCH  58  79
ENDBRANCH  32  33
ENDBRANCH  25  27
ENDBRANCH  24  25
ENDBRANCH   1  24
TORSDOF 17
ENDMDL
MODEL 3
REMARK VINA RESULT:      -8.6      3.961     10.631
REMARK SMILES [NH3+][C@@]1(C(=O)OCCOC(=O)c2ccc(-c3c4nc(c(-c5ccc(S(=O)(=O)[O-])cc5)c5ccc([nH]5)c(-c5ccc(S(=O)(=O)[O-])cc5)c5nc(c(-c6ccc(S(=O)(=O)[O-])cc6)c6ccc3[nH]6)C=C5)C=C4)cc2)CC[C@@H](Sc2ccc(Cl)c(Cl)c2)C1
REMARK SMILES IDX 7 1 6 2 5 3 3 4 4 5 2 6 71 7 83 8 72 9 73 10 1 11 74 15
REMARK SMILES IDX 75 16 76 17 82 18 77 19 80 20 78 21 81 22 79 23 8 24 9 25
REMARK SMILES IDX 10 26 11 27 12 28 70 29 13 30 69 31 14 32 15 33 16 34 63 35
REMARK SMILES IDX 17 36 68 37 62 38 64 39 18 40 67 41 61 42 60 43 19 45 49 46
REMARK SMILES IDX 30 47 48 48 31 49 34 50 47 51 65 52 32 53 33 54 46 56 66 57
REMARK SMILES IDX 35 58 20 59 21 60 29 61 22 62 28 63 23 64 24 65 25 66 26 67
REMARK SMILES IDX 27 68 50 69 51 70 59 71 52 72 58 73 53 74 54 75 55 76 56 77
REMARK SMILES IDX 57 78 36 79 37 80 45 81 38 82 44 83 39 84 40 85 41 86 42 87
REMARK SMILES IDX 43 88
REMARK H PARENT 1 12 1 13 1 14 64 44 34 55
REMARK Flexibility Score: inf
ROOT
ATOM      1  C   UNL A   1      32.303  28.767  27.218  1.00  0.00     0.275 C 
ENDROOT
BRANCH   1   2
ATOM      2  C   UNL A   1      31.795  28.987  25.793  1.00  0.00     0.274 C 
BRANCH   2   3
ATOM      3  O   UNL A   1      31.047  27.848  25.321  1.00  0.00    -0.457 OA
BRANCH   3   4
ATOM      4  C   UNL A   1      31.441  27.337  24.121  1.00  0.00     0.368 C 
ATOM      5  O   UNL A   1      31.189  27.868  23.043  1.00  0.00    -0.245 OA
BRANCH   4   6
ATOM      6  C   UNL A   1      32.191  25.973  24.257  1.00  0.00     0.193 C 
ATOM      7  C   UNL A   1      31.867  25.138  23.009  1.00  0.00     0.082 C 
ATOM      8  C   UNL A   1      31.780  25.106  25.465  1.00  0.00     0.095 C 
ATOM      9  C   UNL A   1      30.707  24.252  23.434  1.00  0.00     0.022 C 
ATOM     10  C   UNL A   1      30.964  23.936  24.905  1.00  0.00     0.059 C 
BRANCH   6  11
ATOM     11  N   UNL A   1      33.644  26.241  24.311  1.00  0.00    -0.343 N 
ATOM     12  H   UNL A   1      34.121  25.440  24.726  1.00  0.00     0.345 HD
ATOM     13  H   UNL A   1      33.815  27.070  24.880  1.00  0.00     0.345 HD
ATOM     14  H   UNL A   1      33.996  26.396  23.367  1.00  0.00     0.345 HD
ENDBRANCH   6  11
BRANCH  10  15
ATOM     15  S   UNL A   1      31.703  22.270  25.222  1.00  0.00    -0.122 SA
BRANCH  15  16
ATOM     16  C   UNL A   1      33.447  22.600  25.384  1.00  0.00     0.009 A 
ATOM     17  C   UNL A   1      33.985  22.886  26.642  1.00  0.00     0.017 A 
ATOM     18  C   UNL A   1      34.279  22.643  24.261  1.00  0.00     0.037 A 
ATOM     19  C   UNL A   1      35.350  23.155  26.784  1.00  0.00     0.023 A 
ATOM     20  C   UNL A   1      35.648  22.900  24.400  1.00  0.00     0.060 A 
ATOM     21  C   UNL A   1      36.187  23.153  25.665  1.00  0.00     0.059 A 
ATOM     22  Cl  UNL A   1      36.617  22.867  22.971  1.00  0.00    -0.083 Cl
ATOM     23  Cl  UNL A   1      37.864  23.477  25.916  1.00  0.00    -0.083 Cl
ENDBRANCH  15  16
ENDBRANCH  10  15
ENDBRANCH   4   6
ENDBRANCH   3   4
ENDBRANCH   2   3
ENDBRANCH   1   2
BRANCH   1  24
ATOM     24  O   UNL A   1      33.737  28.873  27.274  1.00  0.00    -0.458 OA
BRANCH  24  25
ATOM     25  C   UNL A   1      34.215  30.089  27.621  1.00  0.00     0.338 C 
ATOM     26  O   UNL A   1      33.625  31.155  27.588  1.00  0.00    -0.246 OA
BRANCH  25  27
ATOM     27  C   UNL A   1      35.597  29.963  28.107  1.00  0.00     0.060 A 
ATOM     28  C   UNL A   1      36.645  30.085  27.198  1.00  0.00     0.016 A 
ATOM     29  C   UNL A   1      35.847  29.574  29.422  1.00  0.00     0.016 A 
ATOM     30  C   UNL A   1      37.936  29.718  27.570  1.00  0.00     0.010 A 
ATOM     31  C   UNL A   1      37.162  29.301  29.821  1.00  0.00     0.010 A 
ATOM     32  C   UNL A   1      38.217  29.331  28.889  1.00  0.00    -0.014 A 
BRANCH  32  33
ATOM     33  C   UNL A   1      39.599  28.929  29.278  1.00  0.00     0.031 A 
ATOM     34  C   UNL A   1      40.448  29.840  30.129  1.00  0.00     0.074 A 
ATOM     35  C   UNL A   1      40.095  27.737  28.894  1.00  0.00     0.049 A 
ATOM     36  N   UNL A   1      41.714  29.731  30.443  1.00  0.00    -0.248 NA
ATOM     37  C   UNL A   1      39.793  31.033  30.690  1.00  0.00     0.031 C 
ATOM     38  C   UNL A   1      39.381  26.732  28.103  1.00  0.00     0.029 A 
ATOM     39  N   UNL A   1      41.317  27.158  29.136  1.00  0.00    -0.354 N 
ATOM     40  C   UNL A   1      42.024  30.869  31.179  1.00  0.00     0.074 A 
ATOM     41  C   UNL A   1      40.808  31.649  31.279  1.00  0.00     0.031 C 
ATOM     42  C   UNL A   1      40.154  25.642  27.974  1.00  0.00     0.029 A 
ATOM     43  C   UNL A   1      41.444  25.897  28.605  1.00  0.00     0.049 A 
ATOM     44  H   UNL A   1      42.033  27.604  29.643  1.00  0.00     0.167 HD
ATOM     45  C   UNL A   1      43.212  31.237  31.715  1.00  0.00     0.031 A 
ATOM     46  C   UNL A   1      42.487  25.044  28.600  1.00  0.00     0.031 A 
ATOM     47  C   UNL A   1      44.411  30.444  31.665  1.00  0.00     0.049 A 
ATOM     48  C   UNL A   1      43.787  25.460  29.222  1.00  0.00     0.074 A 
ATOM     49  C   UNL A   1      45.668  30.744  32.164  1.00  0.00     0.029 A 
ATOM     50  N   UNL A   1      44.495  29.178  31.109  1.00  0.00    -0.354 N 
ATOM     51  N   UNL A   1      44.082  26.582  29.832  1.00  0.00    -0.248 NA
ATOM     52  C   UNL A   1      44.900  24.505  29.131  1.00  0.00     0.031 C 
ATOM     53  C   UNL A   1      46.515  29.663  31.896  1.00  0.00     0.029 A 
ATOM     54  C   UNL A   1      45.779  28.682  31.253  1.00  0.00     0.049 A 
ATOM     55  H   UNL A   1      43.751  28.702  30.674  1.00  0.00     0.167 HD
ATOM     56  C   UNL A   1      45.422  26.475  30.186  1.00  0.00     0.074 A 
ATOM     57  C   UNL A   1      45.870  25.167  29.749  1.00  0.00     0.031 C 
ATOM     58  C   UNL A   1      46.212  27.384  30.805  1.00  0.00     0.031 A 
BRANCH  45  59
ATOM     59  C   UNL A   1      43.281  32.592  32.364  1.00  0.00    -0.014 A 
ATOM     60  C   UNL A   1      43.161  32.743  33.756  1.00  0.00     0.010 A 
ATOM     61  C   UNL A   1      43.481  33.730  31.562  1.00  0.00     0.010 A 
ATOM     62  C   UNL A   1      43.202  34.017  34.332  1.00  0.00     0.020 A 
ATOM     63  C   UNL A   1      43.539  35.002  32.135  1.00  0.00     0.020 A 
ATOM     64  C   UNL A   1      43.377  35.140  33.516  1.00  0.00     0.054 A 
BRANCH  64  65
ATOM     65  S   UNL A   1      43.428  36.788  34.273  1.00  0.00     0.124 S 
ATOM     66  O   UNL A   1      43.889  37.613  33.161  1.00  0.00    -0.237 OA
ATOM     67  O   UNL A   1      42.042  37.004  34.683  1.00  0.00    -0.237 OA
ATOM     68  O   UNL A   1      44.379  36.631  35.370  1.00  0.00    -0.744 OA
ENDBRANCH  64  65
ENDBRANCH  45  59
BRANCH  46  69
ATOM     69  C   UNL A   1      42.344  23.721  27.942  1.00  0.00    -0.014 A 
ATOM     70  C   UNL A   1      42.802  23.528  26.628  1.00  0.00     0.010 A 
ATOM     71  C   UNL A   1      41.793  22.635  28.647  1.00  0.00     0.010 A 
ATOM     72  C   UNL A   1      42.716  22.268  26.029  1.00  0.00     0.020 A 
ATOM     73  C   UNL A   1      41.723  21.370  28.057  1.00  0.00     0.020 A 
ATOM     74  C   UNL A   1      42.179  21.196  26.749  1.00  0.00     0.054 A 
BRANCH  74  75
ATOM     75  S   UNL A   1      42.153  19.543  26.001  1.00  0.00     0.124 S 
ATOM     76  O   UNL A   1      42.651  18.710  27.090  1.00  0.00    -0.237 OA
ATOM     77  O   UNL A   1      40.745  19.360  25.657  1.00  0.00    -0.237 OA
ATOM     78  O   UNL A   1      43.049  19.682  24.854  1.00  0.00    -0.744 OA
ENDBRANCH  74  75
ENDBRANCH  46  69
BRANCH  58  79
ATOM     79  C   UNL A   1      47.642  26.997  31.039  1.00  0.00    -0.014 A 
ATOM     80  C   UNL A   1      48.011  26.300  32.204  1.00  0.00     0.010 A 
ATOM     81  C   UNL A   1      48.620  27.301  30.077  1.00  0.00     0.010 A 
ATOM     82  C   UNL A   1      49.342  25.934  32.414  1.00  0.00     0.020 A 
ATOM     83  C   UNL A   1      49.951  26.925  30.279  1.00  0.00     0.020 A 
ATOM     84  C   UNL A   1      50.306  26.255  31.452  1.00  0.00     0.054 A 
BRANCH  84  85
ATOM     85  S   UNL A   1      52.025  25.741  31.720  1.00  0.00     0.124 S 
ATOM     86  O   UNL A   1      52.448  26.644  32.787  1.00  0.00    -0.237 OA
ATOM     87  O   UNL A   1      51.893  24.337  32.102  1.00  0.00    -0.237 OA
ATOM     88  O   UNL A   1      52.655  25.969  30.422  1.00  0.00    -0.744 OA
ENDBRANCH  84  85
ENDBRANCH  58  79
ENDBRANCH  32  33
ENDBRANCH  25  27
ENDBRANCH  24  25
ENDBRANCH   1  24
TORSDOF 17
ENDMDL
