MODEL 1
REMARK VINA RESULT:     -10.9      0.000      0.000
REMARK SMILES C[NH+](C)[C@H]1CCN(C(=O)C(=O)c2ccccc2)C[C@H]1CCC(=O)OCCOC(=O)c1ccc(-c2c3nc(c(-c4ccc(S(=O)(=O)[O-])cc4)c4ccc([nH]4)c(-c4ccc(S(=O)(=O)[O-])cc4)c4nc(c(-c5ccc(S(=O)(=O)[O-])cc5)c5ccc2[nH]5)C=C4)C=C3)cc1
REMARK SMILES IDX 25 1 24 2 22 3 23 4 21 5 20 6 19 7 4 8 5 9 6 10 18 11 7 12
REMARK SMILES IDX 2 13 1 14 3 15 8 17 9 18 10 19 11 20 12 21 13 22 17 23 14 24
REMARK SMILES IDX 16 25 15 26 26 27 27 28 28 29 29 30 30 31 31 32 89 33 32 34
REMARK SMILES IDX 88 35 33 36 34 37 35 38 82 39 36 40 87 41 81 42 83 43 37 44
REMARK SMILES IDX 86 45 80 46 79 47 38 49 68 50 49 51 67 52 50 53 53 54 66 55
REMARK SMILES IDX 84 56 51 57 52 58 65 60 85 61 54 62 39 63 40 64 48 65 41 66
REMARK SMILES IDX 47 67 42 68 43 69 44 70 45 71 46 72 69 73 70 74 78 75 71 76
REMARK SMILES IDX 77 77 72 78 73 79 74 80 75 81 76 82 55 83 56 84 64 85 57 86
REMARK SMILES IDX 63 87 58 88 59 89 60 90 61 91 62 92
REMARK H PARENT 2 16 83 48 53 59
REMARK Flexibility Score: inf
ROOT
ATOM      1  C   UNL A   1      33.931  29.895  26.861  1.00  0.00     0.274 C 
ENDROOT
BRANCH   1   2
ATOM      2  O   UNL A   1      32.574  29.724  27.310  1.00  0.00    -0.462 OA
BRANCH   2   3
ATOM      3  C   UNL A   1      32.057  28.470  27.285  1.00  0.00     0.305 C 
ATOM      4  O   UNL A   1      31.173  28.069  28.034  1.00  0.00    -0.252 OA
BRANCH   3   5
ATOM      5  C   UNL A   1      32.639  27.605  26.183  1.00  0.00     0.123 C 
BRANCH   5   6
ATOM      6  C   UNL A   1      32.298  26.115  26.206  1.00  0.00     0.023 C 
BRANCH   6   7
ATOM      7  C   UNL A   1      33.395  25.098  25.785  1.00  0.00     0.067 C 
ATOM      8  C   UNL A   1      32.914  23.633  25.540  1.00  0.00     0.190 C 
ATOM      9  C   UNL A   1      32.009  23.610  24.291  1.00  0.00     0.087 C 
ATOM     10  C   UNL A   1      32.739  24.176  23.079  1.00  0.00     0.126 C 
ATOM     11  C   UNL A   1      34.096  25.654  24.521  1.00  0.00     0.129 C 
ATOM     12  N   UNL A   1      33.270  25.509  23.321  1.00  0.00    -0.335 N 
BRANCH   8  13
ATOM     13  N   UNL A   1      32.312  23.064  26.766  1.00  0.00    -0.337 N 
ATOM     14  C   UNL A   1      33.127  22.009  27.369  1.00  0.00     0.332 C 
ATOM     15  C   UNL A   1      30.922  22.626  26.669  1.00  0.00     0.332 C 
ATOM     16  H   UNL A   1      32.297  23.876  27.383  1.00  0.00     0.347 HD
ENDBRANCH   8  13
BRANCH  12  17
ATOM     17  C   UNL A   1      33.126  26.464  22.305  1.00  0.00     0.294 C 
ATOM     18  O   UNL A   1      33.441  26.239  21.138  1.00  0.00    -0.265 OA
BRANCH  17  19
ATOM     19  C   UNL A   1      32.623  27.874  22.640  1.00  0.00     0.250 C 
ATOM     20  O   UNL A   1      33.410  28.816  22.629  1.00  0.00    -0.283 OA
BRANCH  19  21
ATOM     21  C   UNL A   1      31.159  28.116  22.815  1.00  0.00     0.028 A 
ATOM     22  C   UNL A   1      30.623  29.311  22.306  1.00  0.00     0.012 A 
ATOM     23  C   UNL A   1      30.301  27.188  23.416  1.00  0.00     0.012 A 
ATOM     24  C   UNL A   1      29.248  29.550  22.358  1.00  0.00     0.001 A 
ATOM     25  C   UNL A   1      28.924  27.432  23.466  1.00  0.00     0.001 A 
ATOM     26  C   UNL A   1      28.398  28.606  22.930  1.00  0.00     0.000 A 
ENDBRANCH  19  21
ENDBRANCH  17  19
ENDBRANCH  12  17
ENDBRANCH   6   7
ENDBRANCH   5   6
ENDBRANCH   3   5
ENDBRANCH   2   3
ENDBRANCH   1   2
BRANCH   1  27
ATOM     27  C   UNL A   1      34.898  29.360  27.917  1.00  0.00     0.275 C 
BRANCH  27  28
ATOM     28  O   UNL A   1      35.886  30.359  28.228  1.00  0.00    -0.458 OA
BRANCH  28  29
ATOM     29  C   UNL A   1      36.461  30.232  29.444  1.00  0.00     0.338 C 
ATOM     30  O   UNL A   1      35.908  30.206  30.535  1.00  0.00    -0.246 OA
BRANCH  29  31
ATOM     31  C   UNL A   1      37.887  29.952  29.259  1.00  0.00     0.060 A 
ATOM     32  C   UNL A   1      38.350  29.786  27.954  1.00  0.00     0.016 A 
ATOM     33  C   UNL A   1      38.746  29.793  30.344  1.00  0.00     0.016 A 
ATOM     34  C   UNL A   1      39.671  29.437  27.714  1.00  0.00     0.010 A 
ATOM     35  C   UNL A   1      40.082  29.462  30.104  1.00  0.00     0.010 A 
ATOM     36  C   UNL A   1      40.549  29.269  28.789  1.00  0.00    -0.014 A 
BRANCH  36  37
ATOM     37  C   UNL A   1      41.943  28.835  28.542  1.00  0.00     0.031 A 
ATOM     38  C   UNL A   1      43.048  29.851  28.582  1.00  0.00     0.074 A 
ATOM     39  C   UNL A   1      42.212  27.540  28.291  1.00  0.00     0.049 A 
ATOM     40  N   UNL A   1      44.301  29.720  28.236  1.00  0.00    -0.248 NA
ATOM     41  C   UNL A   1      42.692  31.193  29.071  1.00  0.00     0.031 C 
ATOM     42  C   UNL A   1      41.229  26.454  28.293  1.00  0.00     0.029 A 
ATOM     43  N   UNL A   1      43.394  26.919  27.977  1.00  0.00    -0.354 N 
ATOM     44  C   UNL A   1      44.873  30.973  28.418  1.00  0.00     0.074 A 
ATOM     45  C   UNL A   1      43.833  31.850  28.909  1.00  0.00     0.031 C 
ATOM     46  C   UNL A   1      41.849  25.301  27.992  1.00  0.00     0.029 A 
ATOM     47  C   UNL A   1      43.255  25.577  27.716  1.00  0.00     0.049 A 
ATOM     48  H   UNL A   1      44.258  27.390  27.943  1.00  0.00     0.167 HD
ATOM     49  C   UNL A   1      46.151  31.355  28.183  1.00  0.00     0.031 A 
ATOM     50  C   UNL A   1      44.150  24.680  27.259  1.00  0.00     0.031 A 
ATOM     51  C   UNL A   1      47.180  30.467  27.712  1.00  0.00     0.049 A 
ATOM     52  C   UNL A   1      45.551  25.137  26.966  1.00  0.00     0.074 A 
ATOM     53  C   UNL A   1      48.508  30.750  27.445  1.00  0.00     0.029 A 
ATOM     54  N   UNL A   1      46.994  29.119  27.444  1.00  0.00    -0.354 N 
ATOM     55  N   UNL A   1      46.072  26.334  27.105  1.00  0.00    -0.248 NA
ATOM     56  C   UNL A   1      46.484  24.129  26.444  1.00  0.00     0.031 C 
ATOM     57  C   UNL A   1      49.117  29.580  26.979  1.00  0.00     0.029 A 
ATOM     58  C   UNL A   1      48.180  28.558  27.000  1.00  0.00     0.049 A 
ATOM     59  H   UNL A   1      46.146  28.632  27.554  1.00  0.00     0.167 HD
ATOM     60  C   UNL A   1      47.396  26.220  26.699  1.00  0.00     0.074 A 
ATOM     61  C   UNL A   1      47.601  24.833  26.326  1.00  0.00     0.031 C 
ATOM     62  C   UNL A   1      48.356  27.176  26.635  1.00  0.00     0.031 A 
BRANCH  49  63
ATOM     63  C   UNL A   1      46.489  32.807  28.383  1.00  0.00    -0.014 A 
ATOM     64  C   UNL A   1      46.976  33.285  29.613  1.00  0.00     0.010 A 
ATOM     65  C   UNL A   1      46.339  33.704  27.310  1.00  0.00     0.010 A 
ATOM     66  C   UNL A   1      47.272  34.641  29.775  1.00  0.00     0.020 A 
ATOM     67  C   UNL A   1      46.655  35.057  27.461  1.00  0.00     0.020 A 
ATOM     68  C   UNL A   1      47.104  35.520  28.699  1.00  0.00     0.054 A 
BRANCH  68  69
ATOM     69  S   UNL A   1      47.512  37.273  28.929  1.00  0.00     0.124 S 
ATOM     70  O   UNL A   1      48.296  37.559  27.729  1.00  0.00    -0.237 OA
ATOM     71  O   UNL A   1      46.197  37.906  28.983  1.00  0.00    -0.237 OA
ATOM     72  O   UNL A   1      48.262  37.293  30.182  1.00  0.00    -0.744 OA
ENDBRANCH  68  69
ENDBRANCH  49  63
BRANCH  50  73
ATOM     73  C   UNL A   1      43.728  23.277  27.001  1.00  0.00    -0.014 A 
ATOM     74  C   UNL A   1      43.190  22.487  28.031  1.00  0.00     0.010 A 
ATOM     75  C   UNL A   1      43.843  22.731  25.709  1.00  0.00     0.010 A 
ATOM     76  C   UNL A   1      42.784  21.172  27.776  1.00  0.00     0.020 A 
ATOM     77  C   UNL A   1      43.414  21.428  25.444  1.00  0.00     0.020 A 
ATOM     78  C   UNL A   1      42.897  20.652  26.484  1.00  0.00     0.054 A 
BRANCH  78  79
ATOM     79  S   UNL A   1      42.309  18.966  26.158  1.00  0.00     0.124 S 
ATOM     80  O   UNL A   1      42.458  18.336  27.464  1.00  0.00    -0.237 OA
ATOM     81  O   UNL A   1      40.935  19.188  25.715  1.00  0.00    -0.237 OA
ATOM     82  O   UNL A   1      43.218  18.484  25.119  1.00  0.00    -0.744 OA
ENDBRANCH  78  79
ENDBRANCH  50  73
BRANCH  62  83
ATOM     83  C   UNL A   1      49.719  26.747  26.172  1.00  0.00    -0.014 A 
ATOM     84  C   UNL A   1      50.181  27.073  24.885  1.00  0.00     0.010 A 
ATOM     85  C   UNL A   1      50.569  26.060  27.057  1.00  0.00     0.010 A 
ATOM     86  C   UNL A   1      51.465  26.695  24.482  1.00  0.00     0.020 A 
ATOM     87  C   UNL A   1      51.859  25.699  26.665  1.00  0.00     0.020 A 
ATOM     88  C   UNL A   1      52.295  26.008  25.375  1.00  0.00     0.054 A 
BRANCH  88  89
ATOM     89  S   UNL A   1      53.974  25.570  24.848  1.00  0.00     0.124 S 
ATOM     90  O   UNL A   1      54.794  26.348  25.772  1.00  0.00    -0.237 OA
ATOM     91  O   UNL A   1      54.007  24.122  25.044  1.00  0.00    -0.237 OA
ATOM     92  O   UNL A   1      54.022  26.004  23.453  1.00  0.00    -0.744 OA
ENDBRANCH  88  89
ENDBRANCH  62  83
ENDBRANCH  36  37
ENDBRANCH  29  31
ENDBRANCH  28  29
ENDBRANCH  27  28
ENDBRANCH   1  27
TORSDOF 20
ENDMDL
MODEL 2
REMARK VINA RESULT:     -10.6      6.256     10.847
REMARK SMILES C[NH+](C)[C@H]1CCN(C(=O)C(=O)c2ccccc2)C[C@H]1CCC(=O)OCCOC(=O)c1ccc(-c2c3nc(c(-c4ccc(S(=O)(=O)[O-])cc4)c4ccc([nH]4)c(-c4ccc(S(=O)(=O)[O-])cc4)c4nc(c(-c5ccc(S(=O)(=O)[O-])cc5)c5ccc2[nH]5)C=C4)C=C3)cc1
REMARK SMILES IDX 25 1 24 2 22 3 23 4 21 5 20 6 19 7 4 8 5 9 6 10 18 11 7 12
REMARK SMILES IDX 2 13 1 14 3 15 8 17 9 18 10 19 11 20 12 21 13 22 17 23 14 24
REMARK SMILES IDX 16 25 15 26 26 27 27 28 28 29 29 30 30 31 31 32 89 33 32 34
REMARK SMILES IDX 88 35 33 36 34 37 35 38 82 39 36 40 87 41 81 42 83 43 37 44
REMARK SMILES IDX 86 45 80 46 79 47 38 49 68 50 49 51 67 52 50 53 53 54 66 55
REMARK SMILES IDX 84 56 51 57 52 58 65 60 85 61 54 62 39 63 40 64 48 65 41 66
REMARK SMILES IDX 47 67 42 68 43 69 44 70 45 71 46 72 69 73 70 74 78 75 71 76
REMARK SMILES IDX 77 77 72 78 73 79 74 80 75 81 76 82 55 83 56 84 64 85 57 86
REMARK SMILES IDX 63 87 58 88 59 89 60 90 61 91 62 92
REMARK H PARENT 2 16 83 48 53 59
REMARK Flexibility Score: inf
ROOT
ATOM      1  C   UNL A   1      32.801  30.867  27.035  1.00  0.00     0.274 C 
ENDROOT
BRANCH   1   2
ATOM      2  O   UNL A   1      31.667  29.983  27.103  1.00  0.00    -0.462 OA
BRANCH   2   3
ATOM      3  C   UNL A   1      31.909  28.647  27.089  1.00  0.00     0.305 C 
ATOM      4  O   UNL A   1      31.469  27.854  27.913  1.00  0.00    -0.252 OA
BRANCH   3   5
ATOM      5  C   UNL A   1      32.742  28.203  25.902  1.00  0.00     0.123 C 
BRANCH   5   6
ATOM      6  C   UNL A   1      32.391  26.861  25.261  1.00  0.00     0.023 C 
BRANCH   6   7
ATOM      7  C   UNL A   1      30.994  26.700  24.597  1.00  0.00     0.067 C 
ATOM      8  C   UNL A   1      30.994  26.352  23.075  1.00  0.00     0.190 C 
ATOM      9  C   UNL A   1      31.562  24.929  22.892  1.00  0.00     0.087 C 
ATOM     10  C   UNL A   1      30.766  23.916  23.705  1.00  0.00     0.126 C 
ATOM     11  C   UNL A   1      30.211  25.630  25.396  1.00  0.00     0.129 C 
ATOM     12  N   UNL A   1      30.682  24.273  25.112  1.00  0.00    -0.335 N 
BRANCH   8  13
ATOM     13  N   UNL A   1      31.674  27.408  22.292  1.00  0.00    -0.337 N 
ATOM     14  C   UNL A   1      33.128  27.245  22.250  1.00  0.00     0.332 C 
ATOM     15  C   UNL A   1      31.336  28.789  22.626  1.00  0.00     0.332 C 
ATOM     16  H   UNL A   1      31.288  27.252  21.361  1.00  0.00     0.347 HD
ENDBRANCH   8  13
BRANCH  12  17
ATOM     17  C   UNL A   1      30.853  23.251  26.057  1.00  0.00     0.294 C 
ATOM     18  O   UNL A   1      29.927  22.529  26.423  1.00  0.00    -0.265 OA
BRANCH  17  19
ATOM     19  C   UNL A   1      32.217  23.043  26.729  1.00  0.00     0.250 C 
ATOM     20  O   UNL A   1      32.265  22.734  27.916  1.00  0.00    -0.283 OA
BRANCH  19  21
ATOM     21  C   UNL A   1      33.460  23.059  25.901  1.00  0.00     0.028 A 
ATOM     22  C   UNL A   1      34.316  24.166  26.019  1.00  0.00     0.012 A 
ATOM     23  C   UNL A   1      33.826  22.003  25.057  1.00  0.00     0.012 A 
ATOM     24  C   UNL A   1      35.538  24.194  25.341  1.00  0.00     0.001 A 
ATOM     25  C   UNL A   1      35.050  22.036  24.379  1.00  0.00     0.001 A 
ATOM     26  C   UNL A   1      35.908  23.124  24.528  1.00  0.00     0.000 A 
ENDBRANCH  19  21
ENDBRANCH  17  19
ENDBRANCH  12  17
ENDBRANCH   6   7
ENDBRANCH   5   6
ENDBRANCH   3   5
ENDBRANCH   2   3
ENDBRANCH   1   2
BRANCH   1  27
ATOM     27  C   UNL A   1      32.385  32.276  27.459  1.00  0.00     0.275 C 
BRANCH  27  28
ATOM     28  O   UNL A   1      33.546  33.120  27.560  1.00  0.00    -0.458 OA
BRANCH  28  29
ATOM     29  C   UNL A   1      33.559  33.946  28.629  1.00  0.00     0.338 C 
ATOM     30  O   UNL A   1      32.707  34.761  28.957  1.00  0.00    -0.246 OA
BRANCH  29  31
ATOM     31  C   UNL A   1      34.707  33.601  29.471  1.00  0.00     0.060 A 
ATOM     32  C   UNL A   1      35.931  34.201  29.176  1.00  0.00     0.016 A 
ATOM     33  C   UNL A   1      34.605  32.659  30.493  1.00  0.00     0.016 A 
ATOM     34  C   UNL A   1      37.074  33.855  29.881  1.00  0.00     0.010 A 
ATOM     35  C   UNL A   1      35.751  32.325  31.219  1.00  0.00     0.010 A 
ATOM     36  C   UNL A   1      36.995  32.910  30.908  1.00  0.00    -0.014 A 
BRANCH  36  37
ATOM     37  C   UNL A   1      38.223  32.490  31.621  1.00  0.00     0.031 A 
ATOM     38  C   UNL A   1      39.087  31.415  31.027  1.00  0.00     0.074 A 
ATOM     39  C   UNL A   1      38.561  33.076  32.784  1.00  0.00     0.049 A 
ATOM     40  N   UNL A   1      40.103  30.788  31.557  1.00  0.00    -0.248 NA
ATOM     41  C   UNL A   1      38.758  30.985  29.658  1.00  0.00     0.031 C 
ATOM     42  C   UNL A   1      37.835  34.176  33.422  1.00  0.00     0.029 A 
ATOM     43  N   UNL A   1      39.599  32.820  33.643  1.00  0.00    -0.354 N 
ATOM     44  C   UNL A   1      40.505  29.856  30.608  1.00  0.00     0.074 A 
ATOM     45  C   UNL A   1      39.627  30.002  29.468  1.00  0.00     0.031 C 
ATOM     46  C   UNL A   1      38.450  34.499  34.572  1.00  0.00     0.029 A 
ATOM     47  C   UNL A   1      39.571  33.589  34.781  1.00  0.00     0.049 A 
ATOM     48  H   UNL A   1      40.298  32.149  33.461  1.00  0.00     0.167 HD
ATOM     49  C   UNL A   1      41.512  28.953  30.691  1.00  0.00     0.031 A 
ATOM     50  C   UNL A   1      40.335  33.536  35.890  1.00  0.00     0.031 A 
ATOM     51  C   UNL A   1      42.388  28.831  31.824  1.00  0.00     0.049 A 
ATOM     52  C   UNL A   1      41.418  32.497  35.976  1.00  0.00     0.074 A 
ATOM     53  C   UNL A   1      43.442  27.954  32.009  1.00  0.00     0.029 A 
ATOM     54  N   UNL A   1      42.317  29.620  32.964  1.00  0.00    -0.354 N 
ATOM     55  N   UNL A   1      41.765  31.595  35.088  1.00  0.00    -0.248 NA
ATOM     56  C   UNL A   1      42.206  32.460  37.215  1.00  0.00     0.031 C 
ATOM     57  C   UNL A   1      43.984  28.186  33.278  1.00  0.00     0.029 A 
ATOM     58  C   UNL A   1      43.297  29.239  33.864  1.00  0.00     0.049 A 
ATOM     59  H   UNL A   1      41.665  30.343  33.111  1.00  0.00     0.167 HD
ATOM     60  C   UNL A   1      42.819  30.891  35.656  1.00  0.00     0.074 A 
ATOM     61  C   UNL A   1      43.065  31.483  36.957  1.00  0.00     0.031 C 
ATOM     62  C   UNL A   1      43.519  29.845  35.151  1.00  0.00     0.031 A 
BRANCH  49  63
ATOM     63  C   UNL A   1      41.679  27.994  29.544  1.00  0.00    -0.014 A 
ATOM     64  C   UNL A   1      40.746  26.970  29.301  1.00  0.00     0.010 A 
ATOM     65  C   UNL A   1      42.780  28.137  28.681  1.00  0.00     0.010 A 
ATOM     66  C   UNL A   1      40.932  26.086  28.235  1.00  0.00     0.020 A 
ATOM     67  C   UNL A   1      42.958  27.269  27.600  1.00  0.00     0.020 A 
ATOM     68  C   UNL A   1      42.041  26.237  27.395  1.00  0.00     0.054 A 
BRANCH  68  69
ATOM     69  S   UNL A   1      42.251  25.087  26.007  1.00  0.00     0.124 S 
ATOM     70  O   UNL A   1      41.486  23.927  26.460  1.00  0.00    -0.237 OA
ATOM     71  O   UNL A   1      41.669  25.822  24.887  1.00  0.00    -0.237 OA
ATOM     72  O   UNL A   1      43.696  24.890  25.935  1.00  0.00    -0.744 OA
ENDBRANCH  68  69
ENDBRANCH  49  63
BRANCH  50  73
ATOM     73  C   UNL A   1      40.060  34.458  37.024  1.00  0.00    -0.014 A 
ATOM     74  C   UNL A   1      40.620  35.746  37.056  1.00  0.00     0.010 A 
ATOM     75  C   UNL A   1      39.214  34.055  38.074  1.00  0.00     0.010 A 
ATOM     76  C   UNL A   1      40.347  36.612  38.120  1.00  0.00     0.020 A 
ATOM     77  C   UNL A   1      38.917  34.926  39.126  1.00  0.00     0.020 A 
ATOM     78  C   UNL A   1      39.496  36.197  39.147  1.00  0.00     0.054 A 
BRANCH  78  79
ATOM     79  S   UNL A   1      39.103  37.354  40.489  1.00  0.00     0.124 S 
ATOM     80  O   UNL A   1      38.585  36.459  41.518  1.00  0.00    -0.237 OA
ATOM     81  O   UNL A   1      40.401  37.963  40.774  1.00  0.00    -0.237 OA
ATOM     82  O   UNL A   1      38.122  38.254  39.887  1.00  0.00    -0.744 OA
ENDBRANCH  78  79
ENDBRANCH  50  73
BRANCH  62  83
ATOM     83  C   UNL A   1      44.634  29.295  35.997  1.00  0.00    -0.014 A 
ATOM     84  C   UNL A   1      44.405  28.242  36.898  1.00  0.00     0.010 A 
ATOM     85  C   UNL A   1      45.936  29.802  35.842  1.00  0.00     0.010 A 
ATOM     86  C   UNL A   1      45.460  27.720  37.652  1.00  0.00     0.020 A 
ATOM     87  C   UNL A   1      46.996  29.269  36.578  1.00  0.00     0.020 A 
ATOM     88  C   UNL A   1      46.748  28.239  37.488  1.00  0.00     0.054 A 
BRANCH  88  89
ATOM     89  S   UNL A   1      48.111  27.515  38.441  1.00  0.00     0.124 S 
ATOM     90  O   UNL A   1      48.037  26.109  38.054  1.00  0.00    -0.237 OA
ATOM     91  O   UNL A   1      49.277  28.243  37.943  1.00  0.00    -0.237 OA
ATOM     92  O   UNL A   1      47.752  27.801  39.828  1.00  0.00    -0.744 OA
ENDBRANCH  88  89
ENDBRANCH  62  83
ENDBRANCH  36  37
ENDBRANCH  29  31
ENDBRANCH  28  29
ENDBRANCH  27  28
ENDBRANCH   1  27
TORSDOF 20
ENDMDL
MODEL 3
REMARK VINA RESULT:     -10.6      5.211      9.437
REMARK SMILES C[NH+](C)[C@H]1CCN(C(=O)C(=O)c2ccccc2)C[C@H]1CCC(=O)OCCOC(=O)c1ccc(-c2c3nc(c(-c4ccc(S(=O)(=O)[O-])cc4)c4ccc([nH]4)c(-c4ccc(S(=O)(=O)[O-])cc4)c4nc(c(-c5ccc(S(=O)(=O)[O-])cc5)c5ccc2[nH]5)C=C4)C=C3)cc1
REMARK SMILES IDX 25 1 24 2 22 3 23 4 21 5 20 6 19 7 4 8 5 9 6 10 18 11 7 12
REMARK SMILES IDX 2 13 1 14 3 15 8 17 9 18 10 19 11 20 12 21 13 22 17 23 14 24
REMARK SMILES IDX 16 25 15 26 26 27 27 28 28 29 29 30 30 31 31 32 89 33 32 34
REMARK SMILES IDX 88 35 33 36 34 37 35 38 82 39 36 40 87 41 81 42 83 43 37 44
REMARK SMILES IDX 86 45 80 46 79 47 38 49 68 50 49 51 67 52 50 53 53 54 66 55
REMARK SMILES IDX 84 56 51 57 52 58 65 60 85 61 54 62 39 63 40 64 48 65 41 66
REMARK SMILES IDX 47 67 42 68 43 69 44 70 45 71 46 72 69 73 70 74 78 75 71 76
REMARK SMILES IDX 77 77 72 78 73 79 74 80 75 81 76 82 55 83 56 84 64 85 57 86
REMARK SMILES IDX 63 87 58 88 59 89 60 90 61 91 62 92
REMARK H PARENT 2 16 83 48 53 59
REMARK Flexibility Score: inf
ROOT
ATOM      1  C   UNL A   1      32.166  28.909  25.645  1.00  0.00     0.274 C 
ENDROOT
BRANCH   1   2
ATOM      2  O   UNL A   1      31.937  28.046  26.774  1.00  0.00    -0.462 OA
BRANCH   2   3
ATOM      3  C   UNL A   1      31.643  26.745  26.521  1.00  0.00     0.305 C 
ATOM      4  O   UNL A   1      30.579  26.207  26.806  1.00  0.00    -0.252 OA
BRANCH   3   5
ATOM      5  C   UNL A   1      32.748  26.014  25.783  1.00  0.00     0.123 C 
BRANCH   5   6
ATOM      6  C   UNL A   1      32.693  24.487  25.772  1.00  0.00     0.023 C 
BRANCH   6   7
ATOM      7  C   UNL A   1      33.864  23.709  25.108  1.00  0.00     0.067 C 
ATOM      8  C   UNL A   1      33.506  22.313  24.506  1.00  0.00     0.190 C 
ATOM      9  C   UNL A   1      32.576  22.520  23.293  1.00  0.00     0.087 C 
ATOM     10  C   UNL A   1      33.224  23.433  22.260  1.00  0.00     0.126 C 
ATOM     11  C   UNL A   1      34.483  24.622  24.022  1.00  0.00     0.129 C 
ATOM     12  N   UNL A   1      33.643  24.706  22.825  1.00  0.00    -0.335 N 
BRANCH   8  13
ATOM     13  N   UNL A   1      32.986  21.406  25.552  1.00  0.00    -0.337 N 
ATOM     14  C   UNL A   1      33.857  21.323  26.726  1.00  0.00     0.332 C 
ATOM     15  C   UNL A   1      32.601  20.065  25.122  1.00  0.00     0.332 C 
ATOM     16  H   UNL A   1      32.113  21.869  25.810  1.00  0.00     0.347 HD
ENDBRANCH   8  13
BRANCH  12  17
ATOM     17  C   UNL A   1      33.392  25.867  22.080  1.00  0.00     0.294 C 
ATOM     18  O   UNL A   1      34.239  26.744  21.918  1.00  0.00    -0.265 OA
BRANCH  17  19
ATOM     19  C   UNL A   1      31.998  26.115  21.488  1.00  0.00     0.250 C 
ATOM     20  O   UNL A   1      31.781  25.832  20.314  1.00  0.00    -0.283 OA
BRANCH  19  21
ATOM     21  C   UNL A   1      30.880  26.544  22.381  1.00  0.00     0.028 A 
ATOM     22  C   UNL A   1      30.502  27.897  22.361  1.00  0.00     0.012 A 
ATOM     23  C   UNL A   1      30.169  25.651  23.192  1.00  0.00     0.012 A 
ATOM     24  C   UNL A   1      29.405  28.338  23.104  1.00  0.00     0.001 A 
ATOM     25  C   UNL A   1      29.071  26.098  23.936  1.00  0.00     0.001 A 
ATOM     26  C   UNL A   1      28.684  27.436  23.884  1.00  0.00     0.000 A 
ENDBRANCH  19  21
ENDBRANCH  17  19
ENDBRANCH  12  17
ENDBRANCH   6   7
ENDBRANCH   5   6
ENDBRANCH   3   5
ENDBRANCH   2   3
ENDBRANCH   1   2
BRANCH   1  27
ATOM     27  C   UNL A   1      33.398  29.778  25.898  1.00  0.00     0.275 C 
BRANCH  27  28
ATOM     28  O   UNL A   1      33.634  29.895  27.312  1.00  0.00    -0.458 OA
BRANCH  28  29
ATOM     29  C   UNL A   1      34.188  31.064  27.703  1.00  0.00     0.338 C 
ATOM     30  O   UNL A   1      33.659  32.167  27.742  1.00  0.00    -0.246 OA
BRANCH  29  31
ATOM     31  C   UNL A   1      35.515  30.789  28.256  1.00  0.00     0.060 A 
ATOM     32  C   UNL A   1      35.682  29.611  28.985  1.00  0.00     0.016 A 
ATOM     33  C   UNL A   1      36.565  31.695  28.119  1.00  0.00     0.016 A 
ATOM     34  C   UNL A   1      36.892  29.332  29.606  1.00  0.00     0.010 A 
ATOM     35  C   UNL A   1      37.790  31.405  28.725  1.00  0.00     0.010 A 
ATOM     36  C   UNL A   1      37.956  30.230  29.483  1.00  0.00    -0.014 A 
BRANCH  36  37
ATOM     37  C   UNL A   1      39.227  29.967  30.196  1.00  0.00     0.031 A 
ATOM     38  C   UNL A   1      40.143  28.888  29.692  1.00  0.00     0.074 A 
ATOM     39  C   UNL A   1      39.557  30.695  31.278  1.00  0.00     0.049 A 
ATOM     40  N   UNL A   1      41.211  28.386  30.253  1.00  0.00    -0.248 NA
ATOM     41  C   UNL A   1      39.807  28.292  28.389  1.00  0.00     0.031 C 
ATOM     42  C   UNL A   1      38.779  31.812  31.818  1.00  0.00     0.029 A 
ATOM     43  N   UNL A   1      40.632  30.598  32.124  1.00  0.00    -0.354 N 
ATOM     44  C   UNL A   1      41.648  27.383  29.396  1.00  0.00     0.074 A 
ATOM     45  C   UNL A   1      40.733  27.350  28.276  1.00  0.00     0.031 C 
ATOM     46  C   UNL A   1      39.401  32.295  32.906  1.00  0.00     0.029 A 
ATOM     47  C   UNL A   1      40.584  31.484  33.174  1.00  0.00     0.049 A 
ATOM     48  H   UNL A   1      41.367  29.956  31.992  1.00  0.00     0.167 HD
ATOM     49  C   UNL A   1      42.712  26.558  29.541  1.00  0.00     0.031 A 
ATOM     50  C   UNL A   1      41.378  31.599  34.257  1.00  0.00     0.031 A 
ATOM     51  C   UNL A   1      43.625  26.615  30.652  1.00  0.00     0.049 A 
ATOM     52  C   UNL A   1      42.528  30.644  34.418  1.00  0.00     0.074 A 
ATOM     53  C   UNL A   1      44.737  25.829  30.895  1.00  0.00     0.029 A 
ATOM     54  N   UNL A   1      43.532  27.516  31.702  1.00  0.00    -0.354 N 
ATOM     55  N   UNL A   1      42.909  29.674  33.620  1.00  0.00    -0.248 NA
ATOM     56  C   UNL A   1      43.349  30.791  35.626  1.00  0.00     0.031 C 
ATOM     57  C   UNL A   1      45.296  26.231  32.113  1.00  0.00     0.029 A 
ATOM     58  C   UNL A   1      44.559  27.297  32.605  1.00  0.00     0.049 A 
ATOM     59  H   UNL A   1      42.839  28.210  31.792  1.00  0.00     0.167 HD
ATOM     60  C   UNL A   1      44.022  29.102  34.225  1.00  0.00     0.074 A 
ATOM     61  C   UNL A   1      44.263  29.846  35.446  1.00  0.00     0.031 C 
ATOM     62  C   UNL A   1      44.774  28.052  33.812  1.00  0.00     0.031 A 
BRANCH  49  63
ATOM     63  C   UNL A   1      42.911  25.492  28.499  1.00  0.00    -0.014 A 
ATOM     64  C   UNL A   1      43.813  25.665  27.434  1.00  0.00     0.010 A 
ATOM     65  C   UNL A   1      42.200  24.283  28.605  1.00  0.00     0.010 A 
ATOM     66  C   UNL A   1      43.970  24.662  26.473  1.00  0.00     0.020 A 
ATOM     67  C   UNL A   1      42.371  23.269  27.659  1.00  0.00     0.020 A 
ATOM     68  C   UNL A   1      43.243  23.473  26.589  1.00  0.00     0.054 A 
BRANCH  68  69
ATOM     69  S   UNL A   1      43.479  22.179  25.339  1.00  0.00     0.124 S 
ATOM     70  O   UNL A   1      44.838  21.725  25.627  1.00  0.00    -0.237 OA
ATOM     71  O   UNL A   1      42.419  21.225  25.657  1.00  0.00    -0.237 OA
ATOM     72  O   UNL A   1      43.315  22.887  24.071  1.00  0.00    -0.744 OA
ENDBRANCH  68  69
ENDBRANCH  49  63
BRANCH  50  73
ATOM     73  C   UNL A   1      41.075  32.620  35.294  1.00  0.00    -0.014 A 
ATOM     74  C   UNL A   1      40.174  32.343  36.335  1.00  0.00     0.010 A 
ATOM     75  C   UNL A   1      41.709  33.876  35.255  1.00  0.00     0.010 A 
ATOM     76  C   UNL A   1      39.904  33.306  37.314  1.00  0.00     0.020 A 
ATOM     77  C   UNL A   1      41.463  34.831  36.245  1.00  0.00     0.020 A 
ATOM     78  C   UNL A   1      40.552  34.543  37.263  1.00  0.00     0.054 A 
BRANCH  78  79
ATOM     79  S   UNL A   1      40.236  35.758  38.575  1.00  0.00     0.124 S 
ATOM     80  O   UNL A   1      39.723  36.894  37.817  1.00  0.00    -0.237 OA
ATOM     81  O   UNL A   1      39.264  35.068  39.420  1.00  0.00    -0.237 OA
ATOM     82  O   UNL A   1      41.551  35.951  39.184  1.00  0.00    -0.744 OA
ENDBRANCH  78  79
ENDBRANCH  50  73
BRANCH  62  83
ATOM     83  C   UNL A   1      45.944  27.667  34.674  1.00  0.00    -0.014 A 
ATOM     84  C   UNL A   1      45.816  26.682  35.667  1.00  0.00     0.010 A 
ATOM     85  C   UNL A   1      47.199  28.259  34.445  1.00  0.00     0.010 A 
ATOM     86  C   UNL A   1      46.922  26.312  36.438  1.00  0.00     0.020 A 
ATOM     87  C   UNL A   1      48.310  27.876  35.198  1.00  0.00     0.020 A 
ATOM     88  C   UNL A   1      48.162  26.914  36.199  1.00  0.00     0.054 A 
BRANCH  88  89
ATOM     89  S   UNL A   1      49.595  26.384  37.177  1.00  0.00     0.124 S 
ATOM     90  O   UNL A   1      50.187  27.662  37.563  1.00  0.00    -0.237 OA
ATOM     91  O   UNL A   1      48.982  25.621  38.262  1.00  0.00    -0.237 OA
ATOM     92  O   UNL A   1      50.381  25.591  36.234  1.00  0.00    -0.744 OA
ENDBRANCH  88  89
ENDBRANCH  62  83
ENDBRANCH  36  37
ENDBRANCH  29  31
ENDBRANCH  28  29
ENDBRANCH  27  28
ENDBRANCH   1  27
TORSDOF 20
ENDMDL
