MODEL 1
REMARK VINA RESULT:      -9.7      0.000      0.000
REMARK SMILES O=C(CSc1nc(-c2cccc(Br)c2)c[nH]1)OCCOC(=O)c1ccc(-c2c3nc(c(-c4ccc(S(=O)(=O)[O-])cc4)c4ccc([nH]4)c(-c4ccc(S(=O)(=O)[O-])cc4)c4nc(c(-c5ccc(S(=O)(=O)[O-])cc5)c5ccc2[nH]5)C=C4)C=C3)cc1
REMARK SMILES IDX 18 1 17 2 2 3 1 4 3 5 4 6 5 7 6 8 16 9 7 10 15 11 8 13 9 14
REMARK SMILES IDX 14 15 10 16 12 17 11 18 13 19 19 20 20 21 21 22 22 23 23 24
REMARK SMILES IDX 24 25 82 26 25 27 81 28 26 29 27 30 28 31 75 32 29 33 80 34
REMARK SMILES IDX 74 35 76 36 30 37 79 38 73 39 72 40 31 42 61 43 42 44 60 45
REMARK SMILES IDX 43 46 46 47 59 48 77 49 44 50 45 51 58 53 78 54 47 55 32 56
REMARK SMILES IDX 33 57 41 58 34 59 40 60 35 61 36 62 37 63 38 64 39 65 62 66
REMARK SMILES IDX 63 67 71 68 64 69 70 70 65 71 66 72 67 73 68 74 69 75 48 76
REMARK SMILES IDX 49 77 57 78 50 79 56 80 51 81 52 82 53 83 54 84 55 85
REMARK H PARENT 16 12 76 41 46 52
REMARK Flexibility Score: inf
ROOT
ATOM      1  C   UNL A   1      40.533  21.785  26.620  1.00  0.00     0.274 C 
ENDROOT
BRANCH   1   2
ATOM      2  O   UNL A   1      41.199  20.594  27.093  1.00  0.00    -0.461 OA
BRANCH   2   3
ATOM      3  C   UNL A   1      41.686  19.599  26.308  1.00  0.00     0.316 C 
ATOM      4  O   UNL A   1      40.963  19.105  25.445  1.00  0.00    -0.251 OA
BRANCH   3   5
ATOM      5  C   UNL A   1      43.125  19.166  26.484  1.00  0.00     0.200 C 
BRANCH   5   6
ATOM      6  S   UNL A   1      43.952  19.071  24.872  1.00  0.00    -0.076 SA
BRANCH   6   7
ATOM      7  C   UNL A   1      44.503  20.693  24.755  1.00  0.00     0.166 A 
ATOM      8  N   UNL A   1      44.733  21.519  25.741  1.00  0.00    -0.223 NA
ATOM      9  N   UNL A   1      44.745  21.252  23.537  1.00  0.00    -0.339 N 
ATOM     10  C   UNL A   1      45.090  22.694  25.126  1.00  0.00     0.089 A 
ATOM     11  C   UNL A   1      45.124  22.546  23.755  1.00  0.00     0.113 A 
ATOM     12  H   UNL A   1      44.661  20.807  22.662  1.00  0.00     0.168 HD
BRANCH  10  13
ATOM     13  C   UNL A   1      45.346  23.927  25.829  1.00  0.00     0.003 A 
ATOM     14  C   UNL A   1      45.854  25.040  25.152  1.00  0.00     0.010 A 
ATOM     15  C   UNL A   1      45.092  24.003  27.203  1.00  0.00     0.026 A 
ATOM     16  C   UNL A   1      46.095  26.229  25.846  1.00  0.00     0.002 A 
ATOM     17  C   UNL A   1      45.340  25.190  27.888  1.00  0.00     0.018 A 
ATOM     18  C   UNL A   1      45.839  26.305  27.216  1.00  0.00     0.016 A 
ATOM     19  Br  UNL A   1      44.984  25.284  29.743  1.00  0.00    -0.051 Br
ENDBRANCH  10  13
ENDBRANCH   6   7
ENDBRANCH   5   6
ENDBRANCH   3   5
ENDBRANCH   2   3
ENDBRANCH   1   2
BRANCH   1  20
ATOM     20  C   UNL A   1      41.540  22.861  26.214  1.00  0.00     0.275 C 
BRANCH  20  21
ATOM     21  O   UNL A   1      40.896  24.147  26.175  1.00  0.00    -0.458 OA
BRANCH  21  22
ATOM     22  C   UNL A   1      41.732  25.211  26.055  1.00  0.00     0.338 C 
ATOM     23  O   UNL A   1      42.373  25.517  25.065  1.00  0.00    -0.246 OA
BRANCH  22  24
ATOM     24  C   UNL A   1      41.621  26.064  27.260  1.00  0.00     0.060 A 
ATOM     25  C   UNL A   1      40.676  25.705  28.227  1.00  0.00     0.016 A 
ATOM     26  C   UNL A   1      42.428  27.193  27.452  1.00  0.00     0.016 A 
ATOM     27  C   UNL A   1      40.507  26.495  29.365  1.00  0.00     0.010 A 
ATOM     28  C   UNL A   1      42.261  27.979  28.600  1.00  0.00     0.010 A 
ATOM     29  C   UNL A   1      41.280  27.650  29.549  1.00  0.00    -0.014 A 
BRANCH  29  30
ATOM     30  C   UNL A   1      40.985  28.551  30.693  1.00  0.00     0.031 A 
ATOM     31  C   UNL A   1      41.817  28.460  31.944  1.00  0.00     0.074 A 
ATOM     32  C   UNL A   1      40.016  29.479  30.599  1.00  0.00     0.049 A 
ATOM     33  N   UNL A   1      41.789  29.218  33.012  1.00  0.00    -0.248 NA
ATOM     34  C   UNL A   1      42.812  27.377  32.001  1.00  0.00     0.031 C 
ATOM     35  C   UNL A   1      39.135  29.674  29.447  1.00  0.00     0.029 A 
ATOM     36  N   UNL A   1      39.615  30.442  31.494  1.00  0.00    -0.354 N 
ATOM     37  C   UNL A   1      42.776  28.722  33.855  1.00  0.00     0.074 A 
ATOM     38  C   UNL A   1      43.346  27.564  33.200  1.00  0.00     0.031 C 
ATOM     39  C   UNL A   1      38.300  30.696  29.704  1.00  0.00     0.029 A 
ATOM     40  C   UNL A   1      38.579  31.221  31.039  1.00  0.00     0.049 A 
ATOM     41  H   UNL A   1      40.032  30.561  32.378  1.00  0.00     0.167 HD
ATOM     42  C   UNL A   1      43.188  29.196  35.055  1.00  0.00     0.031 A 
ATOM     43  C   UNL A   1      37.931  32.245  31.629  1.00  0.00     0.031 A 
ATOM     44  C   UNL A   1      42.608  30.330  35.726  1.00  0.00     0.049 A 
ATOM     45  C   UNL A   1      38.374  32.723  32.988  1.00  0.00     0.074 A 
ATOM     46  C   UNL A   1      42.966  30.888  36.942  1.00  0.00     0.029 A 
ATOM     47  N   UNL A   1      41.543  31.075  35.245  1.00  0.00    -0.354 N 
ATOM     48  N   UNL A   1      39.348  32.276  33.745  1.00  0.00    -0.248 NA
ATOM     49  C   UNL A   1      37.640  33.861  33.562  1.00  0.00     0.031 C 
ATOM     50  C   UNL A   1      42.088  31.941  37.217  1.00  0.00     0.029 A 
ATOM     51  C   UNL A   1      41.217  32.074  36.149  1.00  0.00     0.049 A 
ATOM     52  H   UNL A   1      41.085  30.918  34.388  1.00  0.00     0.167 HD
ATOM     53  C   UNL A   1      39.358  33.094  34.872  1.00  0.00     0.074 A 
ATOM     54  C   UNL A   1      38.309  34.075  34.686  1.00  0.00     0.031 C 
ATOM     55  C   UNL A   1      40.163  33.038  35.962  1.00  0.00     0.031 A 
BRANCH  42  56
ATOM     56  C   UNL A   1      44.333  28.483  35.723  1.00  0.00    -0.014 A 
ATOM     57  C   UNL A   1      44.096  27.396  36.584  1.00  0.00     0.010 A 
ATOM     58  C   UNL A   1      45.658  28.868  35.453  1.00  0.00     0.010 A 
ATOM     59  C   UNL A   1      45.163  26.727  37.189  1.00  0.00     0.020 A 
ATOM     60  C   UNL A   1      46.729  28.185  36.037  1.00  0.00     0.020 A 
ATOM     61  C   UNL A   1      46.474  27.127  36.913  1.00  0.00     0.054 A 
BRANCH  61  62
ATOM     62  S   UNL A   1      47.840  26.222  37.688  1.00  0.00     0.124 S 
ATOM     63  O   UNL A   1      47.681  26.583  39.095  1.00  0.00    -0.237 OA
ATOM     64  O   UNL A   1      47.533  24.833  37.358  1.00  0.00    -0.237 OA
ATOM     65  O   UNL A   1      49.030  26.765  37.037  1.00  0.00    -0.744 OA
ENDBRANCH  61  62
ENDBRANCH  42  56
BRANCH  43  66
ATOM     66  C   UNL A   1      36.785  32.898  30.939  1.00  0.00    -0.014 A 
ATOM     67  C   UNL A   1      36.988  33.709  29.810  1.00  0.00     0.010 A 
ATOM     68  C   UNL A   1      35.479  32.730  31.435  1.00  0.00     0.010 A 
ATOM     69  C   UNL A   1      35.912  34.367  29.208  1.00  0.00     0.020 A 
ATOM     70  C   UNL A   1      34.397  33.364  30.820  1.00  0.00     0.020 A 
ATOM     71  C   UNL A   1      34.623  34.193  29.721  1.00  0.00     0.054 A 
BRANCH  71  72
ATOM     72  S   UNL A   1      33.235  35.041  28.914  1.00  0.00     0.124 S 
ATOM     73  O   UNL A   1      32.787  34.037  27.954  1.00  0.00    -0.237 OA
ATOM     74  O   UNL A   1      32.328  35.297  30.030  1.00  0.00    -0.237 OA
ATOM     75  O   UNL A   1      33.853  36.230  28.334  1.00  0.00    -0.744 OA
ENDBRANCH  71  72
ENDBRANCH  43  66
BRANCH  55  76
ATOM     76  C   UNL A   1      39.954  34.081  37.029  1.00  0.00    -0.014 A 
ATOM     77  C   UNL A   1      39.180  33.809  38.172  1.00  0.00     0.010 A 
ATOM     78  C   UNL A   1      40.555  35.346  36.896  1.00  0.00     0.010 A 
ATOM     79  C   UNL A   1      38.969  34.800  39.136  1.00  0.00     0.020 A 
ATOM     80  C   UNL A   1      40.370  36.330  37.873  1.00  0.00     0.020 A 
ATOM     81  C   UNL A   1      39.559  36.057  38.976  1.00  0.00     0.054 A 
BRANCH  81  82
ATOM     82  S   UNL A   1      39.279  37.325  40.244  1.00  0.00     0.124 S 
ATOM     83  O   UNL A   1      40.643  37.696  40.609  1.00  0.00    -0.237 OA
ATOM     84  O   UNL A   1      38.521  38.343  39.521  1.00  0.00    -0.237 OA
ATOM     85  O   UNL A   1      38.527  36.618  41.279  1.00  0.00    -0.744 OA
ENDBRANCH  81  82
ENDBRANCH  55  76
ENDBRANCH  29  30
ENDBRANCH  22  24
ENDBRANCH  21  22
ENDBRANCH  20  21
ENDBRANCH   1  20
TORSDOF 17
ENDMDL
MODEL 2
REMARK VINA RESULT:      -9.6      4.859      5.946
REMARK SMILES O=C(CSc1nc(-c2cccc(Br)c2)c[nH]1)OCCOC(=O)c1ccc(-c2c3nc(c(-c4ccc(S(=O)(=O)[O-])cc4)c4ccc([nH]4)c(-c4ccc(S(=O)(=O)[O-])cc4)c4nc(c(-c5ccc(S(=O)(=O)[O-])cc5)c5ccc2[nH]5)C=C4)C=C3)cc1
REMARK SMILES IDX 18 1 17 2 2 3 1 4 3 5 4 6 5 7 6 8 16 9 7 10 15 11 8 13 9 14
REMARK SMILES IDX 14 15 10 16 12 17 11 18 13 19 19 20 20 21 21 22 22 23 23 24
REMARK SMILES IDX 24 25 82 26 25 27 81 28 26 29 27 30 28 31 75 32 29 33 80 34
REMARK SMILES IDX 74 35 76 36 30 37 79 38 73 39 72 40 31 42 61 43 42 44 60 45
REMARK SMILES IDX 43 46 46 47 59 48 77 49 44 50 45 51 58 53 78 54 47 55 32 56
REMARK SMILES IDX 33 57 41 58 34 59 40 60 35 61 36 62 37 63 38 64 39 65 62 66
REMARK SMILES IDX 63 67 71 68 64 69 70 70 65 71 66 72 67 73 68 74 69 75 48 76
REMARK SMILES IDX 49 77 57 78 50 79 56 80 51 81 52 82 53 83 54 84 55 85
REMARK H PARENT 16 12 76 41 46 52
REMARK Flexibility Score: inf
ROOT
ATOM      1  C   UNL A   1      42.026  20.276  26.360  1.00  0.00     0.274 C 
ENDROOT
BRANCH   1   2
ATOM      2  O   UNL A   1      42.478  19.289  25.408  1.00  0.00    -0.461 OA
BRANCH   2   3
ATOM      3  C   UNL A   1      43.760  18.867  25.258  1.00  0.00     0.316 C 
ATOM      4  O   UNL A   1      44.191  17.978  25.990  1.00  0.00    -0.251 OA
BRANCH   3   5
ATOM      5  C   UNL A   1      44.603  19.467  24.155  1.00  0.00     0.200 C 
BRANCH   5   6
ATOM      6  S   UNL A   1      46.273  19.824  24.767  1.00  0.00    -0.076 SA
BRANCH   6   7
ATOM      7  C   UNL A   1      46.059  21.473  25.194  1.00  0.00     0.166 A 
ATOM      8  N   UNL A   1      46.458  22.518  24.519  1.00  0.00    -0.223 NA
ATOM      9  N   UNL A   1      45.418  21.809  26.347  1.00  0.00    -0.339 N 
ATOM     10  C   UNL A   1      46.105  23.587  25.305  1.00  0.00     0.089 A 
ATOM     11  C   UNL A   1      45.439  23.171  26.438  1.00  0.00     0.113 A 
ATOM     12  H   UNL A   1      45.016  21.185  26.995  1.00  0.00     0.168 HD
BRANCH  10  13
ATOM     13  C   UNL A   1      46.437  24.957  25.000  1.00  0.00     0.003 A 
ATOM     14  C   UNL A   1      45.473  25.964  25.112  1.00  0.00     0.010 A 
ATOM     15  C   UNL A   1      47.732  25.276  24.576  1.00  0.00     0.026 A 
ATOM     16  C   UNL A   1      45.810  27.289  24.815  1.00  0.00     0.002 A 
ATOM     17  C   UNL A   1      48.058  26.596  24.277  1.00  0.00     0.018 A 
ATOM     18  C   UNL A   1      47.103  27.606  24.396  1.00  0.00     0.016 A 
ATOM     19  Br  UNL A   1      49.813  27.016  23.716  1.00  0.00    -0.051 Br
ENDBRANCH  10  13
ENDBRANCH   6   7
ENDBRANCH   5   6
ENDBRANCH   3   5
ENDBRANCH   2   3
ENDBRANCH   1   2
BRANCH   1  20
ATOM     20  C   UNL A   1      40.506  20.431  26.321  1.00  0.00     0.275 C 
BRANCH  20  21
ATOM     21  O   UNL A   1      40.099  21.502  27.190  1.00  0.00    -0.458 OA
BRANCH  21  22
ATOM     22  C   UNL A   1      39.496  22.552  26.575  1.00  0.00     0.338 C 
ATOM     23  O   UNL A   1      38.490  22.506  25.888  1.00  0.00    -0.246 OA
BRANCH  22  24
ATOM     24  C   UNL A   1      40.141  23.814  27.006  1.00  0.00     0.060 A 
ATOM     25  C   UNL A   1      40.983  23.766  28.122  1.00  0.00     0.016 A 
ATOM     26  C   UNL A   1      39.937  25.024  26.332  1.00  0.00     0.016 A 
ATOM     27  C   UNL A   1      41.589  24.932  28.590  1.00  0.00     0.010 A 
ATOM     28  C   UNL A   1      40.553  26.192  26.800  1.00  0.00     0.010 A 
ATOM     29  C   UNL A   1      41.360  26.158  27.949  1.00  0.00    -0.014 A 
BRANCH  29  30
ATOM     30  C   UNL A   1      41.898  27.406  28.547  1.00  0.00     0.031 A 
ATOM     31  C   UNL A   1      43.387  27.596  28.658  1.00  0.00     0.074 A 
ATOM     32  C   UNL A   1      41.067  28.388  28.944  1.00  0.00     0.049 A 
ATOM     33  N   UNL A   1      44.059  28.648  29.054  1.00  0.00    -0.248 NA
ATOM     34  C   UNL A   1      44.231  26.455  28.269  1.00  0.00     0.031 C 
ATOM     35  C   UNL A   1      39.605  28.333  28.895  1.00  0.00     0.029 A 
ATOM     36  N   UNL A   1      41.339  29.630  29.462  1.00  0.00    -0.354 N 
ATOM     37  C   UNL A   1      45.401  28.306  28.940  1.00  0.00     0.074 A 
ATOM     38  C   UNL A   1      45.448  26.931  28.489  1.00  0.00     0.031 C 
ATOM     39  C   UNL A   1      39.110  29.494  29.361  1.00  0.00     0.029 A 
ATOM     40  C   UNL A   1      40.216  30.367  29.748  1.00  0.00     0.049 A 
ATOM     41  H   UNL A   1      42.254  29.961  29.613  1.00  0.00     0.167 HD
ATOM     42  C   UNL A   1      46.496  29.071  29.164  1.00  0.00     0.031 A 
ATOM     43  C   UNL A   1      40.091  31.608  30.262  1.00  0.00     0.031 A 
ATOM     44  C   UNL A   1      46.459  30.430  29.638  1.00  0.00     0.049 A 
ATOM     45  C   UNL A   1      41.326  32.421  30.553  1.00  0.00     0.074 A 
ATOM     46  C   UNL A   1      47.519  31.285  29.887  1.00  0.00     0.029 A 
ATOM     47  N   UNL A   1      45.303  31.131  29.942  1.00  0.00    -0.354 N 
ATOM     48  N   UNL A   1      42.587  32.100  30.383  1.00  0.00    -0.248 NA
ATOM     49  C   UNL A   1      41.117  33.775  31.086  1.00  0.00     0.031 C 
ATOM     50  C   UNL A   1      47.006  32.487  30.386  1.00  0.00     0.029 A 
ATOM     51  C   UNL A   1      45.623  32.399  30.397  1.00  0.00     0.049 A 
ATOM     52  H   UNL A   1      44.388  30.779  29.849  1.00  0.00     0.167 HD
ATOM     53  C   UNL A   1      43.318  33.222  30.765  1.00  0.00     0.074 A 
ATOM     54  C   UNL A   1      42.358  34.234  31.153  1.00  0.00     0.031 C 
ATOM     55  C   UNL A   1      44.663  33.397  30.793  1.00  0.00     0.031 A 
BRANCH  42  56
ATOM     56  C   UNL A   1      47.840  28.447  28.896  1.00  0.00    -0.014 A 
ATOM     57  C   UNL A   1      48.430  28.536  27.622  1.00  0.00     0.010 A 
ATOM     58  C   UNL A   1      48.543  27.811  29.934  1.00  0.00     0.010 A 
ATOM     59  C   UNL A   1      49.685  27.970  27.382  1.00  0.00     0.020 A 
ATOM     60  C   UNL A   1      49.809  27.266  29.705  1.00  0.00     0.020 A 
ATOM     61  C   UNL A   1      50.366  27.337  28.426  1.00  0.00     0.054 A 
BRANCH  61  62
ATOM     62  S   UNL A   1      52.007  26.638  28.095  1.00  0.00     0.124 S 
ATOM     63  O   UNL A   1      52.691  27.764  27.464  1.00  0.00    -0.237 OA
ATOM     64  O   UNL A   1      52.480  26.283  29.430  1.00  0.00    -0.237 OA
ATOM     65  O   UNL A   1      51.729  25.505  27.214  1.00  0.00    -0.744 OA
ENDBRANCH  61  62
ENDBRANCH  42  56
BRANCH  43  66
ATOM     66  C   UNL A   1      38.740  32.167  30.537  1.00  0.00    -0.014 A 
ATOM     67  C   UNL A   1      38.121  31.982  31.785  1.00  0.00     0.010 A 
ATOM     68  C   UNL A   1      38.052  32.869  29.530  1.00  0.00     0.010 A 
ATOM     69  C   UNL A   1      36.826  32.458  32.011  1.00  0.00     0.020 A 
ATOM     70  C   UNL A   1      36.768  33.370  29.760  1.00  0.00     0.020 A 
ATOM     71  C   UNL A   1      36.156  33.145  30.995  1.00  0.00     0.054 A 
BRANCH  71  72
ATOM     72  S   UNL A   1      34.484  33.772  31.313  1.00  0.00     0.124 S 
ATOM     73  O   UNL A   1      33.935  33.866  29.963  1.00  0.00    -0.237 OA
ATOM     74  O   UNL A   1      33.908  32.729  32.157  1.00  0.00    -0.237 OA
ATOM     75  O   UNL A   1      34.720  35.049  31.983  1.00  0.00    -0.744 OA
ENDBRANCH  71  72
ENDBRANCH  43  66
BRANCH  55  76
ATOM     76  C   UNL A   1      45.174  34.742  31.239  1.00  0.00    -0.014 A 
ATOM     77  C   UNL A   1      45.484  34.994  32.588  1.00  0.00     0.010 A 
ATOM     78  C   UNL A   1      45.367  35.765  30.291  1.00  0.00     0.010 A 
ATOM     79  C   UNL A   1      45.925  36.258  32.989  1.00  0.00     0.020 A 
ATOM     80  C   UNL A   1      45.836  37.022  30.685  1.00  0.00     0.020 A 
ATOM     81  C   UNL A   1      46.092  37.267  32.036  1.00  0.00     0.054 A 
BRANCH  81  82
ATOM     82  S   UNL A   1      46.675  38.898  32.577  1.00  0.00     0.124 S 
ATOM     83  O   UNL A   1      45.562  39.761  32.192  1.00  0.00    -0.237 OA
ATOM     84  O   UNL A   1      46.861  38.715  34.014  1.00  0.00    -0.237 OA
ATOM     85  O   UNL A   1      47.907  39.093  31.817  1.00  0.00    -0.744 OA
ENDBRANCH  81  82
ENDBRANCH  55  76
ENDBRANCH  29  30
ENDBRANCH  22  24
ENDBRANCH  21  22
ENDBRANCH  20  21
ENDBRANCH   1  20
TORSDOF 17
ENDMDL
MODEL 3
REMARK VINA RESULT:      -9.4      3.482      9.290
REMARK SMILES O=C(CSc1nc(-c2cccc(Br)c2)c[nH]1)OCCOC(=O)c1ccc(-c2c3nc(c(-c4ccc(S(=O)(=O)[O-])cc4)c4ccc([nH]4)c(-c4ccc(S(=O)(=O)[O-])cc4)c4nc(c(-c5ccc(S(=O)(=O)[O-])cc5)c5ccc2[nH]5)C=C4)C=C3)cc1
REMARK SMILES IDX 18 1 17 2 2 3 1 4 3 5 4 6 5 7 6 8 16 9 7 10 15 11 8 13 9 14
REMARK SMILES IDX 14 15 10 16 12 17 11 18 13 19 19 20 20 21 21 22 22 23 23 24
REMARK SMILES IDX 24 25 82 26 25 27 81 28 26 29 27 30 28 31 75 32 29 33 80 34
REMARK SMILES IDX 74 35 76 36 30 37 79 38 73 39 72 40 31 42 61 43 42 44 60 45
REMARK SMILES IDX 43 46 46 47 59 48 77 49 44 50 45 51 58 53 78 54 47 55 32 56
REMARK SMILES IDX 33 57 41 58 34 59 40 60 35 61 36 62 37 63 38 64 39 65 62 66
REMARK SMILES IDX 63 67 71 68 64 69 70 70 65 71 66 72 67 73 68 74 69 75 48 76
REMARK SMILES IDX 49 77 57 78 50 79 56 80 51 81 52 82 53 83 54 84 55 85
REMARK H PARENT 16 12 76 41 46 52
REMARK Flexibility Score: inf
ROOT
ATOM      1  C   UNL A   1      42.271  19.441  26.369  1.00  0.00     0.274 C 
ENDROOT
BRANCH   1   2
ATOM      2  O   UNL A   1      42.909  18.721  25.292  1.00  0.00    -0.461 OA
BRANCH   2   3
ATOM      3  C   UNL A   1      44.244  18.692  25.046  1.00  0.00     0.316 C 
ATOM      4  O   UNL A   1      44.950  17.883  25.645  1.00  0.00    -0.251 OA
BRANCH   3   5
ATOM      5  C   UNL A   1      44.815  19.622  23.998  1.00  0.00     0.200 C 
BRANCH   5   6
ATOM      6  S   UNL A   1      46.083  20.691  24.733  1.00  0.00    -0.076 SA
BRANCH   6   7
ATOM      7  C   UNL A   1      45.168  22.137  24.875  1.00  0.00     0.166 A 
ATOM      8  N   UNL A   1      45.596  23.301  25.288  1.00  0.00    -0.223 NA
ATOM      9  N   UNL A   1      43.848  22.152  24.545  1.00  0.00    -0.339 N 
ATOM     10  C   UNL A   1      44.478  24.099  25.277  1.00  0.00     0.089 A 
ATOM     11  C   UNL A   1      43.382  23.411  24.800  1.00  0.00     0.113 A 
ATOM     12  H   UNL A   1      43.325  21.397  24.191  1.00  0.00     0.168 HD
BRANCH  10  13
ATOM     13  C   UNL A   1      44.454  25.460  25.752  1.00  0.00     0.003 A 
ATOM     14  C   UNL A   1      45.539  25.986  26.460  1.00  0.00     0.010 A 
ATOM     15  C   UNL A   1      43.329  26.256  25.510  1.00  0.00     0.026 A 
ATOM     16  C   UNL A   1      45.503  27.309  26.912  1.00  0.00     0.002 A 
ATOM     17  C   UNL A   1      43.298  27.570  25.969  1.00  0.00     0.018 A 
ATOM     18  C   UNL A   1      44.380  28.102  26.668  1.00  0.00     0.016 A 
ATOM     19  Br  UNL A   1      41.775  28.638  25.628  1.00  0.00    -0.051 Br
ENDBRANCH  10  13
ENDBRANCH   6   7
ENDBRANCH   5   6
ENDBRANCH   3   5
ENDBRANCH   2   3
ENDBRANCH   1   2
BRANCH   1  20
ATOM     20  C   UNL A   1      40.785  19.661  26.086  1.00  0.00     0.275 C 
BRANCH  20  21
ATOM     21  O   UNL A   1      40.245  20.617  27.016  1.00  0.00    -0.458 OA
BRANCH  21  22
ATOM     22  C   UNL A   1      39.716  21.736  26.456  1.00  0.00     0.338 C 
ATOM     23  O   UNL A   1      38.783  21.780  25.674  1.00  0.00    -0.246 OA
BRANCH  22  24
ATOM     24  C   UNL A   1      40.328  22.934  27.075  1.00  0.00     0.060 A 
ATOM     25  C   UNL A   1      41.387  22.736  27.968  1.00  0.00     0.016 A 
ATOM     26  C   UNL A   1      39.887  24.231  26.788  1.00  0.00     0.016 A 
ATOM     27  C   UNL A   1      41.977  23.828  28.605  1.00  0.00     0.010 A 
ATOM     28  C   UNL A   1      40.486  25.326  27.423  1.00  0.00     0.010 A 
ATOM     29  C   UNL A   1      41.516  25.129  28.357  1.00  0.00    -0.014 A 
BRANCH  29  30
ATOM     30  C   UNL A   1      42.060  26.260  29.151  1.00  0.00     0.031 A 
ATOM     31  C   UNL A   1      41.216  27.486  29.373  1.00  0.00     0.074 A 
ATOM     32  C   UNL A   1      43.279  26.176  29.714  1.00  0.00     0.049 A 
ATOM     33  N   UNL A   1      41.463  28.537  30.115  1.00  0.00    -0.248 NA
ATOM     34  C   UNL A   1      39.924  27.538  28.671  1.00  0.00     0.031 C 
ATOM     35  C   UNL A   1      44.201  25.047  29.578  1.00  0.00     0.029 A 
ATOM     36  N   UNL A   1      43.949  27.060  30.524  1.00  0.00    -0.354 N 
ATOM     37  C   UNL A   1      40.351  29.360  29.991  1.00  0.00     0.074 A 
ATOM     38  C   UNL A   1      39.452  28.714  29.058  1.00  0.00     0.031 C 
ATOM     39  C   UNL A   1      45.316  25.307  30.284  1.00  0.00     0.029 A 
ATOM     40  C   UNL A   1      45.191  26.619  30.913  1.00  0.00     0.049 A 
ATOM     41  H   UNL A   1      43.574  27.927  30.800  1.00  0.00     0.167 HD
ATOM     42  C   UNL A   1      40.088  30.535  30.611  1.00  0.00     0.031 A 
ATOM     43  C   UNL A   1      46.122  27.206  31.692  1.00  0.00     0.031 A 
ATOM     44  C   UNL A   1      40.988  31.198  31.518  1.00  0.00     0.049 A 
ATOM     45  C   UNL A   1      45.827  28.539  32.330  1.00  0.00     0.074 A 
ATOM     46  C   UNL A   1      40.802  32.388  32.201  1.00  0.00     0.029 A 
ATOM     47  N   UNL A   1      42.247  30.733  31.865  1.00  0.00    -0.354 N 
ATOM     48  N   UNL A   1      44.744  29.275  32.246  1.00  0.00    -0.248 NA
ATOM     49  C   UNL A   1      46.876  29.109  33.189  1.00  0.00     0.031 C 
ATOM     50  C   UNL A   1      41.966  32.667  32.923  1.00  0.00     0.029 A 
ATOM     51  C   UNL A   1      42.857  31.623  32.734  1.00  0.00     0.049 A 
ATOM     52  H   UNL A   1      42.648  29.894  31.541  1.00  0.00     0.167 HD
ATOM     53  C   UNL A   1      44.974  30.382  33.060  1.00  0.00     0.074 A 
ATOM     54  C   UNL A   1      46.287  30.206  33.643  1.00  0.00     0.031 C 
ATOM     55  C   UNL A   1      44.170  31.447  33.301  1.00  0.00     0.031 A 
BRANCH  42  56
ATOM     56  C   UNL A   1      38.759  31.183  30.327  1.00  0.00    -0.014 A 
ATOM     57  C   UNL A   1      38.641  32.166  29.327  1.00  0.00     0.010 A 
ATOM     58  C   UNL A   1      37.610  30.776  31.028  1.00  0.00     0.010 A 
ATOM     59  C   UNL A   1      37.402  32.753  29.055  1.00  0.00     0.020 A 
ATOM     60  C   UNL A   1      36.366  31.343  30.741  1.00  0.00     0.020 A 
ATOM     61  C   UNL A   1      36.272  32.338  29.766  1.00  0.00     0.054 A 
BRANCH  61  62
ATOM     62  S   UNL A   1      34.672  33.096  29.372  1.00  0.00     0.124 S 
ATOM     63  O   UNL A   1      35.078  34.297  28.646  1.00  0.00    -0.237 OA
ATOM     64  O   UNL A   1      34.019  32.067  28.568  1.00  0.00    -0.237 OA
ATOM     65  O   UNL A   1      34.069  33.334  30.681  1.00  0.00    -0.744 OA
ENDBRANCH  61  62
ENDBRANCH  42  56
BRANCH  43  66
ATOM     66  C   UNL A   1      47.432  26.537  31.918  1.00  0.00    -0.014 A 
ATOM     67  C   UNL A   1      48.481  26.670  30.992  1.00  0.00     0.010 A 
ATOM     68  C   UNL A   1      47.624  25.735  33.058  1.00  0.00     0.010 A 
ATOM     69  C   UNL A   1      49.686  25.987  31.184  1.00  0.00     0.020 A 
ATOM     70  C   UNL A   1      48.836  25.072  33.267  1.00  0.00     0.020 A 
ATOM     71  C   UNL A   1      49.853  25.188  32.319  1.00  0.00     0.054 A 
BRANCH  71  72
ATOM     72  S   UNL A   1      51.430  24.324  32.560  1.00  0.00     0.124 S 
ATOM     73  O   UNL A   1      51.108  22.976  32.102  1.00  0.00    -0.237 OA
ATOM     74  O   UNL A   1      52.341  25.080  31.704  1.00  0.00    -0.237 OA
ATOM     75  O   UNL A   1      51.676  24.456  33.994  1.00  0.00    -0.744 OA
ENDBRANCH  71  72
ENDBRANCH  43  66
BRANCH  55  76
ATOM     76  C   UNL A   1      44.682  32.496  34.254  1.00  0.00    -0.014 A 
ATOM     77  C   UNL A   1      45.415  33.604  33.794  1.00  0.00     0.010 A 
ATOM     78  C   UNL A   1      44.408  32.381  35.630  1.00  0.00     0.010 A 
ATOM     79  C   UNL A   1      45.911  34.550  34.696  1.00  0.00     0.020 A 
ATOM     80  C   UNL A   1      44.877  33.341  36.532  1.00  0.00     0.020 A 
ATOM     81  C   UNL A   1      45.645  34.408  36.061  1.00  0.00     0.054 A 
BRANCH  81  82
ATOM     82  S   UNL A   1      46.290  35.652  37.214  1.00  0.00     0.124 S 
ATOM     83  O   UNL A   1      45.727  36.887  36.675  1.00  0.00    -0.237 OA
ATOM     84  O   UNL A   1      45.742  35.219  38.497  1.00  0.00    -0.237 OA
ATOM     85  O   UNL A   1      47.739  35.521  37.088  1.00  0.00    -0.744 OA
ENDBRANCH  81  82
ENDBRANCH  55  76
ENDBRANCH  29  30
ENDBRANCH  22  24
ENDBRANCH  21  22
ENDBRANCH  20  21
ENDBRANCH   1  20
TORSDOF 17
ENDMDL
