MODEL 1
REMARK VINA RESULT:     -10.7      0.000      0.000
REMARK SMILES CCC(CC)COc1cc2c(cc1Cl)C=C(C(=O)OCCOC(=O)c1ccc(-c3c4nc(c(-c5ccc(S(=O)(=O)[O-])cc5)c5ccc([nH]5)c(-c5ccc(S(=O)(=O)[O-])cc5)c5nc(c(-c6ccc(S(=O)(=O)[O-])cc6)c6ccc3[nH]6)C=C5)C=C4)cc1)[C@@H](C(F)(F)F)O2
REMARK SMILES IDX 20 1 19 2 17 3 18 4 16 5 8 6 9 7 13 8 10 9 12 10 14 11 11 12
REMARK SMILES IDX 90 13 15 14 85 15 7 16 6 17 3 18 2 19 1 20 4 21 5 22 86 23
REMARK SMILES IDX 87 24 88 25 89 26 21 27 22 28 23 29 24 30 25 31 26 32 84 33
REMARK SMILES IDX 27 34 83 35 28 36 29 37 30 38 77 39 31 40 82 41 76 42 78 43
REMARK SMILES IDX 32 44 81 45 75 46 74 47 33 49 63 50 44 51 62 52 45 53 48 54
REMARK SMILES IDX 61 55 79 56 46 57 47 58 60 60 80 61 49 62 34 63 35 64 43 65
REMARK SMILES IDX 36 66 42 67 37 68 38 69 39 70 40 71 41 72 64 73 65 74 73 75
REMARK SMILES IDX 66 76 72 77 67 78 68 79 69 80 70 81 71 82 50 83 51 84 59 85
REMARK SMILES IDX 52 86 58 87 53 88 54 89 55 90 56 91 57 92
REMARK H PARENT 78 48 48 59
REMARK Flexibility Score: inf
ROOT
ATOM      1  C   UNL A   1      35.744  21.309  24.695  1.00  0.00     0.275 C 
ENDROOT
BRANCH   1   2
ATOM      2  O   UNL A   1      35.529  22.739  24.673  1.00  0.00    -0.459 OA
BRANCH   2   3
ATOM      3  C   UNL A   1      34.839  23.213  25.740  1.00  0.00     0.338 C 
ATOM      4  O   UNL A   1      34.978  22.853  26.892  1.00  0.00    -0.246 OA
BRANCH   3   5
ATOM      5  C   UNL A   1      33.893  24.283  25.359  1.00  0.00     0.087 C 
ATOM      6  C   UNL A   1      31.562  28.705  25.028  1.00  0.00     0.141 A 
ATOM      7  C   UNL A   1      31.379  27.485  24.357  1.00  0.00     0.095 A 
ATOM      8  C   UNL A   1      32.443  28.781  26.111  1.00  0.00     0.083 A 
ATOM      9  C   UNL A   1      32.179  26.388  24.694  1.00  0.00     0.131 A 
ATOM     10  C   UNL A   1      33.325  27.738  26.350  1.00  0.00     0.036 A 
ATOM     11  Cl  UNL A   1      32.490  30.123  27.192  1.00  0.00    -0.080 Cl
ATOM     12  C   UNL A   1      33.207  26.557  25.621  1.00  0.00     0.019 A 
ATOM     13  O   UNL A   1      31.953  25.181  24.077  1.00  0.00    -0.475 OA
ATOM     14  C   UNL A   1      34.168  25.501  25.837  1.00  0.00     0.027 C 
ATOM     15  C   UNL A   1      32.577  24.000  24.690  1.00  0.00     0.316 C 
BRANCH   6  16
ATOM     16  O   UNL A   1      30.841  29.809  24.650  1.00  0.00    -0.492 OA
BRANCH  16  17
ATOM     17  C   UNL A   1      30.104  29.607  23.417  1.00  0.00     0.233 C 
BRANCH  17  18
ATOM     18  C   UNL A   1      28.739  30.349  23.378  1.00  0.00     0.026 C 
BRANCH  18  19
ATOM     19  C   UNL A   1      28.755  31.498  22.340  1.00  0.00     0.003 C 
ATOM     20  C   UNL A   1      28.410  31.041  20.929  1.00  0.00     0.004 C 
ENDBRANCH  18  19
BRANCH  18  21
ATOM     21  C   UNL A   1      27.550  29.387  23.156  1.00  0.00     0.003 C 
ATOM     22  C   UNL A   1      27.859  27.908  23.324  1.00  0.00     0.004 C 
ENDBRANCH  18  21
ENDBRANCH  17  18
ENDBRANCH  16  17
ENDBRANCH   6  16
BRANCH  15  23
ATOM     23  C   UNL A   1      31.634  23.337  25.715  1.00  0.00     0.430 C 
ATOM     24  F   UNL A   1      31.806  23.840  26.960  1.00  0.00    -0.167 F 
ATOM     25  F   UNL A   1      30.335  23.548  25.388  1.00  0.00    -0.167 F 
ATOM     26  F   UNL A   1      31.810  21.997  25.792  1.00  0.00    -0.167 F 
ENDBRANCH  15  23
ENDBRANCH   3   5
ENDBRANCH   2   3
ENDBRANCH   1   2
BRANCH   1  27
ATOM     27  C   UNL A   1      37.215  20.940  24.908  1.00  0.00     0.275 C 
BRANCH  27  28
ATOM     28  O   UNL A   1      37.986  22.072  25.348  1.00  0.00    -0.458 OA
BRANCH  28  29
ATOM     29  C   UNL A   1      39.112  21.771  26.034  1.00  0.00     0.338 C 
ATOM     30  O   UNL A   1      39.713  20.706  26.036  1.00  0.00    -0.246 OA
BRANCH  29  31
ATOM     31  C   UNL A   1      39.616  22.965  26.725  1.00  0.00     0.060 A 
ATOM     32  C   UNL A   1      40.552  22.888  27.749  1.00  0.00     0.016 A 
ATOM     33  C   UNL A   1      39.251  24.204  26.210  1.00  0.00     0.016 A 
ATOM     34  C   UNL A   1      41.101  24.074  28.259  1.00  0.00     0.010 A 
ATOM     35  C   UNL A   1      39.881  25.370  26.635  1.00  0.00     0.010 A 
ATOM     36  C   UNL A   1      40.800  25.331  27.687  1.00  0.00    -0.014 A 
BRANCH  36  37
ATOM     37  C   UNL A   1      41.451  26.587  28.167  1.00  0.00     0.031 A 
ATOM     38  C   UNL A   1      42.945  26.794  28.044  1.00  0.00     0.074 A 
ATOM     39  C   UNL A   1      40.700  27.545  28.753  1.00  0.00     0.049 A 
ATOM     40  N   UNL A   1      43.658  27.843  28.371  1.00  0.00    -0.248 NA
ATOM     41  C   UNL A   1      43.751  25.674  27.527  1.00  0.00     0.031 C 
ATOM     42  C   UNL A   1      39.265  27.436  29.032  1.00  0.00     0.029 A 
ATOM     43  N   UNL A   1      41.024  28.805  29.197  1.00  0.00    -0.354 N 
ATOM     44  C   UNL A   1      44.983  27.502  28.113  1.00  0.00     0.074 A 
ATOM     45  C   UNL A   1      44.988  26.126  27.682  1.00  0.00     0.031 C 
ATOM     46  C   UNL A   1      38.819  28.608  29.508  1.00  0.00     0.029 A 
ATOM     47  C   UNL A   1      39.938  29.539  29.618  1.00  0.00     0.049 A 
ATOM     48  H   UNL A   1      41.946  29.150  29.212  1.00  0.00     0.167 HD
ATOM     49  C   UNL A   1      46.092  28.278  28.182  1.00  0.00     0.031 A 
ATOM     50  C   UNL A   1      39.837  30.823  30.020  1.00  0.00     0.031 A 
ATOM     51  C   UNL A   1      46.076  29.668  28.554  1.00  0.00     0.049 A 
ATOM     52  C   UNL A   1      41.068  31.686  30.031  1.00  0.00     0.074 A 
ATOM     53  C   UNL A   1      47.133  30.560  28.567  1.00  0.00     0.029 A 
ATOM     54  N   UNL A   1      44.951  30.370  28.956  1.00  0.00    -0.354 N 
ATOM     55  N   UNL A   1      42.295  31.366  29.698  1.00  0.00    -0.248 NA
ATOM     56  C   UNL A   1      40.904  33.084  30.456  1.00  0.00     0.031 C 
ATOM     57  C   UNL A   1      46.660  31.788  29.031  1.00  0.00     0.029 A 
ATOM     58  C   UNL A   1      45.294  31.681  29.238  1.00  0.00     0.049 A 
ATOM     59  H   UNL A   1      44.045  29.994  29.030  1.00  0.00     0.167 HD
ATOM     60  C   UNL A   1      43.046  32.524  29.860  1.00  0.00     0.074 A 
ATOM     61  C   UNL A   1      42.134  33.559  30.299  1.00  0.00     0.031 C 
ATOM     62  C   UNL A   1      44.376  32.707  29.669  1.00  0.00     0.031 A 
BRANCH  49  63
ATOM     63  C   UNL A   1      47.419  27.674  27.788  1.00  0.00    -0.014 A 
ATOM     64  C   UNL A   1      48.279  27.150  28.771  1.00  0.00     0.010 A 
ATOM     65  C   UNL A   1      47.871  27.743  26.456  1.00  0.00     0.010 A 
ATOM     66  C   UNL A   1      49.574  26.738  28.438  1.00  0.00     0.020 A 
ATOM     67  C   UNL A   1      49.151  27.299  26.113  1.00  0.00     0.020 A 
ATOM     68  C   UNL A   1      50.004  26.824  27.112  1.00  0.00     0.054 A 
BRANCH  68  69
ATOM     69  S   UNL A   1      51.697  26.318  26.700  1.00  0.00     0.124 S 
ATOM     70  O   UNL A   1      52.454  26.815  27.845  1.00  0.00    -0.237 OA
ATOM     71  O   UNL A   1      51.581  24.865  26.600  1.00  0.00    -0.237 OA
ATOM     72  O   UNL A   1      51.958  27.000  25.434  1.00  0.00    -0.744 OA
ENDBRANCH  68  69
ENDBRANCH  49  63
BRANCH  50  73
ATOM     73  C   UNL A   1      38.492  31.374  30.357  1.00  0.00    -0.014 A 
ATOM     74  C   UNL A   1      37.717  32.025  29.380  1.00  0.00     0.010 A 
ATOM     75  C   UNL A   1      38.027  31.342  31.684  1.00  0.00     0.010 A 
ATOM     76  C   UNL A   1      36.538  32.687  29.733  1.00  0.00     0.020 A 
ATOM     77  C   UNL A   1      36.831  31.976  32.036  1.00  0.00     0.020 A 
ATOM     78  C   UNL A   1      36.113  32.673  31.063  1.00  0.00     0.054 A 
BRANCH  78  79
ATOM     79  S   UNL A   1      34.618  33.602  31.513  1.00  0.00     0.124 S 
ATOM     80  O   UNL A   1      35.184  34.786  32.153  1.00  0.00    -0.237 OA
ATOM     81  O   UNL A   1      33.983  33.830  30.217  1.00  0.00    -0.237 OA
ATOM     82  O   UNL A   1      33.903  32.690  32.402  1.00  0.00    -0.744 OA
ENDBRANCH  78  79
ENDBRANCH  50  73
BRANCH  62  83
ATOM     83  C   UNL A   1      44.958  34.071  29.932  1.00  0.00    -0.014 A 
ATOM     84  C   UNL A   1      45.082  34.992  28.874  1.00  0.00     0.010 A 
ATOM     85  C   UNL A   1      45.526  34.380  31.180  1.00  0.00     0.010 A 
ATOM     86  C   UNL A   1      45.803  36.175  29.045  1.00  0.00     0.020 A 
ATOM     87  C   UNL A   1      46.224  35.576  31.363  1.00  0.00     0.020 A 
ATOM     88  C   UNL A   1      46.382  36.453  30.286  1.00  0.00     0.054 A 
BRANCH  88  89
ATOM     89  S   UNL A   1      47.363  37.968  30.474  1.00  0.00     0.124 S 
ATOM     90  O   UNL A   1      47.332  38.177  31.918  1.00  0.00    -0.237 OA
ATOM     91  O   UNL A   1      48.658  37.582  29.919  1.00  0.00    -0.237 OA
ATOM     92  O   UNL A   1      46.625  38.952  29.684  1.00  0.00    -0.744 OA
ENDBRANCH  88  89
ENDBRANCH  62  83
ENDBRANCH  36  37
ENDBRANCH  29  31
ENDBRANCH  28  29
ENDBRANCH  27  28
ENDBRANCH   1  27
TORSDOF 20
ENDMDL
MODEL 2
REMARK VINA RESULT:     -10.5      5.571      6.786
REMARK SMILES CCC(CC)COc1cc2c(cc1Cl)C=C(C(=O)OCCOC(=O)c1ccc(-c3c4nc(c(-c5ccc(S(=O)(=O)[O-])cc5)c5ccc([nH]5)c(-c5ccc(S(=O)(=O)[O-])cc5)c5nc(c(-c6ccc(S(=O)(=O)[O-])cc6)c6ccc3[nH]6)C=C5)C=C4)cc1)[C@@H](C(F)(F)F)O2
REMARK SMILES IDX 20 1 19 2 17 3 18 4 16 5 8 6 9 7 13 8 10 9 12 10 14 11 11 12
REMARK SMILES IDX 90 13 15 14 85 15 7 16 6 17 3 18 2 19 1 20 4 21 5 22 86 23
REMARK SMILES IDX 87 24 88 25 89 26 21 27 22 28 23 29 24 30 25 31 26 32 84 33
REMARK SMILES IDX 27 34 83 35 28 36 29 37 30 38 77 39 31 40 82 41 76 42 78 43
REMARK SMILES IDX 32 44 81 45 75 46 74 47 33 49 63 50 44 51 62 52 45 53 48 54
REMARK SMILES IDX 61 55 79 56 46 57 47 58 60 60 80 61 49 62 34 63 35 64 43 65
REMARK SMILES IDX 36 66 42 67 37 68 38 69 39 70 40 71 41 72 64 73 65 74 73 75
REMARK SMILES IDX 66 76 72 77 67 78 68 79 69 80 70 81 71 82 50 83 51 84 59 85
REMARK SMILES IDX 52 86 58 87 53 88 54 89 55 90 56 91 57 92
REMARK H PARENT 78 48 48 59
REMARK Flexibility Score: inf
ROOT
ATOM      1  C   UNL A   1      38.030  23.652  25.281  1.00  0.00     0.275 C 
ENDROOT
BRANCH   1   2
ATOM      2  O   UNL A   1      37.330  22.388  25.212  1.00  0.00    -0.459 OA
BRANCH   2   3
ATOM      3  C   UNL A   1      36.038  22.445  25.619  1.00  0.00     0.338 C 
ATOM      4  O   UNL A   1      35.547  21.786  26.514  1.00  0.00    -0.246 OA
BRANCH   3   5
ATOM      5  C   UNL A   1      35.263  23.457  24.871  1.00  0.00     0.087 C 
ATOM      6  C   UNL A   1      32.565  27.518  23.719  1.00  0.00     0.141 A 
ATOM      7  C   UNL A   1      33.110  26.488  22.934  1.00  0.00     0.095 A 
ATOM      8  C   UNL A   1      32.603  27.427  25.114  1.00  0.00     0.083 A 
ATOM      9  C   UNL A   1      33.804  25.444  23.555  1.00  0.00     0.131 A 
ATOM     10  C   UNL A   1      33.405  26.469  25.716  1.00  0.00     0.036 A 
ATOM     11  Cl  UNL A   1      31.686  28.458  26.148  1.00  0.00    -0.080 Cl
ATOM     12  C   UNL A   1      34.024  25.499  24.931  1.00  0.00     0.019 A 
ATOM     13  O   UNL A   1      34.280  24.409  22.788  1.00  0.00    -0.475 OA
ATOM     14  C   UNL A   1      34.903  24.543  25.563  1.00  0.00     0.027 C 
ATOM     15  C   UNL A   1      34.697  23.194  23.504  1.00  0.00     0.316 C 
BRANCH   6  16
ATOM     16  O   UNL A   1      31.955  28.588  23.116  1.00  0.00    -0.492 OA
BRANCH  16  17
ATOM     17  C   UNL A   1      30.739  28.222  22.414  1.00  0.00     0.233 C 
BRANCH  17  18
ATOM     18  C   UNL A   1      29.441  28.548  23.204  1.00  0.00     0.026 C 
BRANCH  18  19
ATOM     19  C   UNL A   1      28.460  29.388  22.350  1.00  0.00     0.003 C 
ATOM     20  C   UNL A   1      27.670  30.405  23.163  1.00  0.00     0.004 C 
ENDBRANCH  18  19
BRANCH  18  21
ATOM     21  C   UNL A   1      28.767  27.282  23.780  1.00  0.00     0.003 C 
ATOM     22  C   UNL A   1      29.514  25.978  23.554  1.00  0.00     0.004 C 
ENDBRANCH  18  21
ENDBRANCH  17  18
ENDBRANCH  16  17
ENDBRANCH   6  16
BRANCH  15  23
ATOM     23  C   UNL A   1      33.531  22.193  23.635  1.00  0.00     0.430 C 
ATOM     24  F   UNL A   1      32.781  22.141  22.510  1.00  0.00    -0.167 F 
ATOM     25  F   UNL A   1      33.993  20.936  23.852  1.00  0.00    -0.167 F 
ATOM     26  F   UNL A   1      32.702  22.493  24.662  1.00  0.00    -0.167 F 
ENDBRANCH  15  23
ENDBRANCH   3   5
ENDBRANCH   2   3
ENDBRANCH   1   2
BRANCH   1  27
ATOM     27  C   UNL A   1      38.918  23.763  26.524  1.00  0.00     0.275 C 
BRANCH  27  28
ATOM     28  O   UNL A   1      38.656  24.973  27.256  1.00  0.00    -0.458 OA
BRANCH  28  29
ATOM     29  C   UNL A   1      39.692  25.839  27.329  1.00  0.00     0.338 C 
ATOM     30  O   UNL A   1      40.586  25.992  26.508  1.00  0.00    -0.246 OA
BRANCH  29  31
ATOM     31  C   UNL A   1      39.552  26.695  28.514  1.00  0.00     0.060 A 
ATOM     32  C   UNL A   1      38.834  26.296  29.635  1.00  0.00     0.016 A 
ATOM     33  C   UNL A   1      40.304  27.864  28.552  1.00  0.00     0.016 A 
ATOM     34  C   UNL A   1      38.867  27.098  30.785  1.00  0.00     0.010 A 
ATOM     35  C   UNL A   1      40.432  28.595  29.729  1.00  0.00     0.010 A 
ATOM     36  C   UNL A   1      39.695  28.242  30.862  1.00  0.00    -0.014 A 
BRANCH  36  37
ATOM     37  C   UNL A   1      39.805  29.047  32.116  1.00  0.00     0.031 A 
ATOM     38  C   UNL A   1      40.931  28.818  33.100  1.00  0.00     0.074 A 
ATOM     39  C   UNL A   1      38.863  29.975  32.396  1.00  0.00     0.049 A 
ATOM     40  N   UNL A   1      41.194  29.462  34.210  1.00  0.00    -0.248 NA
ATOM     41  C   UNL A   1      41.860  27.707  32.831  1.00  0.00     0.031 C 
ATOM     42  C   UNL A   1      37.666  30.229  31.590  1.00  0.00     0.029 A 
ATOM     43  N   UNL A   1      38.772  30.893  33.415  1.00  0.00    -0.354 N 
ATOM     44  C   UNL A   1      42.298  28.827  34.770  1.00  0.00     0.074 A 
ATOM     45  C   UNL A   1      42.609  27.699  33.925  1.00  0.00     0.031 C 
ATOM     46  C   UNL A   1      37.017  31.291  32.088  1.00  0.00     0.029 A 
ATOM     47  C   UNL A   1      37.717  31.768  33.278  1.00  0.00     0.049 A 
ATOM     48  H   UNL A   1      39.403  30.924  34.170  1.00  0.00     0.167 HD
ATOM     49  C   UNL A   1      43.021  29.176  35.862  1.00  0.00     0.031 A 
ATOM     50  C   UNL A   1      37.360  32.848  34.003  1.00  0.00     0.031 A 
ATOM     51  C   UNL A   1      42.745  30.336  36.667  1.00  0.00     0.049 A 
ATOM     52  C   UNL A   1      38.209  33.257  35.174  1.00  0.00     0.074 A 
ATOM     53  C   UNL A   1      43.472  30.823  37.739  1.00  0.00     0.029 A 
ATOM     54  N   UNL A   1      41.677  31.198  36.481  1.00  0.00    -0.354 N 
ATOM     55  N   UNL A   1      39.300  32.691  35.631  1.00  0.00    -0.248 NA
ATOM     56  C   UNL A   1      37.793  34.454  35.920  1.00  0.00     0.031 C 
ATOM     57  C   UNL A   1      42.813  31.948  38.236  1.00  0.00     0.029 A 
ATOM     58  C   UNL A   1      41.715  32.204  37.430  1.00  0.00     0.049 A 
ATOM     59  H   UNL A   1      40.993  31.109  35.779  1.00  0.00     0.167 HD
ATOM     60  C   UNL A   1      39.708  33.470  36.709  1.00  0.00     0.074 A 
ATOM     61  C   UNL A   1      38.761  34.558  36.822  1.00  0.00     0.031 C 
ATOM     62  C   UNL A   1      40.769  33.289  37.532  1.00  0.00     0.031 A 
BRANCH  49  63
ATOM     63  C   UNL A   1      44.224  28.340  36.227  1.00  0.00    -0.014 A 
ATOM     64  C   UNL A   1      45.480  28.616  35.653  1.00  0.00     0.010 A 
ATOM     65  C   UNL A   1      44.085  27.200  37.041  1.00  0.00     0.010 A 
ATOM     66  C   UNL A   1      46.561  27.753  35.858  1.00  0.00     0.020 A 
ATOM     67  C   UNL A   1      45.173  26.354  37.277  1.00  0.00     0.020 A 
ATOM     68  C   UNL A   1      46.397  26.622  36.662  1.00  0.00     0.054 A 
BRANCH  68  69
ATOM     69  S   UNL A   1      47.799  25.494  36.892  1.00  0.00     0.124 S 
ATOM     70  O   UNL A   1      48.707  26.292  37.711  1.00  0.00    -0.237 OA
ATOM     71  O   UNL A   1      47.184  24.350  37.560  1.00  0.00    -0.237 OA
ATOM     72  O   UNL A   1      48.254  25.234  35.527  1.00  0.00    -0.744 OA
ENDBRANCH  68  69
ENDBRANCH  49  63
BRANCH  50  73
ATOM     73  C   UNL A   1      36.185  33.658  33.568  1.00  0.00    -0.014 A 
ATOM     74  C   UNL A   1      34.875  33.237  33.862  1.00  0.00     0.010 A 
ATOM     75  C   UNL A   1      36.370  34.799  32.768  1.00  0.00     0.010 A 
ATOM     76  C   UNL A   1      33.775  33.902  33.312  1.00  0.00     0.020 A 
ATOM     77  C   UNL A   1      35.271  35.488  32.243  1.00  0.00     0.020 A 
ATOM     78  C   UNL A   1      33.982  35.012  32.491  1.00  0.00     0.054 A 
BRANCH  78  79
ATOM     79  S   UNL A   1      32.543  35.816  31.729  1.00  0.00     0.124 S 
ATOM     80  O   UNL A   1      32.900  37.228  31.834  1.00  0.00    -0.237 OA
ATOM     81  O   UNL A   1      32.549  35.264  30.376  1.00  0.00    -0.237 OA
ATOM     82  O   UNL A   1      31.427  35.388  32.569  1.00  0.00    -0.744 OA
ENDBRANCH  78  79
ENDBRANCH  50  73
BRANCH  62  83
ATOM     83  C   UNL A   1      40.988  34.276  38.649  1.00  0.00    -0.014 A 
ATOM     84  C   UNL A   1      40.333  34.091  39.881  1.00  0.00     0.010 A 
ATOM     85  C   UNL A   1      41.707  35.463  38.425  1.00  0.00     0.010 A 
ATOM     86  C   UNL A   1      40.353  35.094  40.853  1.00  0.00     0.020 A 
ATOM     87  C   UNL A   1      41.753  36.457  39.406  1.00  0.00     0.020 A 
ATOM     88  C   UNL A   1      41.052  36.278  40.602  1.00  0.00     0.054 A 
BRANCH  88  89
ATOM     89  S   UNL A   1      41.021  37.593  41.852  1.00  0.00     0.124 S 
ATOM     90  O   UNL A   1      39.591  37.833  42.011  1.00  0.00    -0.237 OA
ATOM     91  O   UNL A   1      41.687  36.966  42.992  1.00  0.00    -0.237 OA
ATOM     92  O   UNL A   1      41.771  38.679  41.224  1.00  0.00    -0.744 OA
ENDBRANCH  88  89
ENDBRANCH  62  83
ENDBRANCH  36  37
ENDBRANCH  29  31
ENDBRANCH  28  29
ENDBRANCH  27  28
ENDBRANCH   1  27
TORSDOF 20
ENDMDL
MODEL 3
REMARK VINA RESULT:     -10.3      1.966      3.100
REMARK SMILES CCC(CC)COc1cc2c(cc1Cl)C=C(C(=O)OCCOC(=O)c1ccc(-c3c4nc(c(-c5ccc(S(=O)(=O)[O-])cc5)c5ccc([nH]5)c(-c5ccc(S(=O)(=O)[O-])cc5)c5nc(c(-c6ccc(S(=O)(=O)[O-])cc6)c6ccc3[nH]6)C=C5)C=C4)cc1)[C@@H](C(F)(F)F)O2
REMARK SMILES IDX 20 1 19 2 17 3 18 4 16 5 8 6 9 7 13 8 10 9 12 10 14 11 11 12
REMARK SMILES IDX 90 13 15 14 85 15 7 16 6 17 3 18 2 19 1 20 4 21 5 22 86 23
REMARK SMILES IDX 87 24 88 25 89 26 21 27 22 28 23 29 24 30 25 31 26 32 84 33
REMARK SMILES IDX 27 34 83 35 28 36 29 37 30 38 77 39 31 40 82 41 76 42 78 43
REMARK SMILES IDX 32 44 81 45 75 46 74 47 33 49 63 50 44 51 62 52 45 53 48 54
REMARK SMILES IDX 61 55 79 56 46 57 47 58 60 60 80 61 49 62 34 63 35 64 43 65
REMARK SMILES IDX 36 66 42 67 37 68 38 69 39 70 40 71 41 72 64 73 65 74 73 75
REMARK SMILES IDX 66 76 72 77 67 78 68 79 69 80 70 81 71 82 50 83 51 84 59 85
REMARK SMILES IDX 52 86 58 87 53 88 54 89 55 90 56 91 57 92
REMARK H PARENT 78 48 48 59
REMARK Flexibility Score: inf
ROOT
ATOM      1  C   UNL A   1      38.393  20.981  25.305  1.00  0.00     0.275 C 
ENDROOT
BRANCH   1   2
ATOM      2  O   UNL A   1      37.101  21.532  25.653  1.00  0.00    -0.459 OA
BRANCH   2   3
ATOM      3  C   UNL A   1      36.048  20.831  25.164  1.00  0.00     0.338 C 
ATOM      4  O   UNL A   1      36.016  19.629  24.987  1.00  0.00    -0.246 OA
BRANCH   3   5
ATOM      5  C   UNL A   1      34.881  21.697  24.896  1.00  0.00     0.087 C 
ATOM      6  C   UNL A   1      31.944  25.336  23.099  1.00  0.00     0.141 A 
ATOM      7  C   UNL A   1      31.685  24.230  23.925  1.00  0.00     0.095 A 
ATOM      8  C   UNL A   1      33.261  25.662  22.763  1.00  0.00     0.083 A 
ATOM      9  C   UNL A   1      32.737  23.386  24.295  1.00  0.00     0.131 A 
ATOM     10  C   UNL A   1      34.277  24.753  23.015  1.00  0.00     0.036 A 
ATOM     11  Cl  UNL A   1      33.702  27.165  22.041  1.00  0.00    -0.080 Cl
ATOM     12  C   UNL A   1      34.004  23.606  23.756  1.00  0.00     0.019 A 
ATOM     13  O   UNL A   1      32.488  22.343  25.153  1.00  0.00    -0.475 OA
ATOM     14  C   UNL A   1      35.057  22.638  23.963  1.00  0.00     0.027 C 
ATOM     15  C   UNL A   1      33.658  21.700  25.768  1.00  0.00     0.316 C 
BRANCH   6  16
ATOM     16  O   UNL A   1      30.908  26.123  22.663  1.00  0.00    -0.492 OA
BRANCH  16  17
ATOM     17  C   UNL A   1      29.976  26.465  23.720  1.00  0.00     0.233 C 
BRANCH  17  18
ATOM     18  C   UNL A   1      29.809  27.996  23.932  1.00  0.00     0.026 C 
BRANCH  18  19
ATOM     19  C   UNL A   1      31.167  28.673  24.234  1.00  0.00     0.003 C 
ATOM     20  C   UNL A   1      31.504  28.714  25.719  1.00  0.00     0.004 C 
ENDBRANCH  18  19
BRANCH  18  21
ATOM     21  C   UNL A   1      29.073  28.677  22.755  1.00  0.00     0.003 C 
ATOM     22  C   UNL A   1      29.883  29.700  21.975  1.00  0.00     0.004 C 
ENDBRANCH  18  21
ENDBRANCH  17  18
ENDBRANCH  16  17
ENDBRANCH   6  16
BRANCH  15  23
ATOM     23  C   UNL A   1      34.014  22.358  27.117  1.00  0.00     0.430 C 
ATOM     24  F   UNL A   1      32.933  22.920  27.706  1.00  0.00    -0.167 F 
ATOM     25  F   UNL A   1      34.500  21.442  27.992  1.00  0.00    -0.167 F 
ATOM     26  F   UNL A   1      34.954  23.323  26.991  1.00  0.00    -0.167 F 
ENDBRANCH  15  23
ENDBRANCH   3   5
ENDBRANCH   2   3
ENDBRANCH   1   2
BRANCH   1  27
ATOM     27  C   UNL A   1      39.481  21.357  26.314  1.00  0.00     0.275 C 
BRANCH  27  28
ATOM     28  O   UNL A   1      40.274  20.216  26.689  1.00  0.00    -0.458 OA
BRANCH  28  29
ATOM     29  C   UNL A   1      41.502  20.158  26.125  1.00  0.00     0.338 C 
ATOM     30  O   UNL A   1      41.952  19.262  25.425  1.00  0.00    -0.246 OA
BRANCH  29  31
ATOM     31  C   UNL A   1      42.229  21.411  26.372  1.00  0.00     0.060 A 
ATOM     32  C   UNL A   1      42.466  22.340  25.366  1.00  0.00     0.016 A 
ATOM     33  C   UNL A   1      42.534  21.724  27.692  1.00  0.00     0.016 A 
ATOM     34  C   UNL A   1      43.032  23.578  25.704  1.00  0.00     0.010 A 
ATOM     35  C   UNL A   1      42.984  22.994  28.041  1.00  0.00     0.010 A 
ATOM     36  C   UNL A   1      43.267  23.938  27.050  1.00  0.00    -0.014 A 
BRANCH  36  37
ATOM     37  C   UNL A   1      43.783  25.290  27.422  1.00  0.00     0.031 A 
ATOM     38  C   UNL A   1      45.233  25.664  27.204  1.00  0.00     0.074 A 
ATOM     39  C   UNL A   1      42.951  26.186  27.995  1.00  0.00     0.049 A 
ATOM     40  N   UNL A   1      45.828  26.809  27.430  1.00  0.00    -0.248 NA
ATOM     41  C   UNL A   1      46.143  24.618  26.705  1.00  0.00     0.031 C 
ATOM     42  C   UNL A   1      41.556  25.926  28.360  1.00  0.00     0.029 A 
ATOM     43  N   UNL A   1      43.141  27.501  28.349  1.00  0.00    -0.354 N 
ATOM     44  C   UNL A   1      47.170  26.612  27.118  1.00  0.00     0.074 A 
ATOM     45  C   UNL A   1      47.321  25.221  26.764  1.00  0.00     0.031 C 
ATOM     46  C   UNL A   1      40.994  27.064  28.794  1.00  0.00     0.029 A 
ATOM     47  C   UNL A   1      41.995  28.127  28.788  1.00  0.00     0.049 A 
ATOM     48  H   UNL A   1      44.014  27.953  28.292  1.00  0.00     0.167 HD
ATOM     49  C   UNL A   1      48.179  27.516  27.080  1.00  0.00     0.031 A 
ATOM     50  C   UNL A   1      41.759  29.411  29.123  1.00  0.00     0.031 A 
ATOM     51  C   UNL A   1      48.012  28.915  27.374  1.00  0.00     0.049 A 
ATOM     52  C   UNL A   1      42.874  30.414  29.016  1.00  0.00     0.074 A 
ATOM     53  C   UNL A   1      48.952  29.925  27.278  1.00  0.00     0.029 A 
ATOM     54  N   UNL A   1      46.832  29.503  27.799  1.00  0.00    -0.354 N 
ATOM     55  N   UNL A   1      44.114  30.221  28.633  1.00  0.00    -0.248 NA
ATOM     56  C   UNL A   1      42.563  31.806  29.371  1.00  0.00     0.031 C 
ATOM     57  C   UNL A   1      48.357  31.115  27.698  1.00  0.00     0.029 A 
ATOM     58  C   UNL A   1      47.025  30.860  27.987  1.00  0.00     0.049 A 
ATOM     59  H   UNL A   1      45.983  29.027  27.945  1.00  0.00     0.167 HD
ATOM     60  C   UNL A   1      44.726  31.468  28.688  1.00  0.00     0.074 A 
ATOM     61  C   UNL A   1      43.716  32.412  29.118  1.00  0.00     0.031 C 
ATOM     62  C   UNL A   1      46.012  31.795  28.412  1.00  0.00     0.031 A 
BRANCH  49  63
ATOM     63  C   UNL A   1      49.548  27.051  26.646  1.00  0.00    -0.014 A 
ATOM     64  C   UNL A   1      49.844  26.894  25.279  1.00  0.00     0.010 A 
ATOM     65  C   UNL A   1      50.502  26.645  27.598  1.00  0.00     0.010 A 
ATOM     66  C   UNL A   1      51.049  26.313  24.873  1.00  0.00     0.020 A 
ATOM     67  C   UNL A   1      51.723  26.095  27.196  1.00  0.00     0.020 A 
ATOM     68  C   UNL A   1      51.977  25.908  25.836  1.00  0.00     0.054 A 
BRANCH  68  69
ATOM     69  S   UNL A   1      53.521  25.124  25.296  1.00  0.00     0.124 S 
ATOM     70  O   UNL A   1      54.465  25.564  26.319  1.00  0.00    -0.237 OA
ATOM     71  O   UNL A   1      53.184  23.703  25.317  1.00  0.00    -0.237 OA
ATOM     72  O   UNL A   1      53.739  25.682  23.963  1.00  0.00    -0.744 OA
ENDBRANCH  68  69
ENDBRANCH  49  63
BRANCH  50  73
ATOM     73  C   UNL A   1      40.376  29.819  29.504  1.00  0.00    -0.014 A 
ATOM     74  C   UNL A   1      39.388  30.016  28.521  1.00  0.00     0.010 A 
ATOM     75  C   UNL A   1      40.069  30.115  30.845  1.00  0.00     0.010 A 
ATOM     76  C   UNL A   1      38.145  30.559  28.861  1.00  0.00     0.020 A 
ATOM     77  C   UNL A   1      38.816  30.628  31.194  1.00  0.00     0.020 A 
ATOM     78  C   UNL A   1      37.875  30.879  30.193  1.00  0.00     0.054 A 
BRANCH  78  79
ATOM     79  S   UNL A   1      36.283  31.651  30.601  1.00  0.00     0.124 S 
ATOM     80  O   UNL A   1      35.466  31.277  29.449  1.00  0.00    -0.237 OA
ATOM     81  O   UNL A   1      35.927  31.003  31.861  1.00  0.00    -0.237 OA
ATOM     82  O   UNL A   1      36.608  33.071  30.703  1.00  0.00    -0.744 OA
ENDBRANCH  78  79
ENDBRANCH  50  73
BRANCH  62  83
ATOM     83  C   UNL A   1      46.436  33.232  28.565  1.00  0.00    -0.014 A 
ATOM     84  C   UNL A   1      46.897  33.694  29.812  1.00  0.00     0.010 A 
ATOM     85  C   UNL A   1      46.225  34.156  27.526  1.00  0.00     0.010 A 
ATOM     86  C   UNL A   1      47.096  35.059  30.033  1.00  0.00     0.020 A 
ATOM     87  C   UNL A   1      46.452  35.519  27.735  1.00  0.00     0.020 A 
ATOM     88  C   UNL A   1      46.858  35.964  28.996  1.00  0.00     0.054 A 
BRANCH  88  89
ATOM     89  S   UNL A   1      47.068  37.737  29.318  1.00  0.00     0.124 S 
ATOM     90  O   UNL A   1      48.443  37.967  28.886  1.00  0.00    -0.237 OA
ATOM     91  O   UNL A   1      46.034  38.339  28.480  1.00  0.00    -0.237 OA
ATOM     92  O   UNL A   1      46.838  37.852  30.757  1.00  0.00    -0.744 OA
ENDBRANCH  88  89
ENDBRANCH  62  83
ENDBRANCH  36  37
ENDBRANCH  29  31
ENDBRANCH  28  29
ENDBRANCH  27  28
ENDBRANCH   1  27
TORSDOF 20
ENDMDL
