MODEL 1
REMARK VINA RESULT:     -11.8      0.000      0.000
REMARK SMILES [NH3+][C@H](CS[C@@H]1CC(=O)N(c2ccc3ccccc3c2)C1=O)C(=O)OCCOC(=O)c1ccc(-c2c3nc(c(-c4ccc(S(=O)(=O)[O-])cc4)c4ccc([nH]4)c(-c4ccc(S(=O)(=O)[O-])cc4)c4nc(c(-c5ccc(S(=O)(=O)[O-])cc5)c5ccc2[nH]5)C=C4)C=C3)cc1
REMARK SMILES IDX 25 1 24 2 22 3 23 4 2 5 1 6 3 10 4 11 5 12 6 13 20 14 7 15
REMARK SMILES IDX 9 16 21 17 8 18 10 19 11 20 19 21 12 22 18 23 13 24 17 25
REMARK SMILES IDX 14 26 16 27 15 28 26 29 27 30 28 31 29 32 30 33 31 34 89 35
REMARK SMILES IDX 32 36 88 37 33 38 34 39 35 40 82 41 36 42 87 43 81 44 83 45
REMARK SMILES IDX 37 46 86 47 80 48 79 49 38 51 68 52 49 53 67 54 50 55 53 56
REMARK SMILES IDX 66 57 84 58 51 59 52 60 65 62 85 63 54 64 39 65 40 66 48 67
REMARK SMILES IDX 41 68 47 69 42 70 43 71 44 72 45 73 46 74 69 75 70 76 78 77
REMARK SMILES IDX 71 78 77 79 72 80 73 81 74 82 75 83 76 84 55 85 56 86 64 87
REMARK SMILES IDX 57 88 63 89 58 90 59 91 60 92 61 93 62 94
REMARK H PARENT 1 7 1 8 1 9 83 50 53 61
REMARK Flexibility Score: inf
ROOT
ATOM      1  C   UNL A   1      33.596  30.510  27.223  1.00  0.00     0.274 C 
ENDROOT
BRANCH   1   2
ATOM      2  O   UNL A   1      32.513  29.611  26.874  1.00  0.00    -0.458 OA
BRANCH   2   3
ATOM      3  C   UNL A   1      32.209  29.551  25.545  1.00  0.00     0.365 C 
ATOM      4  O   UNL A   1      31.249  30.134  25.043  1.00  0.00    -0.245 OA
BRANCH   3   5
ATOM      5  C   UNL A   1      33.184  28.697  24.701  1.00  0.00     0.301 C 
BRANCH   5   6
ATOM      6  N   UNL A   1      33.577  29.439  23.477  1.00  0.00    -0.345 N 
ATOM      7  H   UNL A   1      33.245  28.935  22.653  1.00  0.00     0.345 HD
ATOM      8  H   UNL A   1      34.593  29.520  23.440  1.00  0.00     0.345 HD
ATOM      9  H   UNL A   1      33.161  30.369  23.494  1.00  0.00     0.345 HD
ENDBRANCH   5   6
BRANCH   5  10
ATOM     10  C   UNL A   1      32.878  27.211  24.403  1.00  0.00     0.147 C 
BRANCH  10  11
ATOM     11  S   UNL A   1      31.149  26.693  24.018  1.00  0.00    -0.141 SA
BRANCH  11  12
ATOM     12  C   UNL A   1      31.027  25.072  24.847  1.00  0.00     0.146 C 
ATOM     13  C   UNL A   1      31.429  25.036  26.299  1.00  0.00     0.125 C 
ATOM     14  C   UNL A   1      31.952  23.992  24.291  1.00  0.00     0.247 C 
ATOM     15  C   UNL A   1      31.692  23.592  26.517  1.00  0.00     0.235 C 
ATOM     16  N   UNL A   1      32.170  23.096  25.328  1.00  0.00    -0.250 N 
ATOM     17  O   UNL A   1      32.317  23.896  23.128  1.00  0.00    -0.273 OA
ATOM     18  O   UNL A   1      31.556  23.050  27.603  1.00  0.00    -0.274 OA
BRANCH  16  19
ATOM     19  C   UNL A   1      32.885  21.878  25.259  1.00  0.00     0.052 A 
ATOM     20  C   UNL A   1      34.278  21.863  25.419  1.00  0.00     0.027 A 
ATOM     21  C   UNL A   1      32.239  20.694  24.891  1.00  0.00     0.035 A 
ATOM     22  C   UNL A   1      35.020  20.708  25.176  1.00  0.00     0.011 A 
ATOM     23  C   UNL A   1      32.979  19.539  24.580  1.00  0.00    -0.016 A 
ATOM     24  C   UNL A   1      34.386  19.549  24.725  1.00  0.00    -0.018 A 
ATOM     25  C   UNL A   1      32.355  18.390  24.076  1.00  0.00     0.009 A 
ATOM     26  C   UNL A   1      35.127  18.410  24.381  1.00  0.00     0.009 A 
ATOM     27  C   UNL A   1      33.108  17.270  23.715  1.00  0.00     0.001 A 
ATOM     28  C   UNL A   1      34.491  17.280  23.870  1.00  0.00     0.001 A 
ENDBRANCH  16  19
ENDBRANCH  11  12
ENDBRANCH  10  11
ENDBRANCH   5  10
ENDBRANCH   3   5
ENDBRANCH   2   3
ENDBRANCH   1   2
BRANCH   1  29
ATOM     29  C   UNL A   1      34.815  29.753  27.785  1.00  0.00     0.275 C 
BRANCH  29  30
ATOM     30  O   UNL A   1      35.699  30.503  28.652  1.00  0.00    -0.458 OA
BRANCH  30  31
ATOM     31  C   UNL A   1      36.418  29.810  29.547  1.00  0.00     0.338 C 
ATOM     32  O   UNL A   1      36.046  29.408  30.645  1.00  0.00    -0.246 OA
BRANCH  31  33
ATOM     33  C   UNL A   1      37.793  29.525  29.178  1.00  0.00     0.060 A 
ATOM     34  C   UNL A   1      38.687  29.386  30.251  1.00  0.00     0.016 A 
ATOM     35  C   UNL A   1      38.236  29.559  27.857  1.00  0.00     0.016 A 
ATOM     36  C   UNL A   1      40.038  29.256  30.007  1.00  0.00     0.010 A 
ATOM     37  C   UNL A   1      39.595  29.393  27.610  1.00  0.00     0.010 A 
ATOM     38  C   UNL A   1      40.487  29.220  28.684  1.00  0.00    -0.014 A 
BRANCH  38  39
ATOM     39  C   UNL A   1      41.879  28.829  28.430  1.00  0.00     0.031 A 
ATOM     40  C   UNL A   1      42.973  29.838  28.459  1.00  0.00     0.074 A 
ATOM     41  C   UNL A   1      42.096  27.530  28.163  1.00  0.00     0.049 A 
ATOM     42  N   UNL A   1      44.234  29.679  28.163  1.00  0.00    -0.248 NA
ATOM     43  C   UNL A   1      42.609  31.204  28.866  1.00  0.00     0.031 C 
ATOM     44  C   UNL A   1      41.059  26.488  28.159  1.00  0.00     0.029 A 
ATOM     45  N   UNL A   1      43.240  26.861  27.836  1.00  0.00    -0.354 N 
ATOM     46  C   UNL A   1      44.817  30.928  28.322  1.00  0.00     0.074 A 
ATOM     47  C   UNL A   1      43.770  31.836  28.742  1.00  0.00     0.031 C 
ATOM     48  C   UNL A   1      41.617  25.313  27.842  1.00  0.00     0.029 A 
ATOM     49  C   UNL A   1      43.030  25.531  27.565  1.00  0.00     0.049 A 
ATOM     50  H   UNL A   1      44.126  27.288  27.800  1.00  0.00     0.167 HD
ATOM     51  C   UNL A   1      46.110  31.270  28.113  1.00  0.00     0.031 A 
ATOM     52  C   UNL A   1      43.879  24.599  27.102  1.00  0.00     0.031 A 
ATOM     53  C   UNL A   1      47.108  30.336  27.664  1.00  0.00     0.049 A 
ATOM     54  C   UNL A   1      45.295  25.012  26.848  1.00  0.00     0.074 A 
ATOM     55  C   UNL A   1      48.448  30.559  27.402  1.00  0.00     0.029 A 
ATOM     56  N   UNL A   1      46.866  28.992  27.401  1.00  0.00    -0.354 N 
ATOM     57  N   UNL A   1      45.837  26.199  26.994  1.00  0.00    -0.248 NA
ATOM     58  C   UNL A   1      46.213  23.974  26.374  1.00  0.00     0.031 C 
ATOM     59  C   UNL A   1      49.005  29.358  26.945  1.00  0.00     0.029 A 
ATOM     60  C   UNL A   1      48.026  28.375  26.967  1.00  0.00     0.049 A 
ATOM     61  H   UNL A   1      45.996  28.545  27.509  1.00  0.00     0.167 HD
ATOM     62  C   UNL A   1      47.170  26.050  26.643  1.00  0.00     0.074 A 
ATOM     63  C   UNL A   1      47.349  24.654  26.287  1.00  0.00     0.031 C 
ATOM     64  C   UNL A   1      48.155  26.980  26.619  1.00  0.00     0.031 A 
BRANCH  51  65
ATOM     65  C   UNL A   1      46.479  32.716  28.308  1.00  0.00    -0.014 A 
ATOM     66  C   UNL A   1      46.387  33.645  27.255  1.00  0.00     0.010 A 
ATOM     67  C   UNL A   1      46.942  33.151  29.563  1.00  0.00     0.010 A 
ATOM     68  C   UNL A   1      46.802  34.969  27.441  1.00  0.00     0.020 A 
ATOM     69  C   UNL A   1      47.337  34.478  29.759  1.00  0.00     0.020 A 
ATOM     70  C   UNL A   1      47.287  35.373  28.688  1.00  0.00     0.054 A 
BRANCH  70  71
ATOM     71  S   UNL A   1      47.841  37.088  28.899  1.00  0.00     0.124 S 
ATOM     72  O   UNL A   1      47.572  37.655  27.579  1.00  0.00    -0.237 OA
ATOM     73  O   UNL A   1      46.986  37.576  29.977  1.00  0.00    -0.237 OA
ATOM     74  O   UNL A   1      49.255  36.954  29.242  1.00  0.00    -0.744 OA
ENDBRANCH  70  71
ENDBRANCH  51  65
BRANCH  52  75
ATOM     75  C   UNL A   1      43.375  23.227  26.845  1.00  0.00    -0.014 A 
ATOM     76  C   UNL A   1      43.346  22.709  25.540  1.00  0.00     0.010 A 
ATOM     77  C   UNL A   1      43.038  22.386  27.924  1.00  0.00     0.010 A 
ATOM     78  C   UNL A   1      42.997  21.374  25.319  1.00  0.00     0.020 A 
ATOM     79  C   UNL A   1      42.713  21.045  27.708  1.00  0.00     0.020 A 
ATOM     80  C   UNL A   1      42.691  20.548  26.405  1.00  0.00     0.054 A 
BRANCH  80  81
ATOM     81  S   UNL A   1      42.344  18.792  26.103  1.00  0.00     0.124 S 
ATOM     82  O   UNL A   1      42.587  18.206  27.417  1.00  0.00    -0.237 OA
ATOM     83  O   UNL A   1      40.950  18.814  25.668  1.00  0.00    -0.237 OA
ATOM     84  O   UNL A   1      43.305  18.427  25.065  1.00  0.00    -0.744 OA
ENDBRANCH  80  81
ENDBRANCH  52  75
BRANCH  64  85
ATOM     85  C   UNL A   1      49.520  26.499  26.221  1.00  0.00    -0.014 A 
ATOM     86  C   UNL A   1      50.012  26.716  24.923  1.00  0.00     0.010 A 
ATOM     87  C   UNL A   1      50.336  25.875  27.181  1.00  0.00     0.010 A 
ATOM     88  C   UNL A   1      51.300  26.297  24.585  1.00  0.00     0.020 A 
ATOM     89  C   UNL A   1      51.631  25.475  26.851  1.00  0.00     0.020 A 
ATOM     90  C   UNL A   1      52.100  25.680  25.552  1.00  0.00     0.054 A 
BRANCH  90  91
ATOM     91  S   UNL A   1      53.792  25.201  25.109  1.00  0.00     0.124 S 
ATOM     92  O   UNL A   1      54.001  25.942  23.869  1.00  0.00    -0.237 OA
ATOM     93  O   UNL A   1      54.569  25.662  26.257  1.00  0.00    -0.237 OA
ATOM     94  O   UNL A   1      53.711  23.749  24.963  1.00  0.00    -0.744 OA
ENDBRANCH  90  91
ENDBRANCH  64  85
ENDBRANCH  38  39
ENDBRANCH  31  33
ENDBRANCH  30  31
ENDBRANCH  29  30
ENDBRANCH   1  29
TORSDOF 19
ENDMDL
MODEL 2
REMARK VINA RESULT:     -11.5      3.203      4.018
REMARK SMILES [NH3+][C@H](CS[C@@H]1CC(=O)N(c2ccc3ccccc3c2)C1=O)C(=O)OCCOC(=O)c1ccc(-c2c3nc(c(-c4ccc(S(=O)(=O)[O-])cc4)c4ccc([nH]4)c(-c4ccc(S(=O)(=O)[O-])cc4)c4nc(c(-c5ccc(S(=O)(=O)[O-])cc5)c5ccc2[nH]5)C=C4)C=C3)cc1
REMARK SMILES IDX 25 1 24 2 22 3 23 4 2 5 1 6 3 10 4 11 5 12 6 13 20 14 7 15
REMARK SMILES IDX 9 16 21 17 8 18 10 19 11 20 19 21 12 22 18 23 13 24 17 25
REMARK SMILES IDX 14 26 16 27 15 28 26 29 27 30 28 31 29 32 30 33 31 34 89 35
REMARK SMILES IDX 32 36 88 37 33 38 34 39 35 40 82 41 36 42 87 43 81 44 83 45
REMARK SMILES IDX 37 46 86 47 80 48 79 49 38 51 68 52 49 53 67 54 50 55 53 56
REMARK SMILES IDX 66 57 84 58 51 59 52 60 65 62 85 63 54 64 39 65 40 66 48 67
REMARK SMILES IDX 41 68 47 69 42 70 43 71 44 72 45 73 46 74 69 75 70 76 78 77
REMARK SMILES IDX 71 78 77 79 72 80 73 81 74 82 75 83 76 84 55 85 56 86 64 87
REMARK SMILES IDX 57 88 63 89 58 90 59 91 60 92 61 93 62 94
REMARK H PARENT 1 7 1 8 1 9 83 50 53 61
REMARK Flexibility Score: inf
ROOT
ATOM      1  C   UNL A   1      32.917  29.383  25.007  1.00  0.00     0.274 C 
ENDROOT
BRANCH   1   2
ATOM      2  O   UNL A   1      33.263  28.184  24.268  1.00  0.00    -0.458 OA
BRANCH   2   3
ATOM      3  C   UNL A   1      32.921  28.194  22.946  1.00  0.00     0.365 C 
ATOM      4  O   UNL A   1      33.730  28.015  22.036  1.00  0.00    -0.245 OA
BRANCH   3   5
ATOM      5  C   UNL A   1      31.419  28.434  22.672  1.00  0.00     0.301 C 
BRANCH   5   6
ATOM      6  N   UNL A   1      31.233  29.724  21.962  1.00  0.00    -0.345 N 
ATOM      7  H   UNL A   1      31.931  30.395  22.287  1.00  0.00     0.345 HD
ATOM      8  H   UNL A   1      30.299  30.086  22.154  1.00  0.00     0.345 HD
ATOM      9  H   UNL A   1      31.343  29.580  20.959  1.00  0.00     0.345 HD
ENDBRANCH   5   6
BRANCH   5  10
ATOM     10  C   UNL A   1      30.369  28.234  23.790  1.00  0.00     0.147 C 
BRANCH  10  11
ATOM     11  S   UNL A   1      29.126  26.878  23.643  1.00  0.00    -0.141 SA
BRANCH  11  12
ATOM     12  C   UNL A   1      29.915  25.513  24.563  1.00  0.00     0.146 C 
ATOM     13  C   UNL A   1      30.450  25.856  25.929  1.00  0.00     0.125 C 
ATOM     14  C   UNL A   1      31.179  24.949  23.918  1.00  0.00     0.247 C 
ATOM     15  C   UNL A   1      31.413  24.754  26.175  1.00  0.00     0.235 C 
ATOM     16  N   UNL A   1      31.930  24.404  24.951  1.00  0.00    -0.250 N 
ATOM     17  O   UNL A   1      31.404  24.895  22.718  1.00  0.00    -0.273 OA
ATOM     18  O   UNL A   1      31.689  24.354  27.295  1.00  0.00    -0.274 OA
BRANCH  16  19
ATOM     19  C   UNL A   1      33.137  23.679  24.828  1.00  0.00     0.052 A 
ATOM     20  C   UNL A   1      33.115  22.310  24.527  1.00  0.00     0.027 A 
ATOM     21  C   UNL A   1      34.362  24.278  25.140  1.00  0.00     0.035 A 
ATOM     22  C   UNL A   1      34.277  21.541  24.578  1.00  0.00     0.011 A 
ATOM     23  C   UNL A   1      35.530  23.503  25.260  1.00  0.00    -0.016 A 
ATOM     24  C   UNL A   1      35.484  22.118  24.975  1.00  0.00    -0.018 A 
ATOM     25  C   UNL A   1      36.732  24.066  25.709  1.00  0.00     0.009 A 
ATOM     26  C   UNL A   1      36.639  21.339  25.129  1.00  0.00     0.009 A 
ATOM     27  C   UNL A   1      37.870  23.274  25.880  1.00  0.00     0.001 A 
ATOM     28  C   UNL A   1      37.823  21.914  25.587  1.00  0.00     0.001 A 
ENDBRANCH  16  19
ENDBRANCH  11  12
ENDBRANCH  10  11
ENDBRANCH   5  10
ENDBRANCH   3   5
ENDBRANCH   2   3
ENDBRANCH   1   2
BRANCH   1  29
ATOM     29  C   UNL A   1      33.581  29.415  26.397  1.00  0.00     0.275 C 
BRANCH  29  30
ATOM     30  O   UNL A   1      34.531  30.480  26.637  1.00  0.00    -0.458 OA
BRANCH  30  31
ATOM     31  C   UNL A   1      34.829  30.764  27.913  1.00  0.00     0.338 C 
ATOM     32  O   UNL A   1      34.152  31.410  28.706  1.00  0.00    -0.246 OA
BRANCH  31  33
ATOM     33  C   UNL A   1      36.105  30.265  28.396  1.00  0.00     0.060 A 
ATOM     34  C   UNL A   1      37.155  30.300  27.466  1.00  0.00     0.016 A 
ATOM     35  C   UNL A   1      36.243  29.637  29.632  1.00  0.00     0.016 A 
ATOM     36  C   UNL A   1      38.367  29.720  27.776  1.00  0.00     0.010 A 
ATOM     37  C   UNL A   1      37.477  29.083  29.959  1.00  0.00     0.010 A 
ATOM     38  C   UNL A   1      38.539  29.147  29.038  1.00  0.00    -0.014 A 
BRANCH  38  39
ATOM     39  C   UNL A   1      39.896  28.764  29.451  1.00  0.00     0.031 A 
ATOM     40  C   UNL A   1      40.766  29.718  30.192  1.00  0.00     0.074 A 
ATOM     41  C   UNL A   1      40.298  27.527  29.113  1.00  0.00     0.049 A 
ATOM     42  N   UNL A   1      42.014  29.576  30.543  1.00  0.00    -0.248 NA
ATOM     43  C   UNL A   1      40.163  31.001  30.587  1.00  0.00     0.031 C 
ATOM     44  C   UNL A   1      39.467  26.535  28.416  1.00  0.00     0.029 A 
ATOM     45  N   UNL A   1      41.492  26.892  29.293  1.00  0.00    -0.354 N 
ATOM     46  C   UNL A   1      42.362  30.759  31.180  1.00  0.00     0.074 A 
ATOM     47  C   UNL A   1      41.189  31.609  31.167  1.00  0.00     0.031 C 
ATOM     48  C   UNL A   1      40.181  25.418  28.227  1.00  0.00     0.029 A 
ATOM     49  C   UNL A   1      41.528  25.639  28.734  1.00  0.00     0.049 A 
ATOM     50  H   UNL A   1      42.251  27.292  29.777  1.00  0.00     0.167 HD
ATOM     51  C   UNL A   1      43.563  31.094  31.705  1.00  0.00     0.031 A 
ATOM     52  C   UNL A   1      42.552  24.779  28.606  1.00  0.00     0.031 A 
ATOM     53  C   UNL A   1      44.710  30.224  31.664  1.00  0.00     0.049 A 
ATOM     54  C   UNL A   1      43.879  25.187  29.167  1.00  0.00     0.074 A 
ATOM     55  C   UNL A   1      45.986  30.449  32.147  1.00  0.00     0.029 A 
ATOM     56  N   UNL A   1      44.715  28.956  31.093  1.00  0.00    -0.354 N 
ATOM     57  N   UNL A   1      44.201  26.312  29.761  1.00  0.00    -0.248 NA
ATOM     58  C   UNL A   1      44.974  24.222  29.046  1.00  0.00     0.031 C 
ATOM     59  C   UNL A   1      46.771  29.332  31.834  1.00  0.00     0.029 A 
ATOM     60  C   UNL A   1      45.973  28.391  31.198  1.00  0.00     0.049 A 
ATOM     61  H   UNL A   1      43.935  28.523  30.675  1.00  0.00     0.167 HD
ATOM     62  C   UNL A   1      45.539  26.188  30.103  1.00  0.00     0.074 A 
ATOM     63  C   UNL A   1      45.958  24.872  29.654  1.00  0.00     0.031 C 
ATOM     64  C   UNL A   1      46.346  27.077  30.732  1.00  0.00     0.031 A 
BRANCH  51  65
ATOM     65  C   UNL A   1      43.696  32.470  32.299  1.00  0.00    -0.014 A 
ATOM     66  C   UNL A   1      44.045  33.580  31.509  1.00  0.00     0.010 A 
ATOM     67  C   UNL A   1      43.483  32.655  33.677  1.00  0.00     0.010 A 
ATOM     68  C   UNL A   1      44.230  34.837  32.095  1.00  0.00     0.020 A 
ATOM     69  C   UNL A   1      43.646  33.913  34.264  1.00  0.00     0.020 A 
ATOM     70  C   UNL A   1      44.042  34.992  33.472  1.00  0.00     0.054 A 
BRANCH  70  71
ATOM     71  S   UNL A   1      44.311  36.626  34.214  1.00  0.00     0.124 S 
ATOM     72  O   UNL A   1      43.182  37.386  33.685  1.00  0.00    -0.237 OA
ATOM     73  O   UNL A   1      44.262  36.344  35.646  1.00  0.00    -0.237 OA
ATOM     74  O   UNL A   1      45.622  37.024  33.706  1.00  0.00    -0.744 OA
ENDBRANCH  70  71
ENDBRANCH  51  65
BRANCH  52  75
ATOM     75  C   UNL A   1      42.330  23.490  27.904  1.00  0.00    -0.014 A 
ATOM     76  C   UNL A   1      42.732  23.325  26.569  1.00  0.00     0.010 A 
ATOM     77  C   UNL A   1      41.825  22.381  28.611  1.00  0.00     0.010 A 
ATOM     78  C   UNL A   1      42.642  22.072  25.956  1.00  0.00     0.020 A 
ATOM     79  C   UNL A   1      41.757  21.123  28.009  1.00  0.00     0.020 A 
ATOM     80  C   UNL A   1      42.163  20.977  26.682  1.00  0.00     0.054 A 
BRANCH  80  81
ATOM     81  S   UNL A   1      42.154  19.339  25.899  1.00  0.00     0.124 S 
ATOM     82  O   UNL A   1      40.737  19.151  25.609  1.00  0.00    -0.237 OA
ATOM     83  O   UNL A   1      43.016  19.538  24.737  1.00  0.00    -0.237 OA
ATOM     84  O   UNL A   1      42.707  18.464  26.930  1.00  0.00    -0.744 OA
ENDBRANCH  80  81
ENDBRANCH  52  75
BRANCH  64  85
ATOM     85  C   UNL A   1      47.755  26.633  30.993  1.00  0.00    -0.014 A 
ATOM     86  C   UNL A   1      48.734  26.707  29.988  1.00  0.00     0.010 A 
ATOM     87  C   UNL A   1      48.110  26.192  32.280  1.00  0.00     0.010 A 
ATOM     88  C   UNL A   1      50.049  26.328  30.264  1.00  0.00     0.020 A 
ATOM     89  C   UNL A   1      49.428  25.834  32.563  1.00  0.00     0.020 A 
ATOM     90  C   UNL A   1      50.386  25.895  31.550  1.00  0.00     0.054 A 
BRANCH  90  91
ATOM     91  S   UNL A   1      52.113  25.467  31.902  1.00  0.00     0.124 S 
ATOM     92  O   UNL A   1      52.797  25.973  30.716  1.00  0.00    -0.237 OA
ATOM     93  O   UNL A   1      52.379  26.194  33.141  1.00  0.00    -0.237 OA
ATOM     94  O   UNL A   1      52.086  24.012  32.035  1.00  0.00    -0.744 OA
ENDBRANCH  90  91
ENDBRANCH  64  85
ENDBRANCH  38  39
ENDBRANCH  31  33
ENDBRANCH  30  31
ENDBRANCH  29  30
ENDBRANCH   1  29
TORSDOF 19
ENDMDL
MODEL 3
REMARK VINA RESULT:     -11.3      1.972      8.805
REMARK SMILES [NH3+][C@H](CS[C@@H]1CC(=O)N(c2ccc3ccccc3c2)C1=O)C(=O)OCCOC(=O)c1ccc(-c2c3nc(c(-c4ccc(S(=O)(=O)[O-])cc4)c4ccc([nH]4)c(-c4ccc(S(=O)(=O)[O-])cc4)c4nc(c(-c5ccc(S(=O)(=O)[O-])cc5)c5ccc2[nH]5)C=C4)C=C3)cc1
REMARK SMILES IDX 25 1 24 2 22 3 23 4 2 5 1 6 3 10 4 11 5 12 6 13 20 14 7 15
REMARK SMILES IDX 9 16 21 17 8 18 10 19 11 20 19 21 12 22 18 23 13 24 17 25
REMARK SMILES IDX 14 26 16 27 15 28 26 29 27 30 28 31 29 32 30 33 31 34 89 35
REMARK SMILES IDX 32 36 88 37 33 38 34 39 35 40 82 41 36 42 87 43 81 44 83 45
REMARK SMILES IDX 37 46 86 47 80 48 79 49 38 51 68 52 49 53 67 54 50 55 53 56
REMARK SMILES IDX 66 57 84 58 51 59 52 60 65 62 85 63 54 64 39 65 40 66 48 67
REMARK SMILES IDX 41 68 47 69 42 70 43 71 44 72 45 73 46 74 69 75 70 76 78 77
REMARK SMILES IDX 71 78 77 79 72 80 73 81 74 82 75 83 76 84 55 85 56 86 64 87
REMARK SMILES IDX 57 88 63 89 58 90 59 91 60 92 61 93 62 94
REMARK H PARENT 1 7 1 8 1 9 83 50 53 61
REMARK Flexibility Score: inf
ROOT
ATOM      1  C   UNL A   1      38.788  21.374  25.789  1.00  0.00     0.274 C 
ENDROOT
BRANCH   1   2
ATOM      2  O   UNL A   1      37.558  21.477  25.028  1.00  0.00    -0.458 OA
BRANCH   2   3
ATOM      3  C   UNL A   1      36.663  22.400  25.486  1.00  0.00     0.365 C 
ATOM      4  O   UNL A   1      36.937  23.590  25.641  1.00  0.00    -0.245 OA
BRANCH   3   5
ATOM      5  C   UNL A   1      35.255  21.837  25.785  1.00  0.00     0.301 C 
BRANCH   5   6
ATOM      6  N   UNL A   1      35.165  21.427  27.209  1.00  0.00    -0.345 N 
ATOM      7  H   UNL A   1      35.140  22.258  27.801  1.00  0.00     0.345 HD
ATOM      8  H   UNL A   1      35.978  20.861  27.451  1.00  0.00     0.345 HD
ATOM      9  H   UNL A   1      34.315  20.882  27.353  1.00  0.00     0.345 HD
ENDBRANCH   5   6
BRANCH   5  10
ATOM     10  C   UNL A   1      34.602  20.799  24.843  1.00  0.00     0.147 C 
BRANCH  10  11
ATOM     11  S   UNL A   1      32.814  20.956  24.410  1.00  0.00    -0.141 SA
BRANCH  11  12
ATOM     12  C   UNL A   1      32.237  22.246  25.565  1.00  0.00     0.146 C 
ATOM     13  C   UNL A   1      30.771  22.220  25.911  1.00  0.00     0.125 C 
ATOM     14  C   UNL A   1      32.360  23.677  25.045  1.00  0.00     0.247 C 
ATOM     15  C   UNL A   1      30.542  23.597  26.414  1.00  0.00     0.235 C 
ATOM     16  N   UNL A   1      31.397  24.416  25.717  1.00  0.00    -0.250 N 
ATOM     17  O   UNL A   1      33.221  24.086  24.280  1.00  0.00    -0.273 OA
ATOM     18  O   UNL A   1      29.680  23.867  27.236  1.00  0.00    -0.274 OA
BRANCH  16  19
ATOM     19  C   UNL A   1      31.197  25.814  25.639  1.00  0.00     0.052 A 
ATOM     20  C   UNL A   1      30.616  26.386  24.499  1.00  0.00     0.027 A 
ATOM     21  C   UNL A   1      31.700  26.661  26.632  1.00  0.00     0.035 A 
ATOM     22  C   UNL A   1      30.575  27.768  24.325  1.00  0.00     0.011 A 
ATOM     23  C   UNL A   1      31.724  28.054  26.442  1.00  0.00    -0.016 A 
ATOM     24  C   UNL A   1      31.154  28.612  25.274  1.00  0.00    -0.018 A 
ATOM     25  C   UNL A   1      32.352  28.903  27.365  1.00  0.00     0.009 A 
ATOM     26  C   UNL A   1      31.210  29.997  25.068  1.00  0.00     0.009 A 
ATOM     27  C   UNL A   1      32.421  30.279  27.136  1.00  0.00     0.001 A 
ATOM     28  C   UNL A   1      31.848  30.825  25.991  1.00  0.00     0.001 A 
ENDBRANCH  16  19
ENDBRANCH  11  12
ENDBRANCH  10  11
ENDBRANCH   5  10
ENDBRANCH   3   5
ENDBRANCH   2   3
ENDBRANCH   1   2
BRANCH   1  29
ATOM     29  C   UNL A   1      39.399  19.962  25.708  1.00  0.00     0.275 C 
BRANCH  29  30
ATOM     30  O   UNL A   1      40.560  19.710  26.536  1.00  0.00    -0.458 OA
BRANCH  30  31
ATOM     31  C   UNL A   1      41.762  19.998  26.014  1.00  0.00     0.338 C 
ATOM     32  O   UNL A   1      42.425  19.301  25.252  1.00  0.00    -0.246 OA
BRANCH  31  33
ATOM     33  C   UNL A   1      42.345  21.265  26.416  1.00  0.00     0.060 A 
ATOM     34  C   UNL A   1      42.773  22.091  25.365  1.00  0.00     0.016 A 
ATOM     35  C   UNL A   1      42.623  21.573  27.747  1.00  0.00     0.016 A 
ATOM     36  C   UNL A   1      43.468  23.250  25.641  1.00  0.00     0.010 A 
ATOM     37  C   UNL A   1      43.293  22.759  28.026  1.00  0.00     0.010 A 
ATOM     38  C   UNL A   1      43.693  23.603  26.974  1.00  0.00    -0.014 A 
BRANCH  38  39
ATOM     39  C   UNL A   1      44.201  24.950  27.262  1.00  0.00     0.031 A 
ATOM     40  C   UNL A   1      43.287  26.028  27.729  1.00  0.00     0.074 A 
ATOM     41  C   UNL A   1      45.517  25.147  27.069  1.00  0.00     0.049 A 
ATOM     42  N   UNL A   1      43.554  27.288  27.934  1.00  0.00    -0.248 NA
ATOM     43  C   UNL A   1      41.891  25.648  27.997  1.00  0.00     0.031 C 
ATOM     44  C   UNL A   1      46.468  24.109  26.646  1.00  0.00     0.029 A 
ATOM     45  N   UNL A   1      46.283  26.270  27.189  1.00  0.00    -0.354 N 
ATOM     46  C   UNL A   1      42.356  27.866  28.331  1.00  0.00     0.074 A 
ATOM     47  C   UNL A   1      41.360  26.814  28.339  1.00  0.00     0.031 C 
ATOM     48  C   UNL A   1      47.689  24.649  26.540  1.00  0.00     0.029 A 
ATOM     49  C   UNL A   1      47.593  26.073  26.829  1.00  0.00     0.049 A 
ATOM     50  H   UNL A   1      45.931  27.134  27.504  1.00  0.00     0.167 HD
ATOM     51  C   UNL A   1      42.125  29.163  28.639  1.00  0.00     0.031 A 
ATOM     52  C   UNL A   1      48.597  26.956  26.704  1.00  0.00     0.031 A 
ATOM     53  C   UNL A   1      43.144  30.179  28.584  1.00  0.00     0.049 A 
ATOM     54  C   UNL A   1      48.306  28.391  27.019  1.00  0.00     0.074 A 
ATOM     55  C   UNL A   1      43.036  31.530  28.858  1.00  0.00     0.029 A 
ATOM     56  N   UNL A   1      44.465  29.948  28.219  1.00  0.00    -0.354 N 
ATOM     57  N   UNL A   1      47.167  28.929  27.387  1.00  0.00    -0.248 NA
ATOM     58  C   UNL A   1      49.422  29.332  26.909  1.00  0.00     0.031 C 
ATOM     59  C   UNL A   1      44.284  32.120  28.622  1.00  0.00     0.029 A 
ATOM     60  C   UNL A   1      45.181  31.130  28.247  1.00  0.00     0.049 A 
ATOM     61  H   UNL A   1      44.837  29.068  27.977  1.00  0.00     0.167 HD
ATOM     62  C   UNL A   1      47.430  30.279  27.569  1.00  0.00     0.074 A 
ATOM     63  C   UNL A   1      48.840  30.467  27.277  1.00  0.00     0.031 C 
ATOM     64  C   UNL A   1      46.586  31.270  27.944  1.00  0.00     0.031 A 
BRANCH  51  65
ATOM     65  C   UNL A   1      40.713  29.546  28.992  1.00  0.00    -0.014 A 
ATOM     66  C   UNL A   1      40.364  29.941  30.297  1.00  0.00     0.010 A 
ATOM     67  C   UNL A   1      39.712  29.495  28.005  1.00  0.00     0.010 A 
ATOM     68  C   UNL A   1      39.032  30.225  30.618  1.00  0.00     0.020 A 
ATOM     69  C   UNL A   1      38.384  29.799  28.317  1.00  0.00     0.020 A 
ATOM     70  C   UNL A   1      38.048  30.140  29.628  1.00  0.00     0.054 A 
BRANCH  70  71
ATOM     71  S   UNL A   1      36.324  30.489  30.074  1.00  0.00     0.124 S 
ATOM     72  O   UNL A   1      35.642  30.311  28.794  1.00  0.00    -0.237 OA
ATOM     73  O   UNL A   1      36.038  29.475  31.084  1.00  0.00    -0.237 OA
ATOM     74  O   UNL A   1      36.367  31.863  30.570  1.00  0.00    -0.744 OA
ENDBRANCH  70  71
ENDBRANCH  51  65
BRANCH  52  75
ATOM     75  C   UNL A   1      49.925  26.480  26.244  1.00  0.00    -0.014 A 
ATOM     76  C   UNL A   1      50.383  26.780  24.951  1.00  0.00     0.010 A 
ATOM     77  C   UNL A   1      50.790  25.826  27.143  1.00  0.00     0.010 A 
ATOM     78  C   UNL A   1      51.685  26.446  24.569  1.00  0.00     0.020 A 
ATOM     79  C   UNL A   1      52.099  25.512  26.772  1.00  0.00     0.020 A 
ATOM     80  C   UNL A   1      52.538  25.821  25.484  1.00  0.00     0.054 A 
BRANCH  80  81
ATOM     81  S   UNL A   1      54.256  25.490  25.001  1.00  0.00     0.124 S 
ATOM     82  O   UNL A   1      55.003  26.239  26.006  1.00  0.00    -0.237 OA
ATOM     83  O   UNL A   1      54.340  24.035  25.104  1.00  0.00    -0.237 OA
ATOM     84  O   UNL A   1      54.335  26.015  23.640  1.00  0.00    -0.744 OA
ENDBRANCH  80  81
ENDBRANCH  52  75
BRANCH  64  85
ATOM     85  C   UNL A   1      47.183  32.639  28.086  1.00  0.00    -0.014 A 
ATOM     86  C   UNL A   1      47.713  33.073  29.313  1.00  0.00     0.010 A 
ATOM     87  C   UNL A   1      47.263  33.474  26.958  1.00  0.00     0.010 A 
ATOM     88  C   UNL A   1      48.302  34.334  29.413  1.00  0.00     0.020 A 
ATOM     89  C   UNL A   1      47.871  34.727  27.051  1.00  0.00     0.020 A 
ATOM     90  C   UNL A   1      48.377  35.152  28.281  1.00  0.00     0.054 A 
BRANCH  90  91
ATOM     91  S   UNL A   1      49.202  36.761  28.419  1.00  0.00     0.124 S 
ATOM     92  O   UNL A   1      49.699  36.963  27.062  1.00  0.00    -0.237 OA
ATOM     93  O   UNL A   1      48.116  37.646  28.830  1.00  0.00    -0.237 OA
ATOM     94  O   UNL A   1      50.229  36.534  29.433  1.00  0.00    -0.744 OA
ENDBRANCH  90  91
ENDBRANCH  64  85
ENDBRANCH  38  39
ENDBRANCH  31  33
ENDBRANCH  30  31
ENDBRANCH  29  30
ENDBRANCH   1  29
TORSDOF 19
ENDMDL
