MODEL 1
REMARK VINA RESULT:     -10.3      0.000      0.000
REMARK SMILES Cc1cc(C[N@@H+]2C[C@@H](C(=O)OCCOC(=O)c3ccc(-c4c5nc(c(-c6ccc(S(=O)(=O)[O-])cc6)c6ccc([nH]6)c(-c6ccc(S(=O)(=O)[O-])cc6)c6nc(c(-c7ccc(S(=O)(=O)[O-])cc7)c7ccc4[nH]7)C=C6)C=C5)cc3)[C@H](C3CC3)C2)on1
REMARK SMILES IDX 13 1 12 2 11 3 9 4 10 5 8 6 6 7 7 8 81 9 77 11 5 12 4 13
REMARK SMILES IDX 1 14 2 15 3 16 83 17 82 18 78 19 79 20 80 21 14 22 15 23
REMARK SMILES IDX 16 24 17 25 18 26 76 27 19 28 75 29 20 30 21 31 22 32 69 33
REMARK SMILES IDX 23 34 74 35 68 36 70 37 24 38 73 39 67 40 66 41 25 43 55 44
REMARK SMILES IDX 36 45 54 46 37 47 40 48 53 49 71 50 38 51 39 52 52 54 72 55
REMARK SMILES IDX 41 56 26 57 27 58 35 59 28 60 34 61 29 62 30 63 31 64 32 65
REMARK SMILES IDX 33 66 56 67 57 68 65 69 58 70 64 71 59 72 60 73 61 74 62 75
REMARK SMILES IDX 63 76 42 77 43 78 51 79 44 80 50 81 45 82 46 83 47 84 48 85
REMARK SMILES IDX 49 86
REMARK H PARENT 6 10 70 42 40 53
REMARK Flexibility Score: inf
ROOT
ATOM      1  C   UNL A   1      39.003  19.929  25.557  1.00  0.00     0.275 C 
ENDROOT
BRANCH   1   2
ATOM      2  C   UNL A   1      38.218  21.226  25.333  1.00  0.00     0.274 C 
BRANCH   2   3
ATOM      3  O   UNL A   1      37.019  21.035  24.549  1.00  0.00    -0.462 OA
BRANCH   3   4
ATOM      4  C   UNL A   1      36.320  22.171  24.285  1.00  0.00     0.315 C 
ATOM      5  O   UNL A   1      36.688  23.001  23.462  1.00  0.00    -0.252 OA
BRANCH   4   6
ATOM      6  C   UNL A   1      35.050  22.344  25.103  1.00  0.00     0.163 C 
ATOM      7  N   UNL A   1      33.545  21.441  26.729  1.00  0.00    -0.328 N 
ATOM      8  C   UNL A   1      34.973  21.537  26.393  1.00  0.00     0.278 C 
ATOM      9  C   UNL A   1      32.836  21.373  25.448  1.00  0.00     0.267 C 
ATOM     10  H   UNL A   1      33.384  20.601  27.285  1.00  0.00     0.348 HD
ATOM     11  C   UNL A   1      33.797  21.897  24.355  1.00  0.00     0.067 C 
BRANCH   7  12
ATOM     12  C   UNL A   1      33.029  22.465  27.654  1.00  0.00     0.341 C 
BRANCH  12  13
ATOM     13  C   UNL A   1      32.141  23.521  27.096  1.00  0.00     0.191 A 
ATOM     14  C   UNL A   1      30.692  26.566  25.680  1.00  0.00     0.070 C 
ATOM     15  C   UNL A   1      31.059  25.237  26.228  1.00  0.00     0.081 A 
ATOM     16  C   UNL A   1      32.349  24.672  26.372  1.00  0.00     0.078 A 
ATOM     17  N   UNL A   1      30.122  24.438  26.757  1.00  0.00    -0.085 NA
ATOM     18  O   UNL A   1      30.804  23.360  27.294  1.00  0.00    -0.355 OA
ENDBRANCH  12  13
ENDBRANCH   7  12
BRANCH  11  19
ATOM     19  C   UNL A   1      33.089  22.879  23.450  1.00  0.00    -0.001 C 
ATOM     20  C   UNL A   1      33.683  24.193  23.008  1.00  0.00     0.004 C 
ATOM     21  C   UNL A   1      33.455  23.122  22.001  1.00  0.00     0.004 C 
ENDBRANCH  11  19
ENDBRANCH   4   6
ENDBRANCH   3   4
ENDBRANCH   2   3
ENDBRANCH   1   2
BRANCH   1  22
ATOM     22  O   UNL A   1      39.979  20.041  26.615  1.00  0.00    -0.458 OA
BRANCH  22  23
ATOM     23  C   UNL A   1      41.271  20.046  26.208  1.00  0.00     0.338 C 
ATOM     24  O   UNL A   1      41.795  19.218  25.471  1.00  0.00    -0.246 OA
BRANCH  23  25
ATOM     25  C   UNL A   1      41.963  21.295  26.602  1.00  0.00     0.060 A 
ATOM     26  C   UNL A   1      42.257  22.172  25.561  1.00  0.00     0.016 A 
ATOM     27  C   UNL A   1      42.352  21.630  27.902  1.00  0.00     0.016 A 
ATOM     28  C   UNL A   1      42.798  23.426  25.810  1.00  0.00     0.010 A 
ATOM     29  C   UNL A   1      42.968  22.877  28.149  1.00  0.00     0.010 A 
ATOM     30  C   UNL A   1      43.152  23.801  27.107  1.00  0.00    -0.014 A 
BRANCH  30  31
ATOM     31  C   UNL A   1      43.781  25.138  27.264  1.00  0.00     0.031 A 
ATOM     32  C   UNL A   1      42.969  26.257  27.858  1.00  0.00     0.074 A 
ATOM     33  C   UNL A   1      45.107  25.308  27.085  1.00  0.00     0.049 A 
ATOM     34  N   UNL A   1      43.335  27.475  28.164  1.00  0.00    -0.248 NA
ATOM     35  C   UNL A   1      41.567  25.948  28.182  1.00  0.00     0.031 C 
ATOM     36  C   UNL A   1      46.048  24.264  26.682  1.00  0.00     0.029 A 
ATOM     37  N   UNL A   1      45.900  26.417  27.269  1.00  0.00    -0.354 N 
ATOM     38  C   UNL A   1      42.210  28.079  28.711  1.00  0.00     0.074 A 
ATOM     39  C   UNL A   1      41.155  27.089  28.712  1.00  0.00     0.031 C 
ATOM     40  C   UNL A   1      47.292  24.777  26.666  1.00  0.00     0.029 A 
ATOM     41  C   UNL A   1      47.231  26.201  26.993  1.00  0.00     0.049 A 
ATOM     42  H   UNL A   1      45.548  27.287  27.569  1.00  0.00     0.167 HD
ATOM     43  C   UNL A   1      42.056  29.352  29.147  1.00  0.00     0.031 A 
ATOM     44  C   UNL A   1      48.275  27.058  26.975  1.00  0.00     0.031 A 
ATOM     45  C   UNL A   1      43.083  30.358  29.093  1.00  0.00     0.049 A 
ATOM     46  C   UNL A   1      48.038  28.512  27.311  1.00  0.00     0.074 A 
ATOM     47  C   UNL A   1      42.993  31.698  29.428  1.00  0.00     0.029 A 
ATOM     48  N   UNL A   1      44.384  30.141  28.666  1.00  0.00    -0.354 N 
ATOM     49  N   UNL A   1      46.948  29.092  27.753  1.00  0.00    -0.248 NA
ATOM     50  C   UNL A   1      49.175  29.428  27.130  1.00  0.00     0.031 C 
ATOM     51  C   UNL A   1      44.220  32.305  29.137  1.00  0.00     0.029 A 
ATOM     52  C   UNL A   1      45.098  31.327  28.696  1.00  0.00     0.049 A 
ATOM     53  H   UNL A   1      44.747  29.271  28.381  1.00  0.00     0.167 HD
ATOM     54  C   UNL A   1      47.273  30.437  27.919  1.00  0.00     0.074 A 
ATOM     55  C   UNL A   1      48.669  30.574  27.561  1.00  0.00     0.031 C 
ATOM     56  C   UNL A   1      46.485  31.463  28.327  1.00  0.00     0.031 A 
BRANCH  43  57
ATOM     57  C   UNL A   1      40.682  29.751  29.611  1.00  0.00    -0.014 A 
ATOM     58  C   UNL A   1      39.680  30.144  28.707  1.00  0.00     0.010 A 
ATOM     59  C   UNL A   1      40.397  29.732  30.989  1.00  0.00     0.010 A 
ATOM     60  C   UNL A   1      38.427  30.549  29.179  1.00  0.00     0.020 A 
ATOM     61  C   UNL A   1      39.139  30.109  31.461  1.00  0.00     0.020 A 
ATOM     62  C   UNL A   1      38.167  30.532  30.554  1.00  0.00     0.054 A 
BRANCH  62  63
ATOM     63  S   UNL A   1      36.533  31.057  31.140  1.00  0.00     0.124 S 
ATOM     64  O   UNL A   1      36.203  30.004  32.097  1.00  0.00    -0.237 OA
ATOM     65  O   UNL A   1      36.810  32.368  31.720  1.00  0.00    -0.237 OA
ATOM     66  O   UNL A   1      35.718  31.074  29.927  1.00  0.00    -0.744 OA
ENDBRANCH  62  63
ENDBRANCH  43  57
BRANCH  44  67
ATOM     67  C   UNL A   1      49.629  26.601  26.537  1.00  0.00    -0.014 A 
ATOM     68  C   UNL A   1      50.051  26.732  25.202  1.00  0.00     0.010 A 
ATOM     69  C   UNL A   1      50.486  25.965  27.456  1.00  0.00     0.010 A 
ATOM     70  C   UNL A   1      51.287  26.216  24.791  1.00  0.00     0.020 A 
ATOM     71  C   UNL A   1      51.734  25.481  27.060  1.00  0.00     0.020 A 
ATOM     72  C   UNL A   1      52.122  25.596  25.725  1.00  0.00     0.054 A 
BRANCH  72  73
ATOM     73  S   UNL A   1      53.733  24.962  25.181  1.00  0.00     0.124 S 
ATOM     74  O   UNL A   1      53.478  23.528  25.076  1.00  0.00    -0.237 OA
ATOM     75  O   UNL A   1      53.936  25.664  23.916  1.00  0.00    -0.237 OA
ATOM     76  O   UNL A   1      54.637  25.359  26.258  1.00  0.00    -0.744 OA
ENDBRANCH  72  73
ENDBRANCH  44  67
BRANCH  56  77
ATOM     77  C   UNL A   1      47.122  32.828  28.442  1.00  0.00    -0.014 A 
ATOM     78  C   UNL A   1      47.110  33.739  27.371  1.00  0.00     0.010 A 
ATOM     79  C   UNL A   1      47.723  33.212  29.655  1.00  0.00     0.010 A 
ATOM     80  C   UNL A   1      47.736  34.984  27.492  1.00  0.00     0.020 A 
ATOM     81  C   UNL A   1      48.318  34.469  29.792  1.00  0.00     0.020 A 
ATOM     82  C   UNL A   1      48.342  35.339  28.701  1.00  0.00     0.054 A 
BRANCH  82  83
ATOM     83  S   UNL A   1      49.144  36.961  28.836  1.00  0.00     0.124 S 
ATOM     84  O   UNL A   1      50.544  36.592  29.022  1.00  0.00    -0.237 OA
ATOM     85  O   UNL A   1      48.822  37.585  27.555  1.00  0.00    -0.237 OA
ATOM     86  O   UNL A   1      48.502  37.569  29.999  1.00  0.00    -0.744 OA
ENDBRANCH  82  83
ENDBRANCH  56  77
ENDBRANCH  30  31
ENDBRANCH  23  25
ENDBRANCH  22  23
ENDBRANCH   1  22
TORSDOF 17
ENDMDL
MODEL 2
REMARK VINA RESULT:     -10.3      3.925      8.067
REMARK SMILES Cc1cc(C[N@@H+]2C[C@@H](C(=O)OCCOC(=O)c3ccc(-c4c5nc(c(-c6ccc(S(=O)(=O)[O-])cc6)c6ccc([nH]6)c(-c6ccc(S(=O)(=O)[O-])cc6)c6nc(c(-c7ccc(S(=O)(=O)[O-])cc7)c7ccc4[nH]7)C=C6)C=C5)cc3)[C@H](C3CC3)C2)on1
REMARK SMILES IDX 13 1 12 2 11 3 9 4 10 5 8 6 6 7 7 8 81 9 77 11 5 12 4 13
REMARK SMILES IDX 1 14 2 15 3 16 83 17 82 18 78 19 79 20 80 21 14 22 15 23
REMARK SMILES IDX 16 24 17 25 18 26 76 27 19 28 75 29 20 30 21 31 22 32 69 33
REMARK SMILES IDX 23 34 74 35 68 36 70 37 24 38 73 39 67 40 66 41 25 43 55 44
REMARK SMILES IDX 36 45 54 46 37 47 40 48 53 49 71 50 38 51 39 52 52 54 72 55
REMARK SMILES IDX 41 56 26 57 27 58 35 59 28 60 34 61 29 62 30 63 31 64 32 65
REMARK SMILES IDX 33 66 56 67 57 68 65 69 58 70 64 71 59 72 60 73 61 74 62 75
REMARK SMILES IDX 63 76 42 77 43 78 51 79 44 80 50 81 45 82 46 83 47 84 48 85
REMARK SMILES IDX 49 86
REMARK H PARENT 6 10 70 42 40 53
REMARK Flexibility Score: inf
ROOT
ATOM      1  C   UNL A   1      33.226  29.702  25.889  1.00  0.00     0.275 C 
ENDROOT
BRANCH   1   2
ATOM      2  C   UNL A   1      33.735  28.603  24.950  1.00  0.00     0.274 C 
BRANCH   2   3
ATOM      3  O   UNL A   1      33.403  28.843  23.564  1.00  0.00    -0.462 OA
BRANCH   3   4
ATOM      4  C   UNL A   1      33.557  27.770  22.744  1.00  0.00     0.315 C 
ATOM      5  O   UNL A   1      34.069  27.851  21.633  1.00  0.00    -0.252 OA
BRANCH   4   6
ATOM      6  C   UNL A   1      33.028  26.458  23.303  1.00  0.00     0.163 C 
ATOM      7  N   UNL A   1      33.063  24.067  23.242  1.00  0.00    -0.328 N 
ATOM      8  C   UNL A   1      33.934  25.245  23.126  1.00  0.00     0.278 C 
ATOM      9  C   UNL A   1      31.774  24.462  22.667  1.00  0.00     0.267 C 
ATOM     10  H   UNL A   1      33.475  23.289  22.727  1.00  0.00     0.348 HD
ATOM     11  C   UNL A   1      31.732  26.008  22.634  1.00  0.00     0.067 C 
BRANCH   7  12
ATOM     12  C   UNL A   1      32.968  23.465  24.584  1.00  0.00     0.341 C 
BRANCH  12  13
ATOM     13  C   UNL A   1      33.049  21.983  24.688  1.00  0.00     0.191 A 
ATOM     14  C   UNL A   1      33.967  18.448  24.485  1.00  0.00     0.070 C 
ATOM     15  C   UNL A   1      33.417  19.807  24.712  1.00  0.00     0.081 A 
ATOM     16  C   UNL A   1      34.050  21.056  24.508  1.00  0.00     0.078 A 
ATOM     17  N   UNL A   1      32.138  19.970  25.075  1.00  0.00    -0.085 NA
ATOM     18  O   UNL A   1      31.913  21.336  25.065  1.00  0.00    -0.355 OA
ENDBRANCH  12  13
ENDBRANCH   7  12
BRANCH  11  19
ATOM     19  C   UNL A   1      30.412  26.515  23.168  1.00  0.00    -0.001 C 
ATOM     20  C   UNL A   1      30.288  27.483  24.317  1.00  0.00     0.004 C 
ATOM     21  C   UNL A   1      29.888  27.919  22.952  1.00  0.00     0.004 C 
ENDBRANCH  11  19
ENDBRANCH   4   6
ENDBRANCH   3   4
ENDBRANCH   2   3
ENDBRANCH   1   2
BRANCH   1  22
ATOM     22  O   UNL A   1      33.713  29.553  27.240  1.00  0.00    -0.458 OA
BRANCH  22  23
ATOM     23  C   UNL A   1      34.504  30.560  27.682  1.00  0.00     0.338 C 
ATOM     24  O   UNL A   1      34.170  31.733  27.807  1.00  0.00    -0.246 OA
BRANCH  23  25
ATOM     25  C   UNL A   1      35.797  30.054  28.195  1.00  0.00     0.060 A 
ATOM     26  C   UNL A   1      36.830  29.991  27.262  1.00  0.00     0.016 A 
ATOM     27  C   UNL A   1      36.037  29.625  29.503  1.00  0.00     0.016 A 
ATOM     28  C   UNL A   1      38.120  29.645  27.641  1.00  0.00     0.010 A 
ATOM     29  C   UNL A   1      37.334  29.204  29.875  1.00  0.00     0.010 A 
ATOM     30  C   UNL A   1      38.393  29.257  28.954  1.00  0.00    -0.014 A 
BRANCH  30  31
ATOM     31  C   UNL A   1      39.790  28.845  29.248  1.00  0.00     0.031 A 
ATOM     32  C   UNL A   1      40.635  29.723  30.131  1.00  0.00     0.074 A 
ATOM     33  C   UNL A   1      40.237  27.616  28.919  1.00  0.00     0.049 A 
ATOM     34  N   UNL A   1      41.845  29.523  30.587  1.00  0.00    -0.248 NA
ATOM     35  C   UNL A   1      40.017  30.978  30.589  1.00  0.00     0.031 C 
ATOM     36  C   UNL A   1      39.463  26.593  28.217  1.00  0.00     0.029 A 
ATOM     37  N   UNL A   1      41.441  27.002  29.177  1.00  0.00    -0.354 N 
ATOM     38  C   UNL A   1      42.136  30.626  31.380  1.00  0.00     0.074 A 
ATOM     39  C   UNL A   1      40.970  31.483  31.358  1.00  0.00     0.031 C 
ATOM     40  C   UNL A   1      40.204  25.475  28.116  1.00  0.00     0.029 A 
ATOM     41  C   UNL A   1      41.528  25.719  28.687  1.00  0.00     0.049 A 
ATOM     42  H   UNL A   1      42.174  27.441  29.667  1.00  0.00     0.167 HD
ATOM     43  C   UNL A   1      43.279  30.916  32.044  1.00  0.00     0.031 A 
ATOM     44  C   UNL A   1      42.564  24.853  28.670  1.00  0.00     0.031 A 
ATOM     45  C   UNL A   1      44.462  30.098  32.020  1.00  0.00     0.049 A 
ATOM     46  C   UNL A   1      43.882  25.273  29.279  1.00  0.00     0.074 A 
ATOM     47  C   UNL A   1      45.697  30.356  32.588  1.00  0.00     0.029 A 
ATOM     48  N   UNL A   1      44.564  28.869  31.386  1.00  0.00    -0.354 N 
ATOM     49  N   UNL A   1      44.171  26.355  29.961  1.00  0.00    -0.248 NA
ATOM     50  C   UNL A   1      45.017  24.354  29.102  1.00  0.00     0.031 C 
ATOM     51  C   UNL A   1      46.566  29.316  32.238  1.00  0.00     0.029 A 
ATOM     52  C   UNL A   1      45.849  28.372  31.519  1.00  0.00     0.049 A 
ATOM     53  H   UNL A   1      43.830  28.417  30.909  1.00  0.00     0.167 HD
ATOM     54  C   UNL A   1      45.516  26.239  30.307  1.00  0.00     0.074 A 
ATOM     55  C   UNL A   1      45.971  24.966  29.788  1.00  0.00     0.031 C 
ATOM     56  C   UNL A   1      46.302  27.110  30.990  1.00  0.00     0.031 A 
BRANCH  43  57
ATOM     57  C   UNL A   1      43.334  32.241  32.755  1.00  0.00    -0.014 A 
ATOM     58  C   UNL A   1      42.993  32.367  34.113  1.00  0.00     0.010 A 
ATOM     59  C   UNL A   1      43.736  33.383  32.038  1.00  0.00     0.010 A 
ATOM     60  C   UNL A   1      43.017  33.622  34.730  1.00  0.00     0.020 A 
ATOM     61  C   UNL A   1      43.788  34.631  32.657  1.00  0.00     0.020 A 
ATOM     62  C   UNL A   1      43.410  34.747  33.996  1.00  0.00     0.054 A 
BRANCH  62  63
ATOM     63  S   UNL A   1      43.437  36.362  34.820  1.00  0.00     0.124 S 
ATOM     64  O   UNL A   1      42.401  37.090  34.091  1.00  0.00    -0.237 OA
ATOM     65  O   UNL A   1      43.109  36.019  36.201  1.00  0.00    -0.237 OA
ATOM     66  O   UNL A   1      44.801  36.839  34.606  1.00  0.00    -0.744 OA
ENDBRANCH  62  63
ENDBRANCH  43  57
BRANCH  44  67
ATOM     67  C   UNL A   1      42.445  23.534  27.977  1.00  0.00    -0.014 A 
ATOM     68  C   UNL A   1      41.917  22.407  28.632  1.00  0.00     0.010 A 
ATOM     69  C   UNL A   1      42.929  23.387  26.663  1.00  0.00     0.010 A 
ATOM     70  C   UNL A   1      41.898  21.158  27.997  1.00  0.00     0.020 A 
ATOM     71  C   UNL A   1      42.879  22.152  26.012  1.00  0.00     0.020 A 
ATOM     72  C   UNL A   1      42.378  21.040  26.689  1.00  0.00     0.054 A 
BRANCH  72  73
ATOM     73  S   UNL A   1      42.315  19.422  25.870  1.00  0.00     0.124 S 
ATOM     74  O   UNL A   1      40.906  19.318  25.505  1.00  0.00    -0.237 OA
ATOM     75  O   UNL A   1      43.247  19.596  24.759  1.00  0.00    -0.237 OA
ATOM     76  O   UNL A   1      42.762  18.496  26.909  1.00  0.00    -0.744 OA
ENDBRANCH  72  73
ENDBRANCH  44  67
BRANCH  56  77
ATOM     77  C   UNL A   1      47.734  26.702  31.246  1.00  0.00    -0.014 A 
ATOM     78  C   UNL A   1      48.765  27.029  30.348  1.00  0.00     0.010 A 
ATOM     79  C   UNL A   1      48.054  25.998  32.423  1.00  0.00     0.010 A 
ATOM     80  C   UNL A   1      50.077  26.611  30.592  1.00  0.00     0.020 A 
ATOM     81  C   UNL A   1      49.369  25.610  32.688  1.00  0.00     0.020 A 
ATOM     82  C   UNL A   1      50.371  25.898  31.759  1.00  0.00     0.054 A 
BRANCH  82  83
ATOM     83  S   UNL A   1      52.080  25.370  32.057  1.00  0.00     0.124 S 
ATOM     84  O   UNL A   1      52.751  25.810  30.837  1.00  0.00    -0.237 OA
ATOM     85  O   UNL A   1      52.436  26.103  33.270  1.00  0.00    -0.237 OA
ATOM     86  O   UNL A   1      51.972  23.922  32.220  1.00  0.00    -0.744 OA
ENDBRANCH  82  83
ENDBRANCH  56  77
ENDBRANCH  30  31
ENDBRANCH  23  25
ENDBRANCH  22  23
ENDBRANCH   1  22
TORSDOF 17
ENDMDL
MODEL 3
REMARK VINA RESULT:     -10.1      3.199      7.820
REMARK SMILES Cc1cc(C[N@@H+]2C[C@@H](C(=O)OCCOC(=O)c3ccc(-c4c5nc(c(-c6ccc(S(=O)(=O)[O-])cc6)c6ccc([nH]6)c(-c6ccc(S(=O)(=O)[O-])cc6)c6nc(c(-c7ccc(S(=O)(=O)[O-])cc7)c7ccc4[nH]7)C=C6)C=C5)cc3)[C@H](C3CC3)C2)on1
REMARK SMILES IDX 13 1 12 2 11 3 9 4 10 5 8 6 6 7 7 8 81 9 77 11 5 12 4 13
REMARK SMILES IDX 1 14 2 15 3 16 83 17 82 18 78 19 79 20 80 21 14 22 15 23
REMARK SMILES IDX 16 24 17 25 18 26 76 27 19 28 75 29 20 30 21 31 22 32 69 33
REMARK SMILES IDX 23 34 74 35 68 36 70 37 24 38 73 39 67 40 66 41 25 43 55 44
REMARK SMILES IDX 36 45 54 46 37 47 40 48 53 49 71 50 38 51 39 52 52 54 72 55
REMARK SMILES IDX 41 56 26 57 27 58 35 59 28 60 34 61 29 62 30 63 31 64 32 65
REMARK SMILES IDX 33 66 56 67 57 68 65 69 58 70 64 71 59 72 60 73 61 74 62 75
REMARK SMILES IDX 63 76 42 77 43 78 51 79 44 80 50 81 45 82 46 83 47 84 48 85
REMARK SMILES IDX 49 86
REMARK H PARENT 6 10 70 42 40 53
REMARK Flexibility Score: inf
ROOT
ATOM      1  C   UNL A   1      32.516  29.608  26.662  1.00  0.00     0.275 C 
ENDROOT
BRANCH   1   2
ATOM      2  C   UNL A   1      31.730  28.374  26.205  1.00  0.00     0.274 C 
BRANCH   2   3
ATOM      3  O   UNL A   1      32.558  27.385  25.552  1.00  0.00    -0.462 OA
BRANCH   3   4
ATOM      4  C   UNL A   1      32.290  26.097  25.896  1.00  0.00     0.315 C 
ATOM      5  O   UNL A   1      31.395  25.790  26.675  1.00  0.00    -0.252 OA
BRANCH   4   6
ATOM      6  C   UNL A   1      33.199  25.061  25.251  1.00  0.00     0.163 C 
ATOM      7  N   UNL A   1      33.559  23.509  23.467  1.00  0.00    -0.328 N 
ATOM      8  C   UNL A   1      32.997  24.836  23.757  1.00  0.00     0.278 C 
ATOM      9  C   UNL A   1      33.303  22.695  24.659  1.00  0.00     0.267 C 
ATOM     10  H   UNL A   1      33.097  23.118  22.646  1.00  0.00     0.348 HD
ATOM     11  C   UNL A   1      33.007  23.662  25.829  1.00  0.00     0.067 C 
BRANCH   7  12
ATOM     12  C   UNL A   1      34.959  23.488  23.009  1.00  0.00     0.341 C 
BRANCH  12  13
ATOM     13  C   UNL A   1      35.999  23.035  23.973  1.00  0.00     0.191 A 
ATOM     14  C   UNL A   1      38.769  22.756  26.345  1.00  0.00     0.070 C 
ATOM     15  C   UNL A   1      37.607  22.636  25.430  1.00  0.00     0.081 A 
ATOM     16  C   UNL A   1      36.799  23.667  24.897  1.00  0.00     0.078 A 
ATOM     17  N   UNL A   1      37.263  21.444  24.924  1.00  0.00    -0.085 NA
ATOM     18  O   UNL A   1      36.249  21.698  24.016  1.00  0.00    -0.355 OA
ENDBRANCH  12  13
ENDBRANCH   7  12
BRANCH  11  19
ATOM     19  C   UNL A   1      33.786  23.260  27.061  1.00  0.00    -0.001 C 
ATOM     20  C   UNL A   1      33.255  22.329  28.122  1.00  0.00     0.004 C 
ATOM     21  C   UNL A   1      34.397  21.891  27.275  1.00  0.00     0.004 C 
ENDBRANCH  11  19
ENDBRANCH   4   6
ENDBRANCH   3   4
ENDBRANCH   2   3
ENDBRANCH   1   2
BRANCH   1  22
ATOM     22  O   UNL A   1      33.678  29.271  27.449  1.00  0.00    -0.458 OA
BRANCH  22  23
ATOM     23  C   UNL A   1      34.378  30.329  27.925  1.00  0.00     0.338 C 
ATOM     24  O   UNL A   1      33.920  31.437  28.179  1.00  0.00    -0.246 OA
BRANCH  23  25
ATOM     25  C   UNL A   1      35.759  29.946  28.299  1.00  0.00     0.060 A 
ATOM     26  C   UNL A   1      36.677  29.910  27.252  1.00  0.00     0.016 A 
ATOM     27  C   UNL A   1      36.184  29.604  29.586  1.00  0.00     0.016 A 
ATOM     28  C   UNL A   1      38.025  29.680  27.487  1.00  0.00     0.010 A 
ATOM     29  C   UNL A   1      37.544  29.300  29.816  1.00  0.00     0.010 A 
ATOM     30  C   UNL A   1      38.481  29.382  28.772  1.00  0.00    -0.014 A 
BRANCH  30  31
ATOM     31  C   UNL A   1      39.930  29.090  28.912  1.00  0.00     0.031 A 
ATOM     32  C   UNL A   1      40.811  30.097  29.601  1.00  0.00     0.074 A 
ATOM     33  C   UNL A   1      40.424  27.867  28.629  1.00  0.00     0.049 A 
ATOM     34  N   UNL A   1      42.080  30.018  29.908  1.00  0.00    -0.248 NA
ATOM     35  C   UNL A   1      40.162  31.346  30.031  1.00  0.00     0.031 C 
ATOM     36  C   UNL A   1      39.648  26.737  28.122  1.00  0.00     0.029 A 
ATOM     37  N   UNL A   1      41.694  27.358  28.776  1.00  0.00    -0.354 N 
ATOM     38  C   UNL A   1      42.384  31.205  30.562  1.00  0.00     0.074 A 
ATOM     39  C   UNL A   1      41.163  31.980  30.624  1.00  0.00     0.031 C 
ATOM     40  C   UNL A   1      40.453  25.664  28.016  1.00  0.00     0.029 A 
ATOM     41  C   UNL A   1      41.815  26.044  28.385  1.00  0.00     0.049 A 
ATOM     42  H   UNL A   1      42.448  27.886  29.127  1.00  0.00     0.167 HD
ATOM     43  C   UNL A   1      43.576  31.628  31.044  1.00  0.00     0.031 A 
ATOM     44  C   UNL A   1      42.904  25.249  28.304  1.00  0.00     0.031 A 
ATOM     45  C   UNL A   1      44.805  30.889  30.932  1.00  0.00     0.049 A 
ATOM     46  C   UNL A   1      44.252  25.806  28.696  1.00  0.00     0.074 A 
ATOM     47  C   UNL A   1      46.079  31.276  31.309  1.00  0.00     0.029 A 
ATOM     48  N   UNL A   1      44.919  29.617  30.392  1.00  0.00    -0.354 N 
ATOM     49  N   UNL A   1      44.543  26.963  29.243  1.00  0.00    -0.248 NA
ATOM     50  C   UNL A   1      45.422  24.950  28.447  1.00  0.00     0.031 C 
ATOM     51  C   UNL A   1      46.973  30.267  30.934  1.00  0.00     0.029 A 
ATOM     52  C   UNL A   1      46.246  29.217  30.395  1.00  0.00     0.049 A 
ATOM     53  H   UNL A   1      44.168  29.077  30.055  1.00  0.00     0.167 HD
ATOM     54  C   UNL A   1      45.925  26.965  29.417  1.00  0.00     0.074 A 
ATOM     55  C   UNL A   1      46.406  25.683  28.949  1.00  0.00     0.031 C 
ATOM     56  C   UNL A   1      46.722  27.944  29.916  1.00  0.00     0.031 A 
BRANCH  43  57
ATOM     57  C   UNL A   1      43.620  33.013  31.630  1.00  0.00    -0.014 A 
ATOM     58  C   UNL A   1      43.879  34.145  30.838  1.00  0.00     0.010 A 
ATOM     59  C   UNL A   1      43.399  33.175  33.011  1.00  0.00     0.010 A 
ATOM     60  C   UNL A   1      43.954  35.412  31.426  1.00  0.00     0.020 A 
ATOM     61  C   UNL A   1      43.446  34.440  33.596  1.00  0.00     0.020 A 
ATOM     62  C   UNL A   1      43.741  35.550  32.802  1.00  0.00     0.054 A 
BRANCH  62  63
ATOM     63  S   UNL A   1      43.839  37.203  33.540  1.00  0.00     0.124 S 
ATOM     64  O   UNL A   1      42.612  37.254  34.332  1.00  0.00    -0.237 OA
ATOM     65  O   UNL A   1      45.079  37.136  34.307  1.00  0.00    -0.237 OA
ATOM     66  O   UNL A   1      43.871  38.098  32.384  1.00  0.00    -0.744 OA
ENDBRANCH  62  63
ENDBRANCH  43  57
BRANCH  44  67
ATOM     67  C   UNL A   1      42.799  23.867  27.743  1.00  0.00    -0.014 A 
ATOM     68  C   UNL A   1      42.830  23.634  26.357  1.00  0.00     0.010 A 
ATOM     69  C   UNL A   1      42.599  22.774  28.607  1.00  0.00     0.010 A 
ATOM     70  C   UNL A   1      42.639  22.344  25.846  1.00  0.00     0.020 A 
ATOM     71  C   UNL A   1      42.444  21.479  28.105  1.00  0.00     0.020 A 
ATOM     72  C   UNL A   1      42.449  21.274  26.726  1.00  0.00     0.054 A 
BRANCH  72  73
ATOM     73  S   UNL A   1      42.236  19.603  26.048  1.00  0.00     0.124 S 
ATOM     74  O   UNL A   1      43.186  19.600  24.940  1.00  0.00    -0.237 OA
ATOM     75  O   UNL A   1      42.584  18.756  27.186  1.00  0.00    -0.237 OA
ATOM     76  O   UNL A   1      40.826  19.569  25.663  1.00  0.00    -0.744 OA
ENDBRANCH  72  73
ENDBRANCH  44  67
BRANCH  56  77
ATOM     77  C   UNL A   1      48.201  27.654  30.014  1.00  0.00    -0.014 A 
ATOM     78  C   UNL A   1      49.106  28.102  29.035  1.00  0.00     0.010 A 
ATOM     79  C   UNL A   1      48.696  26.940  31.123  1.00  0.00     0.010 A 
ATOM     80  C   UNL A   1      50.467  27.792  29.133  1.00  0.00     0.020 A 
ATOM     81  C   UNL A   1      50.059  26.660  31.242  1.00  0.00     0.020 A 
ATOM     82  C   UNL A   1      50.935  27.068  30.234  1.00  0.00     0.054 A 
BRANCH  82  83
ATOM     83  S   UNL A   1      52.704  26.681  30.341  1.00  0.00     0.124 S 
ATOM     84  O   UNL A   1      53.279  27.982  30.670  1.00  0.00    -0.237 OA
ATOM     85  O   UNL A   1      52.750  25.684  31.408  1.00  0.00    -0.237 OA
ATOM     86  O   UNL A   1      53.029  26.176  29.009  1.00  0.00    -0.744 OA
ENDBRANCH  82  83
ENDBRANCH  56  77
ENDBRANCH  30  31
ENDBRANCH  23  25
ENDBRANCH  22  23
ENDBRANCH   1  22
TORSDOF 17
ENDMDL
