MODEL 1
REMARK VINA RESULT:     -11.0      0.000      0.000
REMARK SMILES O=C(OCCOC(=O)c1sccc1S(=O)(=O)Nc1ccccc1N1CCCCC1)c1ccc(-c2c3nc(c(-c4ccc(S(=O)(=O)[O-])cc4)c4ccc([nH]4)c(-c4ccc(S(=O)(=O)[O-])cc4)c4nc(c(-c5ccc(S(=O)(=O)[O-])cc5)c5ccc2[nH]5)C=C4)C=C3)cc1
REMARK SMILES IDX 5 1 4 2 3 3 2 4 1 5 30 6 31 7 89 8 32 9 88 10 33 11 34 12
REMARK SMILES IDX 35 13 82 14 36 15 87 16 81 17 83 18 37 19 86 20 80 21 79 22
REMARK SMILES IDX 38 24 68 25 49 26 67 27 50 28 53 29 66 30 84 31 51 32 52 33
REMARK SMILES IDX 65 35 85 36 54 37 39 38 40 39 48 40 41 41 47 42 42 43 43 44
REMARK SMILES IDX 44 45 45 46 46 47 69 48 70 49 78 50 71 51 77 52 72 53 73 54
REMARK SMILES IDX 74 55 75 56 76 57 55 58 56 59 64 60 57 61 63 62 58 63 59 64
REMARK SMILES IDX 60 65 61 66 62 67 6 68 7 69 8 70 9 71 10 72 13 73 11 74
REMARK SMILES IDX 12 75 14 76 15 77 16 78 17 79 18 81 19 82 23 83 20 84 22 85
REMARK SMILES IDX 21 86 24 87 25 88 29 89 26 90 28 91 27 92
REMARK H PARENT 83 23 53 34 17 80
REMARK Flexibility Score: inf
ROOT
ATOM      1  C   UNL A   1      33.568  29.421  27.172  1.00  0.00     0.275 C 
ENDROOT
BRANCH   1   2
ATOM      2  C   UNL A   1      33.402  30.918  27.400  1.00  0.00     0.275 C 
BRANCH   2   3
ATOM      3  O   UNL A   1      34.566  31.582  27.912  1.00  0.00    -0.458 OA
BRANCH   3   4
ATOM      4  C   UNL A   1      35.198  31.391  29.094  1.00  0.00     0.338 C 
ATOM      5  O   UNL A   1      34.787  31.964  30.100  1.00  0.00    -0.246 OA
BRANCH   4   6
ATOM      6  C   UNL A   1      36.475  30.629  29.194  1.00  0.00     0.060 A 
ATOM      7  C   UNL A   1      37.066  30.220  30.390  1.00  0.00     0.016 A 
ATOM      8  C   UNL A   1      37.155  30.379  27.988  1.00  0.00     0.016 A 
ATOM      9  C   UNL A   1      38.278  29.532  30.384  1.00  0.00     0.010 A 
ATOM     10  C   UNL A   1      38.397  29.734  27.976  1.00  0.00     0.010 A 
ATOM     11  C   UNL A   1      38.976  29.341  29.186  1.00  0.00    -0.014 A 
BRANCH  11  12
ATOM     12  C   UNL A   1      40.436  29.115  29.299  1.00  0.00     0.031 A 
ATOM     13  C   UNL A   1      40.920  27.777  28.838  1.00  0.00     0.074 A 
ATOM     14  C   UNL A   1      41.295  30.079  29.666  1.00  0.00     0.049 A 
ATOM     15  N   UNL A   1      42.139  27.374  28.624  1.00  0.00    -0.248 NA
ATOM     16  C   UNL A   1      39.884  26.766  28.555  1.00  0.00     0.031 C 
ATOM     17  C   UNL A   1      40.888  31.400  30.097  1.00  0.00     0.029 A 
ATOM     18  N   UNL A   1      42.663  30.139  29.699  1.00  0.00    -0.354 N 
ATOM     19  C   UNL A   1      42.015  26.068  28.177  1.00  0.00     0.074 A 
ATOM     20  C   UNL A   1      40.610  25.745  28.140  1.00  0.00     0.031 C 
ATOM     21  C   UNL A   1      41.962  32.179  30.288  1.00  0.00     0.029 A 
ATOM     22  C   UNL A   1      43.153  31.388  30.023  1.00  0.00     0.049 A 
ATOM     23  H   UNL A   1      43.240  29.365  29.511  1.00  0.00     0.167 HD
ATOM     24  C   UNL A   1      43.000  25.201  27.861  1.00  0.00     0.031 A 
ATOM     25  C   UNL A   1      44.421  31.837  30.076  1.00  0.00     0.031 A 
ATOM     26  C   UNL A   1      44.388  25.515  28.024  1.00  0.00     0.049 A 
ATOM     27  C   UNL A   1      45.501  30.844  29.745  1.00  0.00     0.074 A 
ATOM     28  C   UNL A   1      45.486  24.693  27.887  1.00  0.00     0.029 A 
ATOM     29  N   UNL A   1      44.859  26.770  28.395  1.00  0.00    -0.354 N 
ATOM     30  N   UNL A   1      45.371  29.601  29.340  1.00  0.00    -0.248 NA
ATOM     31  C   UNL A   1      46.890  31.294  29.885  1.00  0.00     0.031 C 
ATOM     32  C   UNL A   1      46.624  25.443  28.214  1.00  0.00     0.029 A 
ATOM     33  C   UNL A   1      46.234  26.746  28.501  1.00  0.00     0.049 A 
ATOM     34  H   UNL A   1      44.294  27.561  28.558  1.00  0.00     0.167 HD
ATOM     35  C   UNL A   1      46.658  29.115  29.182  1.00  0.00     0.074 A 
ATOM     36  C   UNL A   1      47.555  30.214  29.498  1.00  0.00     0.031 C 
ATOM     37  C   UNL A   1      47.071  27.873  28.827  1.00  0.00     0.031 A 
BRANCH  24  38
ATOM     38  C   UNL A   1      42.550  23.830  27.451  1.00  0.00    -0.014 A 
ATOM     39  C   UNL A   1      42.298  22.833  28.410  1.00  0.00     0.010 A 
ATOM     40  C   UNL A   1      42.534  23.494  26.086  1.00  0.00     0.010 A 
ATOM     41  C   UNL A   1      42.098  21.508  28.013  1.00  0.00     0.020 A 
ATOM     42  C   UNL A   1      42.315  22.174  25.685  1.00  0.00     0.020 A 
ATOM     43  C   UNL A   1      42.126  21.185  26.653  1.00  0.00     0.054 A 
BRANCH  43  44
ATOM     44  S   UNL A   1      41.923  19.452  26.159  1.00  0.00     0.124 S 
ATOM     45  O   UNL A   1      42.847  19.351  25.031  1.00  0.00    -0.237 OA
ATOM     46  O   UNL A   1      42.321  18.724  27.362  1.00  0.00    -0.237 OA
ATOM     47  O   UNL A   1      40.506  19.353  25.816  1.00  0.00    -0.744 OA
ENDBRANCH  43  44
ENDBRANCH  24  38
BRANCH  25  48
ATOM     48  C   UNL A   1      44.738  33.251  30.447  1.00  0.00    -0.014 A 
ATOM     49  C   UNL A   1      44.938  33.620  31.790  1.00  0.00     0.010 A 
ATOM     50  C   UNL A   1      44.835  34.249  29.458  1.00  0.00     0.010 A 
ATOM     51  C   UNL A   1      45.206  34.952  32.139  1.00  0.00     0.020 A 
ATOM     52  C   UNL A   1      45.128  35.576  29.798  1.00  0.00     0.020 A 
ATOM     53  C   UNL A   1      45.297  35.923  31.139  1.00  0.00     0.054 A 
BRANCH  53  54
ATOM     54  S   UNL A   1      45.680  37.638  31.602  1.00  0.00     0.124 S 
ATOM     55  O   UNL A   1      46.282  38.157  30.377  1.00  0.00    -0.237 OA
ATOM     56  O   UNL A   1      44.366  38.180  31.939  1.00  0.00    -0.237 OA
ATOM     57  O   UNL A   1      46.591  37.491  32.734  1.00  0.00    -0.744 OA
ENDBRANCH  53  54
ENDBRANCH  25  48
BRANCH  37  58
ATOM     58  C   UNL A   1      48.552  27.658  28.757  1.00  0.00    -0.014 A 
ATOM     59  C   UNL A   1      49.280  27.294  29.902  1.00  0.00     0.010 A 
ATOM     60  C   UNL A   1      49.201  27.760  27.517  1.00  0.00     0.010 A 
ATOM     61  C   UNL A   1      50.650  27.058  29.811  1.00  0.00     0.020 A 
ATOM     62  C   UNL A   1      50.568  27.502  27.418  1.00  0.00     0.020 A 
ATOM     63  C   UNL A   1      51.286  27.166  28.569  1.00  0.00     0.054 A 
BRANCH  63  64
ATOM     64  S   UNL A   1      53.057  26.805  28.460  1.00  0.00     0.124 S 
ATOM     65  O   UNL A   1      53.109  25.896  27.319  1.00  0.00    -0.237 OA
ATOM     66  O   UNL A   1      53.644  28.126  28.240  1.00  0.00    -0.237 OA
ATOM     67  O   UNL A   1      53.365  26.203  29.755  1.00  0.00    -0.744 OA
ENDBRANCH  63  64
ENDBRANCH  37  58
ENDBRANCH  11  12
ENDBRANCH   4   6
ENDBRANCH   3   4
ENDBRANCH   2   3
ENDBRANCH   1   2
BRANCH   1  68
ATOM     68  O   UNL A   1      32.782  28.871  26.106  1.00  0.00    -0.458 OA
BRANCH  68  69
ATOM     69  C   UNL A   1      31.767  28.056  26.495  1.00  0.00     0.349 C 
ATOM     70  O   UNL A   1      31.504  27.834  27.673  1.00  0.00    -0.245 OA
BRANCH  69  71
ATOM     71  C   UNL A   1      31.020  27.519  25.371  1.00  0.00     0.133 A 
ATOM     72  S   UNL A   1      30.582  28.696  24.164  1.00  0.00    -0.136 S 
ATOM     73  C   UNL A   1      30.486  26.275  25.053  1.00  0.00     0.113 A 
ATOM     74  C   UNL A   1      29.729  27.564  23.232  1.00  0.00     0.067 A 
ATOM     75  C   UNL A   1      29.703  26.333  23.837  1.00  0.00     0.035 A 
BRANCH  73  76
ATOM     76  S   UNL A   1      30.604  24.784  25.953  1.00  0.00     0.263 S 
ATOM     77  O   UNL A   1      31.937  24.830  26.518  1.00  0.00    -0.201 OA
ATOM     78  O   UNL A   1      29.449  24.734  26.817  1.00  0.00    -0.201 OA
BRANCH  76  79
ATOM     79  N   UNL A   1      30.670  23.433  24.961  1.00  0.00    -0.277 N 
ATOM     80  H   UNL A   1      29.886  23.163  24.430  1.00  0.00     0.180 HD
BRANCH  79  81
ATOM     81  C   UNL A   1      31.877  22.684  24.898  1.00  0.00     0.072 A 
ATOM     82  C   UNL A   1      32.009  21.552  25.712  1.00  0.00     0.029 A 
ATOM     83  C   UNL A   1      32.926  23.110  24.055  1.00  0.00     0.061 A 
ATOM     84  C   UNL A   1      33.171  20.788  25.657  1.00  0.00     0.002 A 
ATOM     85  C   UNL A   1      34.051  22.278  23.964  1.00  0.00     0.028 A 
ATOM     86  C   UNL A   1      34.177  21.133  24.758  1.00  0.00     0.002 A 
BRANCH  83  87
ATOM     87  N   UNL A   1      32.959  24.339  23.380  1.00  0.00    -0.370 N 
ATOM     88  C   UNL A   1      33.943  25.313  23.845  1.00  0.00     0.116 C 
ATOM     89  C   UNL A   1      32.775  24.273  21.925  1.00  0.00     0.116 C 
ATOM     90  C   UNL A   1      33.661  26.706  23.297  1.00  0.00     0.021 C 
ATOM     91  C   UNL A   1      32.422  25.659  21.393  1.00  0.00     0.021 C 
ATOM     92  C   UNL A   1      33.493  26.675  21.781  1.00  0.00     0.004 C 
ENDBRANCH  83  87
ENDBRANCH  79  81
ENDBRANCH  76  79
ENDBRANCH  73  76
ENDBRANCH  69  71
ENDBRANCH  68  69
ENDBRANCH   1  68
TORSDOF 18
ENDMDL
MODEL 2
REMARK VINA RESULT:     -10.9      2.385      8.897
REMARK SMILES O=C(OCCOC(=O)c1sccc1S(=O)(=O)Nc1ccccc1N1CCCCC1)c1ccc(-c2c3nc(c(-c4ccc(S(=O)(=O)[O-])cc4)c4ccc([nH]4)c(-c4ccc(S(=O)(=O)[O-])cc4)c4nc(c(-c5ccc(S(=O)(=O)[O-])cc5)c5ccc2[nH]5)C=C4)C=C3)cc1
REMARK SMILES IDX 5 1 4 2 3 3 2 4 1 5 30 6 31 7 89 8 32 9 88 10 33 11 34 12
REMARK SMILES IDX 35 13 82 14 36 15 87 16 81 17 83 18 37 19 86 20 80 21 79 22
REMARK SMILES IDX 38 24 68 25 49 26 67 27 50 28 53 29 66 30 84 31 51 32 52 33
REMARK SMILES IDX 65 35 85 36 54 37 39 38 40 39 48 40 41 41 47 42 42 43 43 44
REMARK SMILES IDX 44 45 45 46 46 47 69 48 70 49 78 50 71 51 77 52 72 53 73 54
REMARK SMILES IDX 74 55 75 56 76 57 55 58 56 59 64 60 57 61 63 62 58 63 59 64
REMARK SMILES IDX 60 65 61 66 62 67 6 68 7 69 8 70 9 71 10 72 13 73 11 74
REMARK SMILES IDX 12 75 14 76 15 77 16 78 17 79 18 81 19 82 23 83 20 84 22 85
REMARK SMILES IDX 21 86 24 87 25 88 29 89 26 90 28 91 27 92
REMARK H PARENT 83 23 53 34 17 80
REMARK Flexibility Score: inf
ROOT
ATOM      1  C   UNL A   1      32.539  29.451  27.306  1.00  0.00     0.275 C 
ENDROOT
BRANCH   1   2
ATOM      2  C   UNL A   1      32.676  30.962  27.175  1.00  0.00     0.275 C 
BRANCH   2   3
ATOM      3  O   UNL A   1      33.982  31.478  27.471  1.00  0.00    -0.458 OA
BRANCH   3   4
ATOM      4  C   UNL A   1      34.701  31.356  28.611  1.00  0.00     0.338 C 
ATOM      5  O   UNL A   1      34.421  32.055  29.581  1.00  0.00    -0.246 OA
BRANCH   4   6
ATOM      6  C   UNL A   1      35.927  30.512  28.687  1.00  0.00     0.060 A 
ATOM      7  C   UNL A   1      36.362  29.840  29.829  1.00  0.00     0.016 A 
ATOM      8  C   UNL A   1      36.730  30.463  27.531  1.00  0.00     0.016 A 
ATOM      9  C   UNL A   1      37.539  29.094  29.809  1.00  0.00     0.010 A 
ATOM     10  C   UNL A   1      37.938  29.757  27.518  1.00  0.00     0.010 A 
ATOM     11  C   UNL A   1      38.360  29.100  28.676  1.00  0.00    -0.014 A 
BRANCH  11  12
ATOM     12  C   UNL A   1      39.788  28.766  28.891  1.00  0.00     0.031 A 
ATOM     13  C   UNL A   1      40.568  29.753  29.699  1.00  0.00     0.074 A 
ATOM     14  C   UNL A   1      40.328  27.599  28.504  1.00  0.00     0.049 A 
ATOM     15  N   UNL A   1      41.756  29.633  30.218  1.00  0.00    -0.248 NA
ATOM     16  C   UNL A   1      39.904  31.040  29.981  1.00  0.00     0.031 C 
ATOM     17  C   UNL A   1      39.615  26.595  27.743  1.00  0.00     0.029 A 
ATOM     18  N   UNL A   1      41.554  27.028  28.719  1.00  0.00    -0.354 N 
ATOM     19  C   UNL A   1      41.978  30.825  30.891  1.00  0.00     0.074 A 
ATOM     20  C   UNL A   1      40.807  31.651  30.726  1.00  0.00     0.031 C 
ATOM     21  C   UNL A   1      40.369  25.494  27.604  1.00  0.00     0.029 A 
ATOM     22  C   UNL A   1      41.651  25.735  28.246  1.00  0.00     0.049 A 
ATOM     23  H   UNL A   1      42.294  27.495  29.168  1.00  0.00     0.167 HD
ATOM     24  C   UNL A   1      43.087  31.207  31.559  1.00  0.00     0.031 A 
ATOM     25  C   UNL A   1      42.659  24.847  28.344  1.00  0.00     0.031 A 
ATOM     26  C   UNL A   1      44.277  30.411  31.601  1.00  0.00     0.049 A 
ATOM     27  C   UNL A   1      43.893  25.308  29.070  1.00  0.00     0.074 A 
ATOM     28  C   UNL A   1      45.518  30.731  32.109  1.00  0.00     0.029 A 
ATOM     29  N   UNL A   1      44.366  29.125  31.077  1.00  0.00    -0.354 N 
ATOM     30  N   UNL A   1      44.098  26.448  29.688  1.00  0.00    -0.248 NA
ATOM     31  C   UNL A   1      45.032  24.384  29.106  1.00  0.00     0.031 C 
ATOM     32  C   UNL A   1      46.373  29.649  31.858  1.00  0.00     0.029 A 
ATOM     33  C   UNL A   1      45.647  28.637  31.242  1.00  0.00     0.049 A 
ATOM     34  H   UNL A   1      43.626  28.635  30.652  1.00  0.00     0.167 HD
ATOM     35  C   UNL A   1      45.390  26.386  30.184  1.00  0.00     0.074 A 
ATOM     36  C   UNL A   1      45.906  25.075  29.826  1.00  0.00     0.031 C 
ATOM     37  C   UNL A   1      46.101  27.324  30.857  1.00  0.00     0.031 A 
BRANCH  24  38
ATOM     38  C   UNL A   1      43.046  32.586  32.148  1.00  0.00    -0.014 A 
ATOM     39  C   UNL A   1      43.421  33.710  31.388  1.00  0.00     0.010 A 
ATOM     40  C   UNL A   1      42.782  32.737  33.520  1.00  0.00     0.010 A 
ATOM     41  C   UNL A   1      43.592  34.952  32.006  1.00  0.00     0.020 A 
ATOM     42  C   UNL A   1      42.934  33.982  34.137  1.00  0.00     0.020 A 
ATOM     43  C   UNL A   1      43.364  35.075  33.380  1.00  0.00     0.054 A 
BRANCH  43  44
ATOM     44  S   UNL A   1      43.648  36.680  34.175  1.00  0.00     0.124 S 
ATOM     45  O   UNL A   1      44.236  37.456  33.086  1.00  0.00    -0.237 OA
ATOM     46  O   UNL A   1      42.302  37.084  34.576  1.00  0.00    -0.237 OA
ATOM     47  O   UNL A   1      44.553  36.364  35.277  1.00  0.00    -0.744 OA
ENDBRANCH  43  44
ENDBRANCH  24  38
BRANCH  25  48
ATOM     48  C   UNL A   1      42.555  23.475  27.758  1.00  0.00    -0.014 A 
ATOM     49  C   UNL A   1      42.906  23.231  26.418  1.00  0.00     0.010 A 
ATOM     50  C   UNL A   1      42.095  22.395  28.537  1.00  0.00     0.010 A 
ATOM     51  C   UNL A   1      42.779  21.949  25.863  1.00  0.00     0.020 A 
ATOM     52  C   UNL A   1      41.991  21.107  27.995  1.00  0.00     0.020 A 
ATOM     53  C   UNL A   1      42.320  20.895  26.655  1.00  0.00     0.054 A 
BRANCH  53  54
ATOM     54  S   UNL A   1      42.195  19.231  25.933  1.00  0.00     0.124 S 
ATOM     55  O   UNL A   1      43.067  19.340  24.767  1.00  0.00    -0.237 OA
ATOM     56  O   UNL A   1      42.685  18.376  27.011  1.00  0.00    -0.237 OA
ATOM     57  O   UNL A   1      40.771  19.093  25.638  1.00  0.00    -0.744 OA
ENDBRANCH  53  54
ENDBRANCH  25  48
BRANCH  37  58
ATOM     58  C   UNL A   1      47.497  26.950  31.248  1.00  0.00    -0.014 A 
ATOM     59  C   UNL A   1      47.752  26.306  32.470  1.00  0.00     0.010 A 
ATOM     60  C   UNL A   1      48.548  27.190  30.349  1.00  0.00     0.010 A 
ATOM     61  C   UNL A   1      49.053  25.929  32.800  1.00  0.00     0.020 A 
ATOM     62  C   UNL A   1      49.846  26.793  30.667  1.00  0.00     0.020 A 
ATOM     63  C   UNL A   1      50.092  26.177  31.896  1.00  0.00     0.054 A 
BRANCH  63  64
ATOM     64  S   UNL A   1      51.766  25.633  32.320  1.00  0.00     0.124 S 
ATOM     65  O   UNL A   1      52.030  26.392  33.538  1.00  0.00    -0.237 OA
ATOM     66  O   UNL A   1      51.603  24.191  32.499  1.00  0.00    -0.237 OA
ATOM     67  O   UNL A   1      52.559  26.022  31.156  1.00  0.00    -0.744 OA
ENDBRANCH  63  64
ENDBRANCH  37  58
ENDBRANCH  11  12
ENDBRANCH   4   6
ENDBRANCH   3   4
ENDBRANCH   2   3
ENDBRANCH   1   2
BRANCH   1  68
ATOM     68  O   UNL A   1      32.535  28.725  26.069  1.00  0.00    -0.458 OA
BRANCH  68  69
ATOM     69  C   UNL A   1      32.115  27.437  26.156  1.00  0.00     0.349 C 
ATOM     70  O   UNL A   1      31.316  27.050  27.003  1.00  0.00    -0.245 OA
BRANCH  69  71
ATOM     71  C   UNL A   1      32.683  26.593  25.118  1.00  0.00     0.133 A 
ATOM     72  S   UNL A   1      33.659  25.276  25.709  1.00  0.00    -0.136 S 
ATOM     73  C   UNL A   1      32.702  26.626  23.728  1.00  0.00     0.113 A 
ATOM     74  C   UNL A   1      34.069  24.754  24.148  1.00  0.00     0.067 A 
ATOM     75  C   UNL A   1      33.547  25.583  23.188  1.00  0.00     0.035 A 
BRANCH  73  76
ATOM     76  S   UNL A   1      31.919  27.765  22.661  1.00  0.00     0.263 S 
ATOM     77  O   UNL A   1      32.954  28.737  22.379  1.00  0.00    -0.201 OA
ATOM     78  O   UNL A   1      31.336  26.990  21.591  1.00  0.00    -0.201 OA
BRANCH  76  79
ATOM     79  N   UNL A   1      30.752  28.683  23.441  1.00  0.00    -0.277 N 
ATOM     80  H   UNL A   1      30.977  29.566  23.815  1.00  0.00     0.180 HD
BRANCH  79  81
ATOM     81  C   UNL A   1      29.432  28.167  23.553  1.00  0.00     0.072 A 
ATOM     82  C   UNL A   1      29.262  26.826  23.922  1.00  0.00     0.029 A 
ATOM     83  C   UNL A   1      28.326  28.992  23.257  1.00  0.00     0.061 A 
ATOM     84  C   UNL A   1      27.982  26.298  24.058  1.00  0.00     0.002 A 
ATOM     85  C   UNL A   1      27.049  28.456  23.478  1.00  0.00     0.028 A 
ATOM     86  C   UNL A   1      26.877  27.124  23.870  1.00  0.00     0.002 A 
BRANCH  83  87
ATOM     87  N   UNL A   1      28.414  30.267  22.676  1.00  0.00    -0.370 N 
ATOM     88  C   UNL A   1      27.980  30.382  21.286  1.00  0.00     0.116 C 
ATOM     89  C   UNL A   1      28.048  31.391  23.546  1.00  0.00     0.116 C 
ATOM     90  C   UNL A   1      28.440  31.691  20.657  1.00  0.00     0.021 C 
ATOM     91  C   UNL A   1      28.576  32.691  22.946  1.00  0.00     0.021 C 
ATOM     92  C   UNL A   1      28.050  32.882  21.526  1.00  0.00     0.004 C 
ENDBRANCH  83  87
ENDBRANCH  79  81
ENDBRANCH  76  79
ENDBRANCH  73  76
ENDBRANCH  69  71
ENDBRANCH  68  69
ENDBRANCH   1  68
TORSDOF 18
ENDMDL
MODEL 3
REMARK VINA RESULT:     -10.9      5.397     10.763
REMARK SMILES O=C(OCCOC(=O)c1sccc1S(=O)(=O)Nc1ccccc1N1CCCCC1)c1ccc(-c2c3nc(c(-c4ccc(S(=O)(=O)[O-])cc4)c4ccc([nH]4)c(-c4ccc(S(=O)(=O)[O-])cc4)c4nc(c(-c5ccc(S(=O)(=O)[O-])cc5)c5ccc2[nH]5)C=C4)C=C3)cc1
REMARK SMILES IDX 5 1 4 2 3 3 2 4 1 5 30 6 31 7 89 8 32 9 88 10 33 11 34 12
REMARK SMILES IDX 35 13 82 14 36 15 87 16 81 17 83 18 37 19 86 20 80 21 79 22
REMARK SMILES IDX 38 24 68 25 49 26 67 27 50 28 53 29 66 30 84 31 51 32 52 33
REMARK SMILES IDX 65 35 85 36 54 37 39 38 40 39 48 40 41 41 47 42 42 43 43 44
REMARK SMILES IDX 44 45 45 46 46 47 69 48 70 49 78 50 71 51 77 52 72 53 73 54
REMARK SMILES IDX 74 55 75 56 76 57 55 58 56 59 64 60 57 61 63 62 58 63 59 64
REMARK SMILES IDX 60 65 61 66 62 67 6 68 7 69 8 70 9 71 10 72 13 73 11 74
REMARK SMILES IDX 12 75 14 76 15 77 16 78 17 79 18 81 19 82 23 83 20 84 22 85
REMARK SMILES IDX 21 86 24 87 25 88 29 89 26 90 28 91 27 92
REMARK H PARENT 83 23 53 34 17 80
REMARK Flexibility Score: inf
ROOT
ATOM      1  C   UNL A   1      37.699  22.651  25.687  1.00  0.00     0.275 C 
ENDROOT
BRANCH   1   2
ATOM      2  C   UNL A   1      37.883  24.048  26.266  1.00  0.00     0.275 C 
BRANCH   2   3
ATOM      3  O   UNL A   1      39.176  24.299  26.834  1.00  0.00    -0.458 OA
BRANCH   3   4
ATOM      4  C   UNL A   1      39.918  25.430  26.781  1.00  0.00     0.338 C 
ATOM      5  O   UNL A   1      40.819  25.524  25.951  1.00  0.00    -0.246 OA
BRANCH   4   6
ATOM      6  C   UNL A   1      39.787  26.512  27.797  1.00  0.00     0.060 A 
ATOM      7  C   UNL A   1      40.287  27.806  27.651  1.00  0.00     0.016 A 
ATOM      8  C   UNL A   1      39.175  26.161  29.015  1.00  0.00     0.016 A 
ATOM      9  C   UNL A   1      40.136  28.745  28.671  1.00  0.00     0.010 A 
ATOM     10  C   UNL A   1      39.064  27.082  30.063  1.00  0.00     0.010 A 
ATOM     11  C   UNL A   1      39.581  28.370  29.900  1.00  0.00    -0.014 A 
BRANCH  11  12
ATOM     12  C   UNL A   1      39.936  29.207  31.070  1.00  0.00     0.031 A 
ATOM     13  C   UNL A   1      38.928  30.242  31.454  1.00  0.00     0.074 A 
ATOM     14  C   UNL A   1      41.024  28.980  31.823  1.00  0.00     0.049 A 
ATOM     15  N   UNL A   1      38.863  30.965  32.534  1.00  0.00    -0.248 NA
ATOM     16  C   UNL A   1      37.826  30.470  30.499  1.00  0.00     0.031 C 
ATOM     17  C   UNL A   1      42.021  27.976  31.516  1.00  0.00     0.029 A 
ATOM     18  N   UNL A   1      41.463  29.518  33.003  1.00  0.00    -0.354 N 
ATOM     19  C   UNL A   1      37.716  31.729  32.391  1.00  0.00     0.074 A 
ATOM     20  C   UNL A   1      37.107  31.380  31.130  1.00  0.00     0.031 C 
ATOM     21  C   UNL A   1      42.926  27.902  32.503  1.00  0.00     0.029 A 
ATOM     22  C   UNL A   1      42.586  28.894  33.510  1.00  0.00     0.049 A 
ATOM     23  H   UNL A   1      41.021  30.276  33.447  1.00  0.00     0.167 HD
ATOM     24  C   UNL A   1      37.234  32.671  33.229  1.00  0.00     0.031 A 
ATOM     25  C   UNL A   1      43.244  29.095  34.668  1.00  0.00     0.031 A 
ATOM     26  C   UNL A   1      37.928  33.078  34.414  1.00  0.00     0.049 A 
ATOM     27  C   UNL A   1      42.702  30.168  35.572  1.00  0.00     0.074 A 
ATOM     28  C   UNL A   1      37.640  34.115  35.276  1.00  0.00     0.029 A 
ATOM     29  N   UNL A   1      39.084  32.463  34.883  1.00  0.00    -0.354 N 
ATOM     30  N   UNL A   1      41.621  30.899  35.415  1.00  0.00    -0.248 NA
ATOM     31  C   UNL A   1      43.460  30.459  36.793  1.00  0.00     0.031 C 
ATOM     32  C   UNL A   1      38.648  34.153  36.249  1.00  0.00     0.029 A 
ATOM     33  C   UNL A   1      39.531  33.104  36.021  1.00  0.00     0.049 A 
ATOM     34  H   UNL A   1      39.521  31.685  34.466  1.00  0.00     0.167 HD
ATOM     35  C   UNL A   1      41.569  31.742  36.513  1.00  0.00     0.074 A 
ATOM     36  C   UNL A   1      42.709  31.401  37.348  1.00  0.00     0.031 C 
ATOM     37  C   UNL A   1      40.678  32.721  36.805  1.00  0.00     0.031 A 
BRANCH  24  38
ATOM     38  C   UNL A   1      35.986  33.366  32.775  1.00  0.00    -0.014 A 
ATOM     39  C   UNL A   1      36.035  34.384  31.804  1.00  0.00     0.010 A 
ATOM     40  C   UNL A   1      34.775  33.107  33.441  1.00  0.00     0.010 A 
ATOM     41  C   UNL A   1      34.909  35.173  31.552  1.00  0.00     0.020 A 
ATOM     42  C   UNL A   1      33.642  33.881  33.177  1.00  0.00     0.020 A 
ATOM     43  C   UNL A   1      33.725  34.926  32.254  1.00  0.00     0.054 A 
BRANCH  43  44
ATOM     44  S   UNL A   1      32.291  35.996  31.957  1.00  0.00     0.124 S 
ATOM     45  O   UNL A   1      32.689  37.228  32.636  1.00  0.00    -0.237 OA
ATOM     46  O   UNL A   1      32.241  36.073  30.499  1.00  0.00    -0.237 OA
ATOM     47  O   UNL A   1      31.185  35.272  32.578  1.00  0.00    -0.744 OA
ENDBRANCH  43  44
ENDBRANCH  24  38
BRANCH  25  48
ATOM     48  C   UNL A   1      44.451  28.292  35.033  1.00  0.00    -0.014 A 
ATOM     49  C   UNL A   1      45.738  28.699  34.636  1.00  0.00     0.010 A 
ATOM     50  C   UNL A   1      44.325  27.104  35.778  1.00  0.00     0.010 A 
ATOM     51  C   UNL A   1      46.866  27.929  34.955  1.00  0.00     0.020 A 
ATOM     52  C   UNL A   1      45.451  26.344  36.121  1.00  0.00     0.020 A 
ATOM     53  C   UNL A   1      46.715  26.754  35.694  1.00  0.00     0.054 A 
BRANCH  53  54
ATOM     54  S   UNL A   1      48.190  25.785  36.130  1.00  0.00     0.124 S 
ATOM     55  O   UNL A   1      49.117  26.823  36.573  1.00  0.00    -0.237 OA
ATOM     56  O   UNL A   1      47.691  24.895  37.176  1.00  0.00    -0.237 OA
ATOM     57  O   UNL A   1      48.545  25.121  34.878  1.00  0.00    -0.744 OA
ENDBRANCH  53  54
ENDBRANCH  25  48
BRANCH  37  58
ATOM     58  C   UNL A   1      40.908  33.474  38.079  1.00  0.00    -0.014 A 
ATOM     59  C   UNL A   1      41.719  34.620  38.101  1.00  0.00     0.010 A 
ATOM     60  C   UNL A   1      40.248  33.059  39.247  1.00  0.00     0.010 A 
ATOM     61  C   UNL A   1      41.889  35.331  39.288  1.00  0.00     0.020 A 
ATOM     62  C   UNL A   1      40.398  33.782  40.430  1.00  0.00     0.020 A 
ATOM     63  C   UNL A   1      41.228  34.905  40.445  1.00  0.00     0.054 A 
BRANCH  63  64
ATOM     64  S   UNL A   1      41.420  35.872  41.965  1.00  0.00     0.124 S 
ATOM     65  O   UNL A   1      42.261  36.977  41.515  1.00  0.00    -0.237 OA
ATOM     66  O   UNL A   1      40.041  36.225  42.300  1.00  0.00    -0.237 OA
ATOM     67  O   UNL A   1      42.057  34.936  42.889  1.00  0.00    -0.744 OA
ENDBRANCH  63  64
ENDBRANCH  37  58
ENDBRANCH  11  12
ENDBRANCH   4   6
ENDBRANCH   3   4
ENDBRANCH   2   3
ENDBRANCH   1   2
BRANCH   1  68
ATOM     68  O   UNL A   1      36.394  22.371  25.161  1.00  0.00    -0.458 OA
BRANCH  68  69
ATOM     69  C   UNL A   1      36.053  21.057  25.129  1.00  0.00     0.349 C 
ATOM     70  O   UNL A   1      36.879  20.154  25.053  1.00  0.00    -0.245 OA
BRANCH  69  71
ATOM     71  C   UNL A   1      34.618  20.850  25.234  1.00  0.00     0.133 A 
ATOM     72  S   UNL A   1      34.044  19.376  24.505  1.00  0.00    -0.136 S 
ATOM     73  C   UNL A   1      33.551  21.599  25.719  1.00  0.00     0.113 A 
ATOM     74  C   UNL A   1      32.421  19.722  24.856  1.00  0.00     0.067 A 
ATOM     75  C   UNL A   1      32.286  20.952  25.448  1.00  0.00     0.035 A 
BRANCH  73  76
ATOM     76  S   UNL A   1      33.592  23.161  26.499  1.00  0.00     0.263 S 
ATOM     77  O   UNL A   1      32.199  23.548  26.562  1.00  0.00    -0.201 OA
ATOM     78  O   UNL A   1      34.356  22.993  27.712  1.00  0.00    -0.201 OA
BRANCH  76  79
ATOM     79  N   UNL A   1      34.263  24.351  25.527  1.00  0.00    -0.277 N 
ATOM     80  H   UNL A   1      35.133  24.753  25.755  1.00  0.00     0.180 HD
BRANCH  79  81
ATOM     81  C   UNL A   1      33.556  24.773  24.368  1.00  0.00     0.072 A 
ATOM     82  C   UNL A   1      33.686  24.026  23.191  1.00  0.00     0.029 A 
ATOM     83  C   UNL A   1      32.773  25.947  24.410  1.00  0.00     0.061 A 
ATOM     84  C   UNL A   1      32.991  24.403  22.046  1.00  0.00     0.002 A 
ATOM     85  C   UNL A   1      32.024  26.258  23.266  1.00  0.00     0.028 A 
ATOM     86  C   UNL A   1      32.134  25.500  22.095  1.00  0.00     0.002 A 
BRANCH  83  87
ATOM     87  N   UNL A   1      32.763  26.863  25.473  1.00  0.00    -0.370 N 
ATOM     88  C   UNL A   1      33.809  27.882  25.466  1.00  0.00     0.116 C 
ATOM     89  C   UNL A   1      31.438  27.322  25.908  1.00  0.00     0.116 C 
ATOM     90  C   UNL A   1      33.923  28.583  26.814  1.00  0.00     0.021 C 
ATOM     91  C   UNL A   1      31.548  27.958  27.290  1.00  0.00     0.021 C 
ATOM     92  C   UNL A   1      32.565  29.097  27.280  1.00  0.00     0.004 C 
ENDBRANCH  83  87
ENDBRANCH  79  81
ENDBRANCH  76  79
ENDBRANCH  73  76
ENDBRANCH  69  71
ENDBRANCH  68  69
ENDBRANCH   1  68
TORSDOF 18
ENDMDL
