MODEL 1
REMARK VINA RESULT:     -11.6      0.000      0.000
REMARK SMILES CC[C@@H](C)c1ccccc1NC(=O)[C@@H]1[C@@H](C(=O)OCCOC(=O)c2ccc(-c3c4nc(c(-c5ccc(S(=O)(=O)[O-])cc5)c5ccc([nH]5)c(-c5ccc(S(=O)(=O)[O-])cc5)c5nc(c(-c6ccc(S(=O)(=O)[O-])cc6)c6ccc3[nH]6)C=C5)C=C4)cc2)[C@@H]2C=C[C@H]1C2
REMARK SMILES IDX 19 1 18 2 16 3 17 4 15 5 14 6 87 7 84 8 86 9 88 10 85 11
REMARK SMILES IDX 12 12 11 13 13 15 10 16 5 17 6 18 7 19 9 20 8 21 3 22 4 23
REMARK SMILES IDX 2 24 1 25 20 26 21 27 22 28 23 29 24 30 25 31 83 32 26 33
REMARK SMILES IDX 82 34 27 35 28 36 29 37 76 38 30 39 81 40 75 41 77 42 31 43
REMARK SMILES IDX 80 44 74 45 73 46 32 48 62 49 43 50 61 51 44 52 47 53 60 54
REMARK SMILES IDX 78 55 45 56 46 57 59 59 79 60 48 61 33 62 34 63 42 64 35 65
REMARK SMILES IDX 41 66 36 67 37 68 38 69 39 70 40 71 63 72 64 73 72 74 65 75
REMARK SMILES IDX 71 76 66 77 67 78 68 79 69 80 70 81 49 82 50 83 58 84 51 85
REMARK SMILES IDX 57 86 52 87 53 88 54 89 55 90 56 91
REMARK H PARENT 11 14 77 47 47 58
REMARK Flexibility Score: inf
ROOT
ATOM      1  C   UNL A   1      37.756  22.309  25.180  1.00  0.00     0.274 C 
ENDROOT
BRANCH   1   2
ATOM      2  O   UNL A   1      36.441  22.452  25.756  1.00  0.00    -0.462 OA
BRANCH   2   3
ATOM      3  C   UNL A   1      35.468  21.700  25.177  1.00  0.00     0.310 C 
ATOM      4  O   UNL A   1      35.613  20.539  24.815  1.00  0.00    -0.252 OA
BRANCH   3   5
ATOM      5  C   UNL A   1      34.129  22.399  25.143  1.00  0.00     0.119 C 
ATOM      6  C   UNL A   1      34.118  23.906  25.612  1.00  0.00     0.100 C 
ATOM      7  C   UNL A   1      32.947  23.871  26.629  1.00  0.00     0.025 C 
ATOM      8  C   UNL A   1      33.110  21.722  26.096  1.00  0.00     0.027 C 
ATOM      9  C   UNL A   1      31.647  23.473  25.968  1.00  0.00    -0.027 C 
ATOM     10  C   UNL A   1      33.230  22.557  27.362  1.00  0.00     0.017 C 
ATOM     11  C   UNL A   1      31.739  22.172  25.658  1.00  0.00    -0.027 C 
BRANCH   6  12
ATOM     12  C   UNL A   1      34.156  24.803  24.359  1.00  0.00     0.228 C 
ATOM     13  N   UNL A   1      33.708  26.085  24.252  1.00  0.00    -0.326 N 
ATOM     14  H   UNL A   1      33.781  26.469  23.348  1.00  0.00     0.169 HD
ATOM     15  O   UNL A   1      34.655  24.329  23.327  1.00  0.00    -0.274 OA
BRANCH  13  16
ATOM     16  C   UNL A   1      33.163  26.951  25.205  1.00  0.00     0.044 A 
ATOM     17  C   UNL A   1      31.765  27.134  25.316  1.00  0.00    -0.022 A 
ATOM     18  C   UNL A   1      31.309  27.741  26.506  1.00  0.00     0.006 A 
ATOM     19  C   UNL A   1      32.188  28.299  27.437  1.00  0.00     0.000 A 
ATOM     20  C   UNL A   1      34.029  27.641  26.058  1.00  0.00     0.026 A 
ATOM     21  C   UNL A   1      33.548  28.310  27.178  1.00  0.00     0.002 A 
BRANCH  17  22
ATOM     22  C   UNL A   1      30.777  26.836  24.172  1.00  0.00     0.018 C 
ATOM     23  C   UNL A   1      30.468  28.071  23.294  1.00  0.00     0.013 C 
BRANCH  22  24
ATOM     24  C   UNL A   1      29.445  26.149  24.557  1.00  0.00     0.005 C 
ATOM     25  C   UNL A   1      28.258  26.726  23.780  1.00  0.00     0.004 C 
ENDBRANCH  22  24
ENDBRANCH  17  22
ENDBRANCH  13  16
ENDBRANCH   6  12
ENDBRANCH   3   5
ENDBRANCH   2   3
ENDBRANCH   1   2
BRANCH   1  26
ATOM     26  C   UNL A   1      38.820  22.599  26.238  1.00  0.00     0.275 C 
BRANCH  26  27
ATOM     27  O   UNL A   1      38.996  24.021  26.367  1.00  0.00    -0.458 OA
BRANCH  27  28
ATOM     28  C   UNL A   1      40.233  24.422  26.738  1.00  0.00     0.338 C 
ATOM     29  O   UNL A   1      41.292  23.915  26.412  1.00  0.00    -0.246 OA
BRANCH  28  30
ATOM     30  C   UNL A   1      40.145  25.600  27.628  1.00  0.00     0.060 A 
ATOM     31  C   UNL A   1      40.993  26.698  27.464  1.00  0.00     0.016 A 
ATOM     32  C   UNL A   1      39.278  25.548  28.720  1.00  0.00     0.016 A 
ATOM     33  C   UNL A   1      41.055  27.685  28.447  1.00  0.00     0.010 A 
ATOM     34  C   UNL A   1      39.260  26.598  29.641  1.00  0.00     0.010 A 
ATOM     35  C   UNL A   1      40.175  27.659  29.538  1.00  0.00    -0.014 A 
BRANCH  35  36
ATOM     36  C   UNL A   1      40.205  28.732  30.570  1.00  0.00     0.031 A 
ATOM     37  C   UNL A   1      41.200  28.674  31.702  1.00  0.00     0.074 A 
ATOM     38  C   UNL A   1      39.324  29.751  30.507  1.00  0.00     0.049 A 
ATOM     39  N   UNL A   1      41.266  29.411  32.782  1.00  0.00    -0.248 NA
ATOM     40  C   UNL A   1      42.249  27.644  31.615  1.00  0.00     0.031 C 
ATOM     41  C   UNL A   1      38.325  29.949  29.452  1.00  0.00     0.029 A 
ATOM     42  N   UNL A   1      39.122  30.812  31.354  1.00  0.00    -0.354 N 
ATOM     43  C   UNL A   1      42.325  28.903  33.527  1.00  0.00     0.074 A 
ATOM     44  C   UNL A   1      42.871  27.791  32.777  1.00  0.00     0.031 C 
ATOM     45  C   UNL A   1      37.644  31.078  29.697  1.00  0.00     0.029 A 
ATOM     46  C   UNL A   1      38.096  31.639  30.963  1.00  0.00     0.049 A 
ATOM     47  H   UNL A   1      39.662  30.967  32.162  1.00  0.00     0.167 HD
ATOM     48  C   UNL A   1      42.796  29.319  34.728  1.00  0.00     0.031 A 
ATOM     49  C   UNL A   1      37.549  32.710  31.570  1.00  0.00     0.031 A 
ATOM     50  C   UNL A   1      42.270  30.444  35.456  1.00  0.00     0.049 A 
ATOM     51  C   UNL A   1      38.079  33.146  32.904  1.00  0.00     0.074 A 
ATOM     52  C   UNL A   1      42.681  30.948  36.679  1.00  0.00     0.029 A 
ATOM     53  N   UNL A   1      41.230  31.251  35.022  1.00  0.00    -0.354 N 
ATOM     54  N   UNL A   1      39.049  32.623  33.615  1.00  0.00    -0.248 NA
ATOM     55  C   UNL A   1      37.437  34.314  33.522  1.00  0.00     0.031 C 
ATOM     56  C   UNL A   1      41.869  32.044  36.996  1.00  0.00     0.029 A 
ATOM     57  C   UNL A   1      40.984  32.247  35.951  1.00  0.00     0.049 A 
ATOM     58  H   UNL A   1      40.739  31.134  34.176  1.00  0.00     0.167 HD
ATOM     59  C   UNL A   1      39.146  33.409  34.757  1.00  0.00     0.074 A 
ATOM     60  C   UNL A   1      38.147  34.451  34.633  1.00  0.00     0.031 C 
ATOM     61  C   UNL A   1      39.986  33.278  35.811  1.00  0.00     0.031 A 
BRANCH  48  62
ATOM     62  C   UNL A   1      43.918  28.529  35.348  1.00  0.00    -0.014 A 
ATOM     63  C   UNL A   1      43.667  27.480  36.249  1.00  0.00     0.010 A 
ATOM     64  C   UNL A   1      45.249  28.825  34.996  1.00  0.00     0.010 A 
ATOM     65  C   UNL A   1      44.727  26.767  36.818  1.00  0.00     0.020 A 
ATOM     66  C   UNL A   1      46.311  28.099  35.544  1.00  0.00     0.020 A 
ATOM     67  C   UNL A   1      46.043  27.086  36.467  1.00  0.00     0.054 A 
BRANCH  67  68
ATOM     68  S   UNL A   1      47.403  26.140  37.209  1.00  0.00     0.124 S 
ATOM     69  O   UNL A   1      46.701  25.344  38.213  1.00  0.00    -0.237 OA
ATOM     70  O   UNL A   1      47.933  25.390  36.073  1.00  0.00    -0.237 OA
ATOM     71  O   UNL A   1      48.291  27.170  37.740  1.00  0.00    -0.744 OA
ENDBRANCH  67  68
ENDBRANCH  48  62
BRANCH  49  72
ATOM     72  C   UNL A   1      36.413  33.421  30.926  1.00  0.00    -0.014 A 
ATOM     73  C   UNL A   1      35.243  33.700  31.651  1.00  0.00     0.010 A 
ATOM     74  C   UNL A   1      36.510  33.851  29.590  1.00  0.00     0.010 A 
ATOM     75  C   UNL A   1      34.185  34.388  31.050  1.00  0.00     0.020 A 
ATOM     76  C   UNL A   1      35.466  34.563  28.994  1.00  0.00     0.020 A 
ATOM     77  C   UNL A   1      34.304  34.817  29.724  1.00  0.00     0.054 A 
BRANCH  77  78
ATOM     78  S   UNL A   1      32.947  35.764  28.980  1.00  0.00     0.124 S 
ATOM     79  O   UNL A   1      32.349  34.781  28.083  1.00  0.00    -0.237 OA
ATOM     80  O   UNL A   1      32.140  36.134  30.141  1.00  0.00    -0.237 OA
ATOM     81  O   UNL A   1      33.629  36.878  28.327  1.00  0.00    -0.744 OA
ENDBRANCH  77  78
ENDBRANCH  49  72
BRANCH  61  82
ATOM     82  C   UNL A   1      39.889  34.317  36.893  1.00  0.00    -0.014 A 
ATOM     83  C   UNL A   1      40.604  35.526  36.810  1.00  0.00     0.010 A 
ATOM     84  C   UNL A   1      39.048  34.088  37.997  1.00  0.00     0.010 A 
ATOM     85  C   UNL A   1      40.507  36.472  37.833  1.00  0.00     0.020 A 
ATOM     86  C   UNL A   1      38.933  35.042  39.011  1.00  0.00     0.020 A 
ATOM     87  C   UNL A   1      39.677  36.222  38.930  1.00  0.00     0.054 A 
BRANCH  87  88
ATOM     88  S   UNL A   1      39.545  37.474  40.236  1.00  0.00     0.124 S 
ATOM     89  O   UNL A   1      40.943  37.840  40.446  1.00  0.00    -0.237 OA
ATOM     90  O   UNL A   1      38.712  38.501  39.617  1.00  0.00    -0.237 OA
ATOM     91  O   UNL A   1      38.916  36.753  41.341  1.00  0.00    -0.744 OA
ENDBRANCH  87  88
ENDBRANCH  61  82
ENDBRANCH  35  36
ENDBRANCH  28  30
ENDBRANCH  27  28
ENDBRANCH  26  27
ENDBRANCH   1  26
TORSDOF 18
ENDMDL
MODEL 2
REMARK VINA RESULT:     -11.1      4.864      5.944
REMARK SMILES CC[C@@H](C)c1ccccc1NC(=O)[C@@H]1[C@@H](C(=O)OCCOC(=O)c2ccc(-c3c4nc(c(-c5ccc(S(=O)(=O)[O-])cc5)c5ccc([nH]5)c(-c5ccc(S(=O)(=O)[O-])cc5)c5nc(c(-c6ccc(S(=O)(=O)[O-])cc6)c6ccc3[nH]6)C=C5)C=C4)cc2)[C@@H]2C=C[C@H]1C2
REMARK SMILES IDX 19 1 18 2 16 3 17 4 15 5 14 6 87 7 84 8 86 9 88 10 85 11
REMARK SMILES IDX 12 12 11 13 13 15 10 16 5 17 6 18 7 19 9 20 8 21 3 22 4 23
REMARK SMILES IDX 2 24 1 25 20 26 21 27 22 28 23 29 24 30 25 31 83 32 26 33
REMARK SMILES IDX 82 34 27 35 28 36 29 37 76 38 30 39 81 40 75 41 77 42 31 43
REMARK SMILES IDX 80 44 74 45 73 46 32 48 62 49 43 50 61 51 44 52 47 53 60 54
REMARK SMILES IDX 78 55 45 56 46 57 59 59 79 60 48 61 33 62 34 63 42 64 35 65
REMARK SMILES IDX 41 66 36 67 37 68 38 69 39 70 40 71 63 72 64 73 72 74 65 75
REMARK SMILES IDX 71 76 66 77 67 78 68 79 69 80 70 81 49 82 50 83 58 84 51 85
REMARK SMILES IDX 57 86 52 87 53 88 54 89 55 90 56 91
REMARK H PARENT 11 14 77 47 47 58
REMARK Flexibility Score: inf
ROOT
ATOM      1  C   UNL A   1      36.254  21.007  24.750  1.00  0.00     0.274 C 
ENDROOT
BRANCH   1   2
ATOM      2  O   UNL A   1      35.814  22.380  24.735  1.00  0.00    -0.462 OA
BRANCH   2   3
ATOM      3  C   UNL A   1      35.623  22.915  23.499  1.00  0.00     0.310 C 
ATOM      4  O   UNL A   1      36.495  23.014  22.645  1.00  0.00    -0.252 OA
BRANCH   3   5
ATOM      5  C   UNL A   1      34.178  23.261  23.227  1.00  0.00     0.119 C 
ATOM      6  C   UNL A   1      33.611  24.527  23.978  1.00  0.00     0.100 C 
ATOM      7  C   UNL A   1      32.312  23.933  24.582  1.00  0.00     0.025 C 
ATOM      8  C   UNL A   1      33.227  22.122  23.680  1.00  0.00     0.027 C 
ATOM      9  C   UNL A   1      31.370  23.443  23.505  1.00  0.00    -0.027 C 
ATOM     10  C   UNL A   1      32.808  22.571  25.072  1.00  0.00     0.017 C 
ATOM     11  C   UNL A   1      31.916  22.343  22.969  1.00  0.00    -0.027 C 
BRANCH   6  12
ATOM     12  C   UNL A   1      33.652  25.724  23.008  1.00  0.00     0.228 C 
ATOM     13  N   UNL A   1      33.359  27.024  23.293  1.00  0.00    -0.326 N 
ATOM     14  H   UNL A   1      33.401  27.631  22.518  1.00  0.00     0.169 HD
ATOM     15  O   UNL A   1      33.996  25.503  21.837  1.00  0.00    -0.274 OA
BRANCH  13  16
ATOM     16  C   UNL A   1      33.011  27.645  24.496  1.00  0.00     0.044 A 
ATOM     17  C   UNL A   1      31.718  28.180  24.699  1.00  0.00    -0.022 A 
ATOM     18  C   UNL A   1      31.365  28.465  26.036  1.00  0.00     0.006 A 
ATOM     19  C   UNL A   1      32.293  28.403  27.077  1.00  0.00     0.000 A 
ATOM     20  C   UNL A   1      33.972  27.732  25.508  1.00  0.00     0.026 A 
ATOM     21  C   UNL A   1      33.616  28.102  26.801  1.00  0.00     0.002 A 
BRANCH  17  22
ATOM     22  C   UNL A   1      30.774  28.578  23.548  1.00  0.00     0.018 C 
ATOM     23  C   UNL A   1      29.977  29.873  23.831  1.00  0.00     0.013 C 
BRANCH  22  24
ATOM     24  C   UNL A   1      29.800  27.492  23.033  1.00  0.00     0.005 C 
ATOM     25  C   UNL A   1      29.360  26.542  24.151  1.00  0.00     0.004 C 
ENDBRANCH  22  24
ENDBRANCH  17  22
ENDBRANCH  13  16
ENDBRANCH   6  12
ENDBRANCH   3   5
ENDBRANCH   2   3
ENDBRANCH   1   2
BRANCH   1  26
ATOM     26  C   UNL A   1      37.748  20.944  25.065  1.00  0.00     0.275 C 
BRANCH  26  27
ATOM     27  O   UNL A   1      38.149  22.151  25.738  1.00  0.00    -0.458 OA
BRANCH  27  28
ATOM     28  C   UNL A   1      39.278  22.057  26.478  1.00  0.00     0.338 C 
ATOM     29  O   UNL A   1      39.885  21.037  26.755  1.00  0.00    -0.246 OA
BRANCH  28  30
ATOM     30  C   UNL A   1      39.706  23.397  26.934  1.00  0.00     0.060 A 
ATOM     31  C   UNL A   1      39.327  24.553  26.246  1.00  0.00     0.016 A 
ATOM     32  C   UNL A   1      40.604  23.484  27.998  1.00  0.00     0.016 A 
ATOM     33  C   UNL A   1      39.928  25.773  26.548  1.00  0.00     0.010 A 
ATOM     34  C   UNL A   1      41.114  24.729  28.374  1.00  0.00     0.010 A 
ATOM     35  C   UNL A   1      40.813  25.882  27.630  1.00  0.00    -0.014 A 
BRANCH  35  36
ATOM     36  C   UNL A   1      41.427  27.191  27.987  1.00  0.00     0.031 A 
ATOM     37  C   UNL A   1      42.913  27.404  27.834  1.00  0.00     0.074 A 
ATOM     38  C   UNL A   1      40.657  28.186  28.471  1.00  0.00     0.049 A 
ATOM     39  N   UNL A   1      43.652  28.401  28.251  1.00  0.00    -0.248 NA
ATOM     40  C   UNL A   1      43.668  26.352  27.132  1.00  0.00     0.031 C 
ATOM     41  C   UNL A   1      39.202  28.129  28.644  1.00  0.00     0.029 A 
ATOM     42  N   UNL A   1      40.991  29.442  28.912  1.00  0.00    -0.354 N 
ATOM     43  C   UNL A   1      44.961  28.074  27.913  1.00  0.00     0.074 A 
ATOM     44  C   UNL A   1      44.915  26.783  27.258  1.00  0.00     0.031 C 
ATOM     45  C   UNL A   1      38.768  29.305  29.120  1.00  0.00     0.029 A 
ATOM     46  C   UNL A   1      39.916  30.170  29.364  1.00  0.00     0.049 A 
ATOM     47  H   UNL A   1      41.912  29.789  28.904  1.00  0.00     0.167 HD
ATOM     48  C   UNL A   1      46.096  28.781  28.132  1.00  0.00     0.031 A 
ATOM     49  C   UNL A   1      39.856  31.382  29.947  1.00  0.00     0.031 A 
ATOM     50  C   UNL A   1      46.133  30.078  28.755  1.00  0.00     0.049 A 
ATOM     51  C   UNL A   1      41.127  32.141  30.190  1.00  0.00     0.074 A 
ATOM     52  C   UNL A   1      47.233  30.877  29.019  1.00  0.00     0.029 A 
ATOM     53  N   UNL A   1      45.020  30.775  29.198  1.00  0.00    -0.354 N 
ATOM     54  N   UNL A   1      42.360  31.794  29.907  1.00  0.00    -0.248 NA
ATOM     55  C   UNL A   1      41.001  33.454  30.837  1.00  0.00     0.031 C 
ATOM     56  C   UNL A   1      46.786  32.045  29.647  1.00  0.00     0.029 A 
ATOM     57  C   UNL A   1      45.405  31.992  29.734  1.00  0.00     0.049 A 
ATOM     58  H   UNL A   1      44.091  30.452  29.139  1.00  0.00     0.167 HD
ATOM     59  C   UNL A   1      43.155  32.854  30.325  1.00  0.00     0.074 A 
ATOM     60  C   UNL A   1      42.263  33.860  30.865  1.00  0.00     0.031 C 
ATOM     61  C   UNL A   1      44.503  32.982  30.266  1.00  0.00     0.031 A 
BRANCH  48  62
ATOM     62  C   UNL A   1      47.400  28.147  27.725  1.00  0.00    -0.014 A 
ATOM     63  C   UNL A   1      47.938  28.334  26.440  1.00  0.00     0.010 A 
ATOM     64  C   UNL A   1      48.114  27.372  28.659  1.00  0.00     0.010 A 
ATOM     65  C   UNL A   1      49.147  27.728  26.083  1.00  0.00     0.020 A 
ATOM     66  C   UNL A   1      49.335  26.783  28.314  1.00  0.00     0.020 A 
ATOM     67  C   UNL A   1      49.833  26.950  27.021  1.00  0.00     0.054 A 
BRANCH  67  68
ATOM     68  S   UNL A   1      51.405  26.181  26.540  1.00  0.00     0.124 S 
ATOM     69  O   UNL A   1      52.369  26.957  27.317  1.00  0.00    -0.237 OA
ATOM     70  O   UNL A   1      51.231  24.794  26.964  1.00  0.00    -0.237 OA
ATOM     71  O   UNL A   1      51.463  26.385  25.095  1.00  0.00    -0.744 OA
ENDBRANCH  67  68
ENDBRANCH  48  62
BRANCH  49  72
ATOM     72  C   UNL A   1      38.540  31.934  30.367  1.00  0.00    -0.014 A 
ATOM     73  C   UNL A   1      38.013  31.635  31.634  1.00  0.00     0.010 A 
ATOM     74  C   UNL A   1      37.823  32.789  29.510  1.00  0.00     0.010 A 
ATOM     75  C   UNL A   1      36.787  32.172  32.035  1.00  0.00     0.020 A 
ATOM     76  C   UNL A   1      36.610  33.351  29.917  1.00  0.00     0.020 A 
ATOM     77  C   UNL A   1      36.093  33.029  31.173  1.00  0.00     0.054 A 
BRANCH  77  78
ATOM     78  S   UNL A   1      34.534  33.768  31.735  1.00  0.00     0.124 S 
ATOM     79  O   UNL A   1      33.850  34.026  30.472  1.00  0.00    -0.237 OA
ATOM     80  O   UNL A   1      33.958  32.710  32.562  1.00  0.00    -0.237 OA
ATOM     81  O   UNL A   1      34.966  34.955  32.470  1.00  0.00    -0.744 OA
ENDBRANCH  77  78
ENDBRANCH  49  72
BRANCH  61  82
ATOM     82  C   UNL A   1      45.087  34.276  30.760  1.00  0.00    -0.014 A 
ATOM     83  C   UNL A   1      45.491  34.430  32.098  1.00  0.00     0.010 A 
ATOM     84  C   UNL A   1      45.257  35.344  29.861  1.00  0.00     0.010 A 
ATOM     85  C   UNL A   1      46.022  35.645  32.537  1.00  0.00     0.020 A 
ATOM     86  C   UNL A   1      45.807  36.554  30.293  1.00  0.00     0.020 A 
ATOM     87  C   UNL A   1      46.171  36.702  31.634  1.00  0.00     0.054 A 
BRANCH  87  88
ATOM     88  S   UNL A   1      46.885  38.263  32.217  1.00  0.00     0.124 S 
ATOM     89  O   UNL A   1      48.220  37.847  32.636  1.00  0.00    -0.237 OA
ATOM     90  O   UNL A   1      46.834  39.108  31.027  1.00  0.00    -0.237 OA
ATOM     91  O   UNL A   1      45.990  38.668  33.299  1.00  0.00    -0.744 OA
ENDBRANCH  87  88
ENDBRANCH  61  82
ENDBRANCH  35  36
ENDBRANCH  28  30
ENDBRANCH  27  28
ENDBRANCH  26  27
ENDBRANCH   1  26
TORSDOF 18
ENDMDL
MODEL 3
REMARK VINA RESULT:     -11.1      6.597     11.998
REMARK SMILES CC[C@@H](C)c1ccccc1NC(=O)[C@@H]1[C@@H](C(=O)OCCOC(=O)c2ccc(-c3c4nc(c(-c5ccc(S(=O)(=O)[O-])cc5)c5ccc([nH]5)c(-c5ccc(S(=O)(=O)[O-])cc5)c5nc(c(-c6ccc(S(=O)(=O)[O-])cc6)c6ccc3[nH]6)C=C5)C=C4)cc2)[C@@H]2C=C[C@H]1C2
REMARK SMILES IDX 19 1 18 2 16 3 17 4 15 5 14 6 87 7 84 8 86 9 88 10 85 11
REMARK SMILES IDX 12 12 11 13 13 15 10 16 5 17 6 18 7 19 9 20 8 21 3 22 4 23
REMARK SMILES IDX 2 24 1 25 20 26 21 27 22 28 23 29 24 30 25 31 83 32 26 33
REMARK SMILES IDX 82 34 27 35 28 36 29 37 76 38 30 39 81 40 75 41 77 42 31 43
REMARK SMILES IDX 80 44 74 45 73 46 32 48 62 49 43 50 61 51 44 52 47 53 60 54
REMARK SMILES IDX 78 55 45 56 46 57 59 59 79 60 48 61 33 62 34 63 42 64 35 65
REMARK SMILES IDX 41 66 36 67 37 68 38 69 39 70 40 71 63 72 64 73 72 74 65 75
REMARK SMILES IDX 71 76 66 77 67 78 68 79 69 80 70 81 49 82 50 83 58 84 51 85
REMARK SMILES IDX 57 86 52 87 53 88 54 89 55 90 56 91
REMARK H PARENT 11 14 77 47 47 58
REMARK Flexibility Score: inf
ROOT
ATOM      1  C   UNL A   1      33.336  29.549  27.681  1.00  0.00     0.274 C 
ENDROOT
BRANCH   1   2
ATOM      2  O   UNL A   1      32.396  29.136  26.668  1.00  0.00    -0.462 OA
BRANCH   2   3
ATOM      3  C   UNL A   1      31.681  28.017  26.960  1.00  0.00     0.310 C 
ATOM      4  O   UNL A   1      31.053  27.848  27.998  1.00  0.00    -0.252 OA
BRANCH   3   5
ATOM      5  C   UNL A   1      31.624  27.040  25.809  1.00  0.00     0.119 C 
ATOM      6  C   UNL A   1      32.866  26.080  25.648  1.00  0.00     0.100 C 
ATOM      7  C   UNL A   1      33.184  26.290  24.144  1.00  0.00     0.025 C 
ATOM      8  C   UNL A   1      31.562  27.775  24.444  1.00  0.00     0.027 C 
ATOM      9  C   UNL A   1      32.027  25.872  23.266  1.00  0.00    -0.027 C 
ATOM     10  C   UNL A   1      33.021  27.806  24.014  1.00  0.00     0.017 C 
ATOM     11  C   UNL A   1      31.052  26.776  23.436  1.00  0.00    -0.027 C 
BRANCH   6  12
ATOM     12  C   UNL A   1      32.511  24.721  26.281  1.00  0.00     0.228 C 
ATOM     13  N   UNL A   1      33.177  23.542  26.125  1.00  0.00    -0.326 N 
ATOM     14  H   UNL A   1      32.759  22.774  26.579  1.00  0.00     0.169 HD
ATOM     15  O   UNL A   1      31.520  24.674  27.027  1.00  0.00    -0.274 OA
BRANCH  13  16
ATOM     16  C   UNL A   1      34.351  23.235  25.432  1.00  0.00     0.044 A 
ATOM     17  C   UNL A   1      34.319  22.519  24.213  1.00  0.00    -0.022 A 
ATOM     18  C   UNL A   1      35.495  22.564  23.432  1.00  0.00     0.006 A 
ATOM     19  C   UNL A   1      36.682  23.119  23.913  1.00  0.00     0.000 A 
ATOM     20  C   UNL A   1      35.574  23.651  25.967  1.00  0.00     0.026 A 
ATOM     21  C   UNL A   1      36.740  23.602  25.209  1.00  0.00     0.002 A 
BRANCH  17  22
ATOM     22  C   UNL A   1      33.145  21.615  23.791  1.00  0.00     0.018 C 
ATOM     23  C   UNL A   1      32.043  22.369  23.010  1.00  0.00     0.013 C 
BRANCH  22  24
ATOM     24  C   UNL A   1      32.481  20.764  24.899  1.00  0.00     0.005 C 
ATOM     25  C   UNL A   1      32.657  19.263  24.650  1.00  0.00     0.004 C 
ENDBRANCH  22  24
ENDBRANCH  17  22
ENDBRANCH  13  16
ENDBRANCH   6  12
ENDBRANCH   3   5
ENDBRANCH   2   3
ENDBRANCH   1   2
BRANCH   1  26
ATOM     26  C   UNL A   1      34.759  29.214  27.235  1.00  0.00     0.275 C 
BRANCH  26  27
ATOM     27  O   UNL A   1      35.667  30.213  27.731  1.00  0.00    -0.458 OA
BRANCH  27  28
ATOM     28  C   UNL A   1      36.263  29.924  28.911  1.00  0.00     0.338 C 
ATOM     29  O   UNL A   1      35.720  29.836  29.998  1.00  0.00    -0.246 OA
BRANCH  28  30
ATOM     30  C   UNL A   1      37.714  29.721  28.717  1.00  0.00     0.060 A 
ATOM     31  C   UNL A   1      38.291  29.774  27.445  1.00  0.00     0.016 A 
ATOM     32  C   UNL A   1      38.489  29.351  29.817  1.00  0.00     0.016 A 
ATOM     33  C   UNL A   1      39.606  29.350  27.257  1.00  0.00     0.010 A 
ATOM     34  C   UNL A   1      39.840  29.040  29.640  1.00  0.00     0.010 A 
ATOM     35  C   UNL A   1      40.404  28.998  28.354  1.00  0.00    -0.014 A 
BRANCH  35  36
ATOM     36  C   UNL A   1      41.822  28.586  28.167  1.00  0.00     0.031 A 
ATOM     37  C   UNL A   1      42.932  29.603  28.267  1.00  0.00     0.074 A 
ATOM     38  C   UNL A   1      42.118  27.301  27.884  1.00  0.00     0.049 A 
ATOM     39  N   UNL A   1      44.200  29.475  27.966  1.00  0.00    -0.248 NA
ATOM     40  C   UNL A   1      42.566  30.942  28.757  1.00  0.00     0.031 C 
ATOM     41  C   UNL A   1      41.149  26.206  27.786  1.00  0.00     0.029 A 
ATOM     42  N   UNL A   1      43.323  26.698  27.621  1.00  0.00    -0.354 N 
ATOM     43  C   UNL A   1      44.771  30.725  28.177  1.00  0.00     0.074 A 
ATOM     44  C   UNL A   1      43.710  31.601  28.628  1.00  0.00     0.031 C 
ATOM     45  C   UNL A   1      41.798  25.064  27.520  1.00  0.00     0.029 A 
ATOM     46  C   UNL A   1      43.216  25.355  27.346  1.00  0.00     0.049 A 
ATOM     47  H   UNL A   1      44.181  27.180  27.631  1.00  0.00     0.167 HD
ATOM     48  C   UNL A   1      46.059  31.111  28.005  1.00  0.00     0.031 A 
ATOM     49  C   UNL A   1      44.144  24.459  26.960  1.00  0.00     0.031 A 
ATOM     50  C   UNL A   1      47.117  30.229  27.585  1.00  0.00     0.049 A 
ATOM     51  C   UNL A   1      45.561  24.912  26.764  1.00  0.00     0.074 A 
ATOM     52  C   UNL A   1      48.456  30.523  27.385  1.00  0.00     0.029 A 
ATOM     53  N   UNL A   1      46.961  28.878  27.317  1.00  0.00    -0.354 N 
ATOM     54  N   UNL A   1      46.072  26.109  26.922  1.00  0.00    -0.248 NA
ATOM     55  C   UNL A   1      46.528  23.892  26.333  1.00  0.00     0.031 C 
ATOM     56  C   UNL A   1      49.103  29.354  26.968  1.00  0.00     0.029 A 
ATOM     57  C   UNL A   1      48.177  28.325  26.952  1.00  0.00     0.049 A 
ATOM     58  H   UNL A   1      46.112  28.384  27.378  1.00  0.00     0.167 HD
ATOM     59  C   UNL A   1      47.424  25.984  26.627  1.00  0.00     0.074 A 
ATOM     60  C   UNL A   1      47.654  24.592  26.296  1.00  0.00     0.031 C 
ATOM     61  C   UNL A   1      48.388  26.936  26.628  1.00  0.00     0.031 A 
BRANCH  48  62
ATOM     62  C   UNL A   1      46.388  32.562  28.237  1.00  0.00    -0.014 A 
ATOM     63  C   UNL A   1      46.865  33.017  29.479  1.00  0.00     0.010 A 
ATOM     64  C   UNL A   1      46.245  33.482  27.180  1.00  0.00     0.010 A 
ATOM     65  C   UNL A   1      47.155  34.371  29.671  1.00  0.00     0.020 A 
ATOM     66  C   UNL A   1      46.557  34.832  27.362  1.00  0.00     0.020 A 
ATOM     67  C   UNL A   1      46.992  35.272  28.614  1.00  0.00     0.054 A 
BRANCH  67  68
ATOM     68  S   UNL A   1      47.386  37.022  28.883  1.00  0.00     0.124 S 
ATOM     69  O   UNL A   1      46.396  37.686  28.039  1.00  0.00    -0.237 OA
ATOM     70  O   UNL A   1      47.190  37.181  30.322  1.00  0.00    -0.237 OA
ATOM     71  O   UNL A   1      48.769  37.140  28.430  1.00  0.00    -0.744 OA
ENDBRANCH  67  68
ENDBRANCH  48  62
BRANCH  49  72
ATOM     72  C   UNL A   1      43.746  23.050  26.703  1.00  0.00    -0.014 A 
ATOM     73  C   UNL A   1      44.323  22.326  25.646  1.00  0.00     0.010 A 
ATOM     74  C   UNL A   1      42.809  22.414  27.538  1.00  0.00     0.010 A 
ATOM     75  C   UNL A   1      43.963  20.995  25.421  1.00  0.00     0.020 A 
ATOM     76  C   UNL A   1      42.466  21.075  27.333  1.00  0.00     0.020 A 
ATOM     77  C   UNL A   1      43.037  20.376  26.268  1.00  0.00     0.054 A 
BRANCH  77  78
ATOM     78  S   UNL A   1      42.630  18.629  25.999  1.00  0.00     0.124 S 
ATOM     79  O   UNL A   1      41.204  18.694  25.694  1.00  0.00    -0.237 OA
ATOM     80  O   UNL A   1      43.500  18.265  24.883  1.00  0.00    -0.237 OA
ATOM     81  O   UNL A   1      42.971  18.001  27.273  1.00  0.00    -0.744 OA
ENDBRANCH  77  78
ENDBRANCH  49  72
BRANCH  61  82
ATOM     82  C   UNL A   1      49.787  26.492  26.306  1.00  0.00    -0.014 A 
ATOM     83  C   UNL A   1      50.604  25.891  27.280  1.00  0.00     0.010 A 
ATOM     84  C   UNL A   1      50.280  26.656  24.998  1.00  0.00     0.010 A 
ATOM     85  C   UNL A   1      51.905  25.495  26.960  1.00  0.00     0.020 A 
ATOM     86  C   UNL A   1      51.573  26.242  24.671  1.00  0.00     0.020 A 
ATOM     87  C   UNL A   1      52.384  25.679  25.659  1.00  0.00     0.054 A 
BRANCH  87  88
ATOM     88  S   UNL A   1      54.067  25.137  25.257  1.00  0.00     0.124 S 
ATOM     89  O   UNL A   1      53.862  23.726  24.943  1.00  0.00    -0.237 OA
ATOM     90  O   UNL A   1      54.421  25.989  24.125  1.00  0.00    -0.237 OA
ATOM     91  O   UNL A   1      54.816  25.400  26.485  1.00  0.00    -0.744 OA
ENDBRANCH  87  88
ENDBRANCH  61  82
ENDBRANCH  35  36
ENDBRANCH  28  30
ENDBRANCH  27  28
ENDBRANCH  26  27
ENDBRANCH   1  26
TORSDOF 18
ENDMDL
