MODEL 1
REMARK VINA RESULT:     -10.9      0.000      0.000
REMARK SMILES O=C(OCCOC(=O)[C@@H](NC(=O)c1cscn1)c1ccccc1C(F)(F)F)c1ccc(-c2c3nc(c(-c4ccc(S(=O)(=O)[O-])cc4)c4ccc([nH]4)c(-c4ccc(S(=O)(=O)[O-])cc4)c4nc(c(-c5ccc(S(=O)(=O)[O-])cc5)c5ccc2[nH]5)C=C4)C=C3)cc1
REMARK SMILES IDX 4 1 3 2 2 3 1 4 28 5 29 6 87 7 30 8 86 9 31 10 32 11 33 12
REMARK SMILES IDX 80 13 34 14 85 15 79 16 81 17 35 18 84 19 78 20 77 21 36 23
REMARK SMILES IDX 66 24 47 25 65 26 48 27 51 28 64 29 82 30 49 31 50 32 63 34
REMARK SMILES IDX 83 35 52 36 37 37 38 38 46 39 39 40 45 41 40 42 41 43 42 44
REMARK SMILES IDX 43 45 44 46 67 47 68 48 76 49 69 50 75 51 70 52 71 53 72 54
REMARK SMILES IDX 73 55 74 56 53 57 54 58 62 59 55 60 61 61 56 62 57 63 58 64
REMARK SMILES IDX 59 65 60 66 5 67 6 68 7 69 8 70 9 71 10 72 11 73 12 75 13 76
REMARK SMILES IDX 14 77 17 78 15 79 16 80 18 81 19 82 23 83 20 84 22 85 21 86
REMARK SMILES IDX 24 87 25 88 26 89 27 90
REMARK H PARENT 81 22 51 33 10 74
REMARK Flexibility Score: inf
ROOT
ATOM      1  C   UNL A   1      34.530  30.146  27.587  1.00  0.00     0.275 C 
ENDROOT
BRANCH   1   2
ATOM      2  O   UNL A   1      35.238  29.432  28.625  1.00  0.00    -0.458 OA
BRANCH   2   3
ATOM      3  C   UNL A   1      36.296  29.913  29.321  1.00  0.00     0.338 C 
ATOM      4  O   UNL A   1      36.114  30.528  30.367  1.00  0.00    -0.246 OA
BRANCH   3   5
ATOM      5  C   UNL A   1      37.690  29.505  28.933  1.00  0.00     0.060 A 
ATOM      6  C   UNL A   1      38.617  28.901  29.783  1.00  0.00     0.016 A 
ATOM      7  C   UNL A   1      38.083  29.730  27.599  1.00  0.00     0.016 A 
ATOM      8  C   UNL A   1      39.886  28.530  29.319  1.00  0.00     0.010 A 
ATOM      9  C   UNL A   1      39.366  29.386  27.136  1.00  0.00     0.010 A 
ATOM     10  C   UNL A   1      40.285  28.789  27.998  1.00  0.00    -0.014 A 
BRANCH  10  11
ATOM     11  C   UNL A   1      41.706  28.538  27.635  1.00  0.00     0.031 A 
ATOM     12  C   UNL A   1      42.747  29.497  28.122  1.00  0.00     0.074 A 
ATOM     13  C   UNL A   1      42.097  27.454  26.940  1.00  0.00     0.049 A 
ATOM     14  N   UNL A   1      44.045  29.368  28.126  1.00  0.00    -0.248 NA
ATOM     15  C   UNL A   1      42.258  30.797  28.607  1.00  0.00     0.031 C 
ATOM     16  C   UNL A   1      41.213  26.543  26.241  1.00  0.00     0.029 A 
ATOM     17  N   UNL A   1      43.340  26.877  26.794  1.00  0.00    -0.354 N 
ATOM     18  C   UNL A   1      44.536  30.615  28.479  1.00  0.00     0.074 A 
ATOM     19  C   UNL A   1      43.396  31.444  28.811  1.00  0.00     0.031 C 
ATOM     20  C   UNL A   1      41.885  25.418  25.944  1.00  0.00     0.029 A 
ATOM     21  C   UNL A   1      43.257  25.551  26.404  1.00  0.00     0.049 A 
ATOM     22  H   UNL A   1      44.189  27.351  26.949  1.00  0.00     0.167 HD
ATOM     23  C   UNL A   1      45.815  31.056  28.410  1.00  0.00     0.031 A 
ATOM     24  C   UNL A   1      44.172  24.563  26.497  1.00  0.00     0.031 A 
ATOM     25  C   UNL A   1      46.925  30.236  28.012  1.00  0.00     0.049 A 
ATOM     26  C   UNL A   1      45.588  24.956  26.810  1.00  0.00     0.074 A 
ATOM     27  C   UNL A   1      48.236  30.602  27.769  1.00  0.00     0.029 A 
ATOM     28  N   UNL A   1      46.845  28.870  27.796  1.00  0.00    -0.354 N 
ATOM     29  N   UNL A   1      46.051  26.131  27.160  1.00  0.00    -0.248 NA
ATOM     30  C   UNL A   1      46.617  23.918  26.650  1.00  0.00     0.031 C 
ATOM     31  C   UNL A   1      48.947  29.455  27.391  1.00  0.00     0.029 A 
ATOM     32  C   UNL A   1      48.083  28.373  27.433  1.00  0.00     0.049 A 
ATOM     33  H   UNL A   1      46.026  28.331  27.889  1.00  0.00     0.167 HD
ATOM     34  C   UNL A   1      47.431  26.004  27.127  1.00  0.00     0.074 A 
ATOM     35  C   UNL A   1      47.725  24.607  26.886  1.00  0.00     0.031 C 
ATOM     36  C   UNL A   1      48.362  26.985  27.179  1.00  0.00     0.031 A 
BRANCH  23  37
ATOM     37  C   UNL A   1      46.006  32.532  28.589  1.00  0.00    -0.014 A 
ATOM     38  C   UNL A   1      46.349  33.089  29.831  1.00  0.00     0.010 A 
ATOM     39  C   UNL A   1      45.736  33.379  27.499  1.00  0.00     0.010 A 
ATOM     40  C   UNL A   1      46.358  34.478  29.995  1.00  0.00     0.020 A 
ATOM     41  C   UNL A   1      45.763  34.765  27.654  1.00  0.00     0.020 A 
ATOM     42  C   UNL A   1      46.045  35.305  28.909  1.00  0.00     0.054 A 
BRANCH  42  43
ATOM     43  S   UNL A   1      46.002  37.100  29.152  1.00  0.00     0.124 S 
ATOM     44  O   UNL A   1      47.311  37.351  29.749  1.00  0.00    -0.237 OA
ATOM     45  O   UNL A   1      45.823  37.610  27.795  1.00  0.00    -0.237 OA
ATOM     46  O   UNL A   1      44.861  37.300  30.044  1.00  0.00    -0.744 OA
ENDBRANCH  42  43
ENDBRANCH  23  37
BRANCH  24  47
ATOM     47  C   UNL A   1      43.814  23.119  26.372  1.00  0.00    -0.014 A 
ATOM     48  C   UNL A   1      43.008  22.537  27.377  1.00  0.00     0.010 A 
ATOM     49  C   UNL A   1      44.240  22.310  25.308  1.00  0.00     0.010 A 
ATOM     50  C   UNL A   1      42.633  21.192  27.319  1.00  0.00     0.020 A 
ATOM     51  C   UNL A   1      43.844  20.967  25.230  1.00  0.00     0.020 A 
ATOM     52  C   UNL A   1      43.049  20.415  26.240  1.00  0.00     0.054 A 
BRANCH  52  53
ATOM     53  S   UNL A   1      42.462  18.703  26.094  1.00  0.00     0.124 S 
ATOM     54  O   UNL A   1      41.071  18.889  25.697  1.00  0.00    -0.237 OA
ATOM     55  O   UNL A   1      43.343  18.138  25.074  1.00  0.00    -0.237 OA
ATOM     56  O   UNL A   1      42.675  18.174  27.440  1.00  0.00    -0.744 OA
ENDBRANCH  52  53
ENDBRANCH  24  47
BRANCH  36  57
ATOM     57  C   UNL A   1      49.768  26.593  26.838  1.00  0.00    -0.014 A 
ATOM     58  C   UNL A   1      50.196  26.654  25.498  1.00  0.00     0.010 A 
ATOM     59  C   UNL A   1      50.677  26.222  27.840  1.00  0.00     0.010 A 
ATOM     60  C   UNL A   1      51.509  26.331  25.161  1.00  0.00     0.020 A 
ATOM     61  C   UNL A   1      51.998  25.912  27.506  1.00  0.00     0.020 A 
ATOM     62  C   UNL A   1      52.403  25.961  26.168  1.00  0.00     0.054 A 
BRANCH  62  63
ATOM     63  S   UNL A   1      54.122  25.607  25.716  1.00  0.00     0.124 S 
ATOM     64  O   UNL A   1      53.978  24.416  24.883  1.00  0.00    -0.237 OA
ATOM     65  O   UNL A   1      54.528  26.822  25.012  1.00  0.00    -0.237 OA
ATOM     66  O   UNL A   1      54.779  25.393  27.004  1.00  0.00    -0.744 OA
ENDBRANCH  62  63
ENDBRANCH  36  57
ENDBRANCH  10  11
ENDBRANCH   3   5
ENDBRANCH   2   3
ENDBRANCH   1   2
BRANCH   1  67
ATOM     67  C   UNL A   1      33.106  29.682  27.291  1.00  0.00     0.274 C 
BRANCH  67  68
ATOM     68  O   UNL A   1      33.089  28.412  26.630  1.00  0.00    -0.460 OA
BRANCH  68  69
ATOM     69  C   UNL A   1      32.004  27.646  26.951  1.00  0.00     0.333 C 
ATOM     70  O   UNL A   1      31.341  27.790  27.973  1.00  0.00    -0.249 OA
BRANCH  69  71
ATOM     71  C   UNL A   1      31.749  26.538  25.907  1.00  0.00     0.224 C 
BRANCH  71  72
ATOM     72  N   UNL A   1      30.955  25.410  26.403  1.00  0.00    -0.334 N 
ATOM     73  C   UNL A   1      31.483  24.146  26.553  1.00  0.00     0.271 C 
ATOM     74  H   UNL A   1      30.011  25.561  26.639  1.00  0.00     0.165 HD
ATOM     75  O   UNL A   1      31.564  23.665  27.680  1.00  0.00    -0.267 OA
BRANCH  73  76
ATOM     76  C   UNL A   1      31.838  23.428  25.328  1.00  0.00     0.139 A 
ATOM     77  C   UNL A   1      32.954  22.614  25.214  1.00  0.00     0.100 A 
ATOM     78  N   UNL A   1      31.097  23.551  24.155  1.00  0.00    -0.240 NA
ATOM     79  S   UNL A   1      32.993  21.863  23.682  1.00  0.00    -0.130 S 
ATOM     80  C   UNL A   1      31.610  22.768  23.227  1.00  0.00     0.176 A 
ENDBRANCH  73  76
ENDBRANCH  71  72
BRANCH  71  81
ATOM     81  C   UNL A   1      31.260  27.116  24.585  1.00  0.00    -0.002 A 
ATOM     82  C   UNL A   1      29.938  27.617  24.567  1.00  0.00     0.007 A 
ATOM     83  C   UNL A   1      32.063  27.262  23.424  1.00  0.00     0.061 A 
ATOM     84  C   UNL A   1      29.422  28.262  23.445  1.00  0.00     0.000 A 
ATOM     85  C   UNL A   1      31.503  27.893  22.292  1.00  0.00     0.013 A 
ATOM     86  C   UNL A   1      30.204  28.399  22.308  1.00  0.00     0.001 A 
BRANCH  83  87
ATOM     87  C   UNL A   1      33.508  26.815  23.329  1.00  0.00     0.416 C 
ATOM     88  F   UNL A   1      33.653  25.482  23.570  1.00  0.00    -0.166 F 
ATOM     89  F   UNL A   1      34.070  27.028  22.106  1.00  0.00    -0.166 F 
ATOM     90  F   UNL A   1      34.342  27.431  24.209  1.00  0.00    -0.166 F 
ENDBRANCH  83  87
ENDBRANCH  71  81
ENDBRANCH  69  71
ENDBRANCH  68  69
ENDBRANCH  67  68
ENDBRANCH   1  67
TORSDOF 18
ENDMDL
MODEL 2
REMARK VINA RESULT:     -10.7      4.960      6.098
REMARK SMILES O=C(OCCOC(=O)[C@@H](NC(=O)c1cscn1)c1ccccc1C(F)(F)F)c1ccc(-c2c3nc(c(-c4ccc(S(=O)(=O)[O-])cc4)c4ccc([nH]4)c(-c4ccc(S(=O)(=O)[O-])cc4)c4nc(c(-c5ccc(S(=O)(=O)[O-])cc5)c5ccc2[nH]5)C=C4)C=C3)cc1
REMARK SMILES IDX 4 1 3 2 2 3 1 4 28 5 29 6 87 7 30 8 86 9 31 10 32 11 33 12
REMARK SMILES IDX 80 13 34 14 85 15 79 16 81 17 35 18 84 19 78 20 77 21 36 23
REMARK SMILES IDX 66 24 47 25 65 26 48 27 51 28 64 29 82 30 49 31 50 32 63 34
REMARK SMILES IDX 83 35 52 36 37 37 38 38 46 39 39 40 45 41 40 42 41 43 42 44
REMARK SMILES IDX 43 45 44 46 67 47 68 48 76 49 69 50 75 51 70 52 71 53 72 54
REMARK SMILES IDX 73 55 74 56 53 57 54 58 62 59 55 60 61 61 56 62 57 63 58 64
REMARK SMILES IDX 59 65 60 66 5 67 6 68 7 69 8 70 9 71 10 72 11 73 12 75 13 76
REMARK SMILES IDX 14 77 17 78 15 79 16 80 18 81 19 82 23 83 20 84 22 85 21 86
REMARK SMILES IDX 24 87 25 88 26 89 27 90
REMARK H PARENT 81 22 51 33 10 74
REMARK Flexibility Score: inf
ROOT
ATOM      1  C   UNL A   1      32.031  29.798  27.136  1.00  0.00     0.275 C 
ENDROOT
BRANCH   1   2
ATOM      2  O   UNL A   1      33.322  30.349  26.793  1.00  0.00    -0.458 OA
BRANCH   2   3
ATOM      3  C   UNL A   1      34.014  31.241  27.540  1.00  0.00     0.338 C 
ATOM      4  O   UNL A   1      33.478  32.281  27.909  1.00  0.00    -0.246 OA
BRANCH   3   5
ATOM      5  C   UNL A   1      35.356  30.860  28.102  1.00  0.00     0.060 A 
ATOM      6  C   UNL A   1      35.677  29.617  28.647  1.00  0.00     0.016 A 
ATOM      7  C   UNL A   1      36.377  31.830  28.054  1.00  0.00     0.016 A 
ATOM      8  C   UNL A   1      36.968  29.348  29.120  1.00  0.00     0.010 A 
ATOM      9  C   UNL A   1      37.667  31.575  28.554  1.00  0.00     0.010 A 
ATOM     10  C   UNL A   1      37.971  30.330  29.102  1.00  0.00    -0.014 A 
BRANCH  10  11
ATOM     11  C   UNL A   1      39.255  30.030  29.791  1.00  0.00     0.031 A 
ATOM     12  C   UNL A   1      39.414  30.451  31.218  1.00  0.00     0.074 A 
ATOM     13  C   UNL A   1      40.252  29.343  29.203  1.00  0.00     0.049 A 
ATOM     14  N   UNL A   1      40.334  30.108  32.079  1.00  0.00    -0.248 NA
ATOM     15  C   UNL A   1      38.447  31.440  31.717  1.00  0.00     0.031 C 
ATOM     16  C   UNL A   1      40.336  29.033  27.789  1.00  0.00     0.029 A 
ATOM     17  N   UNL A   1      41.339  28.690  29.743  1.00  0.00    -0.354 N 
ATOM     18  C   UNL A   1      40.141  30.939  33.171  1.00  0.00     0.074 A 
ATOM     19  C   UNL A   1      38.939  31.706  32.917  1.00  0.00     0.031 C 
ATOM     20  C   UNL A   1      41.260  28.076  27.602  1.00  0.00     0.029 A 
ATOM     21  C   UNL A   1      41.855  27.736  28.884  1.00  0.00     0.049 A 
ATOM     22  H   UNL A   1      41.706  28.880  30.637  1.00  0.00     0.167 HD
ATOM     23  C   UNL A   1      40.966  31.128  34.228  1.00  0.00     0.031 A 
ATOM     24  C   UNL A   1      42.646  26.673  29.143  1.00  0.00     0.031 A 
ATOM     25  C   UNL A   1      42.191  30.405  34.428  1.00  0.00     0.049 A 
ATOM     26  C   UNL A   1      43.312  26.619  30.489  1.00  0.00     0.074 A 
ATOM     27  C   UNL A   1      43.175  30.604  35.379  1.00  0.00     0.029 A 
ATOM     28  N   UNL A   1      42.598  29.334  33.650  1.00  0.00    -0.354 N 
ATOM     29  N   UNL A   1      43.120  27.394  31.528  1.00  0.00    -0.248 NA
ATOM     30  C   UNL A   1      44.368  25.610  30.668  1.00  0.00     0.031 C 
ATOM     31  C   UNL A   1      44.188  29.659  35.164  1.00  0.00     0.029 A 
ATOM     32  C   UNL A   1      43.813  28.853  34.101  1.00  0.00     0.049 A 
ATOM     33  H   UNL A   1      42.095  28.968  32.886  1.00  0.00     0.167 HD
ATOM     34  C   UNL A   1      44.119  27.055  32.426  1.00  0.00     0.074 A 
ATOM     35  C   UNL A   1      44.809  25.903  31.884  1.00  0.00     0.031 C 
ATOM     36  C   UNL A   1      44.498  27.718  33.545  1.00  0.00     0.031 A 
BRANCH  23  37
ATOM     37  C   UNL A   1      40.635  32.291  35.114  1.00  0.00    -0.014 A 
ATOM     38  C   UNL A   1      41.174  33.569  34.892  1.00  0.00     0.010 A 
ATOM     39  C   UNL A   1      39.841  32.060  36.253  1.00  0.00     0.010 A 
ATOM     40  C   UNL A   1      40.972  34.584  35.832  1.00  0.00     0.020 A 
ATOM     41  C   UNL A   1      39.622  33.077  37.183  1.00  0.00     0.020 A 
ATOM     42  C   UNL A   1      40.215  34.324  36.981  1.00  0.00     0.054 A 
BRANCH  42  43
ATOM     43  S   UNL A   1      40.012  35.633  38.218  1.00  0.00     0.124 S 
ATOM     44  O   UNL A   1      41.328  35.650  38.851  1.00  0.00    -0.237 OA
ATOM     45  O   UNL A   1      39.692  36.803  37.405  1.00  0.00    -0.237 OA
ATOM     46  O   UNL A   1      38.921  35.145  39.059  1.00  0.00    -0.744 OA
ENDBRANCH  42  43
ENDBRANCH  23  37
BRANCH  24  47
ATOM     47  C   UNL A   1      42.817  25.542  28.185  1.00  0.00    -0.014 A 
ATOM     48  C   UNL A   1      43.864  25.614  27.239  1.00  0.00     0.010 A 
ATOM     49  C   UNL A   1      41.987  24.410  28.175  1.00  0.00     0.010 A 
ATOM     50  C   UNL A   1      44.082  24.587  26.316  1.00  0.00     0.020 A 
ATOM     51  C   UNL A   1      42.218  23.364  27.269  1.00  0.00     0.020 A 
ATOM     52  C   UNL A   1      43.260  23.463  26.341  1.00  0.00     0.054 A 
BRANCH  52  53
ATOM     53  S   UNL A   1      43.614  22.072  25.230  1.00  0.00     0.124 S 
ATOM     54  O   UNL A   1      44.952  21.674  25.656  1.00  0.00    -0.237 OA
ATOM     55  O   UNL A   1      42.544  21.125  25.535  1.00  0.00    -0.237 OA
ATOM     56  O   UNL A   1      43.523  22.686  23.907  1.00  0.00    -0.744 OA
ENDBRANCH  52  53
ENDBRANCH  24  47
BRANCH  36  57
ATOM     57  C   UNL A   1      45.789  27.287  34.173  1.00  0.00    -0.014 A 
ATOM     58  C   UNL A   1      45.770  26.313  35.190  1.00  0.00     0.010 A 
ATOM     59  C   UNL A   1      47.016  27.797  33.725  1.00  0.00     0.010 A 
ATOM     60  C   UNL A   1      46.960  25.868  35.764  1.00  0.00     0.020 A 
ATOM     61  C   UNL A   1      48.211  27.342  34.288  1.00  0.00     0.020 A 
ATOM     62  C   UNL A   1      48.174  26.386  35.309  1.00  0.00     0.054 A 
BRANCH  62  63
ATOM     63  S   UNL A   1      49.713  25.747  36.024  1.00  0.00     0.124 S 
ATOM     64  O   UNL A   1      49.305  24.424  36.490  1.00  0.00    -0.237 OA
ATOM     65  O   UNL A   1      50.628  25.758  34.885  1.00  0.00    -0.237 OA
ATOM     66  O   UNL A   1      50.028  26.710  37.077  1.00  0.00    -0.744 OA
ENDBRANCH  62  63
ENDBRANCH  36  57
ENDBRANCH  10  11
ENDBRANCH   3   5
ENDBRANCH   2   3
ENDBRANCH   1   2
BRANCH   1  67
ATOM     67  C   UNL A   1      32.014  28.346  27.608  1.00  0.00     0.274 C 
BRANCH  67  68
ATOM     68  O   UNL A   1      31.251  27.513  26.728  1.00  0.00    -0.460 OA
BRANCH  68  69
ATOM     69  C   UNL A   1      32.012  26.619  26.029  1.00  0.00     0.333 C 
ATOM     70  O   UNL A   1      33.185  26.369  26.284  1.00  0.00    -0.249 OA
BRANCH  69  71
ATOM     71  C   UNL A   1      31.240  26.007  24.841  1.00  0.00     0.224 C 
BRANCH  71  72
ATOM     72  N   UNL A   1      30.266  24.978  25.217  1.00  0.00    -0.334 N 
ATOM     73  C   UNL A   1      30.628  23.833  25.892  1.00  0.00     0.271 C 
ATOM     74  H   UNL A   1      29.320  25.110  24.979  1.00  0.00     0.165 HD
ATOM     75  O   UNL A   1      30.194  23.650  27.027  1.00  0.00    -0.267 OA
BRANCH  73  76
ATOM     76  C   UNL A   1      31.449  22.866  25.163  1.00  0.00     0.139 A 
ATOM     77  C   UNL A   1      31.902  21.677  25.714  1.00  0.00     0.100 A 
ATOM     78  N   UNL A   1      31.884  23.095  23.860  1.00  0.00    -0.240 NA
ATOM     79  S   UNL A   1      32.741  20.757  24.545  1.00  0.00    -0.130 S 
ATOM     80  C   UNL A   1      32.566  22.051  23.434  1.00  0.00     0.176 A 
ENDBRANCH  73  76
ENDBRANCH  71  72
BRANCH  71  81
ATOM     81  C   UNL A   1      30.687  27.086  23.918  1.00  0.00    -0.002 A 
ATOM     82  C   UNL A   1      29.283  27.254  23.915  1.00  0.00     0.007 A 
ATOM     83  C   UNL A   1      31.483  27.973  23.147  1.00  0.00     0.061 A 
ATOM     84  C   UNL A   1      28.676  28.277  23.191  1.00  0.00     0.000 A 
ATOM     85  C   UNL A   1      30.838  28.981  22.399  1.00  0.00     0.013 A 
ATOM     86  C   UNL A   1      29.453  29.140  22.433  1.00  0.00     0.001 A 
BRANCH  83  87
ATOM     87  C   UNL A   1      32.997  27.933  23.102  1.00  0.00     0.416 C 
ATOM     88  F   UNL A   1      33.563  28.552  24.176  1.00  0.00    -0.166 F 
ATOM     89  F   UNL A   1      33.514  26.671  23.093  1.00  0.00    -0.166 F 
ATOM     90  F   UNL A   1      33.540  28.541  22.013  1.00  0.00    -0.166 F 
ENDBRANCH  83  87
ENDBRANCH  71  81
ENDBRANCH  69  71
ENDBRANCH  68  69
ENDBRANCH  67  68
ENDBRANCH   1  67
TORSDOF 18
ENDMDL
MODEL 3
REMARK VINA RESULT:     -10.5      4.524      6.466
REMARK SMILES O=C(OCCOC(=O)[C@@H](NC(=O)c1cscn1)c1ccccc1C(F)(F)F)c1ccc(-c2c3nc(c(-c4ccc(S(=O)(=O)[O-])cc4)c4ccc([nH]4)c(-c4ccc(S(=O)(=O)[O-])cc4)c4nc(c(-c5ccc(S(=O)(=O)[O-])cc5)c5ccc2[nH]5)C=C4)C=C3)cc1
REMARK SMILES IDX 4 1 3 2 2 3 1 4 28 5 29 6 87 7 30 8 86 9 31 10 32 11 33 12
REMARK SMILES IDX 80 13 34 14 85 15 79 16 81 17 35 18 84 19 78 20 77 21 36 23
REMARK SMILES IDX 66 24 47 25 65 26 48 27 51 28 64 29 82 30 49 31 50 32 63 34
REMARK SMILES IDX 83 35 52 36 37 37 38 38 46 39 39 40 45 41 40 42 41 43 42 44
REMARK SMILES IDX 43 45 44 46 67 47 68 48 76 49 69 50 75 51 70 52 71 53 72 54
REMARK SMILES IDX 73 55 74 56 53 57 54 58 62 59 55 60 61 61 56 62 57 63 58 64
REMARK SMILES IDX 59 65 60 66 5 67 6 68 7 69 8 70 9 71 10 72 11 73 12 75 13 76
REMARK SMILES IDX 14 77 17 78 15 79 16 80 18 81 19 82 23 83 20 84 22 85 21 86
REMARK SMILES IDX 24 87 25 88 26 89 27 90
REMARK H PARENT 81 22 51 33 10 74
REMARK Flexibility Score: inf
ROOT
ATOM      1  C   UNL A   1      37.292  30.370  31.588  1.00  0.00     0.275 C 
ENDROOT
BRANCH   1   2
ATOM      2  O   UNL A   1      36.611  29.388  30.776  1.00  0.00    -0.458 OA
BRANCH   2   3
ATOM      3  C   UNL A   1      36.826  29.181  29.455  1.00  0.00     0.338 C 
ATOM      4  O   UNL A   1      35.912  29.340  28.652  1.00  0.00    -0.246 OA
BRANCH   3   5
ATOM      5  C   UNL A   1      38.228  28.977  28.951  1.00  0.00     0.060 A 
ATOM      6  C   UNL A   1      39.237  28.300  29.634  1.00  0.00     0.016 A 
ATOM      7  C   UNL A   1      38.539  29.493  27.678  1.00  0.00     0.016 A 
ATOM      8  C   UNL A   1      40.508  28.136  29.067  1.00  0.00     0.010 A 
ATOM      9  C   UNL A   1      39.822  29.357  27.116  1.00  0.00     0.010 A 
ATOM     10  C   UNL A   1      40.823  28.683  27.813  1.00  0.00    -0.014 A 
BRANCH  10  11
ATOM     11  C   UNL A   1      42.240  28.630  27.363  1.00  0.00     0.031 A 
ATOM     12  C   UNL A   1      43.196  29.652  27.894  1.00  0.00     0.074 A 
ATOM     13  C   UNL A   1      42.709  27.665  26.550  1.00  0.00     0.049 A 
ATOM     14  N   UNL A   1      44.499  29.672  27.827  1.00  0.00    -0.248 NA
ATOM     15  C   UNL A   1      42.596  30.838  28.524  1.00  0.00     0.031 C 
ATOM     16  C   UNL A   1      41.892  26.726  25.806  1.00  0.00     0.029 A 
ATOM     17  N   UNL A   1      43.997  27.249  26.293  1.00  0.00    -0.354 N 
ATOM     18  C   UNL A   1      44.869  30.929  28.277  1.00  0.00     0.074 A 
ATOM     19  C   UNL A   1      43.666  31.589  28.738  1.00  0.00     0.031 C 
ATOM     20  C   UNL A   1      42.666  25.718  25.372  1.00  0.00     0.029 A 
ATOM     21  C   UNL A   1      44.038  25.964  25.780  1.00  0.00     0.049 A 
ATOM     22  H   UNL A   1      44.796  27.801  26.455  1.00  0.00     0.167 HD
ATOM     23  C   UNL A   1      46.086  31.518  28.193  1.00  0.00     0.031 A 
ATOM     24  C   UNL A   1      45.059  25.081  25.735  1.00  0.00     0.031 A 
ATOM     25  C   UNL A   1      47.256  30.870  27.668  1.00  0.00     0.049 A 
ATOM     26  C   UNL A   1      46.439  25.603  26.021  1.00  0.00     0.074 A 
ATOM     27  C   UNL A   1      48.503  31.404  27.403  1.00  0.00     0.029 A 
ATOM     28  N   UNL A   1      47.314  29.529  27.325  1.00  0.00    -0.354 N 
ATOM     29  N   UNL A   1      46.790  26.786  26.462  1.00  0.00    -0.248 NA
ATOM     30  C   UNL A   1      47.565  24.708  25.715  1.00  0.00     0.031 C 
ATOM     31  C   UNL A   1      49.313  30.384  26.884  1.00  0.00     0.029 A 
ATOM     32  C   UNL A   1      48.577  29.211  26.860  1.00  0.00     0.049 A 
ATOM     33  H   UNL A   1      46.565  28.893  27.401  1.00  0.00     0.167 HD
ATOM     34  C   UNL A   1      48.171  26.821  26.355  1.00  0.00     0.074 A 
ATOM     35  C   UNL A   1      48.603  25.495  25.967  1.00  0.00     0.031 C 
ATOM     36  C   UNL A   1      48.991  27.894  26.460  1.00  0.00     0.031 A 
BRANCH  23  37
ATOM     37  C   UNL A   1      46.126  32.983  28.506  1.00  0.00    -0.014 A 
ATOM     38  C   UNL A   1      46.385  33.458  29.801  1.00  0.00     0.010 A 
ATOM     39  C   UNL A   1      45.794  33.894  27.486  1.00  0.00     0.010 A 
ATOM     40  C   UNL A   1      46.251  34.821  30.086  1.00  0.00     0.020 A 
ATOM     41  C   UNL A   1      45.678  35.257  27.762  1.00  0.00     0.020 A 
ATOM     42  C   UNL A   1      45.879  35.707  29.067  1.00  0.00     0.054 A 
BRANCH  42  43
ATOM     43  S   UNL A   1      45.652  37.460  29.465  1.00  0.00     0.124 S 
ATOM     44  O   UNL A   1      44.467  37.793  28.678  1.00  0.00    -0.237 OA
ATOM     45  O   UNL A   1      45.460  37.445  30.913  1.00  0.00    -0.237 OA
ATOM     46  O   UNL A   1      46.896  38.079  29.012  1.00  0.00    -0.744 OA
ENDBRANCH  42  43
ENDBRANCH  23  37
BRANCH  24  47
ATOM     47  C   UNL A   1      44.854  23.624  25.488  1.00  0.00    -0.014 A 
ATOM     48  C   UNL A   1      45.033  23.133  24.174  1.00  0.00     0.010 A 
ATOM     49  C   UNL A   1      44.490  22.716  26.494  1.00  0.00     0.010 A 
ATOM     50  C   UNL A   1      44.861  21.779  23.876  1.00  0.00     0.020 A 
ATOM     51  C   UNL A   1      44.343  21.352  26.205  1.00  0.00     0.020 A 
ATOM     52  C   UNL A   1      44.523  20.893  24.896  1.00  0.00     0.054 A 
BRANCH  52  53
ATOM     53  S   UNL A   1      44.422  19.116  24.540  1.00  0.00     0.124 S 
ATOM     54  O   UNL A   1      43.081  18.786  25.010  1.00  0.00    -0.237 OA
ATOM     55  O   UNL A   1      44.620  19.057  23.094  1.00  0.00    -0.237 OA
ATOM     56  O   UNL A   1      45.525  18.567  25.326  1.00  0.00    -0.744 OA
ENDBRANCH  52  53
ENDBRANCH  24  47
BRANCH  36  57
ATOM     57  C   UNL A   1      50.410  27.697  26.020  1.00  0.00    -0.014 A 
ATOM     58  C   UNL A   1      50.704  27.640  24.644  1.00  0.00     0.010 A 
ATOM     59  C   UNL A   1      51.453  27.626  26.955  1.00  0.00     0.010 A 
ATOM     60  C   UNL A   1      52.020  27.496  24.209  1.00  0.00     0.020 A 
ATOM     61  C   UNL A   1      52.775  27.497  26.521  1.00  0.00     0.020 A 
ATOM     62  C   UNL A   1      53.049  27.425  25.151  1.00  0.00     0.054 A 
BRANCH  62  63
ATOM     63  S   UNL A   1      54.759  27.302  24.562  1.00  0.00     0.124 S 
ATOM     64  O   UNL A   1      54.786  25.961  23.984  1.00  0.00    -0.237 OA
ATOM     65  O   UNL A   1      54.851  28.401  23.604  1.00  0.00    -0.237 OA
ATOM     66  O   UNL A   1      55.553  27.475  25.776  1.00  0.00    -0.744 OA
ENDBRANCH  62  63
ENDBRANCH  36  57
ENDBRANCH  10  11
ENDBRANCH   3   5
ENDBRANCH   2   3
ENDBRANCH   1   2
BRANCH   1  67
ATOM     67  C   UNL A   1      36.549  30.864  32.827  1.00  0.00     0.274 C 
BRANCH  67  68
ATOM     68  O   UNL A   1      35.597  31.882  32.502  1.00  0.00    -0.460 OA
BRANCH  68  69
ATOM     69  C   UNL A   1      35.801  33.053  33.177  1.00  0.00     0.333 C 
ATOM     70  O   UNL A   1      35.663  33.179  34.388  1.00  0.00    -0.249 OA
BRANCH  69  71
ATOM     71  C   UNL A   1      36.164  34.213  32.225  1.00  0.00     0.224 C 
BRANCH  71  72
ATOM     72  N   UNL A   1      35.522  35.489  32.554  1.00  0.00    -0.334 N 
ATOM     73  C   UNL A   1      34.169  35.696  32.396  1.00  0.00     0.271 C 
ATOM     74  H   UNL A   1      36.077  36.224  32.901  1.00  0.00     0.165 HD
ATOM     75  O   UNL A   1      33.479  35.906  33.391  1.00  0.00    -0.267 OA
BRANCH  73  76
ATOM     76  C   UNL A   1      33.661  35.732  31.024  1.00  0.00     0.139 A 
ATOM     77  C   UNL A   1      33.324  36.904  30.364  1.00  0.00     0.100 A 
ATOM     78  N   UNL A   1      33.430  34.573  30.287  1.00  0.00    -0.240 NA
ATOM     79  S   UNL A   1      32.868  36.572  28.752  1.00  0.00    -0.130 S 
ATOM     80  C   UNL A   1      33.017  34.895  29.078  1.00  0.00     0.176 A 
ENDBRANCH  73  76
ENDBRANCH  71  72
BRANCH  71  81
ATOM     81  C   UNL A   1      37.669  34.307  32.005  1.00  0.00    -0.002 A 
ATOM     82  C   UNL A   1      38.460  34.547  33.151  1.00  0.00     0.007 A 
ATOM     83  C   UNL A   1      38.317  34.082  30.762  1.00  0.00     0.061 A 
ATOM     84  C   UNL A   1      39.851  34.548  33.086  1.00  0.00     0.000 A 
ATOM     85  C   UNL A   1      39.727  34.119  30.720  1.00  0.00     0.013 A 
ATOM     86  C   UNL A   1      40.484  34.335  31.870  1.00  0.00     0.001 A 
BRANCH  83  87
ATOM     87  C   UNL A   1      37.589  33.766  29.471  1.00  0.00     0.416 C 
ATOM     88  F   UNL A   1      38.396  33.885  28.380  1.00  0.00    -0.166 F 
ATOM     89  F   UNL A   1      37.088  32.499  29.418  1.00  0.00    -0.166 F 
ATOM     90  F   UNL A   1      36.525  34.574  29.217  1.00  0.00    -0.166 F 
ENDBRANCH  83  87
ENDBRANCH  71  81
ENDBRANCH  69  71
ENDBRANCH  68  69
ENDBRANCH  67  68
ENDBRANCH   1  67
TORSDOF 18
ENDMDL
