MODEL 1
REMARK VINA RESULT:      -9.0      0.000      0.000
REMARK SMILES CCN(CCC#N)C(=O)c1ccncc1/C=C/C(=O)OCCOC(=O)c1ccc(-c2c3nc(c(-c4ccc(S(=O)(=O)[O-])cc4)c4ccc([nH]4)c(-c4ccc(S(=O)(=O)[O-])cc4)c4nc(c(-c5ccc(S(=O)(=O)[O-])cc5)c5ccc2[nH]5)C=C4)C=C3)cc1
REMARK SMILES IDX 20 1 18 2 19 3 17 4 16 5 15 6 10 7 11 8 12 9 14 10 13 11
REMARK SMILES IDX 8 12 9 13 3 14 2 15 1 16 4 17 5 18 6 19 7 20 21 21 22 22
REMARK SMILES IDX 23 23 24 24 25 25 26 26 27 27 85 28 28 29 84 30 29 31 30 32
REMARK SMILES IDX 31 33 78 34 32 35 83 36 77 37 79 38 33 39 82 40 76 41 75 42
REMARK SMILES IDX 34 44 64 45 45 46 63 47 46 48 49 49 62 50 80 51 47 52 48 53
REMARK SMILES IDX 61 55 81 56 50 57 35 58 36 59 44 60 37 61 43 62 38 63 39 64
REMARK SMILES IDX 40 65 41 66 42 67 65 68 66 69 74 70 67 71 73 72 68 73 69 74
REMARK SMILES IDX 70 75 71 76 72 77 51 78 52 79 60 80 53 81 59 82 54 83 55 84
REMARK SMILES IDX 56 85 57 86 58 87
REMARK H PARENT 79 43 49 54
REMARK Flexibility Score: inf
ROOT
ATOM      1  O   UNL A   1      33.674  26.666  25.295  1.00  0.00    -0.459 OA
ENDROOT
BRANCH   1   2
ATOM      2  C   UNL A   1      33.694  25.867  24.205  1.00  0.00     0.330 C 
ATOM      3  O   UNL A   1      33.183  26.111  23.121  1.00  0.00    -0.247 OA
BRANCH   2   4
ATOM      4  C   UNL A   1      34.502  24.651  24.403  1.00  0.00     0.094 C 
ATOM      5  C   UNL A   1      34.974  24.168  25.566  1.00  0.00     0.018 C 
BRANCH   5   6
ATOM      6  C   UNL A   1      35.813  22.958  25.549  1.00  0.00     0.006 A 
ATOM      7  C   UNL A   1      35.316  21.656  25.624  1.00  0.00     0.050 A 
ATOM      8  C   UNL A   1      36.117  20.588  25.224  1.00  0.00     0.034 A 
ATOM      9  C   UNL A   1      37.460  20.811  25.011  1.00  0.00     0.112 A 
ATOM     10  C   UNL A   1      37.192  23.065  25.355  1.00  0.00     0.119 A 
ATOM     11  N   UNL A   1      38.025  22.024  25.125  1.00  0.00    -0.264 NA
BRANCH   7  12
ATOM     12  C   UNL A   1      33.958  21.350  26.126  1.00  0.00     0.254 C 
ATOM     13  O   UNL A   1      33.802  21.223  27.337  1.00  0.00    -0.269 OA
BRANCH  12  14
ATOM     14  N   UNL A   1      32.911  21.182  25.195  1.00  0.00    -0.338 N 
BRANCH  14  15
ATOM     15  C   UNL A   1      33.291  20.714  23.857  1.00  0.00     0.116 C 
ATOM     16  C   UNL A   1      32.090  20.283  23.020  1.00  0.00     0.027 C 
ENDBRANCH  14  15
BRANCH  14  17
ATOM     17  C   UNL A   1      31.493  21.577  25.381  1.00  0.00     0.135 C 
BRANCH  17  18
ATOM     18  C   UNL A   1      31.204  23.069  25.133  1.00  0.00     0.141 C 
BRANCH  18  19
ATOM     19  C   UNL A   1      31.357  23.920  26.320  1.00  0.00     0.064 C 
ATOM     20  N   UNL A   1      31.473  24.620  27.236  1.00  0.00    -0.198 NA
ENDBRANCH  18  19
ENDBRANCH  17  18
ENDBRANCH  14  17
ENDBRANCH  12  14
ENDBRANCH   7  12
ENDBRANCH   5   6
ENDBRANCH   2   4
ENDBRANCH   1   2
BRANCH   1  21
ATOM     21  C   UNL A   1      33.212  28.007  25.055  1.00  0.00     0.275 C 
BRANCH  21  22
ATOM     22  C   UNL A   1      33.044  28.776  26.370  1.00  0.00     0.275 C 
BRANCH  22  23
ATOM     23  O   UNL A   1      34.207  28.687  27.218  1.00  0.00    -0.458 OA
BRANCH  23  24
ATOM     24  C   UNL A   1      34.591  29.858  27.780  1.00  0.00     0.338 C 
ATOM     25  O   UNL A   1      33.889  30.838  27.980  1.00  0.00    -0.246 OA
BRANCH  24  26
ATOM     26  C   UNL A   1      35.987  29.793  28.245  1.00  0.00     0.060 A 
ATOM     27  C   UNL A   1      36.991  30.031  27.303  1.00  0.00     0.016 A 
ATOM     28  C   UNL A   1      36.320  29.370  29.533  1.00  0.00     0.016 A 
ATOM     29  C   UNL A   1      38.325  29.801  27.624  1.00  0.00     0.010 A 
ATOM     30  C   UNL A   1      37.669  29.168  29.864  1.00  0.00     0.010 A 
ATOM     31  C   UNL A   1      38.680  29.353  28.904  1.00  0.00    -0.014 A 
BRANCH  31  32
ATOM     32  C   UNL A   1      40.110  29.053  29.192  1.00  0.00     0.031 A 
ATOM     33  C   UNL A   1      40.701  27.717  28.826  1.00  0.00     0.074 A 
ATOM     34  C   UNL A   1      40.896  30.013  29.719  1.00  0.00     0.049 A 
ATOM     35  N   UNL A   1      41.935  27.296  28.956  1.00  0.00    -0.248 NA
ATOM     36  C   UNL A   1      39.788  26.722  28.241  1.00  0.00     0.031 C 
ATOM     37  C   UNL A   1      40.452  31.360  30.085  1.00  0.00     0.029 A 
ATOM     38  N   UNL A   1      42.236  30.014  30.015  1.00  0.00    -0.354 N 
ATOM     39  C   UNL A   1      41.945  25.988  28.482  1.00  0.00     0.074 A 
ATOM     40  C   UNL A   1      40.585  25.673  28.099  1.00  0.00     0.031 C 
ATOM     41  C   UNL A   1      41.506  32.067  30.517  1.00  0.00     0.029 A 
ATOM     42  C   UNL A   1      42.689  31.212  30.517  1.00  0.00     0.049 A 
ATOM     43  H   UNL A   1      42.819  29.232  29.881  1.00  0.00     0.167 HD
ATOM     44  C   UNL A   1      42.991  25.132  28.366  1.00  0.00     0.031 A 
ATOM     45  C   UNL A   1      43.912  31.581  30.943  1.00  0.00     0.031 A 
ATOM     46  C   UNL A   1      44.340  25.448  28.763  1.00  0.00     0.049 A 
ATOM     47  C   UNL A   1      45.041  30.590  30.870  1.00  0.00     0.074 A 
ATOM     48  C   UNL A   1      45.471  24.653  28.679  1.00  0.00     0.029 A 
ATOM     49  N   UNL A   1      44.744  26.652  29.325  1.00  0.00    -0.354 N 
ATOM     50  N   UNL A   1      45.034  29.362  30.407  1.00  0.00    -0.248 NA
ATOM     51  C   UNL A   1      46.347  31.040  31.367  1.00  0.00     0.031 C 
ATOM     52  C   UNL A   1      46.540  25.347  29.257  1.00  0.00     0.029 A 
ATOM     53  C   UNL A   1      46.099  26.609  29.620  1.00  0.00     0.049 A 
ATOM     54  H   UNL A   1      44.155  27.422  29.491  1.00  0.00     0.167 HD
ATOM     55  C   UNL A   1      46.343  28.906  30.522  1.00  0.00     0.074 A 
ATOM     56  C   UNL A   1      47.115  29.998  31.082  1.00  0.00     0.031 C 
ATOM     57  C   UNL A   1      46.860  27.696  30.187  1.00  0.00     0.031 A 
BRANCH  44  58
ATOM     58  C   UNL A   1      42.708  23.750  27.825  1.00  0.00    -0.014 A 
ATOM     59  C   UNL A   1      42.224  22.719  28.653  1.00  0.00     0.010 A 
ATOM     60  C   UNL A   1      42.898  23.487  26.456  1.00  0.00     0.010 A 
ATOM     61  C   UNL A   1      41.984  21.444  28.131  1.00  0.00     0.020 A 
ATOM     62  C   UNL A   1      42.626  22.223  25.924  1.00  0.00     0.020 A 
ATOM     63  C   UNL A   1      42.188  21.203  26.769  1.00  0.00     0.054 A 
BRANCH  63  64
ATOM     64  S   UNL A   1      41.860  19.542  26.121  1.00  0.00     0.124 S 
ATOM     65  O   UNL A   1      42.696  19.513  24.923  1.00  0.00    -0.237 OA
ATOM     66  O   UNL A   1      42.301  18.680  27.214  1.00  0.00    -0.237 OA
ATOM     67  O   UNL A   1      40.420  19.542  25.873  1.00  0.00    -0.744 OA
ENDBRANCH  63  64
ENDBRANCH  44  58
BRANCH  45  68
ATOM     68  C   UNL A   1      44.129  32.953  31.487  1.00  0.00    -0.014 A 
ATOM     69  C   UNL A   1      44.488  34.018  30.642  1.00  0.00     0.010 A 
ATOM     70  C   UNL A   1      43.972  33.200  32.864  1.00  0.00     0.010 A 
ATOM     71  C   UNL A   1      44.704  35.297  31.165  1.00  0.00     0.020 A 
ATOM     72  C   UNL A   1      44.147  34.484  33.385  1.00  0.00     0.020 A 
ATOM     73  C   UNL A   1      44.525  35.522  32.532  1.00  0.00     0.054 A 
BRANCH  73  74
ATOM     74  S   UNL A   1      44.759  37.201  33.180  1.00  0.00     0.124 S 
ATOM     75  O   UNL A   1      44.187  37.093  34.518  1.00  0.00    -0.237 OA
ATOM     76  O   UNL A   1      46.210  37.360  33.122  1.00  0.00    -0.237 OA
ATOM     77  O   UNL A   1      44.009  38.038  32.246  1.00  0.00    -0.744 OA
ENDBRANCH  73  74
ENDBRANCH  45  68
BRANCH  57  78
ATOM     78  C   UNL A   1      48.345  27.507  30.366  1.00  0.00    -0.014 A 
ATOM     79  C   UNL A   1      49.258  27.739  29.322  1.00  0.00     0.010 A 
ATOM     80  C   UNL A   1      48.838  27.098  31.620  1.00  0.00     0.010 A 
ATOM     81  C   UNL A   1      50.625  27.508  29.509  1.00  0.00     0.020 A 
ATOM     82  C   UNL A   1      50.207  26.905  31.825  1.00  0.00     0.020 A 
ATOM     83  C   UNL A   1      51.090  27.089  30.760  1.00  0.00     0.054 A 
BRANCH  83  84
ATOM     84  S   UNL A   1      52.866  26.802  30.979  1.00  0.00     0.124 S 
ATOM     85  O   UNL A   1      52.882  25.703  31.940  1.00  0.00    -0.237 OA
ATOM     86  O   UNL A   1      53.303  26.461  29.627  1.00  0.00    -0.237 OA
ATOM     87  O   UNL A   1      53.365  28.078  31.485  1.00  0.00    -0.744 OA
ENDBRANCH  83  84
ENDBRANCH  57  78
ENDBRANCH  31  32
ENDBRANCH  24  26
ENDBRANCH  23  24
ENDBRANCH  22  23
ENDBRANCH  21  22
ENDBRANCH   1  21
TORSDOF 21
ENDMDL
MODEL 2
REMARK VINA RESULT:      -8.7      4.581      9.915
REMARK SMILES CCN(CCC#N)C(=O)c1ccncc1/C=C/C(=O)OCCOC(=O)c1ccc(-c2c3nc(c(-c4ccc(S(=O)(=O)[O-])cc4)c4ccc([nH]4)c(-c4ccc(S(=O)(=O)[O-])cc4)c4nc(c(-c5ccc(S(=O)(=O)[O-])cc5)c5ccc2[nH]5)C=C4)C=C3)cc1
REMARK SMILES IDX 20 1 18 2 19 3 17 4 16 5 15 6 10 7 11 8 12 9 14 10 13 11
REMARK SMILES IDX 8 12 9 13 3 14 2 15 1 16 4 17 5 18 6 19 7 20 21 21 22 22
REMARK SMILES IDX 23 23 24 24 25 25 26 26 27 27 85 28 28 29 84 30 29 31 30 32
REMARK SMILES IDX 31 33 78 34 32 35 83 36 77 37 79 38 33 39 82 40 76 41 75 42
REMARK SMILES IDX 34 44 64 45 45 46 63 47 46 48 49 49 62 50 80 51 47 52 48 53
REMARK SMILES IDX 61 55 81 56 50 57 35 58 36 59 44 60 37 61 43 62 38 63 39 64
REMARK SMILES IDX 40 65 41 66 42 67 65 68 66 69 74 70 67 71 73 72 68 73 69 74
REMARK SMILES IDX 70 75 71 76 72 77 51 78 52 79 60 80 53 81 59 82 54 83 55 84
REMARK SMILES IDX 56 85 57 86 58 87
REMARK H PARENT 79 43 49 54
REMARK Flexibility Score: inf
ROOT
ATOM      1  O   UNL A   1      33.743  31.233  27.626  1.00  0.00    -0.459 OA
ENDROOT
BRANCH   1   2
ATOM      2  C   UNL A   1      33.929  30.073  26.958  1.00  0.00     0.330 C 
ATOM      3  O   UNL A   1      34.791  29.237  27.189  1.00  0.00    -0.247 OA
BRANCH   2   4
ATOM      4  C   UNL A   1      32.900  29.835  25.930  1.00  0.00     0.094 C 
ATOM      5  C   UNL A   1      32.483  28.648  25.455  1.00  0.00     0.018 C 
BRANCH   5   6
ATOM      6  C   UNL A   1      31.476  28.622  24.383  1.00  0.00     0.006 A 
ATOM      7  C   UNL A   1      31.239  27.525  23.553  1.00  0.00     0.050 A 
ATOM      8  C   UNL A   1      30.044  27.444  22.841  1.00  0.00     0.034 A 
ATOM      9  C   UNL A   1      29.240  28.561  22.766  1.00  0.00     0.112 A 
ATOM     10  C   UNL A   1      30.616  29.707  24.204  1.00  0.00     0.119 A 
ATOM     11  N   UNL A   1      29.535  29.713  23.390  1.00  0.00    -0.264 NA
BRANCH   7  12
ATOM     12  C   UNL A   1      32.218  26.428  23.384  1.00  0.00     0.254 C 
ATOM     13  O   UNL A   1      33.098  26.560  22.539  1.00  0.00    -0.269 OA
BRANCH  12  14
ATOM     14  N   UNL A   1      32.080  25.265  24.173  1.00  0.00    -0.338 N 
BRANCH  14  15
ATOM     15  C   UNL A   1      33.321  24.649  24.656  1.00  0.00     0.116 C 
ATOM     16  C   UNL A   1      34.007  25.477  25.739  1.00  0.00     0.027 C 
ENDBRANCH  14  15
BRANCH  14  17
ATOM     17  C   UNL A   1      30.824  24.519  24.432  1.00  0.00     0.135 C 
BRANCH  17  18
ATOM     18  C   UNL A   1      31.020  23.135  25.075  1.00  0.00     0.141 C 
BRANCH  18  19
ATOM     19  C   UNL A   1      30.573  23.047  26.471  1.00  0.00     0.064 C 
ATOM     20  N   UNL A   1      30.203  22.949  27.564  1.00  0.00    -0.198 NA
ENDBRANCH  18  19
ENDBRANCH  17  18
ENDBRANCH  14  17
ENDBRANCH  12  14
ENDBRANCH   7  12
ENDBRANCH   5   6
ENDBRANCH   2   4
ENDBRANCH   1   2
BRANCH   1  21
ATOM     21  C   UNL A   1      32.583  31.983  27.226  1.00  0.00     0.275 C 
BRANCH  21  22
ATOM     22  C   UNL A   1      32.818  33.490  27.383  1.00  0.00     0.275 C 
BRANCH  22  23
ATOM     23  O   UNL A   1      32.577  33.952  28.727  1.00  0.00    -0.458 OA
BRANCH  23  24
ATOM     24  C   UNL A   1      33.503  34.818  29.205  1.00  0.00     0.338 C 
ATOM     25  O   UNL A   1      33.370  36.023  29.350  1.00  0.00    -0.246 OA
BRANCH  24  26
ATOM     26  C   UNL A   1      34.714  34.108  29.653  1.00  0.00     0.060 A 
ATOM     27  C   UNL A   1      34.582  33.218  30.721  1.00  0.00     0.016 A 
ATOM     28  C   UNL A   1      35.978  34.407  29.141  1.00  0.00     0.016 A 
ATOM     29  C   UNL A   1      35.708  32.661  31.315  1.00  0.00     0.010 A 
ATOM     30  C   UNL A   1      37.112  33.820  29.723  1.00  0.00     0.010 A 
ATOM     31  C   UNL A   1      36.989  32.965  30.833  1.00  0.00    -0.014 A 
BRANCH  31  32
ATOM     32  C   UNL A   1      38.176  32.403  31.536  1.00  0.00     0.031 A 
ATOM     33  C   UNL A   1      38.588  32.931  32.886  1.00  0.00     0.074 A 
ATOM     34  C   UNL A   1      38.843  31.368  30.988  1.00  0.00     0.049 A 
ATOM     35  N   UNL A   1      39.561  32.532  33.666  1.00  0.00    -0.248 NA
ATOM     36  C   UNL A   1      37.806  34.052  33.430  1.00  0.00     0.031 C 
ATOM     37  C   UNL A   1      38.523  30.744  29.702  1.00  0.00     0.029 A 
ATOM     38  N   UNL A   1      39.910  30.639  31.453  1.00  0.00    -0.354 N 
ATOM     39  C   UNL A   1      39.518  33.359  34.785  1.00  0.00     0.074 A 
ATOM     40  C   UNL A   1      38.447  34.305  34.562  1.00  0.00     0.031 C 
ATOM     41  C   UNL A   1      39.346  29.706  29.501  1.00  0.00     0.029 A 
ATOM     42  C   UNL A   1      40.292  29.623  30.609  1.00  0.00     0.049 A 
ATOM     43  H   UNL A   1      40.360  30.827  32.308  1.00  0.00     0.167 HD
ATOM     44  C   UNL A   1      40.292  33.325  35.898  1.00  0.00     0.031 A 
ATOM     45  C   UNL A   1      41.296  28.730  30.706  1.00  0.00     0.031 A 
ATOM     46  C   UNL A   1      41.366  32.387  36.107  1.00  0.00     0.049 A 
ATOM     47  C   UNL A   1      42.185  28.760  31.920  1.00  0.00     0.074 A 
ATOM     48  C   UNL A   1      42.203  32.267  37.205  1.00  0.00     0.029 A 
ATOM     49  N   UNL A   1      41.760  31.413  35.201  1.00  0.00    -0.354 N 
ATOM     50  N   UNL A   1      42.120  29.540  32.973  1.00  0.00    -0.248 NA
ATOM     51  C   UNL A   1      43.275  27.778  31.963  1.00  0.00     0.031 C 
ATOM     52  C   UNL A   1      43.147  31.271  36.930  1.00  0.00     0.029 A 
ATOM     53  C   UNL A   1      42.846  30.709  35.700  1.00  0.00     0.049 A 
ATOM     54  H   UNL A   1      41.333  31.246  34.330  1.00  0.00     0.167 HD
ATOM     55  C   UNL A   1      43.139  29.117  33.820  1.00  0.00     0.074 A 
ATOM     56  C   UNL A   1      43.790  28.002  33.163  1.00  0.00     0.031 C 
ATOM     57  C   UNL A   1      43.496  29.605  35.036  1.00  0.00     0.031 A 
BRANCH  44  58
ATOM     58  C   UNL A   1      40.030  34.365  36.963  1.00  0.00    -0.014 A 
ATOM     59  C   UNL A   1      39.108  34.140  38.003  1.00  0.00     0.010 A 
ATOM     60  C   UNL A   1      40.747  35.576  36.943  1.00  0.00     0.010 A 
ATOM     61  C   UNL A   1      38.873  35.124  38.968  1.00  0.00     0.020 A 
ATOM     62  C   UNL A   1      40.540  36.548  37.927  1.00  0.00     0.020 A 
ATOM     63  C   UNL A   1      39.590  36.323  38.923  1.00  0.00     0.054 A 
BRANCH  63  64
ATOM     64  S   UNL A   1      39.269  37.576  40.195  1.00  0.00     0.124 S 
ATOM     65  O   UNL A   1      40.551  38.274  40.262  1.00  0.00    -0.237 OA
ATOM     66  O   UNL A   1      38.168  38.342  39.618  1.00  0.00    -0.237 OA
ATOM     67  O   UNL A   1      38.927  36.792  41.379  1.00  0.00    -0.744 OA
ENDBRANCH  63  64
ENDBRANCH  44  58
BRANCH  45  68
ATOM     68  C   UNL A   1      41.520  27.739  29.615  1.00  0.00    -0.014 A 
ATOM     69  C   UNL A   1      40.621  26.678  29.406  1.00  0.00     0.010 A 
ATOM     70  C   UNL A   1      42.641  27.858  28.772  1.00  0.00     0.010 A 
ATOM     71  C   UNL A   1      40.849  25.746  28.388  1.00  0.00     0.020 A 
ATOM     72  C   UNL A   1      42.852  26.952  27.730  1.00  0.00     0.020 A 
ATOM     73  C   UNL A   1      41.960  25.893  27.553  1.00  0.00     0.054 A 
BRANCH  73  74
ATOM     74  S   UNL A   1      42.206  24.702  26.207  1.00  0.00     0.124 S 
ATOM     75  O   UNL A   1      43.548  24.201  26.487  1.00  0.00    -0.237 OA
ATOM     76  O   UNL A   1      41.117  23.753  26.425  1.00  0.00    -0.237 OA
ATOM     77  O   UNL A   1      42.082  25.516  25.000  1.00  0.00    -0.744 OA
ENDBRANCH  73  74
ENDBRANCH  45  68
BRANCH  57  78
ATOM     78  C   UNL A   1      44.613  28.896  35.762  1.00  0.00    -0.014 A 
ATOM     79  C   UNL A   1      45.962  29.066  35.401  1.00  0.00     0.010 A 
ATOM     80  C   UNL A   1      44.301  28.048  36.841  1.00  0.00     0.010 A 
ATOM     81  C   UNL A   1      46.969  28.357  36.064  1.00  0.00     0.020 A 
ATOM     82  C   UNL A   1      45.306  27.369  37.535  1.00  0.00     0.020 A 
ATOM     83  C   UNL A   1      46.633  27.510  37.126  1.00  0.00     0.054 A 
BRANCH  83  84
ATOM     84  S   UNL A   1      47.956  26.606  37.973  1.00  0.00     0.124 S 
ATOM     85  O   UNL A   1      47.459  25.233  37.939  1.00  0.00    -0.237 OA
ATOM     86  O   UNL A   1      49.117  26.876  37.129  1.00  0.00    -0.237 OA
ATOM     87  O   UNL A   1      48.001  27.218  39.299  1.00  0.00    -0.744 OA
ENDBRANCH  83  84
ENDBRANCH  57  78
ENDBRANCH  31  32
ENDBRANCH  24  26
ENDBRANCH  23  24
ENDBRANCH  22  23
ENDBRANCH  21  22
ENDBRANCH   1  21
TORSDOF 21
ENDMDL
MODEL 3
REMARK VINA RESULT:      -8.7      4.667      9.855
REMARK SMILES CCN(CCC#N)C(=O)c1ccncc1/C=C/C(=O)OCCOC(=O)c1ccc(-c2c3nc(c(-c4ccc(S(=O)(=O)[O-])cc4)c4ccc([nH]4)c(-c4ccc(S(=O)(=O)[O-])cc4)c4nc(c(-c5ccc(S(=O)(=O)[O-])cc5)c5ccc2[nH]5)C=C4)C=C3)cc1
REMARK SMILES IDX 20 1 18 2 19 3 17 4 16 5 15 6 10 7 11 8 12 9 14 10 13 11
REMARK SMILES IDX 8 12 9 13 3 14 2 15 1 16 4 17 5 18 6 19 7 20 21 21 22 22
REMARK SMILES IDX 23 23 24 24 25 25 26 26 27 27 85 28 28 29 84 30 29 31 30 32
REMARK SMILES IDX 31 33 78 34 32 35 83 36 77 37 79 38 33 39 82 40 76 41 75 42
REMARK SMILES IDX 34 44 64 45 45 46 63 47 46 48 49 49 62 50 80 51 47 52 48 53
REMARK SMILES IDX 61 55 81 56 50 57 35 58 36 59 44 60 37 61 43 62 38 63 39 64
REMARK SMILES IDX 40 65 41 66 42 67 65 68 66 69 74 70 67 71 73 72 68 73 69 74
REMARK SMILES IDX 70 75 71 76 72 77 51 78 52 79 60 80 53 81 59 82 54 83 55 84
REMARK SMILES IDX 56 85 57 86 58 87
REMARK H PARENT 79 43 49 54
REMARK Flexibility Score: inf
ROOT
ATOM      1  O   UNL A   1      33.361  31.421  27.713  1.00  0.00    -0.459 OA
ENDROOT
BRANCH   1   2
ATOM      2  C   UNL A   1      33.722  30.228  27.190  1.00  0.00     0.330 C 
ATOM      3  O   UNL A   1      34.716  29.580  27.485  1.00  0.00    -0.247 OA
BRANCH   2   4
ATOM      4  C   UNL A   1      32.722  29.692  26.248  1.00  0.00     0.094 C 
ATOM      5  C   UNL A   1      32.620  28.428  25.800  1.00  0.00     0.018 C 
BRANCH   5   6
ATOM      6  C   UNL A   1      31.578  28.102  24.814  1.00  0.00     0.006 A 
ATOM      7  C   UNL A   1      30.790  26.951  24.854  1.00  0.00     0.050 A 
ATOM      8  C   UNL A   1      29.600  26.904  24.130  1.00  0.00     0.034 A 
ATOM      9  C   UNL A   1      29.357  27.883  23.191  1.00  0.00     0.112 A 
ATOM     10  C   UNL A   1      31.258  29.015  23.807  1.00  0.00     0.119 A 
ATOM     11  N   UNL A   1      30.195  28.910  22.976  1.00  0.00    -0.264 NA
BRANCH   7  12
ATOM     12  C   UNL A   1      31.170  25.754  25.636  1.00  0.00     0.254 C 
ATOM     13  O   UNL A   1      30.745  25.651  26.783  1.00  0.00    -0.269 OA
BRANCH  12  14
ATOM     14  N   UNL A   1      32.029  24.801  25.048  1.00  0.00    -0.338 N 
BRANCH  14  15
ATOM     15  C   UNL A   1      31.458  23.474  24.789  1.00  0.00     0.116 C 
ATOM     16  C   UNL A   1      30.662  23.419  23.488  1.00  0.00     0.027 C 
ENDBRANCH  14  15
BRANCH  14  17
ATOM     17  C   UNL A   1      33.486  24.954  24.809  1.00  0.00     0.135 C 
BRANCH  17  18
ATOM     18  C   UNL A   1      33.931  24.685  23.360  1.00  0.00     0.141 C 
BRANCH  18  19
ATOM     19  C   UNL A   1      33.685  25.799  22.435  1.00  0.00     0.064 C 
ATOM     20  N   UNL A   1      33.457  26.674  21.712  1.00  0.00    -0.198 NA
ENDBRANCH  18  19
ENDBRANCH  17  18
ENDBRANCH  14  17
ENDBRANCH  12  14
ENDBRANCH   7  12
ENDBRANCH   5   6
ENDBRANCH   2   4
ENDBRANCH   1   2
BRANCH   1  21
ATOM     21  C   UNL A   1      32.375  32.142  26.955  1.00  0.00     0.275 C 
BRANCH  21  22
ATOM     22  C   UNL A   1      32.402  33.636  27.294  1.00  0.00     0.275 C 
BRANCH  22  23
ATOM     23  O   UNL A   1      32.514  33.883  28.710  1.00  0.00    -0.458 OA
BRANCH  23  24
ATOM     24  C   UNL A   1      33.491  34.754  29.060  1.00  0.00     0.338 C 
ATOM     25  O   UNL A   1      33.405  35.972  29.097  1.00  0.00    -0.246 OA
BRANCH  24  26
ATOM     26  C   UNL A   1      34.699  34.044  29.515  1.00  0.00     0.060 A 
ATOM     27  C   UNL A   1      34.545  33.094  30.527  1.00  0.00     0.016 A 
ATOM     28  C   UNL A   1      35.975  34.394  29.069  1.00  0.00     0.016 A 
ATOM     29  C   UNL A   1      35.660  32.527  31.134  1.00  0.00     0.010 A 
ATOM     30  C   UNL A   1      37.098  33.797  29.661  1.00  0.00     0.010 A 
ATOM     31  C   UNL A   1      36.952  32.881  30.718  1.00  0.00    -0.014 A 
BRANCH  31  32
ATOM     32  C   UNL A   1      38.123  32.304  31.435  1.00  0.00     0.031 A 
ATOM     33  C   UNL A   1      38.503  32.800  32.805  1.00  0.00     0.074 A 
ATOM     34  C   UNL A   1      38.803  31.281  30.879  1.00  0.00     0.049 A 
ATOM     35  N   UNL A   1      39.460  32.385  33.598  1.00  0.00    -0.248 NA
ATOM     36  C   UNL A   1      37.708  33.909  33.357  1.00  0.00     0.031 C 
ATOM     37  C   UNL A   1      38.512  30.687  29.572  1.00  0.00     0.029 A 
ATOM     38  N   UNL A   1      39.860  30.543  31.351  1.00  0.00    -0.354 N 
ATOM     39  C   UNL A   1      39.390  33.186  34.734  1.00  0.00     0.074 A 
ATOM     40  C   UNL A   1      38.324  34.137  34.508  1.00  0.00     0.031 C 
ATOM     41  C   UNL A   1      39.341  29.653  29.366  1.00  0.00     0.029 A 
ATOM     42  C   UNL A   1      40.262  29.546  30.494  1.00  0.00     0.049 A 
ATOM     43  H   UNL A   1      40.290  30.712  32.220  1.00  0.00     0.167 HD
ATOM     44  C   UNL A   1      40.138  33.127  35.864  1.00  0.00     0.031 A 
ATOM     45  C   UNL A   1      41.265  28.652  30.593  1.00  0.00     0.031 A 
ATOM     46  C   UNL A   1      41.209  32.186  36.076  1.00  0.00     0.049 A 
ATOM     47  C   UNL A   1      42.125  28.654  31.827  1.00  0.00     0.074 A 
ATOM     48  C   UNL A   1      42.021  32.040  37.189  1.00  0.00     0.029 A 
ATOM     49  N   UNL A   1      41.624  31.232  35.156  1.00  0.00    -0.354 N 
ATOM     50  N   UNL A   1      42.036  29.410  32.895  1.00  0.00    -0.248 NA
ATOM     51  C   UNL A   1      43.216  27.672  31.872  1.00  0.00     0.031 C 
ATOM     52  C   UNL A   1      42.972  31.052  36.913  1.00  0.00     0.029 A 
ATOM     53  C   UNL A   1      42.699  30.517  35.664  1.00  0.00     0.049 A 
ATOM     54  H   UNL A   1      41.217  31.085  34.273  1.00  0.00     0.167 HD
ATOM     55  C   UNL A   1      43.036  28.969  33.756  1.00  0.00     0.074 A 
ATOM     56  C   UNL A   1      43.703  27.869  33.088  1.00  0.00     0.031 C 
ATOM     57  C   UNL A   1      43.365  29.429  34.990  1.00  0.00     0.031 A 
BRANCH  44  58
ATOM     58  C   UNL A   1      39.852  34.143  36.946  1.00  0.00    -0.014 A 
ATOM     59  C   UNL A   1      40.354  35.456  36.875  1.00  0.00     0.010 A 
ATOM     60  C   UNL A   1      39.038  33.785  38.036  1.00  0.00     0.010 A 
ATOM     61  C   UNL A   1      40.088  36.373  37.897  1.00  0.00     0.020 A 
ATOM     62  C   UNL A   1      38.740  34.710  39.042  1.00  0.00     0.020 A 
ATOM     63  C   UNL A   1      39.284  35.994  38.975  1.00  0.00     0.054 A 
BRANCH  63  64
ATOM     64  S   UNL A   1      38.948  37.208  40.281  1.00  0.00     0.124 S 
ATOM     65  O   UNL A   1      40.297  37.596  40.686  1.00  0.00    -0.237 OA
ATOM     66  O   UNL A   1      38.187  38.234  39.573  1.00  0.00    -0.237 OA
ATOM     67  O   UNL A   1      38.194  36.451  41.277  1.00  0.00    -0.744 OA
ENDBRANCH  63  64
ENDBRANCH  44  58
BRANCH  45  68
ATOM     68  C   UNL A   1      41.514  27.686  29.485  1.00  0.00    -0.014 A 
ATOM     69  C   UNL A   1      40.682  26.567  29.300  1.00  0.00     0.010 A 
ATOM     70  C   UNL A   1      42.591  27.887  28.602  1.00  0.00     0.010 A 
ATOM     71  C   UNL A   1      40.934  25.659  28.266  1.00  0.00     0.020 A 
ATOM     72  C   UNL A   1      42.823  27.004  27.544  1.00  0.00     0.020 A 
ATOM     73  C   UNL A   1      42.000  25.888  27.391  1.00  0.00     0.054 A 
BRANCH  73  74
ATOM     74  S   UNL A   1      42.276  24.726  26.025  1.00  0.00     0.124 S 
ATOM     75  O   UNL A   1      43.678  24.965  25.701  1.00  0.00    -0.237 OA
ATOM     76  O   UNL A   1      41.980  23.437  26.646  1.00  0.00    -0.237 OA
ATOM     77  O   UNL A   1      41.317  25.155  25.009  1.00  0.00    -0.744 OA
ENDBRANCH  73  74
ENDBRANCH  45  68
BRANCH  57  78
ATOM     78  C   UNL A   1      44.466  28.704  35.724  1.00  0.00    -0.014 A 
ATOM     79  C   UNL A   1      45.814  29.092  35.617  1.00  0.00     0.010 A 
ATOM     80  C   UNL A   1      44.137  27.615  36.553  1.00  0.00     0.010 A 
ATOM     81  C   UNL A   1      46.815  28.369  36.274  1.00  0.00     0.020 A 
ATOM     82  C   UNL A   1      45.128  26.914  37.245  1.00  0.00     0.020 A 
ATOM     83  C   UNL A   1      46.465  27.282  37.082  1.00  0.00     0.054 A 
BRANCH  83  84
ATOM     84  S   UNL A   1      47.779  26.364  37.927  1.00  0.00     0.124 S 
ATOM     85  O   UNL A   1      47.721  25.064  37.264  1.00  0.00    -0.237 OA
ATOM     86  O   UNL A   1      48.965  27.165  37.636  1.00  0.00    -0.237 OA
ATOM     87  O   UNL A   1      47.361  26.367  39.327  1.00  0.00    -0.744 OA
ENDBRANCH  83  84
ENDBRANCH  57  78
ENDBRANCH  31  32
ENDBRANCH  24  26
ENDBRANCH  23  24
ENDBRANCH  22  23
ENDBRANCH  21  22
ENDBRANCH   1  21
TORSDOF 21
ENDMDL
