MODEL 1
REMARK VINA RESULT:     -11.6      0.000      0.000
REMARK SMILES Cn1ncc2c(NCCC3=CCCCC3)c(C(=O)OCCOC(=O)c3ccc(-c4c5nc(c(-c6ccc(S(=O)(=O)[O-])cc6)c6ccc([nH]6)c(-c6ccc(S(=O)(=O)[O-])cc6)c6nc(c(-c7ccc(S(=O)(=O)[O-])cc7)c7ccc4[nH]7)C=C6)C=C5)cc3)cnc21
REMARK SMILES IDX 20 1 19 2 17 3 18 4 16 5 1 6 2 7 3 8 87 9 4 10 5 11 86 12
REMARK SMILES IDX 6 13 85 14 7 15 8 17 9 18 10 19 11 20 15 21 12 22 14 23
REMARK SMILES IDX 13 24 21 25 22 26 23 27 24 28 25 29 26 30 84 31 27 32 83 33
REMARK SMILES IDX 28 34 29 35 30 36 77 37 31 38 82 39 76 40 78 41 32 42 81 43
REMARK SMILES IDX 75 44 74 45 33 47 63 48 44 49 62 50 45 51 48 52 61 53 79 54
REMARK SMILES IDX 46 55 47 56 60 58 80 59 49 60 34 61 35 62 43 63 36 64 42 65
REMARK SMILES IDX 37 66 38 67 39 68 40 69 41 70 64 71 65 72 73 73 66 74 72 75
REMARK SMILES IDX 67 76 68 77 69 78 70 79 71 80 50 81 51 82 59 83 52 84 58 85
REMARK SMILES IDX 53 86 54 87 55 88 56 89 57 90
REMARK H PARENT 7 16 78 46 48 57
REMARK Flexibility Score: inf
ROOT
ATOM      1  C   UNL A   1      39.578  22.733  26.581  1.00  0.00     0.275 C 
ENDROOT
BRANCH   1   2
ATOM      2  O   UNL A   1      38.444  21.998  26.075  1.00  0.00    -0.458 OA
BRANCH   2   3
ATOM      3  C   UNL A   1      37.330  22.737  25.809  1.00  0.00     0.341 C 
ATOM      4  O   UNL A   1      37.309  23.960  25.768  1.00  0.00    -0.246 OA
BRANCH   3   5
ATOM      5  C   UNL A   1      36.151  21.882  25.484  1.00  0.00     0.102 A 
ATOM      6  C   UNL A   1      32.990  17.937  24.587  1.00  0.00     0.176 C 
ATOM      7  N   UNL A   1      33.072  19.343  24.891  1.00  0.00    -0.250 N 
ATOM      8  N   UNL A   1      31.943  20.026  25.154  1.00  0.00    -0.179 NA
ATOM      9  C   UNL A   1      34.210  20.091  25.010  1.00  0.00     0.159 A 
ATOM     10  C   UNL A   1      32.397  21.256  25.421  1.00  0.00     0.147 A 
ATOM     11  C   UNL A   1      33.812  21.370  25.394  1.00  0.00     0.063 A 
ATOM     12  N   UNL A   1      35.463  19.640  24.804  1.00  0.00    -0.236 NA
ATOM     13  C   UNL A   1      34.807  22.356  25.645  1.00  0.00     0.063 A 
ATOM     14  C   UNL A   1      36.395  20.584  25.037  1.00  0.00     0.131 A 
BRANCH  13  15
ATOM     15  N   UNL A   1      34.570  23.667  26.038  1.00  0.00    -0.383 N 
ATOM     16  H   UNL A   1      35.108  23.967  26.806  1.00  0.00     0.160 HD
BRANCH  15  17
ATOM     17  C   UNL A   1      33.662  24.673  25.507  1.00  0.00     0.117 C 
BRANCH  17  18
ATOM     18  C   UNL A   1      34.320  26.068  25.497  1.00  0.00     0.052 C 
BRANCH  18  19
ATOM     19  C   UNL A   1      33.505  27.152  26.176  1.00  0.00    -0.072 C 
ATOM     20  C   UNL A   1      32.218  26.963  26.510  1.00  0.00    -0.028 C 
ATOM     21  C   UNL A   1      34.200  28.468  26.434  1.00  0.00     0.031 C 
ATOM     22  C   UNL A   1      31.380  27.966  27.237  1.00  0.00     0.027 C 
ATOM     23  C   UNL A   1      33.423  29.425  27.345  1.00  0.00     0.005 C 
ATOM     24  C   UNL A   1      31.920  29.382  27.082  1.00  0.00     0.004 C 
ENDBRANCH  18  19
ENDBRANCH  17  18
ENDBRANCH  15  17
ENDBRANCH  13  15
ENDBRANCH   3   5
ENDBRANCH   2   3
ENDBRANCH   1   2
BRANCH   1  25
ATOM     25  C   UNL A   1      40.835  21.870  26.653  1.00  0.00     0.275 C 
BRANCH  25  26
ATOM     26  O   UNL A   1      41.985  22.654  26.958  1.00  0.00    -0.458 OA
BRANCH  26  27
ATOM     27  C   UNL A   1      42.595  23.202  25.880  1.00  0.00     0.338 C 
ATOM     28  O   UNL A   1      43.039  22.606  24.913  1.00  0.00    -0.246 OA
BRANCH  27  29
ATOM     29  C   UNL A   1      42.838  24.625  26.134  1.00  0.00     0.060 A 
ATOM     30  C   UNL A   1      43.477  24.937  27.336  1.00  0.00     0.016 A 
ATOM     31  C   UNL A   1      42.133  25.583  25.391  1.00  0.00     0.016 A 
ATOM     32  C   UNL A   1      43.199  26.151  27.920  1.00  0.00     0.010 A 
ATOM     33  C   UNL A   1      41.831  26.781  25.990  1.00  0.00     0.010 A 
ATOM     34  C   UNL A   1      42.297  27.008  27.281  1.00  0.00    -0.014 A 
BRANCH  34  35
ATOM     35  C   UNL A   1      41.874  28.187  27.995  1.00  0.00     0.031 A 
ATOM     36  C   UNL A   1      42.846  29.294  27.933  1.00  0.00     0.074 A 
ATOM     37  C   UNL A   1      40.685  28.279  28.613  1.00  0.00     0.049 A 
ATOM     38  N   UNL A   1      43.669  29.664  28.856  1.00  0.00    -0.248 NA
ATOM     39  C   UNL A   1      43.042  29.954  26.635  1.00  0.00     0.031 C 
ATOM     40  C   UNL A   1      39.513  27.407  28.522  1.00  0.00     0.029 A 
ATOM     41  N   UNL A   1      40.262  29.278  29.423  1.00  0.00    -0.354 N 
ATOM     42  C   UNL A   1      44.364  30.738  28.320  1.00  0.00     0.074 A 
ATOM     43  C   UNL A   1      44.072  30.754  26.907  1.00  0.00     0.031 C 
ATOM     44  C   UNL A   1      38.447  28.040  29.074  1.00  0.00     0.029 A 
ATOM     45  C   UNL A   1      38.900  29.280  29.684  1.00  0.00     0.049 A 
ATOM     46  H   UNL A   1      40.874  29.951  29.798  1.00  0.00     0.167 HD
ATOM     47  C   UNL A   1      44.941  31.690  29.100  1.00  0.00     0.031 A 
ATOM     48  C   UNL A   1      38.225  30.288  30.293  1.00  0.00     0.031 A 
ATOM     49  C   UNL A   1      45.028  31.295  30.479  1.00  0.00     0.049 A 
ATOM     50  C   UNL A   1      39.233  31.071  31.062  1.00  0.00     0.074 A 
ATOM     51  C   UNL A   1      45.670  30.280  31.161  1.00  0.00     0.029 A 
ATOM     52  N   UNL A   1      44.044  31.753  31.325  1.00  0.00    -0.354 N 
ATOM     53  N   UNL A   1      39.887  30.597  32.086  1.00  0.00    -0.248 NA
ATOM     54  C   UNL A   1      39.838  32.229  30.419  1.00  0.00     0.031 C 
ATOM     55  C   UNL A   1      44.745  29.866  32.165  1.00  0.00     0.029 A 
ATOM     56  C   UNL A   1      43.616  30.682  32.069  1.00  0.00     0.049 A 
ATOM     57  H   UNL A   1      43.709  32.677  31.386  1.00  0.00     0.167 HD
ATOM     58  C   UNL A   1      41.166  31.124  31.972  1.00  0.00     0.074 A 
ATOM     59  C   UNL A   1      41.052  32.183  30.972  1.00  0.00     0.031 C 
ATOM     60  C   UNL A   1      42.248  30.483  32.501  1.00  0.00     0.031 A 
BRANCH  47  61
ATOM     61  C   UNL A   1      45.063  33.116  28.654  1.00  0.00    -0.014 A 
ATOM     62  C   UNL A   1      46.202  33.863  28.996  1.00  0.00     0.010 A 
ATOM     63  C   UNL A   1      43.961  33.818  28.113  1.00  0.00     0.010 A 
ATOM     64  C   UNL A   1      46.225  35.253  28.821  1.00  0.00     0.020 A 
ATOM     65  C   UNL A   1      43.992  35.192  27.892  1.00  0.00     0.020 A 
ATOM     66  C   UNL A   1      45.118  35.907  28.273  1.00  0.00     0.054 A 
BRANCH  66  67
ATOM     67  S   UNL A   1      45.119  37.712  28.155  1.00  0.00     0.124 S 
ATOM     68  O   UNL A   1      45.151  38.110  29.559  1.00  0.00    -0.237 OA
ATOM     69  O   UNL A   1      46.341  37.966  27.397  1.00  0.00    -0.237 OA
ATOM     70  O   UNL A   1      43.877  38.011  27.447  1.00  0.00    -0.744 OA
ENDBRANCH  66  67
ENDBRANCH  47  61
BRANCH  48  71
ATOM     71  C   UNL A   1      36.923  30.882  29.889  1.00  0.00    -0.014 A 
ATOM     72  C   UNL A   1      36.076  31.440  30.870  1.00  0.00     0.010 A 
ATOM     73  C   UNL A   1      36.669  31.210  28.542  1.00  0.00     0.010 A 
ATOM     74  C   UNL A   1      35.093  32.381  30.527  1.00  0.00     0.020 A 
ATOM     75  C   UNL A   1      35.683  32.142  28.193  1.00  0.00     0.020 A 
ATOM     76  C   UNL A   1      34.931  32.756  29.191  1.00  0.00     0.054 A 
BRANCH  76  77
ATOM     77  S   UNL A   1      33.822  34.138  28.789  1.00  0.00     0.124 S 
ATOM     78  O   UNL A   1      33.236  34.458  30.088  1.00  0.00    -0.237 OA
ATOM     79  O   UNL A   1      34.748  35.130  28.251  1.00  0.00    -0.237 OA
ATOM     80  O   UNL A   1      32.894  33.563  27.816  1.00  0.00    -0.744 OA
ENDBRANCH  76  77
ENDBRANCH  48  71
BRANCH  60  81
ATOM     81  C   UNL A   1      42.001  29.328  33.441  1.00  0.00    -0.014 A 
ATOM     82  C   UNL A   1      42.033  27.974  33.046  1.00  0.00     0.010 A 
ATOM     83  C   UNL A   1      41.878  29.626  34.808  1.00  0.00     0.010 A 
ATOM     84  C   UNL A   1      41.931  26.949  34.001  1.00  0.00     0.020 A 
ATOM     85  C   UNL A   1      41.789  28.612  35.763  1.00  0.00     0.020 A 
ATOM     86  C   UNL A   1      41.817  27.277  35.357  1.00  0.00     0.054 A 
BRANCH  86  87
ATOM     87  S   UNL A   1      41.718  25.952  36.595  1.00  0.00     0.124 S 
ATOM     88  O   UNL A   1      42.816  25.068  36.213  1.00  0.00    -0.237 OA
ATOM     89  O   UNL A   1      41.900  26.675  37.850  1.00  0.00    -0.237 OA
ATOM     90  O   UNL A   1      40.381  25.390  36.399  1.00  0.00    -0.744 OA
ENDBRANCH  86  87
ENDBRANCH  60  81
ENDBRANCH  34  35
ENDBRANCH  27  29
ENDBRANCH  26  27
ENDBRANCH  25  26
ENDBRANCH   1  25
TORSDOF 18
ENDMDL
MODEL 2
REMARK VINA RESULT:     -11.2      4.619     11.597
REMARK SMILES Cn1ncc2c(NCCC3=CCCCC3)c(C(=O)OCCOC(=O)c3ccc(-c4c5nc(c(-c6ccc(S(=O)(=O)[O-])cc6)c6ccc([nH]6)c(-c6ccc(S(=O)(=O)[O-])cc6)c6nc(c(-c7ccc(S(=O)(=O)[O-])cc7)c7ccc4[nH]7)C=C6)C=C5)cc3)cnc21
REMARK SMILES IDX 20 1 19 2 17 3 18 4 16 5 1 6 2 7 3 8 87 9 4 10 5 11 86 12
REMARK SMILES IDX 6 13 85 14 7 15 8 17 9 18 10 19 11 20 15 21 12 22 14 23
REMARK SMILES IDX 13 24 21 25 22 26 23 27 24 28 25 29 26 30 84 31 27 32 83 33
REMARK SMILES IDX 28 34 29 35 30 36 77 37 31 38 82 39 76 40 78 41 32 42 81 43
REMARK SMILES IDX 75 44 74 45 33 47 63 48 44 49 62 50 45 51 48 52 61 53 79 54
REMARK SMILES IDX 46 55 47 56 60 58 80 59 49 60 34 61 35 62 43 63 36 64 42 65
REMARK SMILES IDX 37 66 38 67 39 68 40 69 41 70 64 71 65 72 73 73 66 74 72 75
REMARK SMILES IDX 67 76 68 77 69 78 70 79 71 80 50 81 51 82 59 83 52 84 58 85
REMARK SMILES IDX 53 86 54 87 55 88 56 89 57 90
REMARK H PARENT 7 16 78 46 48 57
REMARK Flexibility Score: inf
ROOT
ATOM      1  C   UNL A   1      34.545  34.546  29.891  1.00  0.00     0.275 C 
ENDROOT
BRANCH   1   2
ATOM      2  O   UNL A   1      35.547  34.168  30.858  1.00  0.00    -0.458 OA
BRANCH   2   3
ATOM      3  C   UNL A   1      35.112  33.393  31.891  1.00  0.00     0.341 C 
ATOM      4  O   UNL A   1      34.176  32.607  31.816  1.00  0.00    -0.246 OA
BRANCH   3   5
ATOM      5  C   UNL A   1      35.962  33.546  33.108  1.00  0.00     0.102 A 
ATOM      6  C   UNL A   1      37.786  33.554  37.907  1.00  0.00     0.176 C 
ATOM      7  N   UNL A   1      38.130  33.619  36.510  1.00  0.00    -0.250 N 
ATOM      8  N   UNL A   1      39.426  33.597  36.150  1.00  0.00    -0.179 NA
ATOM      9  C   UNL A   1      37.264  33.640  35.452  1.00  0.00     0.159 A 
ATOM     10  C   UNL A   1      39.364  33.633  34.814  1.00  0.00     0.147 A 
ATOM     11  C   UNL A   1      38.042  33.618  34.296  1.00  0.00     0.063 A 
ATOM     12  N   UNL A   1      35.921  33.660  35.547  1.00  0.00    -0.236 NA
ATOM     13  C   UNL A   1      37.393  33.580  33.030  1.00  0.00     0.063 A 
ATOM     14  C   UNL A   1      35.318  33.631  34.342  1.00  0.00     0.131 A 
BRANCH  13  15
ATOM     15  N   UNL A   1      38.027  33.549  31.794  1.00  0.00    -0.383 N 
ATOM     16  H   UNL A   1      37.673  32.875  31.169  1.00  0.00     0.160 HD
BRANCH  15  17
ATOM     17  C   UNL A   1      39.125  34.345  31.265  1.00  0.00     0.117 C 
BRANCH  17  18
ATOM     18  C   UNL A   1      40.439  33.537  31.248  1.00  0.00     0.052 C 
BRANCH  18  19
ATOM     19  C   UNL A   1      41.661  34.333  30.830  1.00  0.00    -0.072 C 
ATOM     20  C   UNL A   1      42.014  34.460  29.540  1.00  0.00    -0.028 C 
ATOM     21  C   UNL A   1      42.481  34.956  31.935  1.00  0.00     0.031 C 
ATOM     22  C   UNL A   1      43.166  35.282  29.059  1.00  0.00     0.027 C 
ATOM     23  C   UNL A   1      43.539  35.954  31.451  1.00  0.00     0.005 C 
ATOM     24  C   UNL A   1      44.203  35.509  30.152  1.00  0.00     0.004 C 
ENDBRANCH  18  19
ENDBRANCH  17  18
ENDBRANCH  15  17
ENDBRANCH  13  15
ENDBRANCH   3   5
ENDBRANCH   2   3
ENDBRANCH   1   2
BRANCH   1  25
ATOM     25  C   UNL A   1      34.143  33.378  28.995  1.00  0.00     0.275 C 
BRANCH  25  26
ATOM     26  O   UNL A   1      35.184  33.040  28.084  1.00  0.00    -0.458 OA
BRANCH  26  27
ATOM     27  C   UNL A   1      35.310  31.714  27.838  1.00  0.00     0.338 C 
ATOM     28  O   UNL A   1      34.577  31.028  27.146  1.00  0.00    -0.246 OA
BRANCH  27  29
ATOM     29  C   UNL A   1      36.358  31.161  28.702  1.00  0.00     0.060 A 
ATOM     30  C   UNL A   1      37.500  31.948  28.867  1.00  0.00     0.016 A 
ATOM     31  C   UNL A   1      36.342  29.792  29.008  1.00  0.00     0.016 A 
ATOM     32  C   UNL A   1      38.696  31.309  29.103  1.00  0.00     0.010 A 
ATOM     33  C   UNL A   1      37.540  29.154  29.212  1.00  0.00     0.010 A 
ATOM     34  C   UNL A   1      38.706  29.912  29.168  1.00  0.00    -0.014 A 
BRANCH  34  35
ATOM     35  C   UNL A   1      39.987  29.255  29.226  1.00  0.00     0.031 A 
ATOM     36  C   UNL A   1      40.427  28.941  30.598  1.00  0.00     0.074 A 
ATOM     37  C   UNL A   1      40.685  28.917  28.129  1.00  0.00     0.049 A 
ATOM     38  N   UNL A   1      41.304  29.575  31.301  1.00  0.00    -0.248 NA
ATOM     39  C   UNL A   1      39.683  27.908  31.331  1.00  0.00     0.031 C 
ATOM     40  C   UNL A   1      40.267  28.888  26.726  1.00  0.00     0.029 A 
ATOM     41  N   UNL A   1      41.949  28.434  28.082  1.00  0.00    -0.354 N 
ATOM     42  C   UNL A   1      41.363  28.900  32.512  1.00  0.00     0.074 A 
ATOM     43  C   UNL A   1      40.228  28.010  32.542  1.00  0.00     0.031 C 
ATOM     44  C   UNL A   1      41.190  28.203  26.004  1.00  0.00     0.029 A 
ATOM     45  C   UNL A   1      42.320  27.886  26.864  1.00  0.00     0.049 A 
ATOM     46  H   UNL A   1      42.558  28.468  28.855  1.00  0.00     0.167 HD
ATOM     47  C   UNL A   1      42.464  28.934  33.308  1.00  0.00     0.031 A 
ATOM     48  C   UNL A   1      43.450  27.167  26.645  1.00  0.00     0.031 A 
ATOM     49  C   UNL A   1      43.388  29.967  32.928  1.00  0.00     0.049 A 
ATOM     50  C   UNL A   1      44.401  27.527  27.733  1.00  0.00     0.074 A 
ATOM     51  C   UNL A   1      43.333  31.346  32.865  1.00  0.00     0.029 A 
ATOM     52  N   UNL A   1      44.451  29.597  32.137  1.00  0.00    -0.354 N 
ATOM     53  N   UNL A   1      44.923  28.714  27.871  1.00  0.00    -0.248 NA
ATOM     54  C   UNL A   1      44.427  26.693  28.926  1.00  0.00     0.031 C 
ATOM     55  C   UNL A   1      44.047  31.691  31.680  1.00  0.00     0.029 A 
ATOM     56  C   UNL A   1      44.538  30.511  31.117  1.00  0.00     0.049 A 
ATOM     57  H   UNL A   1      45.040  28.820  32.276  1.00  0.00     0.167 HD
ATOM     58  C   UNL A   1      44.971  28.929  29.241  1.00  0.00     0.074 A 
ATOM     59  C   UNL A   1      44.726  27.620  29.840  1.00  0.00     0.031 C 
ATOM     60  C   UNL A   1      44.942  30.190  29.764  1.00  0.00     0.031 A 
BRANCH  47  61
ATOM     61  C   UNL A   1      42.853  27.774  34.176  1.00  0.00    -0.014 A 
ATOM     62  C   UNL A   1      42.910  27.930  35.570  1.00  0.00     0.010 A 
ATOM     63  C   UNL A   1      43.407  26.595  33.628  1.00  0.00     0.010 A 
ATOM     64  C   UNL A   1      43.515  26.956  36.375  1.00  0.00     0.020 A 
ATOM     65  C   UNL A   1      43.968  25.600  34.424  1.00  0.00     0.020 A 
ATOM     66  C   UNL A   1      44.042  25.799  35.794  1.00  0.00     0.054 A 
BRANCH  66  67
ATOM     67  S   UNL A   1      44.915  24.602  36.831  1.00  0.00     0.124 S 
ATOM     68  O   UNL A   1      46.305  25.021  36.675  1.00  0.00    -0.237 OA
ATOM     69  O   UNL A   1      44.323  24.847  38.143  1.00  0.00    -0.237 OA
ATOM     70  O   UNL A   1      44.577  23.315  36.229  1.00  0.00    -0.744 OA
ENDBRANCH  66  67
ENDBRANCH  47  61
BRANCH  48  71
ATOM     71  C   UNL A   1      43.581  25.894  25.887  1.00  0.00    -0.014 A 
ATOM     72  C   UNL A   1      44.819  25.557  25.298  1.00  0.00     0.010 A 
ATOM     73  C   UNL A   1      42.624  24.870  26.029  1.00  0.00     0.010 A 
ATOM     74  C   UNL A   1      45.129  24.226  24.978  1.00  0.00     0.020 A 
ATOM     75  C   UNL A   1      42.925  23.541  25.701  1.00  0.00     0.020 A 
ATOM     76  C   UNL A   1      44.192  23.220  25.220  1.00  0.00     0.054 A 
BRANCH  76  77
ATOM     77  S   UNL A   1      44.687  21.484  25.020  1.00  0.00     0.124 S 
ATOM     78  O   UNL A   1      43.663  20.774  25.782  1.00  0.00    -0.237 OA
ATOM     79  O   UNL A   1      44.630  21.312  23.571  1.00  0.00    -0.237 OA
ATOM     80  O   UNL A   1      46.030  21.439  25.596  1.00  0.00    -0.744 OA
ENDBRANCH  76  77
ENDBRANCH  48  71
BRANCH  60  81
ATOM     81  C   UNL A   1      45.126  31.355  28.822  1.00  0.00    -0.014 A 
ATOM     82  C   UNL A   1      46.334  32.069  28.683  1.00  0.00     0.010 A 
ATOM     83  C   UNL A   1      44.072  31.638  27.938  1.00  0.00     0.010 A 
ATOM     84  C   UNL A   1      46.473  33.051  27.688  1.00  0.00     0.020 A 
ATOM     85  C   UNL A   1      44.208  32.604  26.939  1.00  0.00     0.020 A 
ATOM     86  C   UNL A   1      45.408  33.306  26.817  1.00  0.00     0.054 A 
BRANCH  86  87
ATOM     87  S   UNL A   1      45.598  34.553  25.510  1.00  0.00     0.124 S 
ATOM     88  O   UNL A   1      47.030  34.508  25.225  1.00  0.00    -0.237 OA
ATOM     89  O   UNL A   1      44.731  34.041  24.453  1.00  0.00    -0.237 OA
ATOM     90  O   UNL A   1      45.136  35.791  26.137  1.00  0.00    -0.744 OA
ENDBRANCH  86  87
ENDBRANCH  60  81
ENDBRANCH  34  35
ENDBRANCH  27  29
ENDBRANCH  26  27
ENDBRANCH  25  26
ENDBRANCH   1  25
TORSDOF 18
ENDMDL
MODEL 3
REMARK VINA RESULT:     -11.1      1.806      4.047
REMARK SMILES Cn1ncc2c(NCCC3=CCCCC3)c(C(=O)OCCOC(=O)c3ccc(-c4c5nc(c(-c6ccc(S(=O)(=O)[O-])cc6)c6ccc([nH]6)c(-c6ccc(S(=O)(=O)[O-])cc6)c6nc(c(-c7ccc(S(=O)(=O)[O-])cc7)c7ccc4[nH]7)C=C6)C=C5)cc3)cnc21
REMARK SMILES IDX 20 1 19 2 17 3 18 4 16 5 1 6 2 7 3 8 87 9 4 10 5 11 86 12
REMARK SMILES IDX 6 13 85 14 7 15 8 17 9 18 10 19 11 20 15 21 12 22 14 23
REMARK SMILES IDX 13 24 21 25 22 26 23 27 24 28 25 29 26 30 84 31 27 32 83 33
REMARK SMILES IDX 28 34 29 35 30 36 77 37 31 38 82 39 76 40 78 41 32 42 81 43
REMARK SMILES IDX 75 44 74 45 33 47 63 48 44 49 62 50 45 51 48 52 61 53 79 54
REMARK SMILES IDX 46 55 47 56 60 58 80 59 49 60 34 61 35 62 43 63 36 64 42 65
REMARK SMILES IDX 37 66 38 67 39 68 40 69 41 70 64 71 65 72 73 73 66 74 72 75
REMARK SMILES IDX 67 76 68 77 69 78 70 79 71 80 50 81 51 82 59 83 52 84 58 85
REMARK SMILES IDX 53 86 54 87 55 88 56 89 57 90
REMARK H PARENT 7 16 78 46 48 57
REMARK Flexibility Score: inf
ROOT
ATOM      1  C   UNL A   1      37.392  22.141  25.237  1.00  0.00     0.275 C 
ENDROOT
BRANCH   1   2
ATOM      2  O   UNL A   1      36.570  22.993  26.062  1.00  0.00    -0.458 OA
BRANCH   2   3
ATOM      3  C   UNL A   1      35.247  22.669  26.116  1.00  0.00     0.341 C 
ATOM      4  O   UNL A   1      34.786  21.771  26.808  1.00  0.00    -0.246 OA
BRANCH   3   5
ATOM      5  C   UNL A   1      34.406  23.593  25.300  1.00  0.00     0.102 A 
ATOM      6  C   UNL A   1      32.490  27.664  22.826  1.00  0.00     0.176 C 
ATOM      7  N   UNL A   1      32.457  26.229  22.947  1.00  0.00    -0.250 N 
ATOM      8  N   UNL A   1      31.734  25.511  22.068  1.00  0.00    -0.179 NA
ATOM      9  C   UNL A   1      33.148  25.466  23.847  1.00  0.00     0.159 A 
ATOM     10  C   UNL A   1      31.964  24.251  22.455  1.00  0.00     0.147 A 
ATOM     11  C   UNL A   1      32.875  24.134  23.538  1.00  0.00     0.063 A 
ATOM     12  N   UNL A   1      33.945  25.944  24.822  1.00  0.00    -0.236 NA
ATOM     13  C   UNL A   1      33.511  23.108  24.290  1.00  0.00     0.063 A 
ATOM     14  C   UNL A   1      34.535  24.962  25.532  1.00  0.00     0.131 A 
BRANCH  13  15
ATOM     15  N   UNL A   1      33.346  21.742  24.101  1.00  0.00    -0.383 N 
ATOM     16  H   UNL A   1      34.132  21.284  23.722  1.00  0.00     0.160 HD
BRANCH  15  17
ATOM     17  C   UNL A   1      32.210  20.872  24.366  1.00  0.00     0.117 C 
BRANCH  17  18
ATOM     18  C   UNL A   1      32.174  19.687  23.379  1.00  0.00     0.052 C 
BRANCH  18  19
ATOM     19  C   UNL A   1      32.764  18.399  23.923  1.00  0.00    -0.072 C 
ATOM     20  C   UNL A   1      32.526  17.988  25.180  1.00  0.00    -0.028 C 
ATOM     21  C   UNL A   1      33.657  17.611  22.993  1.00  0.00     0.031 C 
ATOM     22  C   UNL A   1      33.023  16.701  25.753  1.00  0.00     0.027 C 
ATOM     23  C   UNL A   1      34.009  16.206  23.495  1.00  0.00     0.005 C 
ATOM     24  C   UNL A   1      34.239  16.172  25.003  1.00  0.00     0.004 C 
ENDBRANCH  18  19
ENDBRANCH  17  18
ENDBRANCH  15  17
ENDBRANCH  13  15
ENDBRANCH   3   5
ENDBRANCH   2   3
ENDBRANCH   1   2
BRANCH   1  25
ATOM     25  C   UNL A   1      38.725  21.812  25.901  1.00  0.00     0.275 C 
BRANCH  25  26
ATOM     26  O   UNL A   1      39.160  22.874  26.744  1.00  0.00    -0.458 OA
BRANCH  26  27
ATOM     27  C   UNL A   1      40.477  22.840  27.060  1.00  0.00     0.338 C 
ATOM     28  O   UNL A   1      41.120  21.861  27.398  1.00  0.00    -0.246 OA
BRANCH  27  29
ATOM     29  C   UNL A   1      40.992  24.211  27.137  1.00  0.00     0.060 A 
ATOM     30  C   UNL A   1      41.908  24.469  28.160  1.00  0.00     0.016 A 
ATOM     31  C   UNL A   1      40.311  25.237  26.467  1.00  0.00     0.016 A 
ATOM     32  C   UNL A   1      41.955  25.742  28.679  1.00  0.00     0.010 A 
ATOM     33  C   UNL A   1      40.335  26.499  27.006  1.00  0.00     0.010 A 
ATOM     34  C   UNL A   1      41.088  26.708  28.157  1.00  0.00    -0.014 A 
BRANCH  34  35
ATOM     35  C   UNL A   1      41.018  27.978  28.836  1.00  0.00     0.031 A 
ATOM     36  C   UNL A   1      42.107  28.903  28.472  1.00  0.00     0.074 A 
ATOM     37  C   UNL A   1      40.022  28.301  29.679  1.00  0.00     0.049 A 
ATOM     38  N   UNL A   1      43.160  29.180  29.164  1.00  0.00    -0.248 NA
ATOM     39  C   UNL A   1      42.108  29.449  27.108  1.00  0.00     0.031 C 
ATOM     40  C   UNL A   1      38.741  27.632  29.914  1.00  0.00     0.029 A 
ATOM     41  N   UNL A   1      39.945  29.399  30.467  1.00  0.00    -0.354 N 
ATOM     42  C   UNL A   1      43.873  30.093  28.400  1.00  0.00     0.074 A 
ATOM     43  C   UNL A   1      43.281  30.080  27.085  1.00  0.00     0.031 C 
ATOM     44  C   UNL A   1      37.933  28.463  30.619  1.00  0.00     0.029 A 
ATOM     45  C   UNL A   1      38.691  29.643  31.006  1.00  0.00     0.049 A 
ATOM     46  H   UNL A   1      40.719  29.981  30.643  1.00  0.00     0.167 HD
ATOM     47  C   UNL A   1      44.745  30.977  28.954  1.00  0.00     0.031 A 
ATOM     48  C   UNL A   1      38.328  30.780  31.651  1.00  0.00     0.031 A 
ATOM     49  C   UNL A   1      45.074  30.648  30.313  1.00  0.00     0.049 A 
ATOM     50  C   UNL A   1      39.587  31.425  32.117  1.00  0.00     0.074 A 
ATOM     51  C   UNL A   1      45.691  29.580  30.934  1.00  0.00     0.029 A 
ATOM     52  N   UNL A   1      44.383  31.310  31.302  1.00  0.00    -0.354 N 
ATOM     53  N   UNL A   1      40.373  30.906  33.020  1.00  0.00    -0.248 NA
ATOM     54  C   UNL A   1      40.202  32.430  31.261  1.00  0.00     0.031 C 
ATOM     55  C   UNL A   1      44.960  29.381  32.142  1.00  0.00     0.029 A 
ATOM     56  C   UNL A   1      43.975  30.368  32.213  1.00  0.00     0.049 A 
ATOM     57  H   UNL A   1      44.213  32.279  31.349  1.00  0.00     0.167 HD
ATOM     58  C   UNL A   1      41.659  31.205  32.593  1.00  0.00     0.074 A 
ATOM     59  C   UNL A   1      41.488  32.212  31.548  1.00  0.00     0.031 C 
ATOM     60  C   UNL A   1      42.722  30.423  32.938  1.00  0.00     0.031 A 
BRANCH  47  61
ATOM     61  C   UNL A   1      44.978  32.336  28.366  1.00  0.00    -0.014 A 
ATOM     62  C   UNL A   1      46.287  32.767  28.092  1.00  0.00     0.010 A 
ATOM     63  C   UNL A   1      43.948  33.302  28.307  1.00  0.00     0.010 A 
ATOM     64  C   UNL A   1      46.551  34.110  27.794  1.00  0.00     0.020 A 
ATOM     65  C   UNL A   1      44.194  34.629  27.965  1.00  0.00     0.020 A 
ATOM     66  C   UNL A   1      45.501  35.031  27.735  1.00  0.00     0.054 A 
BRANCH  66  67
ATOM     67  S   UNL A   1      45.868  36.781  27.457  1.00  0.00     0.124 S 
ATOM     68  O   UNL A   1      46.211  37.238  28.800  1.00  0.00    -0.237 OA
ATOM     69  O   UNL A   1      46.976  36.711  26.508  1.00  0.00    -0.237 OA
ATOM     70  O   UNL A   1      44.620  37.311  26.914  1.00  0.00    -0.744 OA
ENDBRANCH  66  67
ENDBRANCH  47  61
BRANCH  48  71
ATOM     71  C   UNL A   1      37.073  31.560  31.477  1.00  0.00    -0.014 A 
ATOM     72  C   UNL A   1      36.135  31.615  32.529  1.00  0.00     0.010 A 
ATOM     73  C   UNL A   1      36.954  32.510  30.444  1.00  0.00     0.010 A 
ATOM     74  C   UNL A   1      35.193  32.653  32.605  1.00  0.00     0.020 A 
ATOM     75  C   UNL A   1      36.009  33.543  30.509  1.00  0.00     0.020 A 
ATOM     76  C   UNL A   1      35.164  33.634  31.612  1.00  0.00     0.054 A 
BRANCH  76  77
ATOM     77  S   UNL A   1      34.103  35.091  31.840  1.00  0.00     0.124 S 
ATOM     78  O   UNL A   1      34.930  35.954  32.679  1.00  0.00    -0.237 OA
ATOM     79  O   UNL A   1      33.905  35.546  30.467  1.00  0.00    -0.237 OA
ATOM     80  O   UNL A   1      32.911  34.552  32.492  1.00  0.00    -0.744 OA
ENDBRANCH  76  77
ENDBRANCH  48  71
BRANCH  60  81
ATOM     81  C   UNL A   1      42.519  29.378  34.009  1.00  0.00    -0.014 A 
ATOM     82  C   UNL A   1      41.945  28.112  33.771  1.00  0.00     0.010 A 
ATOM     83  C   UNL A   1      43.067  29.640  35.275  1.00  0.00     0.010 A 
ATOM     84  C   UNL A   1      41.913  27.140  34.784  1.00  0.00     0.020 A 
ATOM     85  C   UNL A   1      43.050  28.674  36.282  1.00  0.00     0.020 A 
ATOM     86  C   UNL A   1      42.474  27.428  36.034  1.00  0.00     0.054 A 
BRANCH  86  87
ATOM     87  S   UNL A   1      42.463  26.159  37.334  1.00  0.00     0.124 S 
ATOM     88  O   UNL A   1      43.394  26.699  38.322  1.00  0.00    -0.237 OA
ATOM     89  O   UNL A   1      41.060  26.135  37.742  1.00  0.00    -0.237 OA
ATOM     90  O   UNL A   1      42.924  24.952  36.650  1.00  0.00    -0.744 OA
ENDBRANCH  86  87
ENDBRANCH  60  81
ENDBRANCH  34  35
ENDBRANCH  27  29
ENDBRANCH  26  27
ENDBRANCH  25  26
ENDBRANCH   1  25
TORSDOF 18
ENDMDL
