MODEL 1
REMARK VINA RESULT:     -11.5      0.000      0.000
REMARK SMILES CC(C)(C)OC(=O)N1[C@@H](C(=O)OCCOC(=O)c2ccc(-c3c4nc(c(-c5ccc(S(=O)(=O)[O-])cc5)c5ccc([nH]5)c(-c5ccc(S(=O)(=O)[O-])cc5)c5nc(c(-c6ccc(S(=O)(=O)[O-])cc6)c6ccc3[nH]6)C=C5)C=C4)cc2)C[C@H]2CCCC[C@@H]21
REMARK SMILES IDX 13 1 12 2 10 3 11 4 9 5 8 6 84 7 78 8 79 9 83 10 80 11 82 12
REMARK SMILES IDX 81 13 6 14 7 15 5 16 2 17 1 18 3 19 4 20 14 21 15 22 16 23
REMARK SMILES IDX 17 24 18 25 19 26 77 27 20 28 76 29 21 30 22 31 23 32 70 33
REMARK SMILES IDX 24 34 75 35 69 36 71 37 25 38 74 39 68 40 67 41 26 43 56 44
REMARK SMILES IDX 37 45 55 46 38 47 41 48 54 49 72 50 39 51 40 52 53 54 73 55
REMARK SMILES IDX 42 56 27 57 28 58 36 59 29 60 35 61 30 62 31 63 32 64 33 65
REMARK SMILES IDX 34 66 57 67 58 68 66 69 59 70 65 71 60 72 61 73 62 74 63 75
REMARK SMILES IDX 64 76 43 77 44 78 52 79 45 80 51 81 46 82 47 83 48 84 49 85
REMARK SMILES IDX 50 86
REMARK H PARENT 71 42 41 53
REMARK Flexibility Score: inf
ROOT
ATOM      1  C   UNL A   1      38.899  21.789  26.096  1.00  0.00     0.274 C 
ENDROOT
BRANCH   1   2
ATOM      2  O   UNL A   1      37.561  22.258  25.805  1.00  0.00    -0.461 OA
BRANCH   2   3
ATOM      3  C   UNL A   1      36.641  21.278  25.575  1.00  0.00     0.329 C 
ATOM      4  O   UNL A   1      36.896  20.242  24.967  1.00  0.00    -0.250 OA
BRANCH   3   5
ATOM      5  C   UNL A   1      35.210  21.694  25.996  1.00  0.00     0.199 C 
ATOM      6  N   UNL A   1      34.170  21.303  25.017  1.00  0.00    -0.291 N 
ATOM      7  C   UNL A   1      34.106  22.310  23.972  1.00  0.00     0.092 C 
ATOM      8  C   UNL A   1      35.225  23.243  25.915  1.00  0.00     0.043 C 
ATOM      9  C   UNL A   1      34.235  23.591  24.797  1.00  0.00     0.014 C 
ATOM     10  C   UNL A   1      32.896  22.443  23.047  1.00  0.00     0.025 C 
ATOM     11  C   UNL A   1      34.580  24.754  23.880  1.00  0.00     0.006 C 
ATOM     12  C   UNL A   1      33.074  23.656  22.123  1.00  0.00     0.002 C 
ATOM     13  C   UNL A   1      33.443  24.945  22.866  1.00  0.00     0.000 C 
BRANCH   6  14
ATOM     14  C   UNL A   1      33.384  20.170  25.005  1.00  0.00     0.411 C 
ATOM     15  O   UNL A   1      32.220  20.191  25.383  1.00  0.00    -0.224 OA
BRANCH  14  16
ATOM     16  O   UNL A   1      34.018  19.043  24.588  1.00  0.00    -0.444 OA
BRANCH  16  17
ATOM     17  C   UNL A   1      33.291  17.967  23.897  1.00  0.00     0.106 C 
ATOM     18  C   UNL A   1      32.447  17.267  24.970  1.00  0.00     0.056 C 
ATOM     19  C   UNL A   1      34.310  16.966  23.355  1.00  0.00     0.056 C 
ATOM     20  C   UNL A   1      32.338  18.381  22.758  1.00  0.00     0.056 C 
ENDBRANCH  16  17
ENDBRANCH  14  16
ENDBRANCH   6  14
ENDBRANCH   3   5
ENDBRANCH   2   3
ENDBRANCH   1   2
BRANCH   1  21
ATOM     21  C   UNL A   1      39.763  22.865  26.760  1.00  0.00     0.275 C 
BRANCH  21  22
ATOM     22  O   UNL A   1      39.190  24.176  26.600  1.00  0.00    -0.458 OA
BRANCH  22  23
ATOM     23  C   UNL A   1      40.107  25.150  26.406  1.00  0.00     0.338 C 
ATOM     24  O   UNL A   1      40.601  25.475  25.338  1.00  0.00    -0.246 OA
BRANCH  23  25
ATOM     25  C   UNL A   1      40.392  25.872  27.653  1.00  0.00     0.060 A 
ATOM     26  C   UNL A   1      39.408  25.891  28.636  1.00  0.00     0.016 A 
ATOM     27  C   UNL A   1      41.479  26.740  27.739  1.00  0.00     0.016 A 
ATOM     28  C   UNL A   1      39.435  26.852  29.637  1.00  0.00     0.010 A 
ATOM     29  C   UNL A   1      41.552  27.646  28.807  1.00  0.00     0.010 A 
ATOM     30  C   UNL A   1      40.504  27.745  29.741  1.00  0.00    -0.014 A 
BRANCH  30  31
ATOM     31  C   UNL A   1      40.484  28.798  30.792  1.00  0.00     0.031 A 
ATOM     32  C   UNL A   1      41.451  28.744  31.947  1.00  0.00     0.074 A 
ATOM     33  C   UNL A   1      39.627  29.835  30.689  1.00  0.00     0.049 A 
ATOM     34  N   UNL A   1      41.485  29.471  33.036  1.00  0.00    -0.248 NA
ATOM     35  C   UNL A   1      42.525  27.741  31.872  1.00  0.00     0.031 C 
ATOM     36  C   UNL A   1      38.709  30.072  29.569  1.00  0.00     0.029 A 
ATOM     37  N   UNL A   1      39.388  30.886  31.537  1.00  0.00    -0.354 N 
ATOM     38  C   UNL A   1      42.558  28.993  33.782  1.00  0.00     0.074 A 
ATOM     39  C   UNL A   1      43.151  27.912  33.027  1.00  0.00     0.031 C 
ATOM     40  C   UNL A   1      38.024  31.202  29.792  1.00  0.00     0.029 A 
ATOM     41  C   UNL A   1      38.373  31.710  31.112  1.00  0.00     0.049 A 
ATOM     42  H   UNL A   1      39.893  31.035  32.368  1.00  0.00     0.167 HD
ATOM     43  C   UNL A   1      42.998  29.409  34.994  1.00  0.00     0.031 A 
ATOM     44  C   UNL A   1      37.741  32.723  31.736  1.00  0.00     0.031 A 
ATOM     45  C   UNL A   1      42.391  30.479  35.741  1.00  0.00     0.049 A 
ATOM     46  C   UNL A   1      38.160  33.084  33.133  1.00  0.00     0.074 A 
ATOM     47  C   UNL A   1      42.729  30.955  36.996  1.00  0.00     0.029 A 
ATOM     48  N   UNL A   1      41.320  31.242  35.299  1.00  0.00    -0.354 N 
ATOM     49  N   UNL A   1      39.127  32.577  33.858  1.00  0.00    -0.248 NA
ATOM     50  C   UNL A   1      37.392  34.143  33.801  1.00  0.00     0.031 C 
ATOM     51  C   UNL A   1      41.822  31.962  37.339  1.00  0.00     0.029 A 
ATOM     52  C   UNL A   1      40.965  32.165  36.269  1.00  0.00     0.049 A 
ATOM     53  H   UNL A   1      40.877  31.143  34.425  1.00  0.00     0.167 HD
ATOM     54  C   UNL A   1      39.104  33.275  35.060  1.00  0.00     0.074 A 
ATOM     55  C   UNL A   1      38.031  34.245  34.959  1.00  0.00     0.031 C 
ATOM     56  C   UNL A   1      39.900  33.127  36.146  1.00  0.00     0.031 A 
BRANCH  43  57
ATOM     57  C   UNL A   1      44.144  28.659  35.625  1.00  0.00    -0.014 A 
ATOM     58  C   UNL A   1      45.480  28.906  35.261  1.00  0.00     0.010 A 
ATOM     59  C   UNL A   1      43.874  27.720  36.639  1.00  0.00     0.010 A 
ATOM     60  C   UNL A   1      46.521  28.205  35.880  1.00  0.00     0.020 A 
ATOM     61  C   UNL A   1      44.914  27.037  37.276  1.00  0.00     0.020 A 
ATOM     62  C   UNL A   1      46.232  27.273  36.882  1.00  0.00     0.054 A 
BRANCH  62  63
ATOM     63  S   UNL A   1      47.602  26.395  37.683  1.00  0.00     0.124 S 
ATOM     64  O   UNL A   1      47.831  27.212  38.873  1.00  0.00    -0.237 OA
ATOM     65  O   UNL A   1      47.033  25.072  37.932  1.00  0.00    -0.237 OA
ATOM     66  O   UNL A   1      48.671  26.433  36.689  1.00  0.00    -0.744 OA
ENDBRANCH  62  63
ENDBRANCH  43  57
BRANCH  44  67
ATOM     67  C   UNL A   1      36.594  33.401  31.072  1.00  0.00    -0.014 A 
ATOM     68  C   UNL A   1      35.390  33.626  31.761  1.00  0.00     0.010 A 
ATOM     69  C   UNL A   1      36.713  33.847  29.741  1.00  0.00     0.010 A 
ATOM     70  C   UNL A   1      34.325  34.274  31.128  1.00  0.00     0.020 A 
ATOM     71  C   UNL A   1      35.663  34.525  29.117  1.00  0.00     0.020 A 
ATOM     72  C   UNL A   1      34.469  34.723  29.811  1.00  0.00     0.054 A 
BRANCH  72  73
ATOM     73  S   UNL A   1      33.093  35.607  29.028  1.00  0.00     0.124 S 
ATOM     74  O   UNL A   1      32.509  34.570  28.182  1.00  0.00    -0.237 OA
ATOM     75  O   UNL A   1      32.288  36.020  30.173  1.00  0.00    -0.237 OA
ATOM     76  O   UNL A   1      33.751  36.700  28.314  1.00  0.00    -0.744 OA
ENDBRANCH  72  73
ENDBRANCH  44  67
BRANCH  56  77
ATOM     77  C   UNL A   1      39.683  34.071  37.296  1.00  0.00    -0.014 A 
ATOM     78  C   UNL A   1      38.988  33.672  38.452  1.00  0.00     0.010 A 
ATOM     79  C   UNL A   1      40.243  35.360  37.240  1.00  0.00     0.010 A 
ATOM     80  C   UNL A   1      38.839  34.558  39.522  1.00  0.00     0.020 A 
ATOM     81  C   UNL A   1      40.120  36.237  38.320  1.00  0.00     0.020 A 
ATOM     82  C   UNL A   1      39.408  35.834  39.450  1.00  0.00     0.054 A 
BRANCH  82  83
ATOM     83  S   UNL A   1      39.250  36.943  40.876  1.00  0.00     0.124 S 
ATOM     84  O   UNL A   1      38.588  38.103  40.286  1.00  0.00    -0.237 OA
ATOM     85  O   UNL A   1      38.436  36.158  41.802  1.00  0.00    -0.237 OA
ATOM     86  O   UNL A   1      40.630  37.161  41.301  1.00  0.00    -0.744 OA
ENDBRANCH  82  83
ENDBRANCH  56  77
ENDBRANCH  30  31
ENDBRANCH  23  25
ENDBRANCH  22  23
ENDBRANCH  21  22
ENDBRANCH   1  21
TORSDOF 17
ENDMDL
MODEL 2
REMARK VINA RESULT:     -11.1      7.281     12.252
REMARK SMILES CC(C)(C)OC(=O)N1[C@@H](C(=O)OCCOC(=O)c2ccc(-c3c4nc(c(-c5ccc(S(=O)(=O)[O-])cc5)c5ccc([nH]5)c(-c5ccc(S(=O)(=O)[O-])cc5)c5nc(c(-c6ccc(S(=O)(=O)[O-])cc6)c6ccc3[nH]6)C=C5)C=C4)cc2)C[C@H]2CCCC[C@@H]21
REMARK SMILES IDX 13 1 12 2 10 3 11 4 9 5 8 6 84 7 78 8 79 9 83 10 80 11 82 12
REMARK SMILES IDX 81 13 6 14 7 15 5 16 2 17 1 18 3 19 4 20 14 21 15 22 16 23
REMARK SMILES IDX 17 24 18 25 19 26 77 27 20 28 76 29 21 30 22 31 23 32 70 33
REMARK SMILES IDX 24 34 75 35 69 36 71 37 25 38 74 39 68 40 67 41 26 43 56 44
REMARK SMILES IDX 37 45 55 46 38 47 41 48 54 49 72 50 39 51 40 52 53 54 73 55
REMARK SMILES IDX 42 56 27 57 28 58 36 59 29 60 35 61 30 62 31 63 32 64 33 65
REMARK SMILES IDX 34 66 57 67 58 68 66 69 59 70 65 71 60 72 61 73 62 74 63 75
REMARK SMILES IDX 64 76 43 77 44 78 52 79 45 80 51 81 46 82 47 83 48 84 49 85
REMARK SMILES IDX 50 86
REMARK H PARENT 71 42 41 53
REMARK Flexibility Score: inf
ROOT
ATOM      1  C   UNL A   1      33.815  30.215  27.488  1.00  0.00     0.274 C 
ENDROOT
BRANCH   1   2
ATOM      2  O   UNL A   1      33.821  30.073  26.048  1.00  0.00    -0.461 OA
BRANCH   2   3
ATOM      3  C   UNL A   1      32.594  29.917  25.476  1.00  0.00     0.329 C 
ATOM      4  O   UNL A   1      31.581  30.474  25.890  1.00  0.00    -0.250 OA
BRANCH   3   5
ATOM      5  C   UNL A   1      32.584  28.829  24.374  1.00  0.00     0.199 C 
ATOM      6  N   UNL A   1      31.227  28.333  24.047  1.00  0.00    -0.291 N 
ATOM      7  C   UNL A   1      30.860  27.304  25.003  1.00  0.00     0.092 C 
ATOM      8  C   UNL A   1      33.269  27.607  25.040  1.00  0.00     0.043 C 
ATOM      9  C   UNL A   1      32.177  26.535  25.120  1.00  0.00     0.014 C 
ATOM     10  C   UNL A   1      29.733  26.307  24.730  1.00  0.00     0.025 C 
ATOM     11  C   UNL A   1      32.141  25.649  26.355  1.00  0.00     0.006 C 
ATOM     12  C   UNL A   1      29.652  25.283  25.870  1.00  0.00     0.002 C 
ATOM     13  C   UNL A   1      30.999  24.633  26.208  1.00  0.00     0.000 C 
BRANCH   6  14
ATOM     14  C   UNL A   1      30.376  28.756  23.048  1.00  0.00     0.411 C 
ATOM     15  O   UNL A   1      30.316  28.182  21.969  1.00  0.00    -0.224 OA
BRANCH  14  16
ATOM     16  O   UNL A   1      29.659  29.871  23.348  1.00  0.00    -0.444 OA
BRANCH  16  17
ATOM     17  C   UNL A   1      28.296  30.066  22.828  1.00  0.00     0.106 C 
ATOM     18  C   UNL A   1      27.690  31.213  23.646  1.00  0.00     0.056 C 
ATOM     19  C   UNL A   1      27.489  28.798  23.102  1.00  0.00     0.056 C 
ATOM     20  C   UNL A   1      28.157  30.438  21.339  1.00  0.00     0.056 C 
ENDBRANCH  16  17
ENDBRANCH  14  16
ENDBRANCH   6  14
ENDBRANCH   3   5
ENDBRANCH   2   3
ENDBRANCH   1   2
BRANCH   1  21
ATOM     21  C   UNL A   1      34.980  31.069  27.996  1.00  0.00     0.275 C 
BRANCH  21  22
ATOM     22  O   UNL A   1      35.832  30.326  28.886  1.00  0.00    -0.458 OA
BRANCH  22  23
ATOM     23  C   UNL A   1      36.965  30.979  29.227  1.00  0.00     0.338 C 
ATOM     24  O   UNL A   1      37.035  32.058  29.792  1.00  0.00    -0.246 OA
BRANCH  23  25
ATOM     25  C   UNL A   1      38.158  30.179  28.916  1.00  0.00     0.060 A 
ATOM     26  C   UNL A   1      39.184  30.148  29.854  1.00  0.00     0.016 A 
ATOM     27  C   UNL A   1      38.381  29.707  27.625  1.00  0.00     0.016 A 
ATOM     28  C   UNL A   1      40.465  29.763  29.481  1.00  0.00     0.010 A 
ATOM     29  C   UNL A   1      39.652  29.230  27.277  1.00  0.00     0.010 A 
ATOM     30  C   UNL A   1      40.722  29.299  28.189  1.00  0.00    -0.014 A 
BRANCH  30  31
ATOM     31  C   UNL A   1      42.113  28.942  27.799  1.00  0.00     0.031 A 
ATOM     32  C   UNL A   1      42.478  27.511  27.491  1.00  0.00     0.074 A 
ATOM     33  C   UNL A   1      43.045  29.909  27.673  1.00  0.00     0.049 A 
ATOM     34  N   UNL A   1      43.658  26.981  27.291  1.00  0.00    -0.248 NA
ATOM     35  C   UNL A   1      41.371  26.547  27.394  1.00  0.00     0.031 C 
ATOM     36  C   UNL A   1      42.807  31.347  27.835  1.00  0.00     0.029 A 
ATOM     37  N   UNL A   1      44.383  29.829  27.379  1.00  0.00    -0.354 N 
ATOM     38  C   UNL A   1      43.436  25.624  27.077  1.00  0.00     0.074 A 
ATOM     39  C   UNL A   1      42.009  25.408  27.173  1.00  0.00     0.031 C 
ATOM     40  C   UNL A   1      43.951  32.011  27.620  1.00  0.00     0.029 A 
ATOM     41  C   UNL A   1      45.023  31.046  27.412  1.00  0.00     0.049 A 
ATOM     42  H   UNL A   1      44.839  28.984  27.164  1.00  0.00     0.167 HD
ATOM     43  C   UNL A   1      44.342  24.645  26.837  1.00  0.00     0.031 A 
ATOM     44  C   UNL A   1      46.332  31.354  27.352  1.00  0.00     0.031 A 
ATOM     45  C   UNL A   1      45.761  24.872  26.756  1.00  0.00     0.049 A 
ATOM     46  C   UNL A   1      47.331  30.241  27.215  1.00  0.00     0.074 A 
ATOM     47  C   UNL A   1      46.772  23.948  26.560  1.00  0.00     0.029 A 
ATOM     48  N   UNL A   1      46.369  26.114  26.865  1.00  0.00    -0.354 N 
ATOM     49  N   UNL A   1      47.115  28.954  27.088  1.00  0.00    -0.248 NA
ATOM     50  C   UNL A   1      48.749  30.618  27.230  1.00  0.00     0.031 C 
ATOM     51  C   UNL A   1      47.996  24.623  26.614  1.00  0.00     0.029 A 
ATOM     52  C   UNL A   1      47.744  25.977  26.770  1.00  0.00     0.049 A 
ATOM     53  H   UNL A   1      45.895  26.967  26.991  1.00  0.00     0.167 HD
ATOM     54  C   UNL A   1      48.371  28.369  26.979  1.00  0.00     0.074 A 
ATOM     55  C   UNL A   1      49.340  29.445  27.047  1.00  0.00     0.031 C 
ATOM     56  C   UNL A   1      48.691  27.061  26.832  1.00  0.00     0.031 A 
BRANCH  43  57
ATOM     57  C   UNL A   1      43.838  23.230  26.721  1.00  0.00    -0.014 A 
ATOM     58  C   UNL A   1      43.155  22.597  27.775  1.00  0.00     0.010 A 
ATOM     59  C   UNL A   1      44.014  22.536  25.508  1.00  0.00     0.010 A 
ATOM     60  C   UNL A   1      42.684  21.287  27.627  1.00  0.00     0.020 A 
ATOM     61  C   UNL A   1      43.523  21.237  25.348  1.00  0.00     0.020 A 
ATOM     62  C   UNL A   1      42.873  20.615  26.415  1.00  0.00     0.054 A 
BRANCH  62  63
ATOM     63  S   UNL A   1      42.233  18.926  26.242  1.00  0.00     0.124 S 
ATOM     64  O   UNL A   1      42.347  18.418  27.607  1.00  0.00    -0.237 OA
ATOM     65  O   UNL A   1      40.869  19.147  25.767  1.00  0.00    -0.237 OA
ATOM     66  O   UNL A   1      43.134  18.309  25.273  1.00  0.00    -0.744 OA
ENDBRANCH  62  63
ENDBRANCH  43  57
BRANCH  44  67
ATOM     67  C   UNL A   1      46.767  32.769  27.508  1.00  0.00    -0.014 A 
ATOM     68  C   UNL A   1      47.049  33.304  28.776  1.00  0.00     0.010 A 
ATOM     69  C   UNL A   1      46.924  33.588  26.372  1.00  0.00     0.010 A 
ATOM     70  C   UNL A   1      47.467  34.631  28.906  1.00  0.00     0.020 A 
ATOM     71  C   UNL A   1      47.375  34.905  26.495  1.00  0.00     0.020 A 
ATOM     72  C   UNL A   1      47.631  35.422  27.765  1.00  0.00     0.054 A 
BRANCH  72  73
ATOM     73  S   UNL A   1      48.226  37.126  27.953  1.00  0.00     0.124 S 
ATOM     74  O   UNL A   1      47.369  37.629  29.023  1.00  0.00    -0.237 OA
ATOM     75  O   UNL A   1      49.630  36.935  28.302  1.00  0.00    -0.237 OA
ATOM     76  O   UNL A   1      47.994  37.716  26.636  1.00  0.00    -0.744 OA
ENDBRANCH  72  73
ENDBRANCH  44  67
BRANCH  56  77
ATOM     77  C   UNL A   1      50.148  26.718  26.679  1.00  0.00    -0.014 A 
ATOM     78  C   UNL A   1      50.746  26.611  25.411  1.00  0.00     0.010 A 
ATOM     79  C   UNL A   1      50.941  26.564  27.830  1.00  0.00     0.010 A 
ATOM     80  C   UNL A   1      52.110  26.332  25.300  1.00  0.00     0.020 A 
ATOM     81  C   UNL A   1      52.310  26.314  27.722  1.00  0.00     0.020 A 
ATOM     82  C   UNL A   1      52.884  26.188  26.457  1.00  0.00     0.054 A 
BRANCH  82  83
ATOM     83  S   UNL A   1      54.664  25.885  26.285  1.00  0.00     0.124 S 
ATOM     84  O   UNL A   1      54.979  25.209  27.540  1.00  0.00    -0.237 OA
ATOM     85  O   UNL A   1      54.732  25.050  25.087  1.00  0.00    -0.237 OA
ATOM     86  O   UNL A   1      55.231  27.223  26.137  1.00  0.00    -0.744 OA
ENDBRANCH  82  83
ENDBRANCH  56  77
ENDBRANCH  30  31
ENDBRANCH  23  25
ENDBRANCH  22  23
ENDBRANCH  21  22
ENDBRANCH   1  21
TORSDOF 17
ENDMDL
MODEL 3
REMARK VINA RESULT:     -11.0      1.397      2.600
REMARK SMILES CC(C)(C)OC(=O)N1[C@@H](C(=O)OCCOC(=O)c2ccc(-c3c4nc(c(-c5ccc(S(=O)(=O)[O-])cc5)c5ccc([nH]5)c(-c5ccc(S(=O)(=O)[O-])cc5)c5nc(c(-c6ccc(S(=O)(=O)[O-])cc6)c6ccc3[nH]6)C=C5)C=C4)cc2)C[C@H]2CCCC[C@@H]21
REMARK SMILES IDX 13 1 12 2 10 3 11 4 9 5 8 6 84 7 78 8 79 9 83 10 80 11 82 12
REMARK SMILES IDX 81 13 6 14 7 15 5 16 2 17 1 18 3 19 4 20 14 21 15 22 16 23
REMARK SMILES IDX 17 24 18 25 19 26 77 27 20 28 76 29 21 30 22 31 23 32 70 33
REMARK SMILES IDX 24 34 75 35 69 36 71 37 25 38 74 39 68 40 67 41 26 43 56 44
REMARK SMILES IDX 37 45 55 46 38 47 41 48 54 49 72 50 39 51 40 52 53 54 73 55
REMARK SMILES IDX 42 56 27 57 28 58 36 59 29 60 35 61 30 62 31 63 32 64 33 65
REMARK SMILES IDX 34 66 57 67 58 68 66 69 59 70 65 71 60 72 61 73 62 74 63 75
REMARK SMILES IDX 64 76 43 77 44 78 52 79 45 80 51 81 46 82 47 83 48 84 49 85
REMARK SMILES IDX 50 86
REMARK H PARENT 71 42 41 53
REMARK Flexibility Score: inf
ROOT
ATOM      1  C   UNL A   1      38.321  21.772  25.518  1.00  0.00     0.274 C 
ENDROOT
BRANCH   1   2
ATOM      2  O   UNL A   1      37.197  22.662  25.324  1.00  0.00    -0.461 OA
BRANCH   2   3
ATOM      3  C   UNL A   1      36.643  22.635  24.079  1.00  0.00     0.329 C 
ATOM      4  O   UNL A   1      37.029  23.344  23.154  1.00  0.00    -0.250 OA
BRANCH   3   5
ATOM      5  C   UNL A   1      35.369  21.757  24.012  1.00  0.00     0.199 C 
ATOM      6  N   UNL A   1      34.118  22.541  23.893  1.00  0.00    -0.291 N 
ATOM      7  C   UNL A   1      33.702  22.965  25.218  1.00  0.00     0.092 C 
ATOM      8  C   UNL A   1      35.270  21.122  25.424  1.00  0.00     0.043 C 
ATOM      9  C   UNL A   1      33.985  21.700  26.029  1.00  0.00     0.014 C 
ATOM     10  C   UNL A   1      32.273  23.424  25.510  1.00  0.00     0.025 C 
ATOM     11  C   UNL A   1      33.987  22.036  27.512  1.00  0.00     0.006 C 
ATOM     12  C   UNL A   1      32.111  23.706  27.011  1.00  0.00     0.002 C 
ATOM     13  C   UNL A   1      32.600  22.562  27.907  1.00  0.00     0.000 C 
BRANCH   6  14
ATOM     14  C   UNL A   1      33.429  22.889  22.751  1.00  0.00     0.411 C 
ATOM     15  O   UNL A   1      32.583  22.153  22.260  1.00  0.00    -0.224 OA
BRANCH  14  16
ATOM     16  O   UNL A   1      33.797  24.078  22.206  1.00  0.00    -0.444 OA
BRANCH  16  17
ATOM     17  C   UNL A   1      32.850  25.199  22.104  1.00  0.00     0.106 C 
ATOM     18  C   UNL A   1      32.693  25.488  20.605  1.00  0.00     0.056 C 
ATOM     19  C   UNL A   1      33.477  26.423  22.768  1.00  0.00     0.056 C 
ATOM     20  C   UNL A   1      31.438  24.982  22.682  1.00  0.00     0.056 C 
ENDBRANCH  16  17
ENDBRANCH  14  16
ENDBRANCH   6  14
ENDBRANCH   3   5
ENDBRANCH   2   3
ENDBRANCH   1   2
BRANCH   1  21
ATOM     21  C   UNL A   1      39.466  22.435  26.288  1.00  0.00     0.275 C 
BRANCH  21  22
ATOM     22  O   UNL A   1      39.274  23.858  26.399  1.00  0.00    -0.458 OA
BRANCH  22  23
ATOM     23  C   UNL A   1      40.381  24.527  26.789  1.00  0.00     0.338 C 
ATOM     24  O   UNL A   1      41.531  24.273  26.467  1.00  0.00    -0.246 OA
BRANCH  23  25
ATOM     25  C   UNL A   1      40.038  25.702  27.602  1.00  0.00     0.060 A 
ATOM     26  C   UNL A   1      40.789  26.859  27.426  1.00  0.00     0.016 A 
ATOM     27  C   UNL A   1      39.191  25.582  28.702  1.00  0.00     0.016 A 
ATOM     28  C   UNL A   1      40.795  27.846  28.402  1.00  0.00     0.010 A 
ATOM     29  C   UNL A   1      39.129  26.624  29.638  1.00  0.00     0.010 A 
ATOM     30  C   UNL A   1      39.968  27.747  29.523  1.00  0.00    -0.014 A 
BRANCH  30  31
ATOM     31  C   UNL A   1      40.032  28.794  30.580  1.00  0.00     0.031 A 
ATOM     32  C   UNL A   1      41.020  28.676  31.712  1.00  0.00     0.074 A 
ATOM     33  C   UNL A   1      39.235  29.878  30.500  1.00  0.00     0.049 A 
ATOM     34  N   UNL A   1      41.120  29.393  32.803  1.00  0.00    -0.248 NA
ATOM     35  C   UNL A   1      42.032  27.613  31.608  1.00  0.00     0.031 C 
ATOM     36  C   UNL A   1      38.307  30.176  29.403  1.00  0.00     0.029 A 
ATOM     37  N   UNL A   1      39.076  30.936  31.360  1.00  0.00    -0.354 N 
ATOM     38  C   UNL A   1      42.180  28.849  33.523  1.00  0.00     0.074 A 
ATOM     39  C   UNL A   1      42.692  27.740  32.749  1.00  0.00     0.031 C 
ATOM     40  C   UNL A   1      37.694  31.342  29.647  1.00  0.00     0.029 A 
ATOM     41  C   UNL A   1      38.101  31.821  30.962  1.00  0.00     0.049 A 
ATOM     42  H   UNL A   1      39.607  31.051  32.180  1.00  0.00     0.167 HD
ATOM     43  C   UNL A   1      42.670  29.231  34.727  1.00  0.00     0.031 A 
ATOM     44  C   UNL A   1      37.543  32.864  31.605  1.00  0.00     0.031 A 
ATOM     45  C   UNL A   1      42.142  30.330  35.493  1.00  0.00     0.049 A 
ATOM     46  C   UNL A   1      38.013  33.192  32.993  1.00  0.00     0.074 A 
ATOM     47  C   UNL A   1      42.535  30.777  36.743  1.00  0.00     0.029 A 
ATOM     48  N   UNL A   1      41.108  31.156  35.079  1.00  0.00    -0.354 N 
ATOM     49  N   UNL A   1      38.965  32.625  33.694  1.00  0.00    -0.248 NA
ATOM     50  C   UNL A   1      37.323  34.289  33.684  1.00  0.00     0.031 C 
ATOM     51  C   UNL A   1      41.696  31.833  37.111  1.00  0.00     0.029 A 
ATOM     52  C   UNL A   1      40.829  32.092  36.061  1.00  0.00     0.049 A 
ATOM     53  H   UNL A   1      40.641  31.088  34.215  1.00  0.00     0.167 HD
ATOM     54  C   UNL A   1      39.009  33.315  34.900  1.00  0.00     0.074 A 
ATOM     55  C   UNL A   1      37.992  34.346  34.828  1.00  0.00     0.031 C 
ATOM     56  C   UNL A   1      39.818  33.115  35.967  1.00  0.00     0.031 A 
BRANCH  43  57
ATOM     57  C   UNL A   1      43.784  28.413  35.328  1.00  0.00    -0.014 A 
ATOM     58  C   UNL A   1      43.527  27.283  36.125  1.00  0.00     0.010 A 
ATOM     59  C   UNL A   1      45.120  28.759  35.046  1.00  0.00     0.010 A 
ATOM     60  C   UNL A   1      44.585  26.534  36.652  1.00  0.00     0.020 A 
ATOM     61  C   UNL A   1      46.178  27.999  35.551  1.00  0.00     0.020 A 
ATOM     62  C   UNL A   1      45.904  26.898  36.363  1.00  0.00     0.054 A 
BRANCH  62  63
ATOM     63  S   UNL A   1      47.257  25.897  37.041  1.00  0.00     0.124 S 
ATOM     64  O   UNL A   1      48.326  26.884  37.173  1.00  0.00    -0.237 OA
ATOM     65  O   UNL A   1      46.696  25.409  38.298  1.00  0.00    -0.237 OA
ATOM     66  O   UNL A   1      47.479  24.874  36.022  1.00  0.00    -0.744 OA
ENDBRANCH  62  63
ENDBRANCH  43  57
BRANCH  44  67
ATOM     67  C   UNL A   1      36.423  33.611  30.970  1.00  0.00    -0.014 A 
ATOM     68  C   UNL A   1      36.443  33.919  29.599  1.00  0.00     0.010 A 
ATOM     69  C   UNL A   1      35.309  34.001  31.740  1.00  0.00     0.010 A 
ATOM     70  C   UNL A   1      35.379  34.611  29.015  1.00  0.00     0.020 A 
ATOM     71  C   UNL A   1      34.228  34.662  31.152  1.00  0.00     0.020 A 
ATOM     72  C   UNL A   1      34.276  34.975  29.794  1.00  0.00     0.054 A 
BRANCH  72  73
ATOM     73  S   UNL A   1      32.882  35.826  29.004  1.00  0.00     0.124 S 
ATOM     74  O   UNL A   1      32.354  34.787  28.124  1.00  0.00    -0.237 OA
ATOM     75  O   UNL A   1      32.041  36.181  30.142  1.00  0.00    -0.237 OA
ATOM     76  O   UNL A   1      33.512  36.958  28.327  1.00  0.00    -0.744 OA
ENDBRANCH  72  73
ENDBRANCH  44  67
BRANCH  56  77
ATOM     77  C   UNL A   1      39.682  34.062  37.127  1.00  0.00    -0.014 A 
ATOM     78  C   UNL A   1      38.833  33.778  38.210  1.00  0.00     0.010 A 
ATOM     79  C   UNL A   1      40.471  35.227  37.157  1.00  0.00     0.010 A 
ATOM     80  C   UNL A   1      38.758  34.658  39.293  1.00  0.00     0.020 A 
ATOM     81  C   UNL A   1      40.420  36.092  38.251  1.00  0.00     0.020 A 
ATOM     82  C   UNL A   1      39.555  35.808  39.308  1.00  0.00     0.054 A 
BRANCH  82  83
ATOM     83  S   UNL A   1      39.483  36.902  40.752  1.00  0.00     0.124 S 
ATOM     84  O   UNL A   1      38.807  36.062  41.736  1.00  0.00    -0.237 OA
ATOM     85  O   UNL A   1      40.894  37.173  41.019  1.00  0.00    -0.237 OA
ATOM     86  O   UNL A   1      38.714  38.051  40.279  1.00  0.00    -0.744 OA
ENDBRANCH  82  83
ENDBRANCH  56  77
ENDBRANCH  30  31
ENDBRANCH  23  25
ENDBRANCH  22  23
ENDBRANCH  21  22
ENDBRANCH   1  21
TORSDOF 17
ENDMDL
