MODEL 1
REMARK VINA RESULT:     -10.3      0.000      0.000
REMARK SMILES CC(C)(C)OC(=O)c1c(F)ccc(C(=O)OCCOC(=O)c2ccc(-c3c4nc(c(-c5ccc(S(=O)(=O)[O-])cc5)c5ccc([nH]5)c(-c5ccc(S(=O)(=O)[O-])cc5)c5nc(c(-c6ccc(S(=O)(=O)[O-])cc6)c6ccc3[nH]6)C=C5)C=C4)cc2)c1N
REMARK SMILES IDX 17 1 16 2 14 3 15 4 13 5 8 6 9 7 82 8 10 9 11 10 12 11 6 12
REMARK SMILES IDX 7 13 5 14 2 15 1 16 3 17 4 18 83 19 18 22 19 23 20 24 21 25
REMARK SMILES IDX 22 26 23 27 81 28 24 29 80 30 25 31 26 32 27 33 74 34 28 35
REMARK SMILES IDX 79 36 73 37 75 38 29 39 78 40 72 41 71 42 30 44 60 45 41 46
REMARK SMILES IDX 59 47 42 48 45 49 58 50 76 51 43 52 44 53 57 55 77 56 46 57
REMARK SMILES IDX 31 58 32 59 40 60 33 61 39 62 34 63 35 64 36 65 37 66 38 67
REMARK SMILES IDX 61 68 62 69 70 70 63 71 69 72 64 73 65 74 66 75 67 76 68 77
REMARK SMILES IDX 47 78 48 79 56 80 49 81 55 82 50 83 51 84 52 85 53 86 54 87
REMARK H PARENT 83 20 83 21 75 43 45 54
REMARK Flexibility Score: inf
ROOT
ATOM      1  C   UNL A   1      33.814  32.072  27.889  1.00  0.00     0.275 C 
ENDROOT
BRANCH   1   2
ATOM      2  O   UNL A   1      33.337  30.846  27.292  1.00  0.00    -0.458 OA
BRANCH   2   3
ATOM      3  C   UNL A   1      32.074  30.871  26.789  1.00  0.00     0.340 C 
ATOM      4  O   UNL A   1      31.309  31.821  26.826  1.00  0.00    -0.246 OA
BRANCH   3   5
ATOM      5  C   UNL A   1      31.749  29.610  26.059  1.00  0.00     0.084 A 
ATOM      6  C   UNL A   1      31.461  27.219  25.831  1.00  0.00     0.119 A 
ATOM      7  C   UNL A   1      31.113  27.394  24.486  1.00  0.00     0.139 A 
ATOM      8  C   UNL A   1      31.819  28.325  26.643  1.00  0.00     0.064 A 
ATOM      9  F   UNL A   1      30.783  26.350  23.712  1.00  0.00    -0.206 F 
ATOM     10  C   UNL A   1      31.042  28.660  23.929  1.00  0.00     0.041 A 
ATOM     11  C   UNL A   1      31.322  29.764  24.725  1.00  0.00     0.021 A 
BRANCH   6  12
ATOM     12  C   UNL A   1      31.438  25.827  26.321  1.00  0.00     0.343 C 
ATOM     13  O   UNL A   1      30.423  25.207  26.578  1.00  0.00    -0.246 OA
BRANCH  12  14
ATOM     14  O   UNL A   1      32.714  25.397  26.485  1.00  0.00    -0.456 OA
BRANCH  14  15
ATOM     15  C   UNL A   1      33.340  24.557  25.483  1.00  0.00     0.104 C 
ATOM     16  C   UNL A   1      34.270  23.631  26.280  1.00  0.00     0.056 C 
ATOM     17  C   UNL A   1      34.188  25.380  24.509  1.00  0.00     0.056 C 
ATOM     18  C   UNL A   1      32.291  23.703  24.762  1.00  0.00     0.056 C 
ENDBRANCH  14  15
ENDBRANCH  12  14
ENDBRANCH   6  12
BRANCH   8  19
ATOM     19  N   UNL A   1      32.114  28.173  28.001  1.00  0.00    -0.397 N 
ATOM     20  H   UNL A   1      32.818  27.546  28.284  1.00  0.00     0.156 HD
ATOM     21  H   UNL A   1      31.618  28.693  28.673  1.00  0.00     0.156 HD
ENDBRANCH   8  19
ENDBRANCH   3   5
ENDBRANCH   2   3
ENDBRANCH   1   2
BRANCH   1  22
ATOM     22  C   UNL A   1      35.177  31.872  28.552  1.00  0.00     0.275 C 
BRANCH  22  23
ATOM     23  O   UNL A   1      35.609  30.508  28.400  1.00  0.00    -0.458 OA
BRANCH  23  24
ATOM     24  C   UNL A   1      36.194  29.965  29.491  1.00  0.00     0.338 C 
ATOM     25  O   UNL A   1      35.645  29.519  30.484  1.00  0.00    -0.246 OA
BRANCH  24  26
ATOM     26  C   UNL A   1      37.644  29.872  29.276  1.00  0.00     0.060 A 
ATOM     27  C   UNL A   1      38.093  29.724  27.968  1.00  0.00     0.016 A 
ATOM     28  C   UNL A   1      38.535  29.763  30.339  1.00  0.00     0.016 A 
ATOM     29  C   UNL A   1      39.410  29.359  27.713  1.00  0.00     0.010 A 
ATOM     30  C   UNL A   1      39.886  29.495  30.075  1.00  0.00     0.010 A 
ATOM     31  C   UNL A   1      40.332  29.245  28.762  1.00  0.00    -0.014 A 
BRANCH  31  32
ATOM     32  C   UNL A   1      41.734  28.811  28.485  1.00  0.00     0.031 A 
ATOM     33  C   UNL A   1      42.868  29.805  28.568  1.00  0.00     0.074 A 
ATOM     34  C   UNL A   1      42.009  27.525  28.185  1.00  0.00     0.049 A 
ATOM     35  N   UNL A   1      44.120  29.664  28.211  1.00  0.00    -0.248 NA
ATOM     36  C   UNL A   1      42.547  31.136  29.108  1.00  0.00     0.031 C 
ATOM     37  C   UNL A   1      41.028  26.439  28.115  1.00  0.00     0.029 A 
ATOM     38  N   UNL A   1      43.202  26.907  27.892  1.00  0.00    -0.354 N 
ATOM     39  C   UNL A   1      44.719  30.902  28.425  1.00  0.00     0.074 A 
ATOM     40  C   UNL A   1      43.691  31.783  28.934  1.00  0.00     0.031 C 
ATOM     41  C   UNL A   1      41.660  25.288  27.840  1.00  0.00     0.029 A 
ATOM     42  C   UNL A   1      43.075  25.564  27.619  1.00  0.00     0.049 A 
ATOM     43  H   UNL A   1      44.065  27.380  27.879  1.00  0.00     0.167 HD
ATOM     44  C   UNL A   1      46.006  31.273  28.214  1.00  0.00     0.031 A 
ATOM     45  C   UNL A   1      43.977  24.659  27.190  1.00  0.00     0.031 A 
ATOM     46  C   UNL A   1      47.038  30.384  27.745  1.00  0.00     0.049 A 
ATOM     47  C   UNL A   1      45.392  25.095  26.937  1.00  0.00     0.074 A 
ATOM     48  C   UNL A   1      48.374  30.662  27.507  1.00  0.00     0.029 A 
ATOM     49  N   UNL A   1      46.856  29.039  27.460  1.00  0.00    -0.354 N 
ATOM     50  N   UNL A   1      45.925  26.284  27.089  1.00  0.00    -0.248 NA
ATOM     51  C   UNL A   1      46.323  24.071  26.445  1.00  0.00     0.031 C 
ATOM     52  C   UNL A   1      48.988  29.497  27.036  1.00  0.00     0.029 A 
ATOM     53  C   UNL A   1      48.049  28.478  27.035  1.00  0.00     0.049 A 
ATOM     54  H   UNL A   1      46.003  28.554  27.547  1.00  0.00     0.167 HD
ATOM     55  C   UNL A   1      47.258  26.150  26.719  1.00  0.00     0.074 A 
ATOM     56  C   UNL A   1      47.455  24.759  26.359  1.00  0.00     0.031 C 
ATOM     57  C   UNL A   1      48.229  27.094  26.673  1.00  0.00     0.031 A 
BRANCH  44  58
ATOM     58  C   UNL A   1      46.359  32.722  28.444  1.00  0.00    -0.014 A 
ATOM     59  C   UNL A   1      46.808  33.187  29.692  1.00  0.00     0.010 A 
ATOM     60  C   UNL A   1      46.251  33.634  27.376  1.00  0.00     0.010 A 
ATOM     61  C   UNL A   1      47.088  34.543  29.884  1.00  0.00     0.020 A 
ATOM     62  C   UNL A   1      46.559  34.985  27.556  1.00  0.00     0.020 A 
ATOM     63  C   UNL A   1      46.953  35.436  28.817  1.00  0.00     0.054 A 
BRANCH  63  64
ATOM     64  S   UNL A   1      47.317  37.192  29.093  1.00  0.00     0.124 S 
ATOM     65  O   UNL A   1      48.111  37.523  27.912  1.00  0.00    -0.237 OA
ATOM     66  O   UNL A   1      45.988  37.793  29.143  1.00  0.00    -0.237 OA
ATOM     67  O   UNL A   1      48.049  37.200  30.357  1.00  0.00    -0.744 OA
ENDBRANCH  63  64
ENDBRANCH  44  58
BRANCH  45  68
ATOM     68  C   UNL A   1      43.540  23.261  26.917  1.00  0.00    -0.014 A 
ATOM     69  C   UNL A   1      43.442  22.780  25.601  1.00  0.00     0.010 A 
ATOM     70  C   UNL A   1      43.260  22.390  27.987  1.00  0.00     0.010 A 
ATOM     71  C   UNL A   1      43.074  21.451  25.360  1.00  0.00     0.020 A 
ATOM     72  C   UNL A   1      42.923  21.055  27.752  1.00  0.00     0.020 A 
ATOM     73  C   UNL A   1      42.824  20.595  26.438  1.00  0.00     0.054 A 
BRANCH  73  74
ATOM     74  S   UNL A   1      42.431  18.855  26.106  1.00  0.00     0.124 S 
ATOM     75  O   UNL A   1      43.438  18.501  25.111  1.00  0.00    -0.237 OA
ATOM     76  O   UNL A   1      42.593  18.238  27.420  1.00  0.00    -0.237 OA
ATOM     77  O   UNL A   1      41.055  18.905  25.616  1.00  0.00    -0.744 OA
ENDBRANCH  73  74
ENDBRANCH  45  68
BRANCH  57  78
ATOM     78  C   UNL A   1      49.602  26.649  26.247  1.00  0.00    -0.014 A 
ATOM     79  C   UNL A   1      50.487  26.042  27.156  1.00  0.00     0.010 A 
ATOM     80  C   UNL A   1      49.998  26.807  24.906  1.00  0.00     0.010 A 
ATOM     81  C   UNL A   1      51.757  25.633  26.739  1.00  0.00     0.020 A 
ATOM     82  C   UNL A   1      51.256  26.375  24.480  1.00  0.00     0.020 A 
ATOM     83  C   UNL A   1      52.134  25.804  25.404  1.00  0.00     0.054 A 
BRANCH  83  84
ATOM     84  S   UNL A   1      53.774  25.235  24.879  1.00  0.00     0.124 S 
ATOM     85  O   UNL A   1      53.591  23.788  24.823  1.00  0.00    -0.237 OA
ATOM     86  O   UNL A   1      53.946  25.899  23.588  1.00  0.00    -0.237 OA
ATOM     87  O   UNL A   1      54.660  25.710  25.939  1.00  0.00    -0.744 OA
ENDBRANCH  83  84
ENDBRANCH  57  78
ENDBRANCH  31  32
ENDBRANCH  24  26
ENDBRANCH  23  24
ENDBRANCH  22  23
ENDBRANCH   1  22
TORSDOF 18
ENDMDL
MODEL 2
REMARK VINA RESULT:     -10.2      4.626     11.748
REMARK SMILES CC(C)(C)OC(=O)c1c(F)ccc(C(=O)OCCOC(=O)c2ccc(-c3c4nc(c(-c5ccc(S(=O)(=O)[O-])cc5)c5ccc([nH]5)c(-c5ccc(S(=O)(=O)[O-])cc5)c5nc(c(-c6ccc(S(=O)(=O)[O-])cc6)c6ccc3[nH]6)C=C5)C=C4)cc2)c1N
REMARK SMILES IDX 17 1 16 2 14 3 15 4 13 5 8 6 9 7 82 8 10 9 11 10 12 11 6 12
REMARK SMILES IDX 7 13 5 14 2 15 1 16 3 17 4 18 83 19 18 22 19 23 20 24 21 25
REMARK SMILES IDX 22 26 23 27 81 28 24 29 80 30 25 31 26 32 27 33 74 34 28 35
REMARK SMILES IDX 79 36 73 37 75 38 29 39 78 40 72 41 71 42 30 44 60 45 41 46
REMARK SMILES IDX 59 47 42 48 45 49 58 50 76 51 43 52 44 53 57 55 77 56 46 57
REMARK SMILES IDX 31 58 32 59 40 60 33 61 39 62 34 63 35 64 36 65 37 66 38 67
REMARK SMILES IDX 61 68 62 69 70 70 63 71 69 72 64 73 65 74 66 75 67 76 68 77
REMARK SMILES IDX 47 78 48 79 56 80 49 81 55 82 50 83 51 84 52 85 53 86 54 87
REMARK H PARENT 83 20 83 21 75 43 45 54
REMARK Flexibility Score: inf
ROOT
ATOM      1  C   UNL A   1      40.703  20.211  26.409  1.00  0.00     0.275 C 
ENDROOT
BRANCH   1   2
ATOM      2  O   UNL A   1      41.958  20.843  26.745  1.00  0.00    -0.458 OA
BRANCH   2   3
ATOM      3  C   UNL A   1      42.934  20.785  25.801  1.00  0.00     0.340 C 
ATOM      4  O   UNL A   1      43.233  19.802  25.142  1.00  0.00    -0.246 OA
BRANCH   3   5
ATOM      5  C   UNL A   1      43.548  22.124  25.563  1.00  0.00     0.084 A 
ATOM      6  C   UNL A   1      45.379  23.679  25.280  1.00  0.00     0.119 A 
ATOM      7  C   UNL A   1      44.462  24.724  25.122  1.00  0.00     0.139 A 
ATOM      8  C   UNL A   1      44.942  22.354  25.538  1.00  0.00     0.064 A 
ATOM      9  F   UNL A   1      44.872  25.979  24.888  1.00  0.00    -0.206 F 
ATOM     10  C   UNL A   1      43.099  24.482  25.142  1.00  0.00     0.041 A 
ATOM     11  C   UNL A   1      42.647  23.181  25.324  1.00  0.00     0.021 A 
BRANCH   6  12
ATOM     12  C   UNL A   1      46.803  24.056  25.174  1.00  0.00     0.343 C 
ATOM     13  O   UNL A   1      47.349  24.386  24.138  1.00  0.00    -0.246 OA
BRANCH  12  14
ATOM     14  O   UNL A   1      47.388  23.915  26.389  1.00  0.00    -0.456 OA
BRANCH  14  15
ATOM     15  C   UNL A   1      47.757  25.081  27.166  1.00  0.00     0.104 C 
ATOM     16  C   UNL A   1      49.225  24.844  27.548  1.00  0.00     0.056 C 
ATOM     17  C   UNL A   1      46.930  25.188  28.450  1.00  0.00     0.056 C 
ATOM     18  C   UNL A   1      47.667  26.350  26.311  1.00  0.00     0.056 C 
ENDBRANCH  14  15
ENDBRANCH  12  14
ENDBRANCH   6  12
BRANCH   8  19
ATOM     19  N   UNL A   1      45.844  21.291  25.642  1.00  0.00    -0.397 N 
ATOM     20  H   UNL A   1      45.517  20.364  25.601  1.00  0.00     0.156 HD
ATOM     21  H   UNL A   1      46.805  21.470  25.755  1.00  0.00     0.156 HD
ENDBRANCH   8  19
ENDBRANCH   3   5
ENDBRANCH   2   3
ENDBRANCH   1   2
BRANCH   1  22
ATOM     22  C   UNL A   1      39.635  21.248  26.062  1.00  0.00     0.275 C 
BRANCH  22  23
ATOM     23  O   UNL A   1      39.672  22.335  27.004  1.00  0.00    -0.458 OA
BRANCH  23  24
ATOM     24  C   UNL A   1      39.037  23.461  26.608  1.00  0.00     0.338 C 
ATOM     25  O   UNL A   1      37.935  23.553  26.095  1.00  0.00    -0.246 OA
BRANCH  24  26
ATOM     26  C   UNL A   1      39.834  24.635  26.991  1.00  0.00     0.060 A 
ATOM     27  C   UNL A   1      40.248  24.727  28.315  1.00  0.00     0.016 A 
ATOM     28  C   UNL A   1      40.030  25.701  26.120  1.00  0.00     0.016 A 
ATOM     29  C   UNL A   1      40.761  25.920  28.811  1.00  0.00     0.010 A 
ATOM     30  C   UNL A   1      40.642  26.870  26.595  1.00  0.00     0.010 A 
ATOM     31  C   UNL A   1      40.975  27.011  27.958  1.00  0.00    -0.014 A 
BRANCH  31  32
ATOM     32  C   UNL A   1      41.486  28.303  28.505  1.00  0.00     0.031 A 
ATOM     33  C   UNL A   1      42.960  28.622  28.448  1.00  0.00     0.074 A 
ATOM     34  C   UNL A   1      40.637  29.212  29.029  1.00  0.00     0.049 A 
ATOM     35  N   UNL A   1      43.617  29.608  29.007  1.00  0.00    -0.248 NA
ATOM     36  C   UNL A   1      43.811  27.702  27.675  1.00  0.00     0.031 C 
ATOM     37  C   UNL A   1      39.181  29.069  29.110  1.00  0.00     0.029 A 
ATOM     38  N   UNL A   1      40.876  30.445  29.588  1.00  0.00    -0.354 N 
ATOM     39  C   UNL A   1      44.959  29.393  28.706  1.00  0.00     0.074 A 
ATOM     40  C   UNL A   1      45.022  28.178  27.922  1.00  0.00     0.031 C 
ATOM     41  C   UNL A   1      38.657  30.182  29.644  1.00  0.00     0.029 A 
ATOM     42  C   UNL A   1      39.739  31.078  30.034  1.00  0.00     0.049 A 
ATOM     43  H   UNL A   1      41.776  30.838  29.661  1.00  0.00     0.167 HD
ATOM     44  C   UNL A   1      46.039  30.136  29.052  1.00  0.00     0.031 A 
ATOM     45  C   UNL A   1      39.577  32.225  30.723  1.00  0.00     0.031 A 
ATOM     46  C   UNL A   1      45.969  31.366  29.797  1.00  0.00     0.049 A 
ATOM     47  C   UNL A   1      40.787  33.021  31.120  1.00  0.00     0.074 A 
ATOM     48  C   UNL A   1      47.006  32.196  30.191  1.00  0.00     0.029 A 
ATOM     49  N   UNL A   1      44.797  31.955  30.248  1.00  0.00    -0.354 N 
ATOM     50  N   UNL A   1      42.052  32.770  30.876  1.00  0.00    -0.248 NA
ATOM     51  C   UNL A   1      40.550  34.247  31.893  1.00  0.00     0.031 C 
ATOM     52  C   UNL A   1      46.463  33.262  30.916  1.00  0.00     0.029 A 
ATOM     53  C   UNL A   1      45.085  33.128  30.927  1.00  0.00     0.049 A 
ATOM     54  H   UNL A   1      43.892  31.592  30.106  1.00  0.00     0.167 HD
ATOM     55  C   UNL A   1      42.762  33.812  31.460  1.00  0.00     0.074 A 
ATOM     56  C   UNL A   1      41.785  34.708  32.047  1.00  0.00     0.031 C 
ATOM     57  C   UNL A   1      44.103  34.006  31.512  1.00  0.00     0.031 A 
BRANCH  44  58
ATOM     58  C   UNL A   1      47.398  29.607  28.666  1.00  0.00    -0.014 A 
ATOM     59  C   UNL A   1      48.082  28.670  29.462  1.00  0.00     0.010 A 
ATOM     60  C   UNL A   1      47.995  30.050  27.470  1.00  0.00     0.010 A 
ATOM     61  C   UNL A   1      49.358  28.230  29.098  1.00  0.00     0.020 A 
ATOM     62  C   UNL A   1      49.258  29.589  27.088  1.00  0.00     0.020 A 
ATOM     63  C   UNL A   1      49.943  28.699  27.917  1.00  0.00     0.054 A 
BRANCH  63  64
ATOM     64  S   UNL A   1      51.602  28.117  27.471  1.00  0.00     0.124 S 
ATOM     65  O   UNL A   1      51.338  27.375  26.240  1.00  0.00    -0.237 OA
ATOM     66  O   UNL A   1      52.347  29.362  27.305  1.00  0.00    -0.237 OA
ATOM     67  O   UNL A   1      52.003  27.302  28.615  1.00  0.00    -0.744 OA
ENDBRANCH  63  64
ENDBRANCH  44  58
BRANCH  45  68
ATOM     68  C   UNL A   1      38.208  32.648  31.131  1.00  0.00    -0.014 A 
ATOM     69  C   UNL A   1      37.703  32.330  32.402  1.00  0.00     0.010 A 
ATOM     70  C   UNL A   1      37.418  33.414  30.252  1.00  0.00     0.010 A 
ATOM     71  C   UNL A   1      36.433  32.773  32.789  1.00  0.00     0.020 A 
ATOM     72  C   UNL A   1      36.163  33.884  30.646  1.00  0.00     0.020 A 
ATOM     73  C   UNL A   1      35.674  33.554  31.911  1.00  0.00     0.054 A 
BRANCH  73  74
ATOM     74  S   UNL A   1      34.066  34.188  32.463  1.00  0.00     0.124 S 
ATOM     75  O   UNL A   1      33.495  33.025  33.133  1.00  0.00    -0.237 OA
ATOM     76  O   UNL A   1      34.446  35.300  33.332  1.00  0.00    -0.237 OA
ATOM     77  O   UNL A   1      33.410  34.580  31.217  1.00  0.00    -0.744 OA
ENDBRANCH  73  74
ENDBRANCH  45  68
BRANCH  57  78
ATOM     78  C   UNL A   1      44.592  35.251  32.202  1.00  0.00    -0.014 A 
ATOM     79  C   UNL A   1      44.739  36.462  31.503  1.00  0.00     0.010 A 
ATOM     80  C   UNL A   1      44.873  35.215  33.581  1.00  0.00     0.010 A 
ATOM     81  C   UNL A   1      45.191  37.608  32.163  1.00  0.00     0.020 A 
ATOM     82  C   UNL A   1      45.300  36.365  34.249  1.00  0.00     0.020 A 
ATOM     83  C   UNL A   1      45.471  37.551  33.532  1.00  0.00     0.054 A 
BRANCH  83  84
ATOM     84  S   UNL A   1      46.026  39.059  34.374  1.00  0.00     0.124 S 
ATOM     85  O   UNL A   1      44.784  39.554  34.961  1.00  0.00    -0.237 OA
ATOM     86  O   UNL A   1      47.013  38.551  35.325  1.00  0.00    -0.237 OA
ATOM     87  O   UNL A   1      46.574  39.876  33.295  1.00  0.00    -0.744 OA
ENDBRANCH  83  84
ENDBRANCH  57  78
ENDBRANCH  31  32
ENDBRANCH  24  26
ENDBRANCH  23  24
ENDBRANCH  22  23
ENDBRANCH   1  22
TORSDOF 18
ENDMDL
MODEL 3
REMARK VINA RESULT:     -10.0      6.866     13.790
REMARK SMILES CC(C)(C)OC(=O)c1c(F)ccc(C(=O)OCCOC(=O)c2ccc(-c3c4nc(c(-c5ccc(S(=O)(=O)[O-])cc5)c5ccc([nH]5)c(-c5ccc(S(=O)(=O)[O-])cc5)c5nc(c(-c6ccc(S(=O)(=O)[O-])cc6)c6ccc3[nH]6)C=C5)C=C4)cc2)c1N
REMARK SMILES IDX 17 1 16 2 14 3 15 4 13 5 8 6 9 7 82 8 10 9 11 10 12 11 6 12
REMARK SMILES IDX 7 13 5 14 2 15 1 16 3 17 4 18 83 19 18 22 19 23 20 24 21 25
REMARK SMILES IDX 22 26 23 27 81 28 24 29 80 30 25 31 26 32 27 33 74 34 28 35
REMARK SMILES IDX 79 36 73 37 75 38 29 39 78 40 72 41 71 42 30 44 60 45 41 46
REMARK SMILES IDX 59 47 42 48 45 49 58 50 76 51 43 52 44 53 57 55 77 56 46 57
REMARK SMILES IDX 31 58 32 59 40 60 33 61 39 62 34 63 35 64 36 65 37 66 38 67
REMARK SMILES IDX 61 68 62 69 70 70 63 71 69 72 64 73 65 74 66 75 67 76 68 77
REMARK SMILES IDX 47 78 48 79 56 80 49 81 55 82 50 83 51 84 52 85 53 86 54 87
REMARK H PARENT 83 20 83 21 75 43 45 54
REMARK Flexibility Score: inf
ROOT
ATOM      1  C   UNL A   1      40.044  21.298  26.490  1.00  0.00     0.275 C 
ENDROOT
BRANCH   1   2
ATOM      2  O   UNL A   1      41.195  20.973  25.680  1.00  0.00    -0.458 OA
BRANCH   2   3
ATOM      3  C   UNL A   1      42.073  20.080  26.209  1.00  0.00     0.340 C 
ATOM      4  O   UNL A   1      41.792  19.165  26.966  1.00  0.00    -0.246 OA
BRANCH   3   5
ATOM      5  C   UNL A   1      43.447  20.270  25.660  1.00  0.00     0.084 A 
ATOM      6  C   UNL A   1      45.407  21.548  25.046  1.00  0.00     0.119 A 
ATOM      7  C   UNL A   1      46.016  20.380  24.573  1.00  0.00     0.139 A 
ATOM      8  C   UNL A   1      44.090  21.526  25.573  1.00  0.00     0.064 A 
ATOM      9  F   UNL A   1      47.257  20.399  24.066  1.00  0.00    -0.206 F 
ATOM     10  C   UNL A   1      45.377  19.155  24.672  1.00  0.00     0.041 A 
ATOM     11  C   UNL A   1      44.113  19.098  25.248  1.00  0.00     0.021 A 
BRANCH   6  12
ATOM     12  C   UNL A   1      46.217  22.778  24.942  1.00  0.00     0.343 C 
ATOM     13  O   UNL A   1      46.479  23.340  23.895  1.00  0.00    -0.246 OA
BRANCH  12  14
ATOM     14  O   UNL A   1      46.652  23.126  26.179  1.00  0.00    -0.456 OA
BRANCH  14  15
ATOM     15  C   UNL A   1      46.732  24.520  26.564  1.00  0.00     0.104 C 
ATOM     16  C   UNL A   1      45.611  25.207  25.770  1.00  0.00     0.056 C 
ATOM     17  C   UNL A   1      48.071  25.142  26.155  1.00  0.00     0.056 C 
ATOM     18  C   UNL A   1      46.449  24.684  28.061  1.00  0.00     0.056 C 
ENDBRANCH  14  15
ENDBRANCH  12  14
ENDBRANCH   6  12
BRANCH   8  19
ATOM     19  N   UNL A   1      43.491  22.674  26.099  1.00  0.00    -0.397 N 
ATOM     20  H   UNL A   1      43.634  23.546  25.665  1.00  0.00     0.156 HD
ATOM     21  H   UNL A   1      42.926  22.609  26.902  1.00  0.00     0.156 HD
ENDBRANCH   8  19
ENDBRANCH   3   5
ENDBRANCH   2   3
ENDBRANCH   1   2
BRANCH   1  22
ATOM     22  C   UNL A   1      40.349  22.446  27.452  1.00  0.00     0.275 C 
BRANCH  22  23
ATOM     23  O   UNL A   1      39.768  23.669  26.968  1.00  0.00    -0.458 OA
BRANCH  23  24
ATOM     24  C   UNL A   1      40.648  24.663  26.713  1.00  0.00     0.338 C 
ATOM     25  O   UNL A   1      41.218  24.900  25.662  1.00  0.00    -0.246 OA
BRANCH  24  26
ATOM     26  C   UNL A   1      40.758  25.536  27.889  1.00  0.00     0.060 A 
ATOM     27  C   UNL A   1      39.609  25.746  28.644  1.00  0.00     0.016 A 
ATOM     28  C   UNL A   1      41.913  26.266  28.153  1.00  0.00     0.016 A 
ATOM     29  C   UNL A   1      39.567  26.759  29.595  1.00  0.00     0.010 A 
ATOM     30  C   UNL A   1      41.900  27.218  29.183  1.00  0.00     0.010 A 
ATOM     31  C   UNL A   1      40.715  27.509  29.887  1.00  0.00    -0.014 A 
BRANCH  31  32
ATOM     32  C   UNL A   1      40.651  28.624  30.878  1.00  0.00     0.031 A 
ATOM     33  C   UNL A   1      41.621  28.668  32.035  1.00  0.00     0.074 A 
ATOM     34  C   UNL A   1      39.750  29.618  30.739  1.00  0.00     0.049 A 
ATOM     35  N   UNL A   1      41.626  29.456  33.082  1.00  0.00    -0.248 NA
ATOM     36  C   UNL A   1      42.718  27.687  32.021  1.00  0.00     0.031 C 
ATOM     37  C   UNL A   1      38.780  29.740  29.648  1.00  0.00     0.029 A 
ATOM     38  N   UNL A   1      39.507  30.725  31.518  1.00  0.00    -0.354 N 
ATOM     39  C   UNL A   1      42.684  29.026  33.877  1.00  0.00     0.074 A 
ATOM     40  C   UNL A   1      43.292  27.904  33.196  1.00  0.00     0.031 C 
ATOM     41  C   UNL A   1      38.079  30.873  29.804  1.00  0.00     0.029 A 
ATOM     42  C   UNL A   1      38.477  31.510  31.053  1.00  0.00     0.049 A 
ATOM     43  H   UNL A   1      40.021  30.935  32.331  1.00  0.00     0.167 HD
ATOM     44  C   UNL A   1      43.110  29.519  35.066  1.00  0.00     0.031 A 
ATOM     45  C   UNL A   1      37.880  32.594  31.588  1.00  0.00     0.031 A 
ATOM     46  C   UNL A   1      42.529  30.662  35.723  1.00  0.00     0.049 A 
ATOM     47  C   UNL A   1      38.348  33.109  32.919  1.00  0.00     0.074 A 
ATOM     48  C   UNL A   1      42.893  31.242  36.927  1.00  0.00     0.029 A 
ATOM     49  N   UNL A   1      41.473  31.409  35.226  1.00  0.00    -0.354 N 
ATOM     50  N   UNL A   1      39.312  32.654  33.683  1.00  0.00    -0.248 NA
ATOM     51  C   UNL A   1      37.642  34.276  33.464  1.00  0.00     0.031 C 
ATOM     52  C   UNL A   1      42.029  32.313  37.177  1.00  0.00     0.029 A 
ATOM     53  C   UNL A   1      41.163  32.436  36.103  1.00  0.00     0.049 A 
ATOM     54  H   UNL A   1      41.011  31.237  34.374  1.00  0.00     0.167 HD
ATOM     55  C   UNL A   1      39.333  33.484  34.798  1.00  0.00     0.074 A 
ATOM     56  C   UNL A   1      38.303  34.483  34.596  1.00  0.00     0.031 C 
ATOM     57  C   UNL A   1      40.130  33.419  35.893  1.00  0.00     0.031 A 
BRANCH  44  58
ATOM     58  C   UNL A   1      44.233  28.788  35.760  1.00  0.00    -0.014 A 
ATOM     59  C   UNL A   1      45.580  29.138  35.558  1.00  0.00     0.010 A 
ATOM     60  C   UNL A   1      43.927  27.737  36.645  1.00  0.00     0.010 A 
ATOM     61  C   UNL A   1      46.601  28.415  36.184  1.00  0.00     0.020 A 
ATOM     62  C   UNL A   1      44.943  27.032  37.296  1.00  0.00     0.020 A 
ATOM     63  C   UNL A   1      46.276  27.360  37.043  1.00  0.00     0.054 A 
BRANCH  63  64
ATOM     64  S   UNL A   1      47.618  26.433  37.838  1.00  0.00     0.124 S 
ATOM     65  O   UNL A   1      47.550  25.151  37.142  1.00  0.00    -0.237 OA
ATOM     66  O   UNL A   1      48.793  27.247  37.540  1.00  0.00    -0.237 OA
ATOM     67  O   UNL A   1      47.229  26.399  39.246  1.00  0.00    -0.744 OA
ENDBRANCH  63  64
ENDBRANCH  44  58
BRANCH  45  68
ATOM     68  C   UNL A   1      36.729  33.221  30.880  1.00  0.00    -0.014 A 
ATOM     69  C   UNL A   1      35.408  32.975  31.290  1.00  0.00     0.010 A 
ATOM     70  C   UNL A   1      36.960  34.107  29.810  1.00  0.00     0.010 A 
ATOM     71  C   UNL A   1      34.338  33.606  30.644  1.00  0.00     0.020 A 
ATOM     72  C   UNL A   1      35.897  34.764  29.185  1.00  0.00     0.020 A 
ATOM     73  C   UNL A   1      34.591  34.503  29.601  1.00  0.00     0.054 A 
BRANCH  73  74
ATOM     74  S   UNL A   1      33.197  35.374  28.834  1.00  0.00     0.124 S 
ATOM     75  O   UNL A   1      33.877  36.346  27.984  1.00  0.00    -0.237 OA
ATOM     76  O   UNL A   1      32.497  34.299  28.134  1.00  0.00    -0.237 OA
ATOM     77  O   UNL A   1      32.476  35.935  29.975  1.00  0.00    -0.744 OA
ENDBRANCH  73  74
ENDBRANCH  45  68
BRANCH  57  78
ATOM     78  C   UNL A   1      39.939  34.478  36.946  1.00  0.00    -0.014 A 
ATOM     79  C   UNL A   1      40.666  35.681  36.910  1.00  0.00     0.010 A 
ATOM     80  C   UNL A   1      38.988  34.280  37.964  1.00  0.00     0.010 A 
ATOM     81  C   UNL A   1      40.471  36.653  37.895  1.00  0.00     0.020 A 
ATOM     82  C   UNL A   1      38.773  35.261  38.936  1.00  0.00     0.020 A 
ATOM     83  C   UNL A   1      39.527  36.436  38.903  1.00  0.00     0.054 A 
BRANCH  83  84
ATOM     84  S   UNL A   1      39.268  37.725  40.152  1.00  0.00     0.124 S 
ATOM     85  O   UNL A   1      38.994  36.938  41.350  1.00  0.00    -0.237 OA
ATOM     86  O   UNL A   1      40.544  38.439  40.146  1.00  0.00    -0.237 OA
ATOM     87  O   UNL A   1      38.135  38.487  39.633  1.00  0.00    -0.744 OA
ENDBRANCH  83  84
ENDBRANCH  57  78
ENDBRANCH  31  32
ENDBRANCH  24  26
ENDBRANCH  23  24
ENDBRANCH  22  23
ENDBRANCH   1  22
TORSDOF 18
ENDMDL
