MODEL 1
REMARK VINA RESULT:     -10.2      0.000      0.000
REMARK SMILES CC(C)(C)OC(=O)[C@@H](C(=O)OCCOC(=O)c1ccc(-c2c3nc(c(-c4ccc(S(=O)(=O)[O-])cc4)c4ccc([nH]4)c(-c4ccc(S(=O)(=O)[O-])cc4)c4nc(c(-c5ccc(S(=O)(=O)[O-])cc5)c5ccc2[nH]5)C=C4)C=C3)cc1)[C@@H]([NH3+])Cc1cccc(F)c1
REMARK SMILES IDX 12 1 11 2 9 3 10 4 8 5 6 6 7 7 5 8 2 9 1 10 3 11 4 12 77 13
REMARK SMILES IDX 78 14 79 18 80 19 81 20 86 21 82 22 84 23 83 24 85 25 13 26
REMARK SMILES IDX 14 27 15 28 16 29 17 30 18 31 76 32 19 33 75 34 20 35 21 36
REMARK SMILES IDX 22 37 69 38 23 39 74 40 68 41 70 42 24 43 73 44 67 45 66 46
REMARK SMILES IDX 25 48 55 49 36 50 54 51 37 52 40 53 53 54 71 55 38 56 39 57
REMARK SMILES IDX 52 59 72 60 41 61 26 62 27 63 35 64 28 65 34 66 29 67 30 68
REMARK SMILES IDX 31 69 32 70 33 71 56 72 57 73 65 74 58 75 64 76 59 77 60 78
REMARK SMILES IDX 61 79 62 80 63 81 42 82 43 83 51 84 44 85 50 86 45 87 46 88
REMARK SMILES IDX 47 89 48 90 49 91
REMARK H PARENT 78 15 78 16 78 17 70 47 40 58
REMARK Flexibility Score: inf
ROOT
ATOM      1  C   UNL A   1      38.023  20.700  25.021  1.00  0.00     0.274 C 
ENDROOT
BRANCH   1   2
ATOM      2  O   UNL A   1      36.691  21.011  25.499  1.00  0.00    -0.461 OA
BRANCH   2   3
ATOM      3  C   UNL A   1      36.026  21.878  24.697  1.00  0.00     0.326 C 
ATOM      4  O   UNL A   1      36.557  22.411  23.749  1.00  0.00    -0.251 OA
BRANCH   3   5
ATOM      5  C   UNL A   1      34.594  22.139  25.056  1.00  0.00     0.266 C 
BRANCH   5   6
ATOM      6  C   UNL A   1      34.566  23.145  26.196  1.00  0.00     0.327 C 
ATOM      7  O   UNL A   1      34.406  22.817  27.365  1.00  0.00    -0.251 OA
BRANCH   6   8
ATOM      8  O   UNL A   1      34.722  24.433  25.765  1.00  0.00    -0.459 OA
BRANCH   8   9
ATOM      9  C   UNL A   1      33.597  25.183  25.206  1.00  0.00     0.104 C 
ATOM     10  C   UNL A   1      33.769  26.651  25.631  1.00  0.00     0.056 C 
ATOM     11  C   UNL A   1      32.258  24.705  25.775  1.00  0.00     0.056 C 
ATOM     12  C   UNL A   1      33.629  25.133  23.672  1.00  0.00     0.056 C 
ENDBRANCH   8   9
ENDBRANCH   6   8
ENDBRANCH   5   6
BRANCH   5  13
ATOM     13  C   UNL A   1      33.864  20.795  25.403  1.00  0.00     0.211 C 
BRANCH  13  14
ATOM     14  N   UNL A   1      32.497  21.045  25.927  1.00  0.00    -0.354 N 
ATOM     15  H   UNL A   1      32.127  21.903  25.514  1.00  0.00     0.344 HD
ATOM     16  H   UNL A   1      32.535  21.145  26.940  1.00  0.00     0.344 HD
ATOM     17  H   UNL A   1      31.891  20.262  25.684  1.00  0.00     0.344 HD
ENDBRANCH  13  14
BRANCH  13  18
ATOM     18  C   UNL A   1      33.680  19.734  24.242  1.00  0.00     0.102 C 
BRANCH  18  19
ATOM     19  C   UNL A   1      33.636  18.249  24.544  1.00  0.00    -0.039 A 
ATOM     20  C   UNL A   1      32.435  17.624  24.916  1.00  0.00     0.004 A 
ATOM     21  C   UNL A   1      34.804  17.479  24.559  1.00  0.00     0.043 A 
ATOM     22  C   UNL A   1      32.403  16.301  25.380  1.00  0.00     0.003 A 
ATOM     23  C   UNL A   1      34.766  16.159  25.017  1.00  0.00     0.123 A 
ATOM     24  C   UNL A   1      33.583  15.570  25.446  1.00  0.00     0.039 A 
ATOM     25  F   UNL A   1      35.909  15.464  25.097  1.00  0.00    -0.207 F 
ENDBRANCH  18  19
ENDBRANCH  13  18
ENDBRANCH   5  13
ENDBRANCH   3   5
ENDBRANCH   2   3
ENDBRANCH   1   2
BRANCH   1  26
ATOM     26  C   UNL A   1      39.213  21.071  25.945  1.00  0.00     0.275 C 
BRANCH  26  27
ATOM     27  O   UNL A   1      40.030  19.948  26.373  1.00  0.00    -0.458 OA
BRANCH  27  28
ATOM     28  C   UNL A   1      41.359  20.031  26.085  1.00  0.00     0.338 C 
ATOM     29  O   UNL A   1      41.985  19.219  25.423  1.00  0.00    -0.246 OA
BRANCH  28  30
ATOM     30  C   UNL A   1      41.961  21.329  26.508  1.00  0.00     0.060 A 
ATOM     31  C   UNL A   1      42.276  22.265  25.512  1.00  0.00     0.016 A 
ATOM     32  C   UNL A   1      42.275  21.627  27.831  1.00  0.00     0.016 A 
ATOM     33  C   UNL A   1      42.780  23.534  25.831  1.00  0.00     0.010 A 
ATOM     34  C   UNL A   1      42.847  22.878  28.149  1.00  0.00     0.010 A 
ATOM     35  C   UNL A   1      43.074  23.857  27.159  1.00  0.00    -0.014 A 
BRANCH  35  36
ATOM     36  C   UNL A   1      43.778  25.133  27.475  1.00  0.00     0.031 A 
ATOM     37  C   UNL A   1      42.965  26.276  28.020  1.00  0.00     0.074 A 
ATOM     38  C   UNL A   1      45.109  25.295  27.326  1.00  0.00     0.049 A 
ATOM     39  N   UNL A   1      43.328  27.507  28.271  1.00  0.00    -0.248 NA
ATOM     40  C   UNL A   1      41.554  25.986  28.323  1.00  0.00     0.031 C 
ATOM     41  C   UNL A   1      46.047  24.260  26.908  1.00  0.00     0.029 A 
ATOM     42  N   UNL A   1      45.910  26.402  27.509  1.00  0.00    -0.354 N 
ATOM     43  C   UNL A   1      42.189  28.145  28.745  1.00  0.00     0.074 A 
ATOM     44  C   UNL A   1      41.122  27.166  28.740  1.00  0.00     0.031 C 
ATOM     45  C   UNL A   1      47.290  24.771  26.860  1.00  0.00     0.029 A 
ATOM     46  C   UNL A   1      47.232  26.195  27.174  1.00  0.00     0.049 A 
ATOM     47  H   UNL A   1      45.570  27.261  27.847  1.00  0.00     0.167 HD
ATOM     48  C   UNL A   1      42.038  29.431  29.141  1.00  0.00     0.031 A 
ATOM     49  C   UNL A   1      48.270  27.053  27.081  1.00  0.00     0.031 A 
ATOM     50  C   UNL A   1      43.085  30.418  29.108  1.00  0.00     0.049 A 
ATOM     51  C   UNL A   1      48.050  28.510  27.399  1.00  0.00     0.074 A 
ATOM     52  C   UNL A   1      43.014  31.755  29.454  1.00  0.00     0.029 A 
ATOM     53  N   UNL A   1      44.387  30.180  28.696  1.00  0.00    -0.354 N 
ATOM     54  N   UNL A   1      46.958  29.104  27.820  1.00  0.00    -0.248 NA
ATOM     55  C   UNL A   1      49.198  29.414  27.228  1.00  0.00     0.031 C 
ATOM     56  C   UNL A   1      44.256  32.342  29.191  1.00  0.00     0.029 A 
ATOM     57  C   UNL A   1      45.122  31.352  28.754  1.00  0.00     0.049 A 
ATOM     58  H   UNL A   1      44.738  29.307  28.405  1.00  0.00     0.167 HD
ATOM     59  C   UNL A   1      47.298  30.443  27.994  1.00  0.00     0.074 A 
ATOM     60  C   UNL A   1      48.698  30.568  27.646  1.00  0.00     0.031 C 
ATOM     61  C   UNL A   1      46.519  31.471  28.410  1.00  0.00     0.031 A 
BRANCH  48  62
ATOM     62  C   UNL A   1      40.661  29.855  29.575  1.00  0.00    -0.014 A 
ATOM     63  C   UNL A   1      39.638  30.090  28.639  1.00  0.00     0.010 A 
ATOM     64  C   UNL A   1      40.388  30.019  30.945  1.00  0.00     0.010 A 
ATOM     65  C   UNL A   1      38.381  30.529  29.063  1.00  0.00     0.020 A 
ATOM     66  C   UNL A   1      39.124  30.427  31.376  1.00  0.00     0.020 A 
ATOM     67  C   UNL A   1      38.134  30.699  30.429  1.00  0.00     0.054 A 
BRANCH  67  68
ATOM     68  S   UNL A   1      36.493  31.268  30.951  1.00  0.00     0.124 S 
ATOM     69  O   UNL A   1      35.985  30.102  31.669  1.00  0.00    -0.237 OA
ATOM     70  O   UNL A   1      36.808  32.428  31.780  1.00  0.00    -0.237 OA
ATOM     71  O   UNL A   1      35.813  31.569  29.694  1.00  0.00    -0.744 OA
ENDBRANCH  67  68
ENDBRANCH  48  62
BRANCH  49  72
ATOM     72  C   UNL A   1      49.606  26.578  26.605  1.00  0.00    -0.014 A 
ATOM     73  C   UNL A   1      49.959  26.645  25.245  1.00  0.00     0.010 A 
ATOM     74  C   UNL A   1      50.528  26.027  27.515  1.00  0.00     0.010 A 
ATOM     75  C   UNL A   1      51.196  26.158  24.804  1.00  0.00     0.020 A 
ATOM     76  C   UNL A   1      51.779  25.570  27.085  1.00  0.00     0.020 A 
ATOM     77  C   UNL A   1      52.100  25.628  25.729  1.00  0.00     0.054 A 
BRANCH  77  78
ATOM     78  S   UNL A   1      53.717  25.048  25.142  1.00  0.00     0.124 S 
ATOM     79  O   UNL A   1      54.609  25.505  26.203  1.00  0.00    -0.237 OA
ATOM     80  O   UNL A   1      53.521  23.603  25.058  1.00  0.00    -0.237 OA
ATOM     81  O   UNL A   1      53.878  25.723  23.856  1.00  0.00    -0.744 OA
ENDBRANCH  77  78
ENDBRANCH  49  72
BRANCH  61  82
ATOM     82  C   UNL A   1      47.165  32.825  28.564  1.00  0.00    -0.014 A 
ATOM     83  C   UNL A   1      47.165  33.767  27.521  1.00  0.00     0.010 A 
ATOM     84  C   UNL A   1      47.726  33.181  29.806  1.00  0.00     0.010 A 
ATOM     85  C   UNL A   1      47.739  35.029  27.707  1.00  0.00     0.020 A 
ATOM     86  C   UNL A   1      48.270  34.452  30.007  1.00  0.00     0.020 A 
ATOM     87  C   UNL A   1      48.284  35.364  28.951  1.00  0.00     0.054 A 
BRANCH  87  88
ATOM     88  S   UNL A   1      48.972  37.027  29.183  1.00  0.00     0.124 S 
ATOM     89  O   UNL A   1      48.302  37.784  28.129  1.00  0.00    -0.237 OA
ATOM     90  O   UNL A   1      48.565  37.353  30.548  1.00  0.00    -0.237 OA
ATOM     91  O   UNL A   1      50.409  36.837  28.996  1.00  0.00    -0.744 OA
ENDBRANCH  87  88
ENDBRANCH  61  82
ENDBRANCH  35  36
ENDBRANCH  28  30
ENDBRANCH  27  28
ENDBRANCH  26  27
ENDBRANCH   1  26
TORSDOF 21
ENDMDL
MODEL 2
REMARK VINA RESULT:      -9.7      3.483      9.152
REMARK SMILES CC(C)(C)OC(=O)[C@@H](C(=O)OCCOC(=O)c1ccc(-c2c3nc(c(-c4ccc(S(=O)(=O)[O-])cc4)c4ccc([nH]4)c(-c4ccc(S(=O)(=O)[O-])cc4)c4nc(c(-c5ccc(S(=O)(=O)[O-])cc5)c5ccc2[nH]5)C=C4)C=C3)cc1)[C@@H]([NH3+])Cc1cccc(F)c1
REMARK SMILES IDX 12 1 11 2 9 3 10 4 8 5 6 6 7 7 5 8 2 9 1 10 3 11 4 12 77 13
REMARK SMILES IDX 78 14 79 18 80 19 81 20 86 21 82 22 84 23 83 24 85 25 13 26
REMARK SMILES IDX 14 27 15 28 16 29 17 30 18 31 76 32 19 33 75 34 20 35 21 36
REMARK SMILES IDX 22 37 69 38 23 39 74 40 68 41 70 42 24 43 73 44 67 45 66 46
REMARK SMILES IDX 25 48 55 49 36 50 54 51 37 52 40 53 53 54 71 55 38 56 39 57
REMARK SMILES IDX 52 59 72 60 41 61 26 62 27 63 35 64 28 65 34 66 29 67 30 68
REMARK SMILES IDX 31 69 32 70 33 71 56 72 57 73 65 74 58 75 64 76 59 77 60 78
REMARK SMILES IDX 61 79 62 80 63 81 42 82 43 83 51 84 44 85 50 86 45 87 46 88
REMARK SMILES IDX 47 89 48 90 49 91
REMARK H PARENT 78 15 78 16 78 17 70 47 40 58
REMARK Flexibility Score: inf
ROOT
ATOM      1  C   UNL A   1      36.177  22.949  23.436  1.00  0.00     0.274 C 
ENDROOT
BRANCH   1   2
ATOM      2  O   UNL A   1      34.821  22.440  23.405  1.00  0.00    -0.461 OA
BRANCH   2   3
ATOM      3  C   UNL A   1      33.884  23.418  23.396  1.00  0.00     0.326 C 
ATOM      4  O   UNL A   1      33.791  24.209  22.485  1.00  0.00    -0.251 OA
BRANCH   3   5
ATOM      5  C   UNL A   1      32.970  23.463  24.583  1.00  0.00     0.266 C 
BRANCH   5   6
ATOM      6  C   UNL A   1      33.398  24.622  25.469  1.00  0.00     0.327 C 
ATOM      7  O   UNL A   1      34.545  24.757  25.875  1.00  0.00    -0.251 OA
BRANCH   6   8
ATOM      8  O   UNL A   1      32.366  25.470  25.762  1.00  0.00    -0.459 OA
BRANCH   8   9
ATOM      9  C   UNL A   1      32.173  26.711  25.011  1.00  0.00     0.104 C 
ATOM     10  C   UNL A   1      33.551  27.143  24.480  1.00  0.00     0.056 C 
ATOM     11  C   UNL A   1      31.662  27.844  25.907  1.00  0.00     0.056 C 
ATOM     12  C   UNL A   1      31.260  26.469  23.802  1.00  0.00     0.056 C 
ENDBRANCH   8   9
ENDBRANCH   6   8
ENDBRANCH   5   6
BRANCH   5  13
ATOM     13  C   UNL A   1      32.973  22.084  25.330  1.00  0.00     0.211 C 
BRANCH  13  14
ATOM     14  N   UNL A   1      32.664  22.252  26.773  1.00  0.00    -0.354 N 
ATOM     15  H   UNL A   1      33.521  22.478  27.280  1.00  0.00     0.344 HD
ATOM     16  H   UNL A   1      32.272  21.386  27.139  1.00  0.00     0.344 HD
ATOM     17  H   UNL A   1      31.990  23.008  26.890  1.00  0.00     0.344 HD
ENDBRANCH  13  14
BRANCH  13  18
ATOM     18  C   UNL A   1      31.979  20.964  24.816  1.00  0.00     0.102 C 
BRANCH  18  19
ATOM     19  C   UNL A   1      32.490  19.593  24.421  1.00  0.00    -0.039 A 
ATOM     20  C   UNL A   1      32.482  19.179  23.078  1.00  0.00     0.004 A 
ATOM     21  C   UNL A   1      32.891  18.663  25.387  1.00  0.00     0.043 A 
ATOM     22  C   UNL A   1      32.771  17.858  22.710  1.00  0.00     0.003 A 
ATOM     23  C   UNL A   1      33.184  17.349  25.014  1.00  0.00     0.123 A 
ATOM     24  C   UNL A   1      33.108  16.932  23.690  1.00  0.00     0.039 A 
ATOM     25  F   UNL A   1      33.489  16.454  25.964  1.00  0.00    -0.207 F 
ENDBRANCH  18  19
ENDBRANCH  13  18
ENDBRANCH   5  13
ENDBRANCH   3   5
ENDBRANCH   2   3
ENDBRANCH   1   2
BRANCH   1  26
ATOM     26  C   UNL A   1      37.142  22.335  24.485  1.00  0.00     0.275 C 
BRANCH  26  27
ATOM     27  O   UNL A   1      37.464  23.205  25.604  1.00  0.00    -0.458 OA
BRANCH  27  28
ATOM     28  C   UNL A   1      38.663  22.980  26.210  1.00  0.00     0.338 C 
ATOM     29  O   UNL A   1      39.274  21.924  26.184  1.00  0.00    -0.246 OA
BRANCH  28  30
ATOM     30  C   UNL A   1      39.269  24.223  26.770  1.00  0.00     0.060 A 
ATOM     31  C   UNL A   1      39.012  24.534  28.114  1.00  0.00     0.016 A 
ATOM     32  C   UNL A   1      40.025  25.111  26.010  1.00  0.00     0.016 A 
ATOM     33  C   UNL A   1      39.599  25.646  28.734  1.00  0.00     0.010 A 
ATOM     34  C   UNL A   1      40.561  26.268  26.614  1.00  0.00     0.010 A 
ATOM     35  C   UNL A   1      40.383  26.531  27.988  1.00  0.00    -0.014 A 
BRANCH  35  36
ATOM     36  C   UNL A   1      40.855  27.806  28.603  1.00  0.00     0.031 A 
ATOM     37  C   UNL A   1      42.292  27.896  29.038  1.00  0.00     0.074 A 
ATOM     38  C   UNL A   1      40.060  28.886  28.755  1.00  0.00     0.049 A 
ATOM     39  N   UNL A   1      42.905  28.852  29.686  1.00  0.00    -0.248 NA
ATOM     40  C   UNL A   1      43.150  26.752  28.691  1.00  0.00     0.031 C 
ATOM     41  C   UNL A   1      38.680  28.995  28.297  1.00  0.00     0.029 A 
ATOM     42  N   UNL A   1      40.302  30.108  29.345  1.00  0.00    -0.354 N 
ATOM     43  C   UNL A   1      44.216  28.421  29.840  1.00  0.00     0.074 A 
ATOM     44  C   UNL A   1      44.306  27.114  29.223  1.00  0.00     0.031 C 
ATOM     45  C   UNL A   1      38.192  30.205  28.620  1.00  0.00     0.029 A 
ATOM     46  C   UNL A   1      39.201  30.939  29.377  1.00  0.00     0.049 A 
ATOM     47  H   UNL A   1      41.179  30.365  29.709  1.00  0.00     0.167 HD
ATOM     48  C   UNL A   1      45.250  29.048  30.447  1.00  0.00     0.031 A 
ATOM     49  C   UNL A   1      39.003  32.130  29.983  1.00  0.00     0.031 A 
ATOM     50  C   UNL A   1      45.154  30.329  31.097  1.00  0.00     0.049 A 
ATOM     51  C   UNL A   1      40.131  32.750  30.768  1.00  0.00     0.074 A 
ATOM     52  C   UNL A   1      46.141  31.025  31.772  1.00  0.00     0.029 A 
ATOM     53  N   UNL A   1      44.004  31.099  31.166  1.00  0.00    -0.354 N 
ATOM     54  N   UNL A   1      41.358  32.316  30.928  1.00  0.00    -0.248 NA
ATOM     55  C   UNL A   1      39.847  34.020  31.456  1.00  0.00     0.031 C 
ATOM     56  C   UNL A   1      45.572  32.186  32.303  1.00  0.00     0.029 A 
ATOM     57  C   UNL A   1      44.249  32.251  31.894  1.00  0.00     0.049 A 
ATOM     58  H   UNL A   1      43.139  30.862  30.757  1.00  0.00     0.167 HD
ATOM     59  C   UNL A   1      42.001  33.274  31.707  1.00  0.00     0.074 A 
ATOM     60  C   UNL A   1      41.031  34.316  31.974  1.00  0.00     0.031 C 
ATOM     61  C   UNL A   1      43.281  33.288  32.154  1.00  0.00     0.031 A 
BRANCH  48  62
ATOM     62  C   UNL A   1      46.562  28.312  30.495  1.00  0.00    -0.014 A 
ATOM     63  C   UNL A   1      47.525  28.464  29.480  1.00  0.00     0.010 A 
ATOM     64  C   UNL A   1      46.834  27.452  31.574  1.00  0.00     0.010 A 
ATOM     65  C   UNL A   1      48.715  27.734  29.521  1.00  0.00     0.020 A 
ATOM     66  C   UNL A   1      48.036  26.744  31.636  1.00  0.00     0.020 A 
ATOM     67  C   UNL A   1      48.960  26.874  30.597  1.00  0.00     0.054 A 
BRANCH  67  68
ATOM     68  S   UNL A   1      50.514  25.939  30.625  1.00  0.00     0.124 S 
ATOM     69  O   UNL A   1      50.224  24.906  31.615  1.00  0.00    -0.237 OA
ATOM     70  O   UNL A   1      50.629  25.474  29.246  1.00  0.00    -0.237 OA
ATOM     71  O   UNL A   1      51.508  26.929  31.031  1.00  0.00    -0.744 OA
ENDBRANCH  67  68
ENDBRANCH  48  62
BRANCH  49  72
ATOM     72  C   UNL A   1      37.664  32.793  29.932  1.00  0.00    -0.014 A 
ATOM     73  C   UNL A   1      36.733  32.632  30.974  1.00  0.00     0.010 A 
ATOM     74  C   UNL A   1      37.301  33.573  28.818  1.00  0.00     0.010 A 
ATOM     75  C   UNL A   1      35.466  33.223  30.897  1.00  0.00     0.020 A 
ATOM     76  C   UNL A   1      36.049  34.194  28.751  1.00  0.00     0.020 A 
ATOM     77  C   UNL A   1      35.134  34.004  29.786  1.00  0.00     0.054 A 
BRANCH  77  78
ATOM     78  S   UNL A   1      33.503  34.801  29.730  1.00  0.00     0.124 S 
ATOM     79  O   UNL A   1      32.788  33.967  28.769  1.00  0.00    -0.237 OA
ATOM     80  O   UNL A   1      33.055  34.696  31.117  1.00  0.00    -0.237 OA
ATOM     81  O   UNL A   1      33.800  36.159  29.281  1.00  0.00    -0.744 OA
ENDBRANCH  77  78
ENDBRANCH  49  72
BRANCH  61  82
ATOM     82  C   UNL A   1      43.736  34.491  32.942  1.00  0.00    -0.014 A 
ATOM     83  C   UNL A   1      44.253  35.635  32.309  1.00  0.00     0.010 A 
ATOM     84  C   UNL A   1      43.580  34.496  34.341  1.00  0.00     0.010 A 
ATOM     85  C   UNL A   1      44.630  36.751  33.064  1.00  0.00     0.020 A 
ATOM     86  C   UNL A   1      43.925  35.620  35.096  1.00  0.00     0.020 A 
ATOM     87  C   UNL A   1      44.460  36.737  34.452  1.00  0.00     0.054 A 
BRANCH  87  88
ATOM     88  S   UNL A   1      44.907  38.217  35.402  1.00  0.00     0.124 S 
ATOM     89  O   UNL A   1      46.084  38.696  34.683  1.00  0.00    -0.237 OA
ATOM     90  O   UNL A   1      43.712  39.049  35.276  1.00  0.00    -0.237 OA
ATOM     91  O   UNL A   1      45.163  37.703  36.745  1.00  0.00    -0.744 OA
ENDBRANCH  87  88
ENDBRANCH  61  82
ENDBRANCH  35  36
ENDBRANCH  28  30
ENDBRANCH  27  28
ENDBRANCH  26  27
ENDBRANCH   1  26
TORSDOF 21
ENDMDL
MODEL 3
REMARK VINA RESULT:      -9.4      2.479      8.818
REMARK SMILES CC(C)(C)OC(=O)[C@@H](C(=O)OCCOC(=O)c1ccc(-c2c3nc(c(-c4ccc(S(=O)(=O)[O-])cc4)c4ccc([nH]4)c(-c4ccc(S(=O)(=O)[O-])cc4)c4nc(c(-c5ccc(S(=O)(=O)[O-])cc5)c5ccc2[nH]5)C=C4)C=C3)cc1)[C@@H]([NH3+])Cc1cccc(F)c1
REMARK SMILES IDX 12 1 11 2 9 3 10 4 8 5 6 6 7 7 5 8 2 9 1 10 3 11 4 12 77 13
REMARK SMILES IDX 78 14 79 18 80 19 81 20 86 21 82 22 84 23 83 24 85 25 13 26
REMARK SMILES IDX 14 27 15 28 16 29 17 30 18 31 76 32 19 33 75 34 20 35 21 36
REMARK SMILES IDX 22 37 69 38 23 39 74 40 68 41 70 42 24 43 73 44 67 45 66 46
REMARK SMILES IDX 25 48 55 49 36 50 54 51 37 52 40 53 53 54 71 55 38 56 39 57
REMARK SMILES IDX 52 59 72 60 41 61 26 62 27 63 35 64 28 65 34 66 29 67 30 68
REMARK SMILES IDX 31 69 32 70 33 71 56 72 57 73 65 74 58 75 64 76 59 77 60 78
REMARK SMILES IDX 61 79 62 80 63 81 42 82 43 83 51 84 44 85 50 86 45 87 46 88
REMARK SMILES IDX 47 89 48 90 49 91
REMARK H PARENT 78 15 78 16 78 17 70 47 40 58
REMARK Flexibility Score: inf
ROOT
ATOM      1  C   UNL A   1      36.894  22.544  24.429  1.00  0.00     0.274 C 
ENDROOT
BRANCH   1   2
ATOM      2  O   UNL A   1      35.586  21.933  24.308  1.00  0.00    -0.461 OA
BRANCH   2   3
ATOM      3  C   UNL A   1      34.668  22.746  23.732  1.00  0.00     0.326 C 
ATOM      4  O   UNL A   1      34.943  23.460  22.794  1.00  0.00    -0.251 OA
BRANCH   3   5
ATOM      5  C   UNL A   1      33.293  22.710  24.327  1.00  0.00     0.266 C 
BRANCH   5   6
ATOM      6  C   UNL A   1      33.125  23.937  25.209  1.00  0.00     0.327 C 
ATOM      7  O   UNL A   1      33.941  24.253  26.066  1.00  0.00    -0.251 OA
BRANCH   6   8
ATOM      8  O   UNL A   1      31.970  24.621  24.946  1.00  0.00    -0.459 OA
BRANCH   8   9
ATOM      9  C   UNL A   1      31.948  25.716  23.977  1.00  0.00     0.104 C 
ATOM     10  C   UNL A   1      30.925  26.750  24.478  1.00  0.00     0.056 C 
ATOM     11  C   UNL A   1      31.471  25.246  22.599  1.00  0.00     0.056 C 
ATOM     12  C   UNL A   1      33.318  26.405  23.914  1.00  0.00     0.056 C 
ENDBRANCH   8   9
ENDBRANCH   6   8
ENDBRANCH   5   6
BRANCH   5  13
ATOM     13  C   UNL A   1      33.064  21.362  25.096  1.00  0.00     0.211 C 
BRANCH  13  14
ATOM     14  N   UNL A   1      32.307  21.583  26.355  1.00  0.00    -0.354 N 
ATOM     15  H   UNL A   1      32.817  22.240  26.947  1.00  0.00     0.344 HD
ATOM     16  H   UNL A   1      32.199  20.696  26.846  1.00  0.00     0.344 HD
ATOM     17  H   UNL A   1      31.388  21.966  26.136  1.00  0.00     0.344 HD
ENDBRANCH  13  14
BRANCH  13  18
ATOM     18  C   UNL A   1      32.293  20.204  24.341  1.00  0.00     0.102 C 
BRANCH  18  19
ATOM     19  C   UNL A   1      32.788  18.772  24.402  1.00  0.00    -0.039 A 
ATOM     20  C   UNL A   1      33.466  18.195  23.316  1.00  0.00     0.004 A 
ATOM     21  C   UNL A   1      32.500  17.953  25.500  1.00  0.00     0.043 A 
ATOM     22  C   UNL A   1      33.767  16.827  23.273  1.00  0.00     0.003 A 
ATOM     23  C   UNL A   1      32.807  16.591  25.455  1.00  0.00     0.123 A 
ATOM     24  C   UNL A   1      33.418  16.016  24.347  1.00  0.00     0.039 A 
ATOM     25  F   UNL A   1      32.451  15.808  26.484  1.00  0.00    -0.207 F 
ENDBRANCH  18  19
ENDBRANCH  13  18
ENDBRANCH   5  13
ENDBRANCH   3   5
ENDBRANCH   2   3
ENDBRANCH   1   2
BRANCH   1  26
ATOM     26  C   UNL A   1      37.965  21.773  25.245  1.00  0.00     0.275 C 
BRANCH  26  27
ATOM     27  O   UNL A   1      38.524  22.506  26.368  1.00  0.00    -0.458 OA
BRANCH  27  28
ATOM     28  C   UNL A   1      39.884  22.523  26.453  1.00  0.00     0.338 C 
ATOM     29  O   UNL A   1      40.619  21.604  26.130  1.00  0.00    -0.246 OA
BRANCH  28  30
ATOM     30  C   UNL A   1      40.423  23.867  26.815  1.00  0.00     0.060 A 
ATOM     31  C   UNL A   1      40.980  24.033  28.092  1.00  0.00     0.016 A 
ATOM     32  C   UNL A   1      40.346  24.970  25.969  1.00  0.00     0.016 A 
ATOM     33  C   UNL A   1      41.568  25.243  28.483  1.00  0.00     0.010 A 
ATOM     34  C   UNL A   1      40.876  26.210  26.387  1.00  0.00     0.010 A 
ATOM     35  C   UNL A   1      41.523  26.352  27.632  1.00  0.00    -0.014 A 
BRANCH  35  36
ATOM     36  C   UNL A   1      41.985  27.684  28.120  1.00  0.00     0.031 A 
ATOM     37  C   UNL A   1      43.463  27.965  28.124  1.00  0.00     0.074 A 
ATOM     38  C   UNL A   1      41.138  28.653  28.525  1.00  0.00     0.049 A 
ATOM     39  N   UNL A   1      44.110  28.999  28.594  1.00  0.00    -0.248 NA
ATOM     40  C   UNL A   1      44.323  26.939  27.512  1.00  0.00     0.031 C 
ATOM     41  C   UNL A   1      39.682  28.575  28.489  1.00  0.00     0.029 A 
ATOM     42  N   UNL A   1      41.382  29.902  29.054  1.00  0.00    -0.354 N 
ATOM     43  C   UNL A   1      45.453  28.745  28.351  1.00  0.00     0.074 A 
ATOM     44  C   UNL A   1      45.527  27.454  27.698  1.00  0.00     0.031 C 
ATOM     45  C   UNL A   1      39.158  29.715  28.972  1.00  0.00     0.029 A 
ATOM     46  C   UNL A   1      40.240  30.582  29.427  1.00  0.00     0.049 A 
ATOM     47  H   UNL A   1      42.286  30.274  29.157  1.00  0.00     0.167 HD
ATOM     48  C   UNL A   1      46.530  29.508  28.652  1.00  0.00     0.031 A 
ATOM     49  C   UNL A   1      40.077  31.743  30.097  1.00  0.00     0.031 A 
ATOM     50  C   UNL A   1      46.464  30.771  29.337  1.00  0.00     0.049 A 
ATOM     51  C   UNL A   1      41.294  32.513  30.540  1.00  0.00     0.074 A 
ATOM     52  C   UNL A   1      47.506  31.597  29.718  1.00  0.00     0.029 A 
ATOM     53  N   UNL A   1      45.294  31.386  29.757  1.00  0.00    -0.354 N 
ATOM     54  N   UNL A   1      42.560  32.245  30.327  1.00  0.00    -0.248 NA
ATOM     55  C   UNL A   1      41.062  33.742  31.316  1.00  0.00     0.031 C 
ATOM     56  C   UNL A   1      46.972  32.680  30.423  1.00  0.00     0.029 A 
ATOM     57  C   UNL A   1      45.591  32.567  30.415  1.00  0.00     0.049 A 
ATOM     58  H   UNL A   1      44.386  31.034  29.608  1.00  0.00     0.167 HD
ATOM     59  C   UNL A   1      43.273  33.286  30.914  1.00  0.00     0.074 A 
ATOM     60  C   UNL A   1      42.298  34.195  31.478  1.00  0.00     0.031 C 
ATOM     61  C   UNL A   1      44.615  33.472  30.973  1.00  0.00     0.031 A 
BRANCH  48  62
ATOM     62  C   UNL A   1      47.882  28.949  28.297  1.00  0.00    -0.014 A 
ATOM     63  C   UNL A   1      48.604  28.149  29.201  1.00  0.00     0.010 A 
ATOM     64  C   UNL A   1      48.439  29.233  27.037  1.00  0.00     0.010 A 
ATOM     65  C   UNL A   1      49.878  27.682  28.869  1.00  0.00     0.020 A 
ATOM     66  C   UNL A   1      49.699  28.741  26.688  1.00  0.00     0.020 A 
ATOM     67  C   UNL A   1      50.419  27.986  27.615  1.00  0.00     0.054 A 
BRANCH  67  68
ATOM     68  S   UNL A   1      52.074  27.364  27.210  1.00  0.00     0.124 S 
ATOM     69  O   UNL A   1      52.291  26.378  28.264  1.00  0.00    -0.237 OA
ATOM     70  O   UNL A   1      51.888  26.819  25.868  1.00  0.00    -0.237 OA
ATOM     71  O   UNL A   1      52.919  28.553  27.286  1.00  0.00    -0.744 OA
ENDBRANCH  67  68
ENDBRANCH  48  62
BRANCH  49  72
ATOM     72  C   UNL A   1      38.707  32.225  30.454  1.00  0.00    -0.014 A 
ATOM     73  C   UNL A   1      37.995  33.086  29.599  1.00  0.00     0.010 A 
ATOM     74  C   UNL A   1      38.115  31.843  31.673  1.00  0.00     0.010 A 
ATOM     75  C   UNL A   1      36.730  33.567  29.962  1.00  0.00     0.020 A 
ATOM     76  C   UNL A   1      36.838  32.293  32.025  1.00  0.00     0.020 A 
ATOM     77  C   UNL A   1      36.158  33.162  31.172  1.00  0.00     0.054 A 
BRANCH  77  78
ATOM     78  S   UNL A   1      34.497  33.757  31.599  1.00  0.00     0.124 S 
ATOM     79  O   UNL A   1      33.947  32.625  32.338  1.00  0.00    -0.237 OA
ATOM     80  O   UNL A   1      34.785  34.951  32.391  1.00  0.00    -0.237 OA
ATOM     81  O   UNL A   1      33.880  34.015  30.300  1.00  0.00    -0.744 OA
ENDBRANCH  77  78
ENDBRANCH  49  72
BRANCH  61  82
ATOM     82  C   UNL A   1      45.122  34.732  31.629  1.00  0.00    -0.014 A 
ATOM     83  C   UNL A   1      45.279  35.928  30.908  1.00  0.00     0.010 A 
ATOM     84  C   UNL A   1      45.381  34.730  33.013  1.00  0.00     0.010 A 
ATOM     85  C   UNL A   1      45.713  37.090  31.552  1.00  0.00     0.020 A 
ATOM     86  C   UNL A   1      45.783  35.897  33.667  1.00  0.00     0.020 A 
ATOM     87  C   UNL A   1      45.959  37.067  32.929  1.00  0.00     0.054 A 
BRANCH  87  88
ATOM     88  S   UNL A   1      46.469  38.603  33.751  1.00  0.00     0.124 S 
ATOM     89  O   UNL A   1      47.922  38.462  33.785  1.00  0.00    -0.237 OA
ATOM     90  O   UNL A   1      45.958  39.632  32.848  1.00  0.00    -0.237 OA
ATOM     91  O   UNL A   1      45.805  38.537  35.051  1.00  0.00    -0.744 OA
ENDBRANCH  87  88
ENDBRANCH  61  82
ENDBRANCH  35  36
ENDBRANCH  28  30
ENDBRANCH  27  28
ENDBRANCH  26  27
ENDBRANCH   1  26
TORSDOF 21
ENDMDL
