MODEL 1
REMARK VINA RESULT:      -8.8      0.000      0.000
REMARK SMILES O=C(CCCC[C@@H]1CCSS1)OCCOC(=O)c1ccc(-c2c3nc(c(-c4ccc(S(=O)(=O)[O-])cc4)c4ccc([nH]4)c(-c4ccc(S(=O)(=O)[O-])cc4)c4nc(c(-c5ccc(S(=O)(=O)[O-])cc5)c5ccc2[nH]5)C=C4)C=C3)cc1
REMARK SMILES IDX 13 1 12 2 2 3 1 4 3 5 4 6 5 7 6 8 7 9 8 10 11 11 9 12 10 13
REMARK SMILES IDX 14 14 15 15 16 16 17 17 18 18 19 19 77 20 20 21 76 22 21 23
REMARK SMILES IDX 22 24 23 25 70 26 24 27 75 28 69 29 71 30 25 31 74 32 68 33
REMARK SMILES IDX 67 34 26 36 56 37 37 38 55 39 38 40 41 41 54 42 72 43 39 44
REMARK SMILES IDX 40 45 53 47 73 48 42 49 27 50 28 51 36 52 29 53 35 54 30 55
REMARK SMILES IDX 31 56 32 57 33 58 34 59 57 60 58 61 66 62 59 63 65 64 60 65
REMARK SMILES IDX 61 66 62 67 63 68 64 69 43 70 44 71 52 72 45 73 51 74 46 75
REMARK SMILES IDX 47 76 48 77 49 78 50 79
REMARK H PARENT 71 35 41 46
REMARK Flexibility Score: inf
ROOT
ATOM      1  C   UNL A   1      41.170  19.655  26.119  1.00  0.00     0.274 C 
ENDROOT
BRANCH   1   2
ATOM      2  O   UNL A   1      42.586  19.850  25.959  1.00  0.00    -0.462 OA
BRANCH   2   3
ATOM      3  C   UNL A   1      43.369  18.777  25.670  1.00  0.00     0.305 C 
ATOM      4  O   UNL A   1      43.337  17.766  26.362  1.00  0.00    -0.252 OA
BRANCH   3   5
ATOM      5  C   UNL A   1      44.396  18.975  24.571  1.00  0.00     0.123 C 
BRANCH   5   6
ATOM      6  C   UNL A   1      45.587  19.842  24.965  1.00  0.00     0.012 C 
BRANCH   6   7
ATOM      7  C   UNL A   1      45.393  21.344  24.750  1.00  0.00     0.002 C 
BRANCH   7   8
ATOM      8  C   UNL A   1      45.830  22.307  25.866  1.00  0.00     0.015 C 
BRANCH   8   9
ATOM      9  C   UNL A   1      44.913  23.505  26.152  1.00  0.00     0.059 C 
ATOM     10  C   UNL A   1      44.199  24.046  24.901  1.00  0.00     0.027 C 
ATOM     11  S   UNL A   1      45.964  24.874  26.788  1.00  0.00    -0.091 SA
ATOM     12  C   UNL A   1      43.730  25.481  25.113  1.00  0.00     0.083 C 
ATOM     13  S   UNL A   1      45.191  26.388  25.654  1.00  0.00    -0.094 SA
ENDBRANCH   8   9
ENDBRANCH   7   8
ENDBRANCH   6   7
ENDBRANCH   5   6
ENDBRANCH   3   5
ENDBRANCH   2   3
ENDBRANCH   1   2
BRANCH   1  14
ATOM     14  C   UNL A   1      40.503  20.734  26.979  1.00  0.00     0.275 C 
BRANCH  14  15
ATOM     15  O   UNL A   1      40.567  22.029  26.362  1.00  0.00    -0.458 OA
BRANCH  15  16
ATOM     16  C   UNL A   1      39.374  22.680  26.308  1.00  0.00     0.338 C 
ATOM     17  O   UNL A   1      38.308  22.207  25.967  1.00  0.00    -0.246 OA
BRANCH  16  18
ATOM     18  C   UNL A   1      39.512  24.036  26.892  1.00  0.00     0.060 A 
ATOM     19  C   UNL A   1      40.138  25.016  26.110  1.00  0.00     0.016 A 
ATOM     20  C   UNL A   1      39.058  24.349  28.177  1.00  0.00     0.016 A 
ATOM     21  C   UNL A   1      40.357  26.292  26.627  1.00  0.00     0.010 A 
ATOM     22  C   UNL A   1      39.277  25.631  28.695  1.00  0.00     0.010 A 
ATOM     23  C   UNL A   1      39.963  26.596  27.936  1.00  0.00    -0.014 A 
BRANCH  23  24
ATOM     24  C   UNL A   1      40.440  27.847  28.575  1.00  0.00     0.031 A 
ATOM     25  C   UNL A   1      41.868  27.912  29.048  1.00  0.00     0.074 A 
ATOM     26  C   UNL A   1      39.636  28.917  28.722  1.00  0.00     0.049 A 
ATOM     27  N   UNL A   1      42.502  28.892  29.636  1.00  0.00    -0.248 NA
ATOM     28  C   UNL A   1      42.687  26.709  28.826  1.00  0.00     0.031 C 
ATOM     29  C   UNL A   1      38.247  29.003  28.278  1.00  0.00     0.029 A 
ATOM     30  N   UNL A   1      39.885  30.140  29.294  1.00  0.00    -0.354 N 
ATOM     31  C   UNL A   1      43.793  28.424  29.856  1.00  0.00     0.074 A 
ATOM     32  C   UNL A   1      43.840  27.063  29.369  1.00  0.00     0.031 C 
ATOM     33  C   UNL A   1      37.762  30.215  28.602  1.00  0.00     0.029 A 
ATOM     34  C   UNL A   1      38.798  30.981  29.293  1.00  0.00     0.049 A 
ATOM     35  H   UNL A   1      40.760  30.391  29.668  1.00  0.00     0.167 HD
ATOM     36  C   UNL A   1      44.850  29.069  30.405  1.00  0.00     0.031 A 
ATOM     37  C   UNL A   1      38.654  32.223  29.800  1.00  0.00     0.031 A 
ATOM     38  C   UNL A   1      44.808  30.413  30.909  1.00  0.00     0.049 A 
ATOM     39  C   UNL A   1      39.823  32.898  30.469  1.00  0.00     0.074 A 
ATOM     40  C   UNL A   1      45.831  31.151  31.478  1.00  0.00     0.029 A 
ATOM     41  N   UNL A   1      43.680  31.219  30.914  1.00  0.00    -0.354 N 
ATOM     42  N   UNL A   1      41.045  32.453  30.640  1.00  0.00    -0.248 NA
ATOM     43  C   UNL A   1      39.595  34.250  31.004  1.00  0.00     0.031 C 
ATOM     44  C   UNL A   1      45.309  32.390  31.869  1.00  0.00     0.029 A 
ATOM     45  C   UNL A   1      43.975  32.439  31.496  1.00  0.00     0.049 A 
ATOM     46  H   UNL A   1      42.800  30.962  30.557  1.00  0.00     0.167 HD
ATOM     47  C   UNL A   1      41.738  33.481  31.274  1.00  0.00     0.074 A 
ATOM     48  C   UNL A   1      40.801  34.571  31.453  1.00  0.00     0.031 C 
ATOM     49  C   UNL A   1      43.036  33.520  31.665  1.00  0.00     0.031 A 
BRANCH  36  50
ATOM     50  C   UNL A   1      46.135  28.297  30.518  1.00  0.00    -0.014 A 
ATOM     51  C   UNL A   1      46.439  27.561  31.677  1.00  0.00     0.010 A 
ATOM     52  C   UNL A   1      47.051  28.311  29.451  1.00  0.00     0.010 A 
ATOM     53  C   UNL A   1      47.662  26.895  31.789  1.00  0.00     0.020 A 
ATOM     54  C   UNL A   1      48.264  27.625  29.549  1.00  0.00     0.020 A 
ATOM     55  C   UNL A   1      48.571  26.941  30.727  1.00  0.00     0.054 A 
BRANCH  55  56
ATOM     56  S   UNL A   1      50.158  26.080  30.899  1.00  0.00     0.124 S 
ATOM     57  O   UNL A   1      50.489  25.781  29.508  1.00  0.00    -0.237 OA
ATOM     58  O   UNL A   1      51.003  27.083  31.542  1.00  0.00    -0.237 OA
ATOM     59  O   UNL A   1      49.835  24.921  31.725  1.00  0.00    -0.744 OA
ENDBRANCH  55  56
ENDBRANCH  36  50
BRANCH  37  60
ATOM     60  C   UNL A   1      37.339  32.913  29.700  1.00  0.00    -0.014 A 
ATOM     61  C   UNL A   1      36.925  33.495  28.490  1.00  0.00     0.010 A 
ATOM     62  C   UNL A   1      36.494  32.989  30.822  1.00  0.00     0.010 A 
ATOM     63  C   UNL A   1      35.692  34.149  28.405  1.00  0.00     0.020 A 
ATOM     64  C   UNL A   1      35.252  33.623  30.735  1.00  0.00     0.020 A 
ATOM     65  C   UNL A   1      34.862  34.207  29.529  1.00  0.00     0.054 A 
BRANCH  65  66
ATOM     66  S   UNL A   1      33.241  35.009  29.384  1.00  0.00     0.124 S 
ATOM     67  O   UNL A   1      33.606  36.361  28.974  1.00  0.00    -0.237 OA
ATOM     68  O   UNL A   1      32.576  34.196  28.367  1.00  0.00    -0.237 OA
ATOM     69  O   UNL A   1      32.681  34.888  30.728  1.00  0.00    -0.744 OA
ENDBRANCH  65  66
ENDBRANCH  37  60
BRANCH  49  70
ATOM     70  C   UNL A   1      43.545  34.791  32.290  1.00  0.00    -0.014 A 
ATOM     71  C   UNL A   1      44.080  35.827  31.506  1.00  0.00     0.010 A 
ATOM     72  C   UNL A   1      43.407  34.982  33.678  1.00  0.00     0.010 A 
ATOM     73  C   UNL A   1      44.486  37.026  32.102  1.00  0.00     0.020 A 
ATOM     74  C   UNL A   1      43.791  36.186  34.273  1.00  0.00     0.020 A 
ATOM     75  C   UNL A   1      44.337  37.198  33.482  1.00  0.00     0.054 A 
BRANCH  75  76
ATOM     76  S   UNL A   1      44.810  38.785  34.223  1.00  0.00     0.124 S 
ATOM     77  O   UNL A   1      45.750  39.312  33.239  1.00  0.00    -0.237 OA
ATOM     78  O   UNL A   1      43.534  39.491  34.316  1.00  0.00    -0.237 OA
ATOM     79  O   UNL A   1      45.399  38.405  35.506  1.00  0.00    -0.744 OA
ENDBRANCH  75  76
ENDBRANCH  49  70
ENDBRANCH  23  24
ENDBRANCH  16  18
ENDBRANCH  15  16
ENDBRANCH  14  15
ENDBRANCH   1  14
TORSDOF 18
ENDMDL
MODEL 2
REMARK VINA RESULT:      -8.7      5.321     11.992
REMARK SMILES O=C(CCCC[C@@H]1CCSS1)OCCOC(=O)c1ccc(-c2c3nc(c(-c4ccc(S(=O)(=O)[O-])cc4)c4ccc([nH]4)c(-c4ccc(S(=O)(=O)[O-])cc4)c4nc(c(-c5ccc(S(=O)(=O)[O-])cc5)c5ccc2[nH]5)C=C4)C=C3)cc1
REMARK SMILES IDX 13 1 12 2 2 3 1 4 3 5 4 6 5 7 6 8 7 9 8 10 11 11 9 12 10 13
REMARK SMILES IDX 14 14 15 15 16 16 17 17 18 18 19 19 77 20 20 21 76 22 21 23
REMARK SMILES IDX 22 24 23 25 70 26 24 27 75 28 69 29 71 30 25 31 74 32 68 33
REMARK SMILES IDX 67 34 26 36 56 37 37 38 55 39 38 40 41 41 54 42 72 43 39 44
REMARK SMILES IDX 40 45 53 47 73 48 42 49 27 50 28 51 36 52 29 53 35 54 30 55
REMARK SMILES IDX 31 56 32 57 33 58 34 59 57 60 58 61 66 62 59 63 65 64 60 65
REMARK SMILES IDX 61 66 62 67 63 68 64 69 43 70 44 71 52 72 45 73 51 74 46 75
REMARK SMILES IDX 47 76 48 77 49 78 50 79
REMARK H PARENT 71 35 41 46
REMARK Flexibility Score: inf
ROOT
ATOM      1  C   UNL A   1      31.813  29.191  27.085  1.00  0.00     0.274 C 
ENDROOT
BRANCH   1   2
ATOM      2  O   UNL A   1      31.614  28.485  25.849  1.00  0.00    -0.462 OA
BRANCH   2   3
ATOM      3  C   UNL A   1      31.069  27.240  25.881  1.00  0.00     0.305 C 
ATOM      4  O   UNL A   1      31.133  26.549  26.892  1.00  0.00    -0.252 OA
BRANCH   3   5
ATOM      5  C   UNL A   1      30.549  26.702  24.562  1.00  0.00     0.123 C 
BRANCH   5   6
ATOM      6  C   UNL A   1      30.016  27.765  23.609  1.00  0.00     0.012 C 
BRANCH   6   7
ATOM      7  C   UNL A   1      28.511  27.702  23.346  1.00  0.00     0.002 C 
BRANCH   7   8
ATOM      8  C   UNL A   1      27.724  29.021  23.261  1.00  0.00     0.015 C 
BRANCH   8   9
ATOM      9  C   UNL A   1      28.525  30.292  22.943  1.00  0.00     0.059 C 
ATOM     10  C   UNL A   1      27.937  31.564  23.578  1.00  0.00     0.027 C 
ATOM     11  S   UNL A   1      28.474  30.544  21.122  1.00  0.00    -0.091 SA
ATOM     12  C   UNL A   1      28.425  32.815  22.855  1.00  0.00     0.083 C 
ATOM     13  S   UNL A   1      28.044  32.541  21.114  1.00  0.00    -0.094 SA
ENDBRANCH   8   9
ENDBRANCH   7   8
ENDBRANCH   6   7
ENDBRANCH   5   6
ENDBRANCH   3   5
ENDBRANCH   2   3
ENDBRANCH   1   2
BRANCH   1  14
ATOM     14  C   UNL A   1      32.295  30.633  26.889  1.00  0.00     0.275 C 
BRANCH  14  15
ATOM     15  O   UNL A   1      33.722  30.708  26.748  1.00  0.00    -0.458 OA
BRANCH  15  16
ATOM     16  C   UNL A   1      34.323  31.575  27.608  1.00  0.00     0.338 C 
ATOM     17  O   UNL A   1      33.834  32.584  28.073  1.00  0.00    -0.246 OA
BRANCH  16  18
ATOM     18  C   UNL A   1      35.629  31.027  28.046  1.00  0.00     0.060 A 
ATOM     19  C   UNL A   1      35.716  29.642  28.242  1.00  0.00     0.016 A 
ATOM     20  C   UNL A   1      36.744  31.839  28.275  1.00  0.00     0.016 A 
ATOM     21  C   UNL A   1      36.898  29.073  28.716  1.00  0.00     0.010 A 
ATOM     22  C   UNL A   1      37.930  31.268  28.751  1.00  0.00     0.010 A 
ATOM     23  C   UNL A   1      38.000  29.888  29.011  1.00  0.00    -0.014 A 
BRANCH  23  24
ATOM     24  C   UNL A   1      39.145  29.327  29.769  1.00  0.00     0.031 A 
ATOM     25  C   UNL A   1      39.360  29.787  31.186  1.00  0.00     0.074 A 
ATOM     26  C   UNL A   1      39.972  28.415  29.228  1.00  0.00     0.049 A 
ATOM     27  N   UNL A   1      40.291  29.442  32.037  1.00  0.00    -0.248 NA
ATOM     28  C   UNL A   1      38.395  30.767  31.711  1.00  0.00     0.031 C 
ATOM     29  C   UNL A   1      39.858  27.856  27.882  1.00  0.00     0.029 A 
ATOM     30  N   UNL A   1      41.081  27.799  29.756  1.00  0.00    -0.354 N 
ATOM     31  C   UNL A   1      40.026  30.163  33.196  1.00  0.00     0.074 A 
ATOM     32  C   UNL A   1      38.868  30.988  32.927  1.00  0.00     0.031 C 
ATOM     33  C   UNL A   1      40.864  26.984  27.687  1.00  0.00     0.029 A 
ATOM     34  C   UNL A   1      41.702  26.938  28.884  1.00  0.00     0.049 A 
ATOM     35  H   UNL A   1      41.399  27.959  30.673  1.00  0.00     0.167 HD
ATOM     36  C   UNL A   1      40.679  30.137  34.382  1.00  0.00     0.031 A 
ATOM     37  C   UNL A   1      42.824  26.205  29.032  1.00  0.00     0.031 A 
ATOM     38  C   UNL A   1      41.840  29.337  34.652  1.00  0.00     0.049 A 
ATOM     39  C   UNL A   1      43.576  26.241  30.337  1.00  0.00     0.074 A 
ATOM     40  C   UNL A   1      42.566  29.242  35.827  1.00  0.00     0.029 A 
ATOM     41  N   UNL A   1      42.453  28.501  33.733  1.00  0.00    -0.354 N 
ATOM     42  N   UNL A   1      43.293  26.905  31.433  1.00  0.00    -0.248 NA
ATOM     43  C   UNL A   1      44.794  25.422  30.428  1.00  0.00     0.031 C 
ATOM     44  C   UNL A   1      43.646  28.381  35.603  1.00  0.00     0.029 A 
ATOM     45  C   UNL A   1      43.561  27.901  34.305  1.00  0.00     0.049 A 
ATOM     46  H   UNL A   1      42.146  28.354  32.809  1.00  0.00     0.167 HD
ATOM     47  C   UNL A   1      44.279  26.558  32.352  1.00  0.00     0.074 A 
ATOM     48  C   UNL A   1      45.165  25.624  31.686  1.00  0.00     0.031 C 
ATOM     49  C   UNL A   1      44.433  26.969  33.635  1.00  0.00     0.031 A 
BRANCH  36  50
ATOM     50  C   UNL A   1      40.158  31.041  35.465  1.00  0.00    -0.014 A 
ATOM     51  C   UNL A   1      40.972  32.038  36.032  1.00  0.00     0.010 A 
ATOM     52  C   UNL A   1      38.838  30.887  35.924  1.00  0.00     0.010 A 
ATOM     53  C   UNL A   1      40.491  32.831  37.076  1.00  0.00     0.020 A 
ATOM     54  C   UNL A   1      38.345  31.696  36.952  1.00  0.00     0.020 A 
ATOM     55  C   UNL A   1      39.183  32.647  37.536  1.00  0.00     0.054 A 
BRANCH  55  56
ATOM     56  S   UNL A   1      38.585  33.679  38.902  1.00  0.00     0.124 S 
ATOM     57  O   UNL A   1      37.232  33.164  39.096  1.00  0.00    -0.237 OA
ATOM     58  O   UNL A   1      39.531  33.378  39.974  1.00  0.00    -0.237 OA
ATOM     59  O   UNL A   1      38.665  35.037  38.370  1.00  0.00    -0.744 OA
ENDBRANCH  55  56
ENDBRANCH  36  50
BRANCH  37  60
ATOM     60  C   UNL A   1      43.315  25.370  27.902  1.00  0.00    -0.014 A 
ATOM     61  C   UNL A   1      44.084  25.938  26.871  1.00  0.00     0.010 A 
ATOM     62  C   UNL A   1      43.013  23.996  27.854  1.00  0.00     0.010 A 
ATOM     63  C   UNL A   1      44.535  25.150  25.808  1.00  0.00     0.020 A 
ATOM     64  C   UNL A   1      43.481  23.201  26.805  1.00  0.00     0.020 A 
ATOM     65  C   UNL A   1      44.232  23.785  25.783  1.00  0.00     0.054 A 
BRANCH  65  66
ATOM     66  S   UNL A   1      44.876  22.767  24.426  1.00  0.00     0.124 S 
ATOM     67  O   UNL A   1      45.368  21.591  25.136  1.00  0.00    -0.237 OA
ATOM     68  O   UNL A   1      43.691  22.557  23.597  1.00  0.00    -0.237 OA
ATOM     69  O   UNL A   1      45.904  23.614  23.825  1.00  0.00    -0.744 OA
ENDBRANCH  65  66
ENDBRANCH  37  60
BRANCH  49  70
ATOM     70  C   UNL A   1      45.574  26.391  34.429  1.00  0.00    -0.014 A 
ATOM     71  C   UNL A   1      45.411  25.225  35.196  1.00  0.00     0.010 A 
ATOM     72  C   UNL A   1      46.849  26.979  34.335  1.00  0.00     0.010 A 
ATOM     73  C   UNL A   1      46.501  24.668  35.873  1.00  0.00     0.020 A 
ATOM     74  C   UNL A   1      47.944  26.413  34.992  1.00  0.00     0.020 A 
ATOM     75  C   UNL A   1      47.762  25.264  35.765  1.00  0.00     0.054 A 
BRANCH  75  76
ATOM     76  S   UNL A   1      49.173  24.488  36.598  1.00  0.00     0.124 S 
ATOM     77  O   UNL A   1      49.650  23.554  35.583  1.00  0.00    -0.237 OA
ATOM     78  O   UNL A   1      50.052  25.623  36.871  1.00  0.00    -0.237 OA
ATOM     79  O   UNL A   1      48.578  23.870  37.783  1.00  0.00    -0.744 OA
ENDBRANCH  75  76
ENDBRANCH  49  70
ENDBRANCH  23  24
ENDBRANCH  16  18
ENDBRANCH  15  16
ENDBRANCH  14  15
ENDBRANCH   1  14
TORSDOF 18
ENDMDL
MODEL 3
REMARK VINA RESULT:      -8.4      4.594     11.539
REMARK SMILES O=C(CCCC[C@@H]1CCSS1)OCCOC(=O)c1ccc(-c2c3nc(c(-c4ccc(S(=O)(=O)[O-])cc4)c4ccc([nH]4)c(-c4ccc(S(=O)(=O)[O-])cc4)c4nc(c(-c5ccc(S(=O)(=O)[O-])cc5)c5ccc2[nH]5)C=C4)C=C3)cc1
REMARK SMILES IDX 13 1 12 2 2 3 1 4 3 5 4 6 5 7 6 8 7 9 8 10 11 11 9 12 10 13
REMARK SMILES IDX 14 14 15 15 16 16 17 17 18 18 19 19 77 20 20 21 76 22 21 23
REMARK SMILES IDX 22 24 23 25 70 26 24 27 75 28 69 29 71 30 25 31 74 32 68 33
REMARK SMILES IDX 67 34 26 36 56 37 37 38 55 39 38 40 41 41 54 42 72 43 39 44
REMARK SMILES IDX 40 45 53 47 73 48 42 49 27 50 28 51 36 52 29 53 35 54 30 55
REMARK SMILES IDX 31 56 32 57 33 58 34 59 57 60 58 61 66 62 59 63 65 64 60 65
REMARK SMILES IDX 61 66 62 67 63 68 64 69 43 70 44 71 52 72 45 73 51 74 46 75
REMARK SMILES IDX 47 76 48 77 49 78 50 79
REMARK H PARENT 71 35 41 46
REMARK Flexibility Score: inf
ROOT
ATOM      1  C   UNL A   1      34.869  31.774  28.085  1.00  0.00     0.274 C 
ENDROOT
BRANCH   1   2
ATOM      2  O   UNL A   1      33.907  30.735  27.834  1.00  0.00    -0.462 OA
BRANCH   2   3
ATOM      3  C   UNL A   1      34.342  29.534  27.369  1.00  0.00     0.305 C 
ATOM      4  O   UNL A   1      35.535  29.251  27.370  1.00  0.00    -0.252 OA
BRANCH   3   5
ATOM      5  C   UNL A   1      33.301  28.660  26.695  1.00  0.00     0.123 C 
BRANCH   5   6
ATOM      6  C   UNL A   1      33.679  28.188  25.296  1.00  0.00     0.012 C 
BRANCH   6   7
ATOM      7  C   UNL A   1      32.564  28.292  24.255  1.00  0.00     0.002 C 
BRANCH   7   8
ATOM      8  C   UNL A   1      31.325  29.140  24.588  1.00  0.00     0.015 C 
BRANCH   8   9
ATOM      9  C   UNL A   1      30.381  29.483  23.427  1.00  0.00     0.059 C 
ATOM     10  C   UNL A   1      29.438  30.661  23.728  1.00  0.00     0.027 C 
ATOM     11  S   UNL A   1      29.309  28.019  23.126  1.00  0.00    -0.091 SA
ATOM     12  C   UNL A   1      28.223  30.643  22.807  1.00  0.00     0.083 C 
ATOM     13  S   UNL A   1      27.519  28.992  22.977  1.00  0.00    -0.094 SA
ENDBRANCH   8   9
ENDBRANCH   7   8
ENDBRANCH   6   7
ENDBRANCH   5   6
ENDBRANCH   3   5
ENDBRANCH   2   3
ENDBRANCH   1   2
BRANCH   1  14
ATOM     14  C   UNL A   1      35.089  32.049  29.577  1.00  0.00     0.275 C 
BRANCH  14  15
ATOM     15  O   UNL A   1      35.902  31.040  30.195  1.00  0.00    -0.458 OA
BRANCH  15  16
ATOM     16  C   UNL A   1      37.005  31.524  30.828  1.00  0.00     0.338 C 
ATOM     17  O   UNL A   1      37.018  32.269  31.787  1.00  0.00    -0.246 OA
BRANCH  16  18
ATOM     18  C   UNL A   1      38.223  30.877  30.285  1.00  0.00     0.060 A 
ATOM     19  C   UNL A   1      39.232  30.532  31.194  1.00  0.00     0.016 A 
ATOM     20  C   UNL A   1      38.392  30.621  28.920  1.00  0.00     0.016 A 
ATOM     21  C   UNL A   1      40.429  29.980  30.738  1.00  0.00     0.010 A 
ATOM     22  C   UNL A   1      39.593  30.067  28.463  1.00  0.00     0.010 A 
ATOM     23  C   UNL A   1      40.632  29.780  29.366  1.00  0.00    -0.014 A 
BRANCH  23  24
ATOM     24  C   UNL A   1      41.991  29.460  28.864  1.00  0.00     0.031 A 
ATOM     25  C   UNL A   1      42.274  28.054  28.406  1.00  0.00     0.074 A 
ATOM     26  C   UNL A   1      42.956  30.395  28.793  1.00  0.00     0.049 A 
ATOM     27  N   UNL A   1      43.381  27.543  27.936  1.00  0.00    -0.248 NA
ATOM     28  C   UNL A   1      41.156  27.100  28.491  1.00  0.00     0.031 C 
ATOM     29  C   UNL A   1      42.808  31.800  29.168  1.00  0.00     0.029 A 
ATOM     30  N   UNL A   1      44.261  30.292  28.379  1.00  0.00    -0.354 N 
ATOM     31  C   UNL A   1      43.096  26.209  27.671  1.00  0.00     0.074 A 
ATOM     32  C   UNL A   1      41.722  25.983  28.064  1.00  0.00     0.031 C 
ATOM     33  C   UNL A   1      43.982  32.428  28.974  1.00  0.00     0.029 A 
ATOM     34  C   UNL A   1      44.968  31.466  28.481  1.00  0.00     0.049 A 
ATOM     35  H   UNL A   1      44.654  29.455  28.040  1.00  0.00     0.167 HD
ATOM     36  C   UNL A   1      43.898  25.256  27.141  1.00  0.00     0.031 A 
ATOM     37  C   UNL A   1      46.263  31.732  28.216  1.00  0.00     0.031 A 
ATOM     38  C   UNL A   1      45.268  25.465  26.766  1.00  0.00     0.049 A 
ATOM     39  C   UNL A   1      47.159  30.641  27.690  1.00  0.00     0.074 A 
ATOM     40  C   UNL A   1      46.158  24.559  26.214  1.00  0.00     0.029 A 
ATOM     41  N   UNL A   1      45.952  26.661  26.912  1.00  0.00    -0.354 N 
ATOM     42  N   UNL A   1      46.864  29.392  27.416  1.00  0.00    -0.248 NA
ATOM     43  C   UNL A   1      48.562  30.998  27.428  1.00  0.00     0.031 C 
ATOM     44  C   UNL A   1      47.395  25.197  26.069  1.00  0.00     0.029 A 
ATOM     45  C   UNL A   1      47.259  26.514  26.482  1.00  0.00     0.049 A 
ATOM     46  H   UNL A   1      45.566  27.494  27.268  1.00  0.00     0.167 HD
ATOM     47  C   UNL A   1      48.034  28.825  26.921  1.00  0.00     0.074 A 
ATOM     48  C   UNL A   1      49.042  29.866  26.930  1.00  0.00     0.031 C 
ATOM     49  C   UNL A   1      48.253  27.558  26.490  1.00  0.00     0.031 A 
BRANCH  36  50
ATOM     50  C   UNL A   1      43.306  23.884  26.973  1.00  0.00    -0.014 A 
ATOM     51  C   UNL A   1      43.174  23.012  28.069  1.00  0.00     0.010 A 
ATOM     52  C   UNL A   1      42.881  23.460  25.702  1.00  0.00     0.010 A 
ATOM     53  C   UNL A   1      42.674  21.720  27.887  1.00  0.00     0.020 A 
ATOM     54  C   UNL A   1      42.357  22.177  25.520  1.00  0.00     0.020 A 
ATOM     55  C   UNL A   1      42.280  21.308  26.610  1.00  0.00     0.054 A 
BRANCH  55  56
ATOM     56  S   UNL A   1      41.646  19.622  26.395  1.00  0.00     0.124 S 
ATOM     57  O   UNL A   1      42.397  19.168  25.227  1.00  0.00    -0.237 OA
ATOM     58  O   UNL A   1      42.001  18.979  27.657  1.00  0.00    -0.237 OA
ATOM     59  O   UNL A   1      40.215  19.815  26.179  1.00  0.00    -0.744 OA
ENDBRANCH  55  56
ENDBRANCH  36  50
BRANCH  37  60
ATOM     60  C   UNL A   1      46.799  33.100  28.453  1.00  0.00    -0.014 A 
ATOM     61  C   UNL A   1      46.767  34.069  27.435  1.00  0.00     0.010 A 
ATOM     62  C   UNL A   1      47.347  33.439  29.704  1.00  0.00     0.010 A 
ATOM     63  C   UNL A   1      47.279  35.350  27.660  1.00  0.00     0.020 A 
ATOM     64  C   UNL A   1      47.840  34.725  29.939  1.00  0.00     0.020 A 
ATOM     65  C   UNL A   1      47.812  35.670  28.913  1.00  0.00     0.054 A 
BRANCH  65  66
ATOM     66  S   UNL A   1      48.418  37.355  29.205  1.00  0.00     0.124 S 
ATOM     67  O   UNL A   1      48.964  37.252  30.554  1.00  0.00    -0.237 OA
ATOM     68  O   UNL A   1      49.399  37.528  28.135  1.00  0.00    -0.237 OA
ATOM     69  O   UNL A   1      47.216  38.176  29.074  1.00  0.00    -0.744 OA
ENDBRANCH  65  66
ENDBRANCH  37  60
BRANCH  49  70
ATOM     70  C   UNL A   1      49.618  27.222  25.951  1.00  0.00    -0.014 A 
ATOM     71  C   UNL A   1      50.594  26.619  26.762  1.00  0.00     0.010 A 
ATOM     72  C   UNL A   1      49.895  27.439  24.589  1.00  0.00     0.010 A 
ATOM     73  C   UNL A   1      51.833  26.256  26.224  1.00  0.00     0.020 A 
ATOM     74  C   UNL A   1      51.123  27.057  24.043  1.00  0.00     0.020 A 
ATOM     75  C   UNL A   1      52.089  26.476  24.867  1.00  0.00     0.054 A 
BRANCH  75  76
ATOM     76  S   UNL A   1      53.678  25.938  24.176  1.00  0.00     0.124 S 
ATOM     77  O   UNL A   1      53.438  26.046  22.741  1.00  0.00    -0.237 OA
ATOM     78  O   UNL A   1      54.617  26.909  24.732  1.00  0.00    -0.237 OA
ATOM     79  O   UNL A   1      53.830  24.574  24.682  1.00  0.00    -0.744 OA
ENDBRANCH  75  76
ENDBRANCH  49  70
ENDBRANCH  23  24
ENDBRANCH  16  18
ENDBRANCH  15  16
ENDBRANCH  14  15
ENDBRANCH   1  14
TORSDOF 18
ENDMDL
