MODEL 1
REMARK VINA RESULT:     -11.6      0.000      0.000
REMARK SMILES O=C(OCCOC(=O)c1ccc(-c2c3nc(c(-c4ccc(S(=O)(=O)[O-])cc4)c4ccc([nH]4)c(-c4ccc(S(=O)(=O)[O-])cc4)c4nc(c(-c5ccc(S(=O)(=O)[O-])cc5)c5ccc2[nH]5)C=C4)C=C3)cc1)c1ccc(/[NH+]=C2/N=C[NH+]=C3N=NC=C32)cc1
REMARK SMILES IDX 5 1 4 2 3 3 2 4 1 5 69 6 70 7 84 8 71 9 83 10 72 11 73 12
REMARK SMILES IDX 74 13 75 15 82 16 76 17 78 18 81 19 77 20 79 21 80 22 6 24
REMARK SMILES IDX 7 25 8 26 9 27 10 28 68 29 11 30 67 31 12 32 13 33 14 34
REMARK SMILES IDX 61 35 15 36 66 37 60 38 62 39 16 40 65 41 59 42 58 43 17 45
REMARK SMILES IDX 47 46 28 47 46 48 29 49 32 50 45 51 63 52 30 53 31 54 44 56
REMARK SMILES IDX 64 57 33 58 18 59 19 60 27 61 20 62 26 63 21 64 22 65 23 66
REMARK SMILES IDX 24 67 25 68 48 69 49 70 57 71 50 72 56 73 51 74 52 75 53 76
REMARK SMILES IDX 54 77 55 78 34 79 35 80 43 81 36 82 42 83 37 84 38 85 39 86
REMARK SMILES IDX 40 87 41 88
REMARK H PARENT 73 14 77 23 62 44 32 55
REMARK Flexibility Score: inf
ROOT
ATOM      1  C   UNL A   1      40.972  23.630  26.856  1.00  0.00     0.275 C 
ENDROOT
BRANCH   1   2
ATOM      2  C   UNL A   1      40.479  22.262  26.356  1.00  0.00     0.275 C 
BRANCH   2   3
ATOM      3  O   UNL A   1      39.051  22.152  26.481  1.00  0.00    -0.458 OA
BRANCH   3   4
ATOM      4  C   UNL A   1      38.139  21.780  25.558  1.00  0.00     0.338 C 
ATOM      5  O   UNL A   1      38.092  20.597  25.223  1.00  0.00    -0.246 OA
BRANCH   4   6
ATOM      6  C   UNL A   1      37.172  22.712  24.894  1.00  0.00     0.060 A 
ATOM      7  C   UNL A   1      36.664  22.587  23.603  1.00  0.00     0.020 A 
ATOM      8  C   UNL A   1      36.620  23.718  25.700  1.00  0.00     0.020 A 
ATOM      9  C   UNL A   1      35.523  23.290  23.210  1.00  0.00     0.052 A 
ATOM     10  C   UNL A   1      35.537  24.491  25.258  1.00  0.00     0.052 A 
ATOM     11  C   UNL A   1      34.889  24.180  24.068  1.00  0.00     0.124 A 
BRANCH  11  12
ATOM     12  N   UNL A   1      33.665  24.679  23.627  1.00  0.00    -0.244 N 
ATOM     13  C   UNL A   1      32.519  24.507  24.189  1.00  0.00     0.305 C 
ATOM     14  H   UNL A   1      33.678  25.218  22.804  1.00  0.00     0.311 HD
ATOM     15  N   UNL A   1      31.463  25.035  23.487  1.00  0.00    -0.069 NA
ATOM     16  C   UNL A   1      32.123  23.894  25.447  1.00  0.00     0.159 C 
ATOM     17  C   UNL A   1      30.284  25.169  24.004  1.00  0.00     0.372 C 
ATOM     18  C   UNL A   1      30.808  24.211  25.945  1.00  0.00     0.302 C 
ATOM     19  C   UNL A   1      32.526  23.079  26.411  1.00  0.00     0.177 C 
ATOM     20  N   UNL A   1      29.914  24.846  25.279  1.00  0.00    -0.245 N 
ATOM     21  N   UNL A   1      30.655  23.714  27.214  1.00  0.00     0.010 NA
ATOM     22  N   UNL A   1      31.667  23.009  27.469  1.00  0.00    -0.081 NA
ATOM     23  H   UNL A   1      29.035  25.081  25.656  1.00  0.00     0.266 HD
ENDBRANCH  11  12
ENDBRANCH   4   6
ENDBRANCH   3   4
ENDBRANCH   2   3
ENDBRANCH   1   2
BRANCH   1  24
ATOM     24  O   UNL A   1      39.979  24.665  26.677  1.00  0.00    -0.458 OA
BRANCH  24  25
ATOM     25  C   UNL A   1      40.453  25.926  26.490  1.00  0.00     0.338 C 
ATOM     26  O   UNL A   1      40.955  26.345  25.459  1.00  0.00    -0.246 OA
BRANCH  25  27
ATOM     27  C   UNL A   1      40.181  26.791  27.678  1.00  0.00     0.060 A 
ATOM     28  C   UNL A   1      40.821  28.036  27.737  1.00  0.00     0.016 A 
ATOM     29  C   UNL A   1      39.341  26.414  28.731  1.00  0.00     0.016 A 
ATOM     30  C   UNL A   1      40.689  28.861  28.865  1.00  0.00     0.010 A 
ATOM     31  C   UNL A   1      39.179  27.259  29.845  1.00  0.00     0.010 A 
ATOM     32  C   UNL A   1      39.894  28.469  29.951  1.00  0.00    -0.014 A 
BRANCH  32  33
ATOM     33  C   UNL A   1      39.927  29.234  31.237  1.00  0.00     0.031 A 
ATOM     34  C   UNL A   1      40.977  28.904  32.271  1.00  0.00     0.074 A 
ATOM     35  C   UNL A   1      39.092  30.258  31.502  1.00  0.00     0.049 A 
ATOM     36  N   UNL A   1      41.225  29.499  33.412  1.00  0.00    -0.248 NA
ATOM     37  C   UNL A   1      41.877  27.782  31.970  1.00  0.00     0.031 C 
ATOM     38  C   UNL A   1      38.097  30.797  30.584  1.00  0.00     0.029 A 
ATOM     39  N   UNL A   1      38.950  31.036  32.633  1.00  0.00    -0.354 N 
ATOM     40  C   UNL A   1      42.334  28.855  33.942  1.00  0.00     0.074 A 
ATOM     41  C   UNL A   1      42.655  27.767  33.042  1.00  0.00     0.031 C 
ATOM     42  C   UNL A   1      37.422  31.785  31.199  1.00  0.00     0.029 A 
ATOM     43  C   UNL A   1      37.919  31.942  32.560  1.00  0.00     0.049 A 
ATOM     44  H   UNL A   1      39.535  30.949  33.420  1.00  0.00     0.167 HD
ATOM     45  C   UNL A   1      43.055  29.158  35.049  1.00  0.00     0.031 A 
ATOM     46  C   UNL A   1      37.419  32.810  33.464  1.00  0.00     0.031 A 
ATOM     47  C   UNL A   1      42.743  30.215  35.975  1.00  0.00     0.049 A 
ATOM     48  C   UNL A   1      38.117  33.006  34.780  1.00  0.00     0.074 A 
ATOM     49  C   UNL A   1      43.451  30.607  37.098  1.00  0.00     0.029 A 
ATOM     50  N   UNL A   1      41.625  31.029  35.908  1.00  0.00    -0.354 N 
ATOM     51  N   UNL A   1      39.206  32.431  35.224  1.00  0.00    -0.248 NA
ATOM     52  C   UNL A   1      37.552  34.016  35.687  1.00  0.00     0.031 C 
ATOM     53  C   UNL A   1      42.725  31.612  37.748  1.00  0.00     0.029 A 
ATOM     54  C   UNL A   1      41.600  31.893  36.992  1.00  0.00     0.049 A 
ATOM     55  H   UNL A   1      40.947  31.000  35.193  1.00  0.00     0.167 HD
ATOM     56  C   UNL A   1      39.502  33.066  36.426  1.00  0.00     0.074 A 
ATOM     57  C   UNL A   1      38.461  34.045  36.654  1.00  0.00     0.031 C 
ATOM     58  C   UNL A   1      40.570  32.871  37.239  1.00  0.00     0.031 A 
BRANCH  45  59
ATOM     59  C   UNL A   1      44.264  28.302  35.320  1.00  0.00    -0.014 A 
ATOM     60  C   UNL A   1      44.164  27.135  36.099  1.00  0.00     0.010 A 
ATOM     61  C   UNL A   1      45.513  28.675  34.796  1.00  0.00     0.010 A 
ATOM     62  C   UNL A   1      45.306  26.393  36.408  1.00  0.00     0.020 A 
ATOM     63  C   UNL A   1      46.653  27.918  35.077  1.00  0.00     0.020 A 
ATOM     64  C   UNL A   1      46.545  26.798  35.904  1.00  0.00     0.054 A 
BRANCH  64  65
ATOM     65  S   UNL A   1      48.019  25.839  36.347  1.00  0.00     0.124 S 
ATOM     66  O   UNL A   1      47.801  25.598  37.771  1.00  0.00    -0.237 OA
ATOM     67  O   UNL A   1      47.907  24.663  35.486  1.00  0.00    -0.237 OA
ATOM     68  O   UNL A   1      49.126  26.738  36.028  1.00  0.00    -0.744 OA
ENDBRANCH  64  65
ENDBRANCH  45  59
BRANCH  46  69
ATOM     69  C   UNL A   1      36.193  33.595  33.150  1.00  0.00    -0.014 A 
ATOM     70  C   UNL A   1      36.277  34.909  32.664  1.00  0.00     0.010 A 
ATOM     71  C   UNL A   1      34.923  33.024  33.359  1.00  0.00     0.010 A 
ATOM     72  C   UNL A   1      35.114  35.638  32.389  1.00  0.00     0.020 A 
ATOM     73  C   UNL A   1      33.760  33.742  33.064  1.00  0.00     0.020 A 
ATOM     74  C   UNL A   1      33.862  35.047  32.582  1.00  0.00     0.054 A 
BRANCH  74  75
ATOM     75  S   UNL A   1      32.372  35.993  32.156  1.00  0.00     0.124 S 
ATOM     76  O   UNL A   1      31.306  35.099  32.601  1.00  0.00    -0.237 OA
ATOM     77  O   UNL A   1      32.539  37.214  32.939  1.00  0.00    -0.237 OA
ATOM     78  O   UNL A   1      32.475  36.169  30.710  1.00  0.00    -0.744 OA
ENDBRANCH  74  75
ENDBRANCH  46  69
BRANCH  58  79
ATOM     79  C   UNL A   1      40.718  33.781  38.432  1.00  0.00    -0.014 A 
ATOM     80  C   UNL A   1      40.226  33.429  39.701  1.00  0.00     0.010 A 
ATOM     81  C   UNL A   1      41.402  35.002  38.281  1.00  0.00     0.010 A 
ATOM     82  C   UNL A   1      40.387  34.296  40.788  1.00  0.00     0.020 A 
ATOM     83  C   UNL A   1      41.590  35.858  39.371  1.00  0.00     0.020 A 
ATOM     84  C   UNL A   1      41.068  35.506  40.616  1.00  0.00     0.054 A 
BRANCH  84  85
ATOM     85  S   UNL A   1      41.298  36.594  42.048  1.00  0.00     0.124 S 
ATOM     86  O   UNL A   1      40.244  36.138  42.951  1.00  0.00    -0.237 OA
ATOM     87  O   UNL A   1      42.662  36.285  42.470  1.00  0.00    -0.237 OA
ATOM     88  O   UNL A   1      41.111  37.935  41.499  1.00  0.00    -0.744 OA
ENDBRANCH  84  85
ENDBRANCH  58  79
ENDBRANCH  32  33
ENDBRANCH  25  27
ENDBRANCH  24  25
ENDBRANCH   1  24
TORSDOF 15
ENDMDL
MODEL 2
REMARK VINA RESULT:     -11.3      5.008      6.889
REMARK SMILES O=C(OCCOC(=O)c1ccc(-c2c3nc(c(-c4ccc(S(=O)(=O)[O-])cc4)c4ccc([nH]4)c(-c4ccc(S(=O)(=O)[O-])cc4)c4nc(c(-c5ccc(S(=O)(=O)[O-])cc5)c5ccc2[nH]5)C=C4)C=C3)cc1)c1ccc(/[NH+]=C2/N=C[NH+]=C3N=NC=C32)cc1
REMARK SMILES IDX 5 1 4 2 3 3 2 4 1 5 69 6 70 7 84 8 71 9 83 10 72 11 73 12
REMARK SMILES IDX 74 13 75 15 82 16 76 17 78 18 81 19 77 20 79 21 80 22 6 24
REMARK SMILES IDX 7 25 8 26 9 27 10 28 68 29 11 30 67 31 12 32 13 33 14 34
REMARK SMILES IDX 61 35 15 36 66 37 60 38 62 39 16 40 65 41 59 42 58 43 17 45
REMARK SMILES IDX 47 46 28 47 46 48 29 49 32 50 45 51 63 52 30 53 31 54 44 56
REMARK SMILES IDX 64 57 33 58 18 59 19 60 27 61 20 62 26 63 21 64 22 65 23 66
REMARK SMILES IDX 24 67 25 68 48 69 49 70 57 71 50 72 56 73 51 74 52 75 53 76
REMARK SMILES IDX 54 77 55 78 34 79 35 80 43 81 36 82 42 83 37 84 38 85 39 86
REMARK SMILES IDX 40 87 41 88
REMARK H PARENT 73 14 77 23 62 44 32 55
REMARK Flexibility Score: inf
ROOT
ATOM      1  C   UNL A   1      40.517  20.371  26.360  1.00  0.00     0.275 C 
ENDROOT
BRANCH   1   2
ATOM      2  C   UNL A   1      41.876  19.656  26.436  1.00  0.00     0.275 C 
BRANCH   2   3
ATOM      3  O   UNL A   1      42.740  20.077  25.367  1.00  0.00    -0.458 OA
BRANCH   3   4
ATOM      4  C   UNL A   1      43.914  20.741  25.429  1.00  0.00     0.338 C 
ATOM      5  O   UNL A   1      44.955  20.112  25.241  1.00  0.00    -0.246 OA
BRANCH   4   6
ATOM      6  C   UNL A   1      44.050  22.205  25.721  1.00  0.00     0.060 A 
ATOM      7  C   UNL A   1      43.634  22.853  26.881  1.00  0.00     0.020 A 
ATOM      8  C   UNL A   1      44.794  22.959  24.802  1.00  0.00     0.020 A 
ATOM      9  C   UNL A   1      44.114  24.125  27.203  1.00  0.00     0.052 A 
ATOM     10  C   UNL A   1      45.186  24.274  25.090  1.00  0.00     0.052 A 
ATOM     11  C   UNL A   1      44.974  24.811  26.354  1.00  0.00     0.124 A 
BRANCH  11  12
ATOM     12  N   UNL A   1      45.522  25.985  26.867  1.00  0.00    -0.244 N 
ATOM     13  C   UNL A   1      45.113  27.185  26.645  1.00  0.00     0.305 C 
ATOM     14  H   UNL A   1      46.302  25.886  27.461  1.00  0.00     0.311 HD
ATOM     15  N   UNL A   1      45.899  28.162  27.207  1.00  0.00    -0.069 NA
ATOM     16  C   UNL A   1      43.953  27.713  25.944  1.00  0.00     0.159 C 
ATOM     17  C   UNL A   1      45.517  29.395  27.293  1.00  0.00     0.372 C 
ATOM     18  C   UNL A   1      43.594  29.084  26.212  1.00  0.00     0.302 C 
ATOM     19  C   UNL A   1      43.004  27.411  25.071  1.00  0.00     0.177 C 
ATOM     20  N   UNL A   1      44.318  29.906  26.881  1.00  0.00    -0.245 N 
ATOM     21  N   UNL A   1      42.387  29.375  25.629  1.00  0.00     0.010 NA
ATOM     22  N   UNL A   1      42.061  28.387  24.920  1.00  0.00    -0.081 NA
ATOM     23  H   UNL A   1      44.033  30.827  27.080  1.00  0.00     0.266 HD
ENDBRANCH  11  12
ENDBRANCH   4   6
ENDBRANCH   3   4
ENDBRANCH   2   3
ENDBRANCH   1   2
BRANCH   1  24
ATOM     24  O   UNL A   1      40.656  21.809  26.382  1.00  0.00    -0.458 OA
BRANCH  24  25
ATOM     25  C   UNL A   1      39.509  22.526  26.242  1.00  0.00     0.338 C 
ATOM     26  O   UNL A   1      38.474  22.110  25.746  1.00  0.00    -0.246 OA
BRANCH  25  27
ATOM     27  C   UNL A   1      39.629  23.874  26.877  1.00  0.00     0.060 A 
ATOM     28  C   UNL A   1      40.507  24.795  26.291  1.00  0.00     0.016 A 
ATOM     29  C   UNL A   1      38.925  24.250  28.026  1.00  0.00     0.016 A 
ATOM     30  C   UNL A   1      40.742  26.044  26.886  1.00  0.00     0.010 A 
ATOM     31  C   UNL A   1      39.132  25.518  28.600  1.00  0.00     0.010 A 
ATOM     32  C   UNL A   1      40.084  26.411  28.068  1.00  0.00    -0.014 A 
BRANCH  32  33
ATOM     33  C   UNL A   1      40.494  27.638  28.821  1.00  0.00     0.031 A 
ATOM     34  C   UNL A   1      41.843  27.680  29.497  1.00  0.00     0.074 A 
ATOM     35  C   UNL A   1      39.733  28.749  28.880  1.00  0.00     0.049 A 
ATOM     36  N   UNL A   1      42.417  28.674  30.129  1.00  0.00    -0.248 NA
ATOM     37  C   UNL A   1      42.659  26.460  29.428  1.00  0.00     0.031 C 
ATOM     38  C   UNL A   1      38.460  28.939  28.195  1.00  0.00     0.029 A 
ATOM     39  N   UNL A   1      39.925  29.939  29.552  1.00  0.00    -0.354 N 
ATOM     40  C   UNL A   1      43.675  28.216  30.494  1.00  0.00     0.074 A 
ATOM     41  C   UNL A   1      43.746  26.826  30.091  1.00  0.00     0.031 C 
ATOM     42  C   UNL A   1      37.968  30.151  28.514  1.00  0.00     0.029 A 
ATOM     43  C   UNL A   1      38.875  30.818  29.438  1.00  0.00     0.049 A 
ATOM     44  H   UNL A   1      40.741  30.138  30.066  1.00  0.00     0.167 HD
ATOM     45  C   UNL A   1      44.701  28.889  31.069  1.00  0.00     0.031 A 
ATOM     46  C   UNL A   1      38.650  32.026  29.996  1.00  0.00     0.031 A 
ATOM     47  C   UNL A   1      44.649  30.259  31.504  1.00  0.00     0.049 A 
ATOM     48  C   UNL A   1      39.729  32.694  30.801  1.00  0.00     0.074 A 
ATOM     49  C   UNL A   1      45.663  31.022  32.060  1.00  0.00     0.029 A 
ATOM     50  N   UNL A   1      43.524  31.067  31.462  1.00  0.00    -0.354 N 
ATOM     51  N   UNL A   1      40.936  32.263  31.070  1.00  0.00    -0.248 NA
ATOM     52  C   UNL A   1      39.436  34.037  31.322  1.00  0.00     0.031 C 
ATOM     53  C   UNL A   1      45.132  32.267  32.417  1.00  0.00     0.029 A 
ATOM     54  C   UNL A   1      43.807  32.304  32.021  1.00  0.00     0.049 A 
ATOM     55  H   UNL A   1      42.652  30.801  31.089  1.00  0.00     0.167 HD
ATOM     56  C   UNL A   1      41.573  33.314  31.721  1.00  0.00     0.074 A 
ATOM     57  C   UNL A   1      40.609  34.387  31.834  1.00  0.00     0.031 C 
ATOM     58  C   UNL A   1      42.858  33.383  32.147  1.00  0.00     0.031 A 
BRANCH  45  59
ATOM     59  C   UNL A   1      45.980  28.121  31.271  1.00  0.00    -0.014 A 
ATOM     60  C   UNL A   1      46.999  28.144  30.300  1.00  0.00     0.010 A 
ATOM     61  C   UNL A   1      46.161  27.363  32.440  1.00  0.00     0.010 A 
ATOM     62  C   UNL A   1      48.147  27.366  30.464  1.00  0.00     0.020 A 
ATOM     63  C   UNL A   1      47.321  26.607  32.621  1.00  0.00     0.020 A 
ATOM     64  C   UNL A   1      48.294  26.593  31.619  1.00  0.00     0.054 A 
BRANCH  64  65
ATOM     65  S   UNL A   1      49.776  25.564  31.792  1.00  0.00     0.124 S 
ATOM     66  O   UNL A   1      50.751  26.527  32.297  1.00  0.00    -0.237 OA
ATOM     67  O   UNL A   1      49.349  24.543  32.746  1.00  0.00    -0.237 OA
ATOM     68  O   UNL A   1      50.023  25.080  30.435  1.00  0.00    -0.744 OA
ENDBRANCH  64  65
ENDBRANCH  45  59
BRANCH  46  69
ATOM     69  C   UNL A   1      37.344  32.714  29.793  1.00  0.00    -0.014 A 
ATOM     70  C   UNL A   1      36.314  32.609  30.741  1.00  0.00     0.010 A 
ATOM     71  C   UNL A   1      37.123  33.467  28.625  1.00  0.00     0.010 A 
ATOM     72  C   UNL A   1      35.087  33.249  30.527  1.00  0.00     0.020 A 
ATOM     73  C   UNL A   1      35.907  34.126  28.419  1.00  0.00     0.020 A 
ATOM     74  C   UNL A   1      34.894  34.010  29.371  1.00  0.00     0.054 A 
BRANCH  74  75
ATOM     75  S   UNL A   1      33.316  34.881  29.150  1.00  0.00     0.124 S 
ATOM     76  O   UNL A   1      32.644  34.047  28.159  1.00  0.00    -0.237 OA
ATOM     77  O   UNL A   1      32.747  34.847  30.494  1.00  0.00    -0.237 OA
ATOM     78  O   UNL A   1      33.714  36.207  28.683  1.00  0.00    -0.744 OA
ENDBRANCH  74  75
ENDBRANCH  46  69
BRANCH  58  79
ATOM     79  C   UNL A   1      43.337  34.693  32.723  1.00  0.00    -0.014 A 
ATOM     80  C   UNL A   1      43.860  35.714  31.911  1.00  0.00     0.010 A 
ATOM     81  C   UNL A   1      43.220  34.914  34.108  1.00  0.00     0.010 A 
ATOM     82  C   UNL A   1      44.289  36.919  32.480  1.00  0.00     0.020 A 
ATOM     83  C   UNL A   1      43.620  36.128  34.676  1.00  0.00     0.020 A 
ATOM     84  C   UNL A   1      44.167  37.118  33.859  1.00  0.00     0.054 A 
BRANCH  84  85
ATOM     85  S   UNL A   1      44.693  38.704  34.566  1.00  0.00     0.124 S 
ATOM     86  O   UNL A   1      43.567  39.574  34.234  1.00  0.00    -0.237 OA
ATOM     87  O   UNL A   1      44.844  38.388  35.984  1.00  0.00    -0.237 OA
ATOM     88  O   UNL A   1      45.939  39.001  33.864  1.00  0.00    -0.744 OA
ENDBRANCH  84  85
ENDBRANCH  58  79
ENDBRANCH  32  33
ENDBRANCH  25  27
ENDBRANCH  24  25
ENDBRANCH   1  24
TORSDOF 15
ENDMDL
MODEL 3
REMARK VINA RESULT:     -11.3      4.774     10.605
REMARK SMILES O=C(OCCOC(=O)c1ccc(-c2c3nc(c(-c4ccc(S(=O)(=O)[O-])cc4)c4ccc([nH]4)c(-c4ccc(S(=O)(=O)[O-])cc4)c4nc(c(-c5ccc(S(=O)(=O)[O-])cc5)c5ccc2[nH]5)C=C4)C=C3)cc1)c1ccc(/[NH+]=C2/N=C[NH+]=C3N=NC=C32)cc1
REMARK SMILES IDX 5 1 4 2 3 3 2 4 1 5 69 6 70 7 84 8 71 9 83 10 72 11 73 12
REMARK SMILES IDX 74 13 75 15 82 16 76 17 78 18 81 19 77 20 79 21 80 22 6 24
REMARK SMILES IDX 7 25 8 26 9 27 10 28 68 29 11 30 67 31 12 32 13 33 14 34
REMARK SMILES IDX 61 35 15 36 66 37 60 38 62 39 16 40 65 41 59 42 58 43 17 45
REMARK SMILES IDX 47 46 28 47 46 48 29 49 32 50 45 51 63 52 30 53 31 54 44 56
REMARK SMILES IDX 64 57 33 58 18 59 19 60 27 61 20 62 26 63 21 64 22 65 23 66
REMARK SMILES IDX 24 67 25 68 48 69 49 70 57 71 50 72 56 73 51 74 52 75 53 76
REMARK SMILES IDX 54 77 55 78 34 79 35 80 43 81 36 82 42 83 37 84 38 85 39 86
REMARK SMILES IDX 40 87 41 88
REMARK H PARENT 73 14 77 23 62 44 32 55
REMARK Flexibility Score: inf
ROOT
ATOM      1  C   UNL A   1      32.497  30.425  26.747  1.00  0.00     0.275 C 
ENDROOT
BRANCH   1   2
ATOM      2  C   UNL A   1      32.703  29.823  25.347  1.00  0.00     0.275 C 
BRANCH   2   3
ATOM      3  O   UNL A   1      31.591  28.990  24.977  1.00  0.00    -0.458 OA
BRANCH   3   4
ATOM      4  C   UNL A   1      31.578  27.681  24.647  1.00  0.00     0.338 C 
ATOM      5  O   UNL A   1      30.497  27.151  24.390  1.00  0.00    -0.246 OA
BRANCH   4   6
ATOM      6  C   UNL A   1      32.794  26.808  24.577  1.00  0.00     0.060 A 
ATOM      7  C   UNL A   1      33.620  26.462  25.643  1.00  0.00     0.020 A 
ATOM      8  C   UNL A   1      33.033  26.167  23.353  1.00  0.00     0.020 A 
ATOM      9  C   UNL A   1      34.501  25.382  25.547  1.00  0.00     0.052 A 
ATOM     10  C   UNL A   1      33.993  25.151  23.240  1.00  0.00     0.052 A 
ATOM     11  C   UNL A   1      34.627  24.653  24.371  1.00  0.00     0.124 A 
BRANCH  11  12
ATOM     12  N   UNL A   1      35.398  23.495  24.457  1.00  0.00    -0.244 N 
ATOM     13  C   UNL A   1      34.986  22.321  24.787  1.00  0.00     0.305 C 
ATOM     14  H   UNL A   1      36.355  23.584  24.242  1.00  0.00     0.311 HD
ATOM     15  N   UNL A   1      35.982  21.379  24.880  1.00  0.00    -0.069 NA
ATOM     16  C   UNL A   1      33.660  21.782  25.047  1.00  0.00     0.159 C 
ATOM     17  C   UNL A   1      35.733  20.112  24.962  1.00  0.00     0.372 C 
ATOM     18  C   UNL A   1      33.518  20.347  25.016  1.00  0.00     0.302 C 
ATOM     19  C   UNL A   1      32.409  22.114  25.330  1.00  0.00     0.177 C 
ATOM     20  N   UNL A   1      34.499  19.524  24.949  1.00  0.00    -0.245 N 
ATOM     21  N   UNL A   1      32.192  20.006  25.092  1.00  0.00     0.010 NA
ATOM     22  N   UNL A   1      31.542  21.060  25.318  1.00  0.00    -0.081 NA
ATOM     23  H   UNL A   1      34.374  18.548  24.894  1.00  0.00     0.266 HD
ENDBRANCH  11  12
ENDBRANCH   4   6
ENDBRANCH   3   4
ENDBRANCH   2   3
ENDBRANCH   1   2
BRANCH   1  24
ATOM     24  O   UNL A   1      33.453  29.917  27.705  1.00  0.00    -0.458 OA
BRANCH  24  25
ATOM     25  C   UNL A   1      34.388  30.799  28.146  1.00  0.00     0.338 C 
ATOM     26  O   UNL A   1      34.167  31.948  28.492  1.00  0.00    -0.246 OA
BRANCH  25  27
ATOM     27  C   UNL A   1      35.731  30.153  28.266  1.00  0.00     0.060 A 
ATOM     28  C   UNL A   1      36.099  29.643  29.519  1.00  0.00     0.016 A 
ATOM     29  C   UNL A   1      36.635  30.048  27.204  1.00  0.00     0.016 A 
ATOM     30  C   UNL A   1      37.380  29.108  29.730  1.00  0.00     0.010 A 
ATOM     31  C   UNL A   1      37.905  29.477  27.408  1.00  0.00     0.010 A 
ATOM     32  C   UNL A   1      38.313  29.049  28.687  1.00  0.00    -0.014 A 
BRANCH  32  33
ATOM     33  C   UNL A   1      39.741  28.690  28.959  1.00  0.00     0.031 A 
ATOM     34  C   UNL A   1      40.665  29.722  29.561  1.00  0.00     0.074 A 
ATOM     35  C   UNL A   1      40.239  27.456  28.746  1.00  0.00     0.049 A 
ATOM     36  N   UNL A   1      41.910  29.587  29.945  1.00  0.00    -0.248 NA
ATOM     37  C   UNL A   1      40.109  31.064  29.783  1.00  0.00     0.031 C 
ATOM     38  C   UNL A   1      39.475  26.304  28.284  1.00  0.00     0.029 A 
ATOM     39  N   UNL A   1      41.519  26.963  28.894  1.00  0.00    -0.354 N 
ATOM     40  C   UNL A   1      42.272  30.809  30.495  1.00  0.00     0.074 A 
ATOM     41  C   UNL A   1      41.144  31.699  30.311  1.00  0.00     0.031 C 
ATOM     42  C   UNL A   1      40.305  25.254  28.148  1.00  0.00     0.029 A 
ATOM     43  C   UNL A   1      41.662  25.656  28.493  1.00  0.00     0.049 A 
ATOM     44  H   UNL A   1      42.262  27.499  29.255  1.00  0.00     0.167 HD
ATOM     45  C   UNL A   1      43.415  31.159  31.134  1.00  0.00     0.031 A 
ATOM     46  C   UNL A   1      42.745  24.855  28.410  1.00  0.00     0.031 A 
ATOM     47  C   UNL A   1      44.561  30.305  31.305  1.00  0.00     0.049 A 
ATOM     48  C   UNL A   1      44.067  25.321  28.950  1.00  0.00     0.074 A 
ATOM     49  C   UNL A   1      45.740  30.577  31.978  1.00  0.00     0.029 A 
ATOM     50  N   UNL A   1      44.689  29.029  30.782  1.00  0.00    -0.354 N 
ATOM     51  N   UNL A   1      44.360  26.459  29.528  1.00  0.00    -0.248 NA
ATOM     52  C   UNL A   1      45.185  24.369  28.885  1.00  0.00     0.031 C 
ATOM     53  C   UNL A   1      46.607  29.493  31.802  1.00  0.00     0.029 A 
ATOM     54  C   UNL A   1      45.943  28.517  31.079  1.00  0.00     0.049 A 
ATOM     55  H   UNL A   1      43.991  28.554  30.274  1.00  0.00     0.167 HD
ATOM     56  C   UNL A   1      45.674  26.329  29.966  1.00  0.00     0.074 A 
ATOM     57  C   UNL A   1      46.126  25.016  29.560  1.00  0.00     0.031 C 
ATOM     58  C   UNL A   1      46.414  27.214  30.679  1.00  0.00     0.031 A 
BRANCH  45  59
ATOM     59  C   UNL A   1      43.474  32.557  31.689  1.00  0.00    -0.014 A 
ATOM     60  C   UNL A   1      43.880  33.638  30.884  1.00  0.00     0.010 A 
ATOM     61  C   UNL A   1      43.130  32.789  33.031  1.00  0.00     0.010 A 
ATOM     62  C   UNL A   1      44.006  34.916  31.432  1.00  0.00     0.020 A 
ATOM     63  C   UNL A   1      43.225  34.072  33.574  1.00  0.00     0.020 A 
ATOM     64  C   UNL A   1      43.689  35.121  32.778  1.00  0.00     0.054 A 
BRANCH  64  65
ATOM     65  S   UNL A   1      43.894  36.783  33.475  1.00  0.00     0.124 S 
ATOM     66  O   UNL A   1      45.021  36.588  34.383  1.00  0.00    -0.237 OA
ATOM     67  O   UNL A   1      44.172  37.595  32.293  1.00  0.00    -0.237 OA
ATOM     68  O   UNL A   1      42.610  37.047  34.122  1.00  0.00    -0.744 OA
ENDBRANCH  64  65
ENDBRANCH  45  59
BRANCH  46  69
ATOM     69  C   UNL A   1      42.627  23.497  27.808  1.00  0.00    -0.014 A 
ATOM     70  C   UNL A   1      42.217  22.396  28.577  1.00  0.00     0.010 A 
ATOM     71  C   UNL A   1      42.948  23.301  26.452  1.00  0.00     0.010 A 
ATOM     72  C   UNL A   1      42.126  21.124  28.000  1.00  0.00     0.020 A 
ATOM     73  C   UNL A   1      42.837  22.036  25.867  1.00  0.00     0.020 A 
ATOM     74  C   UNL A   1      42.429  20.953  26.645  1.00  0.00     0.054 A 
BRANCH  74  75
ATOM     75  S   UNL A   1      42.241  19.305  25.907  1.00  0.00     0.124 S 
ATOM     76  O   UNL A   1      40.800  19.235  25.681  1.00  0.00    -0.237 OA
ATOM     77  O   UNL A   1      43.064  19.402  24.705  1.00  0.00    -0.237 OA
ATOM     78  O   UNL A   1      42.755  18.404  26.935  1.00  0.00    -0.744 OA
ENDBRANCH  74  75
ENDBRANCH  46  69
BRANCH  58  79
ATOM     79  C   UNL A   1      47.783  26.777  31.134  1.00  0.00    -0.014 A 
ATOM     80  C   UNL A   1      47.982  26.100  32.349  1.00  0.00     0.010 A 
ATOM     81  C   UNL A   1      48.892  27.020  30.299  1.00  0.00     0.010 A 
ATOM     82  C   UNL A   1      49.267  25.705  32.737  1.00  0.00     0.020 A 
ATOM     83  C   UNL A   1      50.173  26.599  30.670  1.00  0.00     0.020 A 
ATOM     84  C   UNL A   1      50.355  25.957  31.895  1.00  0.00     0.054 A 
BRANCH  84  85
ATOM     85  S   UNL A   1      52.004  25.399  32.402  1.00  0.00     0.124 S 
ATOM     86  O   UNL A   1      52.171  26.068  33.689  1.00  0.00    -0.237 OA
ATOM     87  O   UNL A   1      51.847  23.948  32.465  1.00  0.00    -0.237 OA
ATOM     88  O   UNL A   1      52.877  25.878  31.332  1.00  0.00    -0.744 OA
ENDBRANCH  84  85
ENDBRANCH  58  79
ENDBRANCH  32  33
ENDBRANCH  25  27
ENDBRANCH  24  25
ENDBRANCH   1  24
TORSDOF 15
ENDMDL
