MODEL 1
REMARK VINA RESULT:     -10.2      0.000      0.000
REMARK SMILES COc1cc2nc(SCC(=O)OCCOC(=O)c3ccc(-c4c5nc(c(-c6ccc(S(=O)(=O)[O-])cc6)c6ccc([nH]6)c(-c6ccc(S(=O)(=O)[O-])cc6)c6nc(c(-c7ccc(S(=O)(=O)[O-])cc7)c7ccc4[nH]7)C=C6)C=C5)cc3)nc(O)c2cc1OC
REMARK SMILES IDX 13 1 12 2 10 3 11 4 9 5 8 6 7 7 3 8 4 9 83 10 5 11 82 12
REMARK SMILES IDX 6 13 81 14 79 15 78 16 2 17 1 18 84 19 85 20 80 21 14 23
REMARK SMILES IDX 15 24 16 25 17 26 18 27 19 28 77 29 20 30 76 31 21 32 22 33
REMARK SMILES IDX 23 34 70 35 24 36 75 37 69 38 71 39 25 40 74 41 68 42 67 43
REMARK SMILES IDX 26 45 56 46 37 47 55 48 38 49 41 50 54 51 72 52 39 53 40 54
REMARK SMILES IDX 53 56 73 57 42 58 27 59 28 60 36 61 29 62 35 63 30 64 31 65
REMARK SMILES IDX 32 66 33 67 34 68 57 69 58 70 66 71 59 72 65 73 60 74 61 75
REMARK SMILES IDX 62 76 63 77 64 78 43 79 44 80 52 81 45 82 51 83 46 84 47 85
REMARK SMILES IDX 48 86 49 87 50 88
REMARK H PARENT 80 22 71 44 41 55
REMARK Flexibility Score: inf
ROOT
ATOM      1  C   UNL A   1      35.746  22.162  24.264  1.00  0.00     0.274 C 
ENDROOT
BRANCH   1   2
ATOM      2  O   UNL A   1      35.533  23.012  23.116  1.00  0.00    -0.461 OA
BRANCH   2   3
ATOM      3  C   UNL A   1      34.428  23.799  23.160  1.00  0.00     0.316 C 
ATOM      4  O   UNL A   1      34.023  24.462  22.206  1.00  0.00    -0.251 OA
BRANCH   3   5
ATOM      5  C   UNL A   1      33.712  23.854  24.490  1.00  0.00     0.200 C 
BRANCH   5   6
ATOM      6  S   UNL A   1      34.051  25.284  25.536  1.00  0.00    -0.074 SA
BRANCH   6   7
ATOM      7  C   UNL A   1      33.264  26.607  24.645  1.00  0.00     0.192 A 
ATOM      8  C   UNL A   1      29.171  28.139  22.826  1.00  0.00     0.162 A 
ATOM      9  C   UNL A   1      29.900  27.256  23.633  1.00  0.00     0.079 A 
ATOM     10  C   UNL A   1      29.818  29.175  22.143  1.00  0.00     0.161 A 
ATOM     11  C   UNL A   1      31.271  27.368  23.783  1.00  0.00     0.083 A 
ATOM     12  C   UNL A   1      31.186  29.351  22.359  1.00  0.00     0.066 A 
ATOM     13  N   UNL A   1      31.937  26.453  24.498  1.00  0.00    -0.222 NA
ATOM     14  C   UNL A   1      31.904  28.452  23.187  1.00  0.00     0.066 A 
ATOM     15  C   UNL A   1      33.253  28.549  23.505  1.00  0.00     0.223 A 
ATOM     16  N   UNL A   1      33.969  27.664  24.221  1.00  0.00    -0.187 NA
BRANCH   8  17
ATOM     17  O   UNL A   1      27.813  27.942  22.836  1.00  0.00    -0.493 OA
ATOM     18  C   UNL A   1      27.118  28.858  23.675  1.00  0.00     0.278 C 
ENDBRANCH   8  17
BRANCH  10  19
ATOM     19  O   UNL A   1      29.066  29.991  21.345  1.00  0.00    -0.493 OA
ATOM     20  C   UNL A   1      28.895  31.332  21.801  1.00  0.00     0.278 C 
ENDBRANCH  10  19
BRANCH  15  21
ATOM     21  O   UNL A   1      33.948  29.661  23.125  1.00  0.00    -0.493 OA
ATOM     22  H   UNL A   1      34.358  30.202  23.772  1.00  0.00     0.295 HD
ENDBRANCH  15  21
ENDBRANCH   6   7
ENDBRANCH   5   6
ENDBRANCH   3   5
ENDBRANCH   2   3
ENDBRANCH   1   2
BRANCH   1  23
ATOM     23  C   UNL A   1      37.229  22.037  24.596  1.00  0.00     0.275 C 
BRANCH  23  24
ATOM     24  O   UNL A   1      37.565  22.911  25.684  1.00  0.00    -0.458 OA
BRANCH  24  25
ATOM     25  C   UNL A   1      38.858  22.882  26.071  1.00  0.00     0.338 C 
ATOM     26  O   UNL A   1      39.650  21.959  25.952  1.00  0.00    -0.246 OA
BRANCH  25  27
ATOM     27  C   UNL A   1      39.200  24.158  26.713  1.00  0.00     0.060 A 
ATOM     28  C   UNL A   1      38.823  24.365  28.038  1.00  0.00     0.016 A 
ATOM     29  C   UNL A   1      39.994  25.095  26.044  1.00  0.00     0.016 A 
ATOM     30  C   UNL A   1      39.226  25.531  28.691  1.00  0.00     0.010 A 
ATOM     31  C   UNL A   1      40.449  26.229  26.719  1.00  0.00     0.010 A 
ATOM     32  C   UNL A   1      40.052  26.465  28.040  1.00  0.00    -0.014 A 
BRANCH  32  33
ATOM     33  C   UNL A   1      40.477  27.696  28.750  1.00  0.00     0.031 A 
ATOM     34  C   UNL A   1      41.892  27.831  29.235  1.00  0.00     0.074 A 
ATOM     35  C   UNL A   1      39.600  28.701  28.931  1.00  0.00     0.049 A 
ATOM     36  N   UNL A   1      42.492  28.888  29.715  1.00  0.00    -0.248 NA
ATOM     37  C   UNL A   1      42.743  26.631  29.173  1.00  0.00     0.031 C 
ATOM     38  C   UNL A   1      38.188  28.668  28.543  1.00  0.00     0.029 A 
ATOM     39  N   UNL A   1      39.771  29.954  29.465  1.00  0.00    -0.354 N 
ATOM     40  C   UNL A   1      43.798  28.493  29.976  1.00  0.00     0.074 A 
ATOM     41  C   UNL A   1      43.883  27.082  29.675  1.00  0.00     0.031 C 
ATOM     42  C   UNL A   1      37.633  29.861  28.816  1.00  0.00     0.029 A 
ATOM     43  C   UNL A   1      38.644  30.739  29.402  1.00  0.00     0.049 A 
ATOM     44  H   UNL A   1      40.621  30.261  29.857  1.00  0.00     0.167 HD
ATOM     45  C   UNL A   1      44.842  29.248  30.388  1.00  0.00     0.031 A 
ATOM     46  C   UNL A   1      38.452  32.029  29.745  1.00  0.00     0.031 A 
ATOM     47  C   UNL A   1      44.748  30.647  30.703  1.00  0.00     0.049 A 
ATOM     48  C   UNL A   1      39.615  32.840  30.249  1.00  0.00     0.074 A 
ATOM     49  C   UNL A   1      45.759  31.505  31.095  1.00  0.00     0.029 A 
ATOM     50  N   UNL A   1      43.579  31.390  30.669  1.00  0.00    -0.354 N 
ATOM     51  N   UNL A   1      40.867  32.474  30.399  1.00  0.00    -0.248 NA
ATOM     52  C   UNL A   1      39.350  34.241  30.610  1.00  0.00     0.031 C 
ATOM     53  C   UNL A   1      45.192  32.756  31.352  1.00  0.00     0.029 A 
ATOM     54  C   UNL A   1      43.837  32.691  31.062  1.00  0.00     0.049 A 
ATOM     55  H   UNL A   1      42.696  31.044  30.406  1.00  0.00     0.167 HD
ATOM     56  C   UNL A   1      41.542  33.604  30.847  1.00  0.00     0.074 A 
ATOM     57  C   UNL A   1      40.564  34.669  30.938  1.00  0.00     0.031 C 
ATOM     58  C   UNL A   1      42.856  33.744  31.149  1.00  0.00     0.031 A 
BRANCH  45  59
ATOM     59  C   UNL A   1      46.189  28.587  30.488  1.00  0.00    -0.014 A 
ATOM     60  C   UNL A   1      47.009  28.469  29.353  1.00  0.00     0.010 A 
ATOM     61  C   UNL A   1      46.602  28.000  31.699  1.00  0.00     0.010 A 
ATOM     62  C   UNL A   1      48.212  27.760  29.422  1.00  0.00     0.020 A 
ATOM     63  C   UNL A   1      47.813  27.310  31.777  1.00  0.00     0.020 A 
ATOM     64  C   UNL A   1      48.602  27.179  30.631  1.00  0.00     0.054 A 
BRANCH  64  65
ATOM     65  S   UNL A   1      50.163  26.258  30.703  1.00  0.00     0.124 S 
ATOM     66  O   UNL A   1      50.296  25.770  29.333  1.00  0.00    -0.237 OA
ATOM     67  O   UNL A   1      51.122  27.283  31.105  1.00  0.00    -0.237 OA
ATOM     68  O   UNL A   1      49.906  25.232  31.711  1.00  0.00    -0.744 OA
ENDBRANCH  64  65
ENDBRANCH  45  59
BRANCH  46  69
ATOM     69  C   UNL A   1      37.113  32.643  29.542  1.00  0.00    -0.014 A 
ATOM     70  C   UNL A   1      36.815  33.333  28.352  1.00  0.00     0.010 A 
ATOM     71  C   UNL A   1      36.153  32.602  30.568  1.00  0.00     0.010 A 
ATOM     72  C   UNL A   1      35.600  34.009  28.211  1.00  0.00     0.020 A 
ATOM     73  C   UNL A   1      34.927  33.260  30.422  1.00  0.00     0.020 A 
ATOM     74  C   UNL A   1      34.670  33.983  29.254  1.00  0.00     0.054 A 
BRANCH  74  75
ATOM     75  S   UNL A   1      33.121  34.908  29.071  1.00  0.00     0.124 S 
ATOM     76  O   UNL A   1      32.424  34.125  28.056  1.00  0.00    -0.237 OA
ATOM     77  O   UNL A   1      32.551  34.849  30.415  1.00  0.00    -0.237 OA
ATOM     78  O   UNL A   1      33.564  36.234  28.645  1.00  0.00    -0.744 OA
ENDBRANCH  74  75
ENDBRANCH  46  69
BRANCH  58  79
ATOM     79  C   UNL A   1      43.346  35.089  31.614  1.00  0.00    -0.014 A 
ATOM     80  C   UNL A   1      43.117  35.490  32.944  1.00  0.00     0.010 A 
ATOM     81  C   UNL A   1      43.880  36.012  30.700  1.00  0.00     0.010 A 
ATOM     82  C   UNL A   1      43.373  36.804  33.341  1.00  0.00     0.020 A 
ATOM     83  C   UNL A   1      44.161  37.322  31.100  1.00  0.00     0.020 A 
ATOM     84  C   UNL A   1      43.877  37.717  32.411  1.00  0.00     0.054 A 
BRANCH  84  85
ATOM     85  S   UNL A   1      44.152  39.435  32.927  1.00  0.00     0.124 S 
ATOM     86  O   UNL A   1      45.382  39.327  33.705  1.00  0.00    -0.237 OA
ATOM     87  O   UNL A   1      44.272  40.140  31.652  1.00  0.00    -0.237 OA
ATOM     88  O   UNL A   1      42.951  39.756  33.696  1.00  0.00    -0.744 OA
ENDBRANCH  84  85
ENDBRANCH  58  79
ENDBRANCH  32  33
ENDBRANCH  25  27
ENDBRANCH  24  25
ENDBRANCH  23  24
ENDBRANCH   1  23
TORSDOF 19
ENDMDL
MODEL 2
REMARK VINA RESULT:     -10.1      2.868      9.723
REMARK SMILES COc1cc2nc(SCC(=O)OCCOC(=O)c3ccc(-c4c5nc(c(-c6ccc(S(=O)(=O)[O-])cc6)c6ccc([nH]6)c(-c6ccc(S(=O)(=O)[O-])cc6)c6nc(c(-c7ccc(S(=O)(=O)[O-])cc7)c7ccc4[nH]7)C=C6)C=C5)cc3)nc(O)c2cc1OC
REMARK SMILES IDX 13 1 12 2 10 3 11 4 9 5 8 6 7 7 3 8 4 9 83 10 5 11 82 12
REMARK SMILES IDX 6 13 81 14 79 15 78 16 2 17 1 18 84 19 85 20 80 21 14 23
REMARK SMILES IDX 15 24 16 25 17 26 18 27 19 28 77 29 20 30 76 31 21 32 22 33
REMARK SMILES IDX 23 34 70 35 24 36 75 37 69 38 71 39 25 40 74 41 68 42 67 43
REMARK SMILES IDX 26 45 56 46 37 47 55 48 38 49 41 50 54 51 72 52 39 53 40 54
REMARK SMILES IDX 53 56 73 57 42 58 27 59 28 60 36 61 29 62 35 63 30 64 31 65
REMARK SMILES IDX 32 66 33 67 34 68 57 69 58 70 66 71 59 72 65 73 60 74 61 75
REMARK SMILES IDX 62 76 63 77 64 78 43 79 44 80 52 81 45 82 51 83 46 84 47 85
REMARK SMILES IDX 48 86 49 87 50 88
REMARK H PARENT 80 22 71 44 41 55
REMARK Flexibility Score: inf
ROOT
ATOM      1  C   UNL A   1      31.684  28.689  25.911  1.00  0.00     0.274 C 
ENDROOT
BRANCH   1   2
ATOM      2  O   UNL A   1      31.716  28.860  24.477  1.00  0.00    -0.461 OA
BRANCH   2   3
ATOM      3  C   UNL A   1      30.518  29.094  23.883  1.00  0.00     0.316 C 
ATOM      4  O   UNL A   1      29.887  30.143  24.007  1.00  0.00    -0.251 OA
BRANCH   3   5
ATOM      5  C   UNL A   1      29.957  27.956  23.063  1.00  0.00     0.200 C 
BRANCH   5   6
ATOM      6  S   UNL A   1      29.603  26.420  23.941  1.00  0.00    -0.074 SA
BRANCH   6   7
ATOM      7  C   UNL A   1      31.103  25.492  23.712  1.00  0.00     0.192 A 
ATOM      8  C   UNL A   1      33.522  21.660  25.081  1.00  0.00     0.162 A 
ATOM      9  C   UNL A   1      32.345  22.418  25.044  1.00  0.00     0.079 A 
ATOM     10  C   UNL A   1      34.670  22.098  24.410  1.00  0.00     0.161 A 
ATOM     11  C   UNL A   1      32.271  23.617  24.355  1.00  0.00     0.083 A 
ATOM     12  C   UNL A   1      34.578  23.258  23.639  1.00  0.00     0.066 A 
ATOM     13  N   UNL A   1      31.151  24.347  24.415  1.00  0.00    -0.222 NA
ATOM     14  C   UNL A   1      33.375  24.006  23.607  1.00  0.00     0.066 A 
ATOM     15  C   UNL A   1      33.155  25.149  22.849  1.00  0.00     0.223 A 
ATOM     16  N   UNL A   1      32.051  25.917  22.866  1.00  0.00    -0.187 NA
BRANCH   8  17
ATOM     17  O   UNL A   1      33.417  20.464  25.745  1.00  0.00    -0.493 OA
ATOM     18  C   UNL A   1      32.605  19.513  25.065  1.00  0.00     0.278 C 
ENDBRANCH   8  17
BRANCH  10  19
ATOM     19  O   UNL A   1      35.802  21.336  24.502  1.00  0.00    -0.493 OA
ATOM     20  C   UNL A   1      37.020  21.974  24.126  1.00  0.00     0.278 C 
ENDBRANCH  10  19
BRANCH  15  21
ATOM     21  O   UNL A   1      34.098  25.538  21.941  1.00  0.00    -0.493 OA
ATOM     22  H   UNL A   1      33.896  26.202  21.310  1.00  0.00     0.295 HD
ENDBRANCH  15  21
ENDBRANCH   6   7
ENDBRANCH   5   6
ENDBRANCH   3   5
ENDBRANCH   2   3
ENDBRANCH   1   2
BRANCH   1  23
ATOM     23  C   UNL A   1      32.346  29.863  26.626  1.00  0.00     0.275 C 
BRANCH  23  24
ATOM     24  O   UNL A   1      33.695  29.523  26.983  1.00  0.00    -0.458 OA
BRANCH  24  25
ATOM     25  C   UNL A   1      34.395  30.503  27.593  1.00  0.00     0.338 C 
ATOM     26  O   UNL A   1      34.040  31.655  27.798  1.00  0.00    -0.246 OA
BRANCH  25  27
ATOM     27  C   UNL A   1      35.717  29.989  27.972  1.00  0.00     0.060 A 
ATOM     28  C   UNL A   1      36.762  30.081  27.055  1.00  0.00     0.016 A 
ATOM     29  C   UNL A   1      35.951  29.528  29.272  1.00  0.00     0.016 A 
ATOM     30  C   UNL A   1      38.045  29.687  27.437  1.00  0.00     0.010 A 
ATOM     31  C   UNL A   1      37.246  29.195  29.671  1.00  0.00     0.010 A 
ATOM     32  C   UNL A   1      38.299  29.254  28.750  1.00  0.00    -0.014 A 
BRANCH  32  33
ATOM     33  C   UNL A   1      39.670  28.845  29.142  1.00  0.00     0.031 A 
ATOM     34  C   UNL A   1      40.497  29.738  30.021  1.00  0.00     0.074 A 
ATOM     35  C   UNL A   1      40.157  27.658  28.732  1.00  0.00     0.049 A 
ATOM     36  N   UNL A   1      41.636  29.479  30.606  1.00  0.00    -0.248 NA
ATOM     37  C   UNL A   1      39.982  31.094  30.277  1.00  0.00     0.031 C 
ATOM     38  C   UNL A   1      39.464  26.725  27.841  1.00  0.00     0.029 A 
ATOM     39  N   UNL A   1      41.337  27.024  29.029  1.00  0.00    -0.354 N 
ATOM     40  C   UNL A   1      41.955  30.621  31.329  1.00  0.00     0.074 A 
ATOM     41  C   UNL A   1      40.932  31.602  31.048  1.00  0.00     0.031 C 
ATOM     42  C   UNL A   1      40.216  25.620  27.698  1.00  0.00     0.029 A 
ATOM     43  C   UNL A   1      41.443  25.768  28.479  1.00  0.00     0.049 A 
ATOM     44  H   UNL A   1      42.042  27.430  29.584  1.00  0.00     0.167 HD
ATOM     45  C   UNL A   1      42.986  30.818  32.183  1.00  0.00     0.031 A 
ATOM     46  C   UNL A   1      42.401  24.829  28.611  1.00  0.00     0.031 A 
ATOM     47  C   UNL A   1      44.010  29.846  32.445  1.00  0.00     0.049 A 
ATOM     48  C   UNL A   1      43.566  25.086  29.529  1.00  0.00     0.074 A 
ATOM     49  C   UNL A   1      45.076  29.942  33.322  1.00  0.00     0.029 A 
ATOM     50  N   UNL A   1      44.103  28.607  31.831  1.00  0.00    -0.354 N 
ATOM     51  N   UNL A   1      43.802  26.136  30.279  1.00  0.00    -0.248 NA
ATOM     52  C   UNL A   1      44.582  24.029  29.635  1.00  0.00     0.031 C 
ATOM     53  C   UNL A   1      45.846  28.782  33.198  1.00  0.00     0.029 A 
ATOM     54  C   UNL A   1      45.226  27.939  32.288  1.00  0.00     0.049 A 
ATOM     55  H   UNL A   1      43.467  28.255  31.169  1.00  0.00     0.167 HD
ATOM     56  C   UNL A   1      44.978  25.856  30.965  1.00  0.00     0.074 A 
ATOM     57  C   UNL A   1      45.404  24.536  30.547  1.00  0.00     0.031 C 
ATOM     58  C   UNL A   1      45.640  26.625  31.865  1.00  0.00     0.031 A 
BRANCH  45  59
ATOM     59  C   UNL A   1      43.039  32.123  32.928  1.00  0.00    -0.014 A 
ATOM     60  C   UNL A   1      43.793  33.198  32.427  1.00  0.00     0.010 A 
ATOM     61  C   UNL A   1      42.408  32.250  34.181  1.00  0.00     0.010 A 
ATOM     62  C   UNL A   1      43.930  34.372  33.174  1.00  0.00     0.020 A 
ATOM     63  C   UNL A   1      42.524  33.430  34.918  1.00  0.00     0.020 A 
ATOM     64  C   UNL A   1      43.302  34.477  34.417  1.00  0.00     0.054 A 
BRANCH  64  65
ATOM     65  S   UNL A   1      43.493  36.005  35.375  1.00  0.00     0.124 S 
ATOM     66  O   UNL A   1      44.694  35.730  36.158  1.00  0.00    -0.237 OA
ATOM     67  O   UNL A   1      43.634  37.021  34.336  1.00  0.00    -0.237 OA
ATOM     68  O   UNL A   1      42.250  36.083  36.142  1.00  0.00    -0.744 OA
ENDBRANCH  64  65
ENDBRANCH  45  59
BRANCH  46  69
ATOM     69  C   UNL A   1      42.243  23.527  27.910  1.00  0.00    -0.014 A 
ATOM     70  C   UNL A   1      41.389  22.535  28.426  1.00  0.00     0.010 A 
ATOM     71  C   UNL A   1      43.004  23.245  26.761  1.00  0.00     0.010 A 
ATOM     72  C   UNL A   1      41.331  21.271  27.833  1.00  0.00     0.020 A 
ATOM     73  C   UNL A   1      42.933  21.988  26.152  1.00  0.00     0.020 A 
ATOM     74  C   UNL A   1      42.116  21.000  26.709  1.00  0.00     0.054 A 
BRANCH  74  75
ATOM     75  S   UNL A   1      42.066  19.338  25.984  1.00  0.00     0.124 S 
ATOM     76  O   UNL A   1      42.615  18.525  27.066  1.00  0.00    -0.237 OA
ATOM     77  O   UNL A   1      40.644  19.148  25.713  1.00  0.00    -0.237 OA
ATOM     78  O   UNL A   1      42.912  19.456  24.799  1.00  0.00    -0.744 OA
ENDBRANCH  74  75
ENDBRANCH  46  69
BRANCH  58  79
ATOM     79  C   UNL A   1      46.905  26.084  32.477  1.00  0.00    -0.014 A 
ATOM     80  C   UNL A   1      48.131  26.259  31.808  1.00  0.00     0.010 A 
ATOM     81  C   UNL A   1      46.856  25.268  33.620  1.00  0.00     0.010 A 
ATOM     82  C   UNL A   1      49.277  25.593  32.244  1.00  0.00     0.020 A 
ATOM     83  C   UNL A   1      48.008  24.619  34.075  1.00  0.00     0.020 A 
ATOM     84  C   UNL A   1      49.204  24.763  33.366  1.00  0.00     0.054 A 
BRANCH  84  85
ATOM     85  S   UNL A   1      50.688  23.860  33.889  1.00  0.00     0.124 S 
ATOM     86  O   UNL A   1      51.197  24.704  34.966  1.00  0.00    -0.237 OA
ATOM     87  O   UNL A   1      50.151  22.565  34.303  1.00  0.00    -0.237 OA
ATOM     88  O   UNL A   1      51.510  23.826  32.681  1.00  0.00    -0.744 OA
ENDBRANCH  84  85
ENDBRANCH  58  79
ENDBRANCH  32  33
ENDBRANCH  25  27
ENDBRANCH  24  25
ENDBRANCH  23  24
ENDBRANCH   1  23
TORSDOF 19
ENDMDL
MODEL 3
REMARK VINA RESULT:     -10.0      2.591      8.569
REMARK SMILES COc1cc2nc(SCC(=O)OCCOC(=O)c3ccc(-c4c5nc(c(-c6ccc(S(=O)(=O)[O-])cc6)c6ccc([nH]6)c(-c6ccc(S(=O)(=O)[O-])cc6)c6nc(c(-c7ccc(S(=O)(=O)[O-])cc7)c7ccc4[nH]7)C=C6)C=C5)cc3)nc(O)c2cc1OC
REMARK SMILES IDX 13 1 12 2 10 3 11 4 9 5 8 6 7 7 3 8 4 9 83 10 5 11 82 12
REMARK SMILES IDX 6 13 81 14 79 15 78 16 2 17 1 18 84 19 85 20 80 21 14 23
REMARK SMILES IDX 15 24 16 25 17 26 18 27 19 28 77 29 20 30 76 31 21 32 22 33
REMARK SMILES IDX 23 34 70 35 24 36 75 37 69 38 71 39 25 40 74 41 68 42 67 43
REMARK SMILES IDX 26 45 56 46 37 47 55 48 38 49 41 50 54 51 72 52 39 53 40 54
REMARK SMILES IDX 53 56 73 57 42 58 27 59 28 60 36 61 29 62 35 63 30 64 31 65
REMARK SMILES IDX 32 66 33 67 34 68 57 69 58 70 66 71 59 72 65 73 60 74 61 75
REMARK SMILES IDX 62 76 63 77 64 78 43 79 44 80 52 81 45 82 51 83 46 84 47 85
REMARK SMILES IDX 48 86 49 87 50 88
REMARK H PARENT 80 22 71 44 41 55
REMARK Flexibility Score: inf
ROOT
ATOM      1  C   UNL A   1      32.473  29.458  25.595  1.00  0.00     0.274 C 
ENDROOT
BRANCH   1   2
ATOM      2  O   UNL A   1      31.432  28.743  24.895  1.00  0.00    -0.461 OA
BRANCH   2   3
ATOM      3  C   UNL A   1      31.726  28.363  23.625  1.00  0.00     0.316 C 
ATOM      4  O   UNL A   1      30.880  28.207  22.746  1.00  0.00    -0.251 OA
BRANCH   3   5
ATOM      5  C   UNL A   1      33.186  28.097  23.340  1.00  0.00     0.200 C 
BRANCH   5   6
ATOM      6  S   UNL A   1      33.557  27.035  21.929  1.00  0.00    -0.074 SA
BRANCH   6   7
ATOM      7  C   UNL A   1      33.226  25.411  22.574  1.00  0.00     0.192 A 
ATOM      8  C   UNL A   1      35.146  21.617  24.656  1.00  0.00     0.162 A 
ATOM      9  C   UNL A   1      35.214  22.952  24.238  1.00  0.00     0.079 A 
ATOM     10  C   UNL A   1      33.982  20.868  24.449  1.00  0.00     0.161 A 
ATOM     11  C   UNL A   1      34.149  23.575  23.610  1.00  0.00     0.083 A 
ATOM     12  C   UNL A   1      32.873  21.513  23.900  1.00  0.00     0.066 A 
ATOM     13  N   UNL A   1      34.288  24.826  23.155  1.00  0.00    -0.222 NA
ATOM     14  C   UNL A   1      32.959  22.868  23.492  1.00  0.00     0.066 A 
ATOM     15  C   UNL A   1      31.916  23.622  22.970  1.00  0.00     0.223 A 
ATOM     16  N   UNL A   1      31.998  24.880  22.503  1.00  0.00    -0.187 NA
BRANCH   8  17
ATOM     17  O   UNL A   1      36.255  21.165  25.324  1.00  0.00    -0.493 OA
ATOM     18  C   UNL A   1      37.479  21.610  24.749  1.00  0.00     0.278 C 
ENDBRANCH   8  17
BRANCH  10  19
ATOM     19  O   UNL A   1      33.977  19.560  24.849  1.00  0.00    -0.493 OA
ATOM     20  C   UNL A   1      32.698  18.935  24.937  1.00  0.00     0.278 C 
ENDBRANCH  10  19
BRANCH  15  21
ATOM     21  O   UNL A   1      30.655  23.099  22.963  1.00  0.00    -0.493 OA
ATOM     22  H   UNL A   1      30.533  22.170  22.941  1.00  0.00     0.295 HD
ENDBRANCH  15  21
ENDBRANCH   6   7
ENDBRANCH   5   6
ENDBRANCH   3   5
ENDBRANCH   2   3
ENDBRANCH   1   2
BRANCH   1  23
ATOM     23  C   UNL A   1      32.554  29.033  27.057  1.00  0.00     0.275 C 
BRANCH  23  24
ATOM     24  O   UNL A   1      33.926  28.999  27.484  1.00  0.00    -0.458 OA
BRANCH  24  25
ATOM     25  C   UNL A   1      34.408  30.162  27.969  1.00  0.00     0.338 C 
ATOM     26  O   UNL A   1      33.804  31.213  28.121  1.00  0.00    -0.246 OA
BRANCH  25  27
ATOM     27  C   UNL A   1      35.835  30.002  28.278  1.00  0.00     0.060 A 
ATOM     28  C   UNL A   1      36.206  29.651  29.575  1.00  0.00     0.016 A 
ATOM     29  C   UNL A   1      36.792  30.080  27.262  1.00  0.00     0.016 A 
ATOM     30  C   UNL A   1      37.548  29.398  29.859  1.00  0.00     0.010 A 
ATOM     31  C   UNL A   1      38.124  29.766  27.534  1.00  0.00     0.010 A 
ATOM     32  C   UNL A   1      38.515  29.442  28.839  1.00  0.00    -0.014 A 
BRANCH  32  33
ATOM     33  C   UNL A   1      39.937  29.164  29.156  1.00  0.00     0.031 A 
ATOM     34  C   UNL A   1      40.522  27.813  28.860  1.00  0.00     0.074 A 
ATOM     35  C   UNL A   1      40.708  30.137  29.680  1.00  0.00     0.049 A 
ATOM     36  N   UNL A   1      41.774  27.439  28.904  1.00  0.00    -0.248 NA
ATOM     37  C   UNL A   1      39.587  26.747  28.466  1.00  0.00     0.031 C 
ATOM     38  C   UNL A   1      40.241  31.475  30.051  1.00  0.00     0.029 A 
ATOM     39  N   UNL A   1      42.049  30.157  29.971  1.00  0.00    -0.354 N 
ATOM     40  C   UNL A   1      41.782  26.108  28.506  1.00  0.00     0.074 A 
ATOM     41  C   UNL A   1      40.405  25.718  28.300  1.00  0.00     0.031 C 
ATOM     42  C   UNL A   1      41.289  32.198  30.481  1.00  0.00     0.029 A 
ATOM     43  C   UNL A   1      42.497  31.376  30.423  1.00  0.00     0.049 A 
ATOM     44  H   UNL A   1      42.635  29.373  29.865  1.00  0.00     0.167 HD
ATOM     45  C   UNL A   1      42.843  25.299  28.291  1.00  0.00     0.031 A 
ATOM     46  C   UNL A   1      43.742  31.797  30.727  1.00  0.00     0.031 A 
ATOM     47  C   UNL A   1      44.209  25.687  28.514  1.00  0.00     0.049 A 
ATOM     48  C   UNL A   1      44.906  30.865  30.528  1.00  0.00     0.074 A 
ATOM     49  C   UNL A   1      45.356  24.946  28.290  1.00  0.00     0.029 A 
ATOM     50  N   UNL A   1      44.613  26.913  29.016  1.00  0.00    -0.354 N 
ATOM     51  N   UNL A   1      44.904  29.639  30.059  1.00  0.00    -0.248 NA
ATOM     52  C   UNL A   1      46.240  31.375  30.876  1.00  0.00     0.031 C 
ATOM     53  C   UNL A   1      46.451  25.705  28.709  1.00  0.00     0.029 A 
ATOM     54  C   UNL A   1      45.991  26.941  29.137  1.00  0.00     0.049 A 
ATOM     55  H   UNL A   1      44.010  27.654  29.252  1.00  0.00     0.167 HD
ATOM     56  C   UNL A   1      46.235  29.240  30.033  1.00  0.00     0.074 A 
ATOM     57  C   UNL A   1      47.017  30.356  30.525  1.00  0.00     0.031 C 
ATOM     58  C   UNL A   1      46.759  28.057  29.630  1.00  0.00     0.031 A 
BRANCH  45  59
ATOM     59  C   UNL A   1      42.576  23.920  27.752  1.00  0.00    -0.014 A 
ATOM     60  C   UNL A   1      42.421  22.832  28.627  1.00  0.00     0.010 A 
ATOM     61  C   UNL A   1      42.571  23.693  26.362  1.00  0.00     0.010 A 
ATOM     62  C   UNL A   1      42.282  21.536  28.123  1.00  0.00     0.020 A 
ATOM     63  C   UNL A   1      42.409  22.402  25.856  1.00  0.00     0.020 A 
ATOM     64  C   UNL A   1      42.285  21.328  26.741  1.00  0.00     0.054 A 
BRANCH  64  65
ATOM     65  S   UNL A   1      42.107  19.640  26.103  1.00  0.00     0.124 S 
ATOM     66  O   UNL A   1      42.506  18.833  27.253  1.00  0.00    -0.237 OA
ATOM     67  O   UNL A   1      40.692  19.578  25.747  1.00  0.00    -0.237 OA
ATOM     68  O   UNL A   1      43.026  19.608  24.967  1.00  0.00    -0.744 OA
ENDBRANCH  64  65
ENDBRANCH  45  59
BRANCH  46  69
ATOM     69  C   UNL A   1      43.943  33.201  31.176  1.00  0.00    -0.014 A 
ATOM     70  C   UNL A   1      43.840  33.537  32.539  1.00  0.00     0.010 A 
ATOM     71  C   UNL A   1      44.166  34.220  30.234  1.00  0.00     0.010 A 
ATOM     72  C   UNL A   1      43.912  34.872  32.946  1.00  0.00     0.020 A 
ATOM     73  C   UNL A   1      44.259  35.556  30.640  1.00  0.00     0.020 A 
ATOM     74  C   UNL A   1      44.104  35.875  31.992  1.00  0.00     0.054 A 
BRANCH  74  75
ATOM     75  S   UNL A   1      44.143  37.606  32.534  1.00  0.00     0.124 S 
ATOM     76  O   UNL A   1      43.111  37.618  33.566  1.00  0.00    -0.237 OA
ATOM     77  O   UNL A   1      45.515  37.762  33.012  1.00  0.00    -0.237 OA
ATOM     78  O   UNL A   1      43.822  38.351  31.319  1.00  0.00    -0.744 OA
ENDBRANCH  74  75
ENDBRANCH  46  69
BRANCH  58  79
ATOM     79  C   UNL A   1      48.252  27.875  29.695  1.00  0.00    -0.014 A 
ATOM     80  C   UNL A   1      49.041  28.200  28.575  1.00  0.00     0.010 A 
ATOM     81  C   UNL A   1      48.849  27.235  30.794  1.00  0.00     0.010 A 
ATOM     82  C   UNL A   1      50.392  27.848  28.534  1.00  0.00     0.020 A 
ATOM     83  C   UNL A   1      50.207  26.903  30.767  1.00  0.00     0.020 A 
ATOM     84  C   UNL A   1      50.962  27.185  29.625  1.00  0.00     0.054 A 
BRANCH  84  85
ATOM     85  S   UNL A   1      52.703  26.684  29.535  1.00  0.00     0.124 S 
ATOM     86  O   UNL A   1      52.844  25.854  30.727  1.00  0.00    -0.237 OA
ATOM     87  O   UNL A   1      52.770  25.972  28.260  1.00  0.00    -0.237 OA
ATOM     88  O   UNL A   1      53.426  27.954  29.569  1.00  0.00    -0.744 OA
ENDBRANCH  84  85
ENDBRANCH  58  79
ENDBRANCH  32  33
ENDBRANCH  25  27
ENDBRANCH  24  25
ENDBRANCH  23  24
ENDBRANCH   1  23
TORSDOF 19
ENDMDL
