MODEL 1
REMARK VINA RESULT:     -11.3      0.000      0.000
REMARK SMILES [NH3+]Cc1c(-c2ccccc2)c(C(=O)OCCOC(=O)c2ccc(-c3c4nc(c(-c5ccc(S(=O)(=O)[O-])cc5)c5ccc([nH]5)c(-c5ccc(S(=O)(=O)[O-])cc5)c5nc(c(-c6ccc(S(=O)(=O)[O-])cc6)c6ccc3[nH]6)C=C5)C=C4)cc2)c2ccccn12
REMARK SMILES IDX 16 1 15 2 14 3 12 4 13 5 11 6 3 7 4 8 85 9 80 10 84 11 81 12
REMARK SMILES IDX 83 13 82 14 2 15 1 16 5 20 6 21 10 22 7 23 9 24 8 25 17 26
REMARK SMILES IDX 18 27 19 28 20 29 21 30 79 31 22 32 78 33 23 34 24 35 25 36
REMARK SMILES IDX 72 37 26 38 77 39 71 40 73 41 27 42 76 43 70 44 69 45 28 47
REMARK SMILES IDX 58 48 39 49 57 50 40 51 43 52 56 53 74 54 41 55 42 56 55 58
REMARK SMILES IDX 75 59 44 60 29 61 30 62 38 63 31 64 37 65 32 66 33 67 34 68
REMARK SMILES IDX 35 69 36 70 59 71 60 72 68 73 61 74 67 75 62 76 63 77 64 78
REMARK SMILES IDX 65 79 66 80 45 81 46 82 54 83 47 84 53 85 48 86 49 87 50 88
REMARK SMILES IDX 51 89 52 90
REMARK H PARENT 1 17 1 18 1 19 73 46 43 57
REMARK Flexibility Score: inf
ROOT
ATOM      1  C   UNL A   1      37.193  23.707  26.073  1.00  0.00     0.275 C 
ENDROOT
BRANCH   1   2
ATOM      2  C   UNL A   1      36.674  22.424  25.435  1.00  0.00     0.275 C 
BRANCH   2   3
ATOM      3  O   UNL A   1      36.044  21.604  26.441  1.00  0.00    -0.458 OA
BRANCH   3   4
ATOM      4  C   UNL A   1      34.692  21.752  26.561  1.00  0.00     0.341 C 
ATOM      5  O   UNL A   1      34.083  21.647  27.620  1.00  0.00    -0.246 OA
BRANCH   4   6
ATOM      6  C   UNL A   1      34.016  21.925  25.283  1.00  0.00     0.093 A 
ATOM      7  C   UNL A   1      32.537  22.661  23.716  1.00  0.00     0.086 A 
ATOM      8  C   UNL A   1      33.435  23.109  24.684  1.00  0.00     0.024 A 
ATOM      9  N   UNL A   1      32.681  21.277  23.599  1.00  0.00    -0.314 N 
ATOM     10  C   UNL A   1      33.628  20.845  24.518  1.00  0.00     0.061 A 
ATOM     11  C   UNL A   1      31.953  20.362  22.820  1.00  0.00     0.092 A 
ATOM     12  C   UNL A   1      33.883  19.443  24.625  1.00  0.00     0.027 A 
ATOM     13  C   UNL A   1      32.174  19.041  22.945  1.00  0.00     0.018 A 
ATOM     14  C   UNL A   1      33.182  18.577  23.875  1.00  0.00     0.004 A 
BRANCH   7  15
ATOM     15  C   UNL A   1      31.490  23.406  22.958  1.00  0.00     0.315 C 
BRANCH  15  16
ATOM     16  N   UNL A   1      30.360  23.702  23.828  1.00  0.00    -0.353 N 
ATOM     17  H   UNL A   1      29.936  24.586  23.548  1.00  0.00     0.344 HD
ATOM     18  H   UNL A   1      30.682  23.770  24.794  1.00  0.00     0.344 HD
ATOM     19  H   UNL A   1      29.668  22.955  23.753  1.00  0.00     0.344 HD
ENDBRANCH  15  16
ENDBRANCH   7  15
BRANCH   8  20
ATOM     20  C   UNL A   1      33.408  24.453  25.289  1.00  0.00    -0.015 A 
ATOM     21  C   UNL A   1      32.146  24.958  26.502  1.00  0.00     0.009 A 
ATOM     22  C   UNL A   1      34.046  25.689  24.205  1.00  0.00     0.009 A 
ATOM     23  C   UNL A   1      31.503  26.882  26.438  1.00  0.00     0.001 A 
ATOM     24  C   UNL A   1      33.490  27.367  24.180  1.00  0.00     0.001 A 
ATOM     25  C   UNL A   1      32.237  27.993  25.231  1.00  0.00     0.000 A 
ENDBRANCH   8  20
ENDBRANCH   4   6
ENDBRANCH   3   4
ENDBRANCH   2   3
ENDBRANCH   1   2
BRANCH   1  26
ATOM     26  O   UNL A   1      38.409  24.079  25.407  1.00  0.00    -0.458 OA
BRANCH  26  27
ATOM     27  C   UNL A   1      39.496  24.037  26.200  1.00  0.00     0.338 C 
ATOM     28  O   UNL A   1      40.354  23.169  26.247  1.00  0.00    -0.246 OA
BRANCH  27  29
ATOM     29  C   UNL A   1      39.594  25.244  27.005  1.00  0.00     0.060 A 
ATOM     30  C   UNL A   1      40.784  26.545  26.637  1.00  0.00     0.016 A 
ATOM     31  C   UNL A   1      38.906  25.175  28.613  1.00  0.00     0.016 A 
ATOM     32  C   UNL A   1      41.282  27.824  28.131  1.00  0.00     0.010 A 
ATOM     33  C   UNL A   1      39.297  26.333  29.893  1.00  0.00     0.010 A 
ATOM     34  C   UNL A   1      40.449  27.666  29.734  1.00  0.00    -0.014 A 
BRANCH  34  35
ATOM     35  C   UNL A   1      40.438  28.769  30.790  1.00  0.00     0.031 A 
ATOM     36  C   UNL A   1      41.321  28.688  32.035  1.00  0.00     0.074 A 
ATOM     37  C   UNL A   1      39.517  29.765  30.765  1.00  0.00     0.049 A 
ATOM     38  N   UNL A   1      41.251  29.379  33.153  1.00  0.00    -0.248 NA
ATOM     39  C   UNL A   1      42.386  27.674  32.052  1.00  0.00     0.031 C 
ATOM     40  C   UNL A   1      38.523  29.986  29.726  1.00  0.00     0.029 A 
ATOM     41  N   UNL A   1      39.231  30.783  31.657  1.00  0.00    -0.354 N 
ATOM     42  C   UNL A   1      42.206  28.836  34.015  1.00  0.00     0.074 A 
ATOM     43  C   UNL A   1      42.798  27.718  33.313  1.00  0.00     0.031 C 
ATOM     44  C   UNL A   1      37.776  31.058  29.987  1.00  0.00     0.029 A 
ATOM     45  C   UNL A   1      38.173  31.585  31.271  1.00  0.00     0.049 A 
ATOM     46  H   UNL A   1      39.736  30.925  32.490  1.00  0.00     0.167 HD
ATOM     47  C   UNL A   1      42.590  29.244  35.255  1.00  0.00     0.031 A 
ATOM     48  C   UNL A   1      37.538  32.623  31.847  1.00  0.00     0.031 A 
ATOM     49  C   UNL A   1      42.075  30.421  35.916  1.00  0.00     0.049 A 
ATOM     50  C   UNL A   1      38.022  33.109  33.166  1.00  0.00     0.074 A 
ATOM     51  C   UNL A   1      42.487  30.986  37.114  1.00  0.00     0.029 A 
ATOM     52  N   UNL A   1      41.062  31.231  35.427  1.00  0.00    -0.354 N 
ATOM     53  N   UNL A   1      38.953  32.592  33.928  1.00  0.00    -0.248 NA
ATOM     54  C   UNL A   1      37.400  34.328  33.693  1.00  0.00     0.031 C 
ATOM     55  C   UNL A   1      41.702  32.118  37.362  1.00  0.00     0.029 A 
ATOM     56  C   UNL A   1      40.832  32.286  36.298  1.00  0.00     0.049 A 
ATOM     57  H   UNL A   1      40.576  31.080  34.584  1.00  0.00     0.167 HD
ATOM     58  C   UNL A   1      39.052  33.440  35.018  1.00  0.00     0.074 A 
ATOM     59  C   UNL A   1      38.095  34.510  34.808  1.00  0.00     0.031 C 
ATOM     60  C   UNL A   1      39.870  33.337  36.091  1.00  0.00     0.031 A 
BRANCH  47  61
ATOM     61  C   UNL A   1      43.651  28.436  35.979  1.00  0.00    -0.014 A 
ATOM     62  C   UNL A   1      45.020  28.729  35.837  1.00  0.00     0.010 A 
ATOM     63  C   UNL A   1      43.273  27.400  36.858  1.00  0.00     0.010 A 
ATOM     64  C   UNL A   1      45.988  27.964  36.499  1.00  0.00     0.020 A 
ATOM     65  C   UNL A   1      44.238  26.654  37.548  1.00  0.00     0.020 A 
ATOM     66  C   UNL A   1      45.592  26.924  37.344  1.00  0.00     0.054 A 
BRANCH  66  67
ATOM     67  S   UNL A   1      46.870  25.946  38.183  1.00  0.00     0.124 S 
ATOM     68  O   UNL A   1      47.513  25.265  37.061  1.00  0.00    -0.237 OA
ATOM     69  O   UNL A   1      47.679  26.969  38.841  1.00  0.00    -0.237 OA
ATOM     70  O   UNL A   1      46.112  25.082  39.084  1.00  0.00    -0.744 OA
ENDBRANCH  66  67
ENDBRANCH  47  61
BRANCH  48  71
ATOM     71  C   UNL A   1      36.414  33.288  31.123  1.00  0.00    -0.014 A 
ATOM     72  C   UNL A   1      35.184  33.500  31.769  1.00  0.00     0.010 A 
ATOM     73  C   UNL A   1      36.604  33.817  29.830  1.00  0.00     0.010 A 
ATOM     74  C   UNL A   1      34.167  34.227  31.142  1.00  0.00     0.020 A 
ATOM     75  C   UNL A   1      35.600  34.571  29.212  1.00  0.00     0.020 A 
ATOM     76  C   UNL A   1      34.384  34.765  29.870  1.00  0.00     0.054 A 
BRANCH  76  77
ATOM     77  S   UNL A   1      33.081  35.783  29.119  1.00  0.00     0.124 S 
ATOM     78  O   UNL A   1      32.353  36.258  30.291  1.00  0.00    -0.237 OA
ATOM     79  O   UNL A   1      33.848  36.796  28.397  1.00  0.00    -0.237 OA
ATOM     80  O   UNL A   1      32.357  34.841  28.269  1.00  0.00    -0.744 OA
ENDBRANCH  76  77
ENDBRANCH  48  71
BRANCH  60  81
ATOM     81  C   UNL A   1      39.777  34.436  37.108  1.00  0.00    -0.014 A 
ATOM     82  C   UNL A   1      39.005  34.280  38.272  1.00  0.00     0.010 A 
ATOM     83  C   UNL A   1      40.474  35.638  36.893  1.00  0.00     0.010 A 
ATOM     84  C   UNL A   1      38.904  35.325  39.192  1.00  0.00     0.020 A 
ATOM     85  C   UNL A   1      40.396  36.675  37.825  1.00  0.00     0.020 A 
ATOM     86  C   UNL A   1      39.600  36.516  38.962  1.00  0.00     0.054 A 
BRANCH  86  87
ATOM     87  S   UNL A   1      39.481  37.844  40.189  1.00  0.00     0.124 S 
ATOM     88  O   UNL A   1      38.456  38.706  39.606  1.00  0.00    -0.237 OA
ATOM     89  O   UNL A   1      39.085  37.128  41.399  1.00  0.00    -0.237 OA
ATOM     90  O   UNL A   1      40.828  38.409  40.219  1.00  0.00    -0.744 OA
ENDBRANCH  86  87
ENDBRANCH  60  81
ENDBRANCH  34  35
ENDBRANCH  27  29
ENDBRANCH  26  27
ENDBRANCH   1  26
TORSDOF 17
ENDMDL
MODEL 2
REMARK VINA RESULT:     -11.1      1.083      2.956
REMARK SMILES [NH3+]Cc1c(-c2ccccc2)c(C(=O)OCCOC(=O)c2ccc(-c3c4nc(c(-c5ccc(S(=O)(=O)[O-])cc5)c5ccc([nH]5)c(-c5ccc(S(=O)(=O)[O-])cc5)c5nc(c(-c6ccc(S(=O)(=O)[O-])cc6)c6ccc3[nH]6)C=C5)C=C4)cc2)c2ccccn12
REMARK SMILES IDX 16 1 15 2 14 3 12 4 13 5 11 6 3 7 4 8 85 9 80 10 84 11 81 12
REMARK SMILES IDX 83 13 82 14 2 15 1 16 5 20 6 21 10 22 7 23 9 24 8 25 17 26
REMARK SMILES IDX 18 27 19 28 20 29 21 30 79 31 22 32 78 33 23 34 24 35 25 36
REMARK SMILES IDX 72 37 26 38 77 39 71 40 73 41 27 42 76 43 70 44 69 45 28 47
REMARK SMILES IDX 58 48 39 49 57 50 40 51 43 52 56 53 74 54 41 55 42 56 55 58
REMARK SMILES IDX 75 59 44 60 29 61 30 62 38 63 31 64 37 65 32 66 33 67 34 68
REMARK SMILES IDX 35 69 36 70 59 71 60 72 68 73 61 74 67 75 62 76 63 77 64 78
REMARK SMILES IDX 65 79 66 80 45 81 46 82 54 83 47 84 53 85 48 86 49 87 50 88
REMARK SMILES IDX 51 89 52 90
REMARK H PARENT 1 17 1 18 1 19 73 46 43 57
REMARK Flexibility Score: inf
ROOT
ATOM      1  C   UNL A   1      37.555  22.714  25.681  1.00  0.00     0.275 C 
ENDROOT
BRANCH   1   2
ATOM      2  C   UNL A   1      36.060  22.968  25.534  1.00  0.00     0.275 C 
BRANCH   2   3
ATOM      3  O   UNL A   1      35.846  24.158  24.747  1.00  0.00    -0.458 OA
BRANCH   3   4
ATOM      4  C   UNL A   1      34.767  24.126  23.909  1.00  0.00     0.341 C 
ATOM      5  O   UNL A   1      34.809  23.721  22.753  1.00  0.00    -0.246 OA
BRANCH   4   6
ATOM      6  C   UNL A   1      33.576  24.739  24.481  1.00  0.00     0.093 A 
ATOM      7  C   UNL A   1      31.388  25.155  24.952  1.00  0.00     0.086 A 
ATOM      8  C   UNL A   1      32.341  24.137  24.939  1.00  0.00     0.024 A 
ATOM      9  N   UNL A   1      32.038  26.362  24.687  1.00  0.00    -0.314 N 
ATOM     10  C   UNL A   1      33.384  26.105  24.459  1.00  0.00     0.061 A 
ATOM     11  C   UNL A   1      31.505  27.650  24.519  1.00  0.00     0.092 A 
ATOM     12  C   UNL A   1      34.233  27.194  24.092  1.00  0.00     0.027 A 
ATOM     13  C   UNL A   1      32.300  28.668  24.144  1.00  0.00     0.018 A 
ATOM     14  C   UNL A   1      33.713  28.423  23.935  1.00  0.00     0.004 A 
BRANCH   7  15
ATOM     15  C   UNL A   1      29.906  25.081  25.102  1.00  0.00     0.315 C 
BRANCH  15  16
ATOM     16  N   UNL A   1      29.544  25.137  26.513  1.00  0.00    -0.353 N 
ATOM     17  H   UNL A   1      29.243  24.214  26.824  1.00  0.00     0.344 HD
ATOM     18  H   UNL A   1      28.783  25.804  26.644  1.00  0.00     0.344 HD
ATOM     19  H   UNL A   1      30.353  25.433  27.060  1.00  0.00     0.344 HD
ENDBRANCH  15  16
ENDBRANCH   7  15
BRANCH   8  20
ATOM     20  C   UNL A   1      32.024  22.697  24.908  1.00  0.00    -0.015 A 
ATOM     21  C   UNL A   1      32.674  21.524  26.140  1.00  0.00     0.009 A 
ATOM     22  C   UNL A   1      31.758  22.105  23.269  1.00  0.00     0.009 A 
ATOM     23  C   UNL A   1      33.135  19.653  25.498  1.00  0.00     0.001 A 
ATOM     24  C   UNL A   1      32.143  20.465  22.734  1.00  0.00     0.001 A 
ATOM     25  C   UNL A   1      32.838  19.240  23.774  1.00  0.00     0.000 A 
ENDBRANCH   8  20
ENDBRANCH   4   6
ENDBRANCH   3   4
ENDBRANCH   2   3
ENDBRANCH   1   2
BRANCH   1  26
ATOM     26  O   UNL A   1      38.228  23.981  25.676  1.00  0.00    -0.458 OA
BRANCH  26  27
ATOM     27  C   UNL A   1      39.392  23.979  26.354  1.00  0.00     0.338 C 
ATOM     28  O   UNL A   1      40.274  23.135  26.321  1.00  0.00    -0.246 OA
BRANCH  27  29
ATOM     29  C   UNL A   1      39.537  25.198  27.133  1.00  0.00     0.060 A 
ATOM     30  C   UNL A   1      40.798  26.428  26.758  1.00  0.00     0.016 A 
ATOM     31  C   UNL A   1      38.817  25.203  28.728  1.00  0.00     0.016 A 
ATOM     32  C   UNL A   1      41.335  27.715  28.232  1.00  0.00     0.010 A 
ATOM     33  C   UNL A   1      39.245  26.369  29.989  1.00  0.00     0.010 A 
ATOM     34  C   UNL A   1      40.466  27.638  29.822  1.00  0.00    -0.014 A 
BRANCH  34  35
ATOM     35  C   UNL A   1      40.492  28.764  30.852  1.00  0.00     0.031 A 
ATOM     36  C   UNL A   1      41.411  28.707  32.072  1.00  0.00     0.074 A 
ATOM     37  C   UNL A   1      39.577  29.766  30.830  1.00  0.00     0.049 A 
ATOM     38  N   UNL A   1      41.378  29.424  33.175  1.00  0.00    -0.248 NA
ATOM     39  C   UNL A   1      42.470  27.686  32.081  1.00  0.00     0.031 C 
ATOM     40  C   UNL A   1      38.554  29.970  29.817  1.00  0.00     0.029 A 
ATOM     41  N   UNL A   1      39.323  30.806  31.707  1.00  0.00    -0.354 N 
ATOM     42  C   UNL A   1      42.355  28.894  34.022  1.00  0.00     0.074 A 
ATOM     43  C   UNL A   1      42.919  27.757  33.328  1.00  0.00     0.031 C 
ATOM     44  C   UNL A   1      37.821  31.052  30.074  1.00  0.00     0.029 A 
ATOM     45  C   UNL A   1      38.259  31.606  31.334  1.00  0.00     0.049 A 
ATOM     46  H   UNL A   1      39.853  30.964  32.522  1.00  0.00     0.167 HD
ATOM     47  C   UNL A   1      42.777  29.328  35.240  1.00  0.00     0.031 A 
ATOM     48  C   UNL A   1      37.648  32.661  31.903  1.00  0.00     0.031 A 
ATOM     49  C   UNL A   1      42.290  30.524  35.888  1.00  0.00     0.049 A 
ATOM     50  C   UNL A   1      38.174  33.175  33.197  1.00  0.00     0.074 A 
ATOM     51  C   UNL A   1      42.739  31.113  37.060  1.00  0.00     0.029 A 
ATOM     52  N   UNL A   1      41.267  31.329  35.410  1.00  0.00    -0.354 N 
ATOM     53  N   UNL A   1      39.123  32.669  33.943  1.00  0.00    -0.248 NA
ATOM     54  C   UNL A   1      37.574  34.409  33.713  1.00  0.00     0.031 C 
ATOM     55  C   UNL A   1      41.969  32.256  37.305  1.00  0.00     0.029 A 
ATOM     56  C   UNL A   1      41.069  32.404  36.263  1.00  0.00     0.049 A 
ATOM     57  H   UNL A   1      40.755  31.162  34.585  1.00  0.00     0.167 HD
ATOM     58  C   UNL A   1      39.259  33.541  35.009  1.00  0.00     0.074 A 
ATOM     59  C   UNL A   1      38.303  34.612  34.802  1.00  0.00     0.031 C 
ATOM     60  C   UNL A   1      40.107  33.458  36.060  1.00  0.00     0.031 A 
BRANCH  47  61
ATOM     61  C   UNL A   1      43.854  28.530  35.950  1.00  0.00    -0.014 A 
ATOM     62  C   UNL A   1      43.533  27.436  36.775  1.00  0.00     0.010 A 
ATOM     63  C   UNL A   1      45.215  28.842  35.750  1.00  0.00     0.010 A 
ATOM     64  C   UNL A   1      44.537  26.719  37.437  1.00  0.00     0.020 A 
ATOM     65  C   UNL A   1      46.224  28.106  36.384  1.00  0.00     0.020 A 
ATOM     66  C   UNL A   1      45.877  27.064  37.245  1.00  0.00     0.054 A 
BRANCH  66  67
ATOM     67  S   UNL A   1      47.155  26.120  38.122  1.00  0.00     0.124 S 
ATOM     68  O   UNL A   1      47.935  27.182  38.754  1.00  0.00    -0.237 OA
ATOM     69  O   UNL A   1      46.374  25.289  39.036  1.00  0.00    -0.237 OA
ATOM     70  O   UNL A   1      47.842  25.392  37.058  1.00  0.00    -0.744 OA
ENDBRANCH  66  67
ENDBRANCH  47  61
BRANCH  48  71
ATOM     71  C   UNL A   1      36.506  33.317  31.197  1.00  0.00    -0.014 A 
ATOM     72  C   UNL A   1      35.306  33.574  31.881  1.00  0.00     0.010 A 
ATOM     73  C   UNL A   1      36.655  33.793  29.879  1.00  0.00     0.010 A 
ATOM     74  C   UNL A   1      34.277  34.293  31.266  1.00  0.00     0.020 A 
ATOM     75  C   UNL A   1      35.639  34.540  29.271  1.00  0.00     0.020 A 
ATOM     76  C   UNL A   1      34.453  34.779  29.967  1.00  0.00     0.054 A 
BRANCH  76  77
ATOM     77  S   UNL A   1      33.138  35.789  29.226  1.00  0.00     0.124 S 
ATOM     78  O   UNL A   1      32.399  34.801  28.447  1.00  0.00    -0.237 OA
ATOM     79  O   UNL A   1      32.445  36.316  30.399  1.00  0.00    -0.237 OA
ATOM     80  O   UNL A   1      33.868  36.785  28.446  1.00  0.00    -0.744 OA
ENDBRANCH  76  77
ENDBRANCH  48  71
BRANCH  60  81
ATOM     81  C   UNL A   1      40.051  34.580  37.054  1.00  0.00    -0.014 A 
ATOM     82  C   UNL A   1      39.102  34.581  38.090  1.00  0.00     0.010 A 
ATOM     83  C   UNL A   1      40.963  35.645  36.946  1.00  0.00     0.010 A 
ATOM     84  C   UNL A   1      39.043  35.649  38.986  1.00  0.00     0.020 A 
ATOM     85  C   UNL A   1      40.923  36.702  37.857  1.00  0.00     0.020 A 
ATOM     86  C   UNL A   1      39.954  36.703  38.863  1.00  0.00     0.054 A 
BRANCH  86  87
ATOM     87  S   UNL A   1      39.879  38.062  40.061  1.00  0.00     0.124 S 
ATOM     88  O   UNL A   1      38.605  38.691  39.728  1.00  0.00    -0.237 OA
ATOM     89  O   UNL A   1      39.918  37.361  41.343  1.00  0.00    -0.237 OA
ATOM     90  O   UNL A   1      41.067  38.856  39.756  1.00  0.00    -0.744 OA
ENDBRANCH  86  87
ENDBRANCH  60  81
ENDBRANCH  34  35
ENDBRANCH  27  29
ENDBRANCH  26  27
ENDBRANCH   1  26
TORSDOF 17
ENDMDL
MODEL 3
REMARK VINA RESULT:     -11.0      6.851     12.159
REMARK SMILES [NH3+]Cc1c(-c2ccccc2)c(C(=O)OCCOC(=O)c2ccc(-c3c4nc(c(-c5ccc(S(=O)(=O)[O-])cc5)c5ccc([nH]5)c(-c5ccc(S(=O)(=O)[O-])cc5)c5nc(c(-c6ccc(S(=O)(=O)[O-])cc6)c6ccc3[nH]6)C=C5)C=C4)cc2)c2ccccn12
REMARK SMILES IDX 16 1 15 2 14 3 12 4 13 5 11 6 3 7 4 8 85 9 80 10 84 11 81 12
REMARK SMILES IDX 83 13 82 14 2 15 1 16 5 20 6 21 10 22 7 23 9 24 8 25 17 26
REMARK SMILES IDX 18 27 19 28 20 29 21 30 79 31 22 32 78 33 23 34 24 35 25 36
REMARK SMILES IDX 72 37 26 38 77 39 71 40 73 41 27 42 76 43 70 44 69 45 28 47
REMARK SMILES IDX 58 48 39 49 57 50 40 51 43 52 56 53 74 54 41 55 42 56 55 58
REMARK SMILES IDX 75 59 44 60 29 61 30 62 38 63 31 64 37 65 32 66 33 67 34 68
REMARK SMILES IDX 35 69 36 70 59 71 60 72 68 73 61 74 67 75 62 76 63 77 64 78
REMARK SMILES IDX 65 79 66 80 45 81 46 82 54 83 47 84 53 85 48 86 49 87 50 88
REMARK SMILES IDX 51 89 52 90
REMARK H PARENT 1 17 1 18 1 19 73 46 43 57
REMARK Flexibility Score: inf
ROOT
ATOM      1  C   UNL A   1      34.723  29.024  26.910  1.00  0.00     0.275 C 
ENDROOT
BRANCH   1   2
ATOM      2  C   UNL A   1      33.398  28.828  26.184  1.00  0.00     0.275 C 
BRANCH   2   3
ATOM      3  O   UNL A   1      33.565  27.867  25.121  1.00  0.00    -0.458 OA
BRANCH   3   4
ATOM      4  C   UNL A   1      33.317  26.566  25.456  1.00  0.00     0.341 C 
ATOM      5  O   UNL A   1      32.929  26.206  26.562  1.00  0.00    -0.246 OA
BRANCH   4   6
ATOM      6  C   UNL A   1      33.677  25.622  24.407  1.00  0.00     0.093 A 
ATOM      7  C   UNL A   1      33.486  24.036  22.785  1.00  0.00     0.086 A 
ATOM      8  C   UNL A   1      32.986  25.276  23.182  1.00  0.00     0.024 A 
ATOM      9  N   UNL A   1      34.556  23.712  23.622  1.00  0.00    -0.314 N 
ATOM     10  C   UNL A   1      34.702  24.714  24.572  1.00  0.00     0.061 A 
ATOM     11  C   UNL A   1      35.331  22.542  23.674  1.00  0.00     0.092 A 
ATOM     12  C   UNL A   1      35.696  24.553  25.586  1.00  0.00     0.027 A 
ATOM     13  C   UNL A   1      36.246  22.379  24.647  1.00  0.00     0.018 A 
ATOM     14  C   UNL A   1      36.433  23.430  25.625  1.00  0.00     0.004 A 
BRANCH   7  15
ATOM     15  C   UNL A   1      32.989  23.088  21.746  1.00  0.00     0.315 C 
BRANCH  15  16
ATOM     16  N   UNL A   1      32.052  22.144  22.341  1.00  0.00    -0.353 N 
ATOM     17  H   UNL A   1      31.145  22.229  21.883  1.00  0.00     0.344 HD
ATOM     18  H   UNL A   1      31.950  22.345  23.336  1.00  0.00     0.344 HD
ATOM     19  H   UNL A   1      32.405  21.194  22.222  1.00  0.00     0.344 HD
ENDBRANCH  15  16
ENDBRANCH   7  15
BRANCH   8  20
ATOM     20  C   UNL A   1      31.701  25.841  22.731  1.00  0.00    -0.015 A 
ATOM     21  C   UNL A   1      31.555  27.522  22.045  1.00  0.00     0.009 A 
ATOM     22  C   UNL A   1      30.333  25.203  23.642  1.00  0.00     0.009 A 
ATOM     23  C   UNL A   1      29.866  28.564  22.473  1.00  0.00     0.001 A 
ATOM     24  C   UNL A   1      28.859  26.118  23.985  1.00  0.00     0.001 A 
ATOM     25  C   UNL A   1      28.592  27.766  23.459  1.00  0.00     0.000 A 
ENDBRANCH   8  20
ENDBRANCH   4   6
ENDBRANCH   3   4
ENDBRANCH   2   3
ENDBRANCH   1   2
BRANCH   1  26
ATOM     26  O   UNL A   1      34.440  29.387  28.270  1.00  0.00    -0.458 OA
BRANCH  26  27
ATOM     27  C   UNL A   1      35.320  30.264  28.790  1.00  0.00     0.338 C 
ATOM     28  O   UNL A   1      35.088  31.371  29.249  1.00  0.00    -0.246 OA
BRANCH  27  29
ATOM     29  C   UNL A   1      36.659  29.697  28.817  1.00  0.00     0.060 A 
ATOM     30  C   UNL A   1      37.491  29.283  30.360  1.00  0.00     0.016 A 
ATOM     31  C   UNL A   1      37.630  29.904  27.377  1.00  0.00     0.016 A 
ATOM     32  C   UNL A   1      39.514  29.128  30.334  1.00  0.00     0.010 A 
ATOM     33  C   UNL A   1      39.388  29.705  27.347  1.00  0.00     0.010 A 
ATOM     34  C   UNL A   1      40.386  29.318  28.755  1.00  0.00    -0.014 A 
BRANCH  34  35
ATOM     35  C   UNL A   1      41.822  28.852  28.525  1.00  0.00     0.031 A 
ATOM     36  C   UNL A   1      42.983  29.844  28.474  1.00  0.00     0.074 A 
ATOM     37  C   UNL A   1      42.104  27.572  28.172  1.00  0.00     0.049 A 
ATOM     38  N   UNL A   1      44.209  29.672  28.028  1.00  0.00    -0.248 NA
ATOM     39  C   UNL A   1      42.727  31.218  28.935  1.00  0.00     0.031 C 
ATOM     40  C   UNL A   1      41.147  26.481  28.070  1.00  0.00     0.029 A 
ATOM     41  N   UNL A   1      43.284  26.955  27.796  1.00  0.00    -0.354 N 
ATOM     42  C   UNL A   1      44.833  30.920  28.090  1.00  0.00     0.074 A 
ATOM     43  C   UNL A   1      43.831  31.852  28.559  1.00  0.00     0.031 C 
ATOM     44  C   UNL A   1      41.743  25.344  27.715  1.00  0.00     0.029 A 
ATOM     45  C   UNL A   1      43.140  25.618  27.476  1.00  0.00     0.049 A 
ATOM     46  H   UNL A   1      44.149  27.425  27.762  1.00  0.00     0.167 HD
ATOM     47  C   UNL A   1      46.124  31.260  27.826  1.00  0.00     0.031 A 
ATOM     48  C   UNL A   1      43.987  24.677  27.019  1.00  0.00     0.031 A 
ATOM     49  C   UNL A   1      47.152  30.314  27.459  1.00  0.00     0.049 A 
ATOM     50  C   UNL A   1      45.413  25.045  26.812  1.00  0.00     0.074 A 
ATOM     51  C   UNL A   1      48.510  30.540  27.291  1.00  0.00     0.029 A 
ATOM     52  N   UNL A   1      46.948  28.962  27.232  1.00  0.00    -0.354 N 
ATOM     53  N   UNL A   1      45.969  26.225  26.921  1.00  0.00    -0.248 NA
ATOM     54  C   UNL A   1      46.332  23.960  26.452  1.00  0.00     0.031 C 
ATOM     55  C   UNL A   1      49.119  29.331  26.934  1.00  0.00     0.029 A 
ATOM     56  C   UNL A   1      48.149  28.343  26.923  1.00  0.00     0.049 A 
ATOM     57  H   UNL A   1      46.076  28.507  27.283  1.00  0.00     0.167 HD
ATOM     58  C   UNL A   1      47.316  26.023  26.671  1.00  0.00     0.074 A 
ATOM     59  C   UNL A   1      47.490  24.605  26.418  1.00  0.00     0.031 C 
ATOM     60  C   UNL A   1      48.314  26.936  26.659  1.00  0.00     0.031 A 
BRANCH  47  61
ATOM     61  C   UNL A   1      46.521  32.718  27.958  1.00  0.00    -0.014 A 
ATOM     62  C   UNL A   1      46.438  33.604  26.867  1.00  0.00     0.010 A 
ATOM     63  C   UNL A   1      46.934  33.228  29.206  1.00  0.00     0.010 A 
ATOM     64  C   UNL A   1      46.824  34.943  27.001  1.00  0.00     0.020 A 
ATOM     65  C   UNL A   1      47.289  34.576  29.352  1.00  0.00     0.020 A 
ATOM     66  C   UNL A   1      47.257  35.420  28.241  1.00  0.00     0.054 A 
BRANCH  66  67
ATOM     67  S   UNL A   1      47.756  37.159  28.381  1.00  0.00     0.124 S 
ATOM     68  O   UNL A   1      47.885  37.549  26.978  1.00  0.00    -0.237 OA
ATOM     69  O   UNL A   1      46.634  37.761  29.097  1.00  0.00    -0.237 OA
ATOM     70  O   UNL A   1      49.009  37.102  29.129  1.00  0.00    -0.744 OA
ENDBRANCH  66  67
ENDBRANCH  47  61
BRANCH  48  71
ATOM     71  C   UNL A   1      43.486  23.289  26.790  1.00  0.00    -0.014 A 
ATOM     72  C   UNL A   1      43.536  22.722  25.506  1.00  0.00     0.010 A 
ATOM     73  C   UNL A   1      43.071  22.487  27.873  1.00  0.00     0.010 A 
ATOM     74  C   UNL A   1      43.183  21.384  25.305  1.00  0.00     0.020 A 
ATOM     75  C   UNL A   1      42.746  21.140  27.680  1.00  0.00     0.020 A 
ATOM     76  C   UNL A   1      42.797  20.598  26.395  1.00  0.00     0.054 A 
BRANCH  76  77
ATOM     77  S   UNL A   1      42.434  18.840  26.120  1.00  0.00     0.124 S 
ATOM     78  O   UNL A   1      43.405  18.487  25.090  1.00  0.00    -0.237 OA
ATOM     79  O   UNL A   1      42.670  18.258  27.438  1.00  0.00    -0.237 OA
ATOM     80  O   UNL A   1      41.037  18.842  25.691  1.00  0.00    -0.744 OA
ENDBRANCH  76  77
ENDBRANCH  48  71
BRANCH  60  81
ATOM     81  C   UNL A   1      49.694  26.414  26.387  1.00  0.00    -0.014 A 
ATOM     82  C   UNL A   1      50.219  26.404  25.083  1.00  0.00     0.010 A 
ATOM     83  C   UNL A   1      50.471  25.928  27.453  1.00  0.00     0.010 A 
ATOM     84  C   UNL A   1      51.491  25.883  24.845  1.00  0.00     0.020 A 
ATOM     85  C   UNL A   1      51.755  25.431  27.220  1.00  0.00     0.020 A 
ATOM     86  C   UNL A   1      52.251  25.400  25.915  1.00  0.00     0.054 A 
BRANCH  86  87
ATOM     87  S   UNL A   1      53.915  24.762  25.583  1.00  0.00     0.124 S 
ATOM     88  O   UNL A   1      54.377  25.655  24.523  1.00  0.00    -0.237 OA
ATOM     89  O   UNL A   1      54.582  24.920  26.873  1.00  0.00    -0.237 OA
ATOM     90  O   UNL A   1      53.680  23.379  25.175  1.00  0.00    -0.744 OA
ENDBRANCH  86  87
ENDBRANCH  60  81
ENDBRANCH  34  35
ENDBRANCH  27  29
ENDBRANCH  26  27
ENDBRANCH   1  26
TORSDOF 17
ENDMDL
