MODEL 1
REMARK VINA RESULT:     -11.6      0.000      0.000
REMARK SMILES COc1ccc(/C=C2\SC(=S)N(c3cc(C(=O)OCCOC(=O)c4ccc(-c5c6nc(c(-c7ccc(S(=O)(=O)[O-])cc7)c7ccc([nH]7)c(-c7ccc(S(=O)(=O)[O-])cc7)c7nc(c(-c8ccc(S(=O)(=O)[O-])cc8)c8ccc5[nH]8)C=C7)C=C6)cc4)ccc3C)C2=O)cc1
REMARK SMILES IDX 19 1 18 2 16 3 17 4 15 5 13 6 14 7 86 8 85 9 87 10 84 11
REMARK SMILES IDX 12 12 7 13 8 14 9 15 88 16 10 17 89 18 11 19 6 20 3 21 4 22
REMARK SMILES IDX 91 23 5 24 90 25 2 26 1 27 20 28 21 29 22 30 23 31 24 32
REMARK SMILES IDX 25 33 83 34 26 35 82 36 27 37 28 38 29 39 76 40 30 41 81 42
REMARK SMILES IDX 75 43 77 44 31 45 80 46 74 47 73 48 32 50 62 51 43 52 61 53
REMARK SMILES IDX 44 54 47 55 60 56 78 57 45 58 46 59 59 61 79 62 48 63 33 64
REMARK SMILES IDX 34 65 42 66 35 67 41 68 36 69 37 70 38 71 39 72 40 73 63 74
REMARK SMILES IDX 64 75 72 76 65 77 71 78 66 79 67 80 68 81 69 82 70 83 49 84
REMARK SMILES IDX 50 85 58 86 51 87 57 88 52 89 53 90 54 91 55 92 56 93
REMARK H PARENT 77 49 47 60
REMARK Flexibility Score: inf
ROOT
ATOM      1  C   UNL A   1      34.445  32.127  27.996  1.00  0.00     0.275 C 
ENDROOT
BRANCH   1   2
ATOM      2  O   UNL A   1      33.475  31.113  27.660  1.00  0.00    -0.458 OA
BRANCH   2   3
ATOM      3  C   UNL A   1      33.966  29.976  27.108  1.00  0.00     0.338 C 
ATOM      4  O   UNL A   1      34.995  29.399  27.420  1.00  0.00    -0.246 OA
BRANCH   3   5
ATOM      5  C   UNL A   1      32.997  29.425  26.130  1.00  0.00     0.062 A 
ATOM      6  C   UNL A   1      32.297  27.531  24.773  1.00  0.00     0.054 A 
ATOM      7  C   UNL A   1      33.237  28.148  25.608  1.00  0.00     0.042 A 
ATOM      8  C   UNL A   1      31.136  28.224  24.388  1.00  0.00    -0.027 A 
ATOM      9  C   UNL A   1      30.942  29.534  24.865  1.00  0.00     0.006 A 
ATOM     10  C   UNL A   1      30.114  27.643  23.452  1.00  0.00     0.046 C 
ATOM     11  C   UNL A   1      31.850  30.123  25.750  1.00  0.00     0.016 A 
BRANCH   6  12
ATOM     12  N   UNL A   1      32.497  26.166  24.442  1.00  0.00    -0.261 N 
ATOM     13  C   UNL A   1      32.214  22.730  25.537  1.00  0.00     0.029 C 
ATOM     14  C   UNL A   1      32.479  23.842  24.838  1.00  0.00     0.081 C 
ATOM     15  S   UNL A   1      33.124  23.974  23.249  1.00  0.00    -0.054 SA
ATOM     16  C   UNL A   1      32.179  25.194  25.385  1.00  0.00     0.270 C 
ATOM     17  C   UNL A   1      33.024  25.733  23.241  1.00  0.00     0.152 C 
ATOM     18  O   UNL A   1      31.715  25.381  26.503  1.00  0.00    -0.268 OA
ATOM     19  S   UNL A   1      33.526  26.650  21.936  1.00  0.00    -0.051 S 
BRANCH  13  20
ATOM     20  C   UNL A   1      32.439  21.348  25.102  1.00  0.00    -0.024 A 
ATOM     21  C   UNL A   1      32.877  18.679  24.328  1.00  0.00     0.118 A 
ATOM     22  C   UNL A   1      33.163  19.096  25.628  1.00  0.00     0.047 A 
ATOM     23  C   UNL A   1      32.401  19.609  23.403  1.00  0.00     0.047 A 
ATOM     24  C   UNL A   1      32.958  20.423  26.013  1.00  0.00     0.012 A 
ATOM     25  C   UNL A   1      32.185  20.938  23.788  1.00  0.00     0.012 A 
BRANCH  21  26
ATOM     26  O   UNL A   1      33.074  17.345  24.100  1.00  0.00    -0.497 OA
ATOM     27  C   UNL A   1      33.807  17.011  22.928  1.00  0.00     0.278 C 
ENDBRANCH  21  26
ENDBRANCH  13  20
ENDBRANCH   6  12
ENDBRANCH   3   5
ENDBRANCH   2   3
ENDBRANCH   1   2
BRANCH   1  28
ATOM     28  C   UNL A   1      34.709  32.123  29.500  1.00  0.00     0.275 C 
BRANCH  28  29
ATOM     29  O   UNL A   1      36.115  31.925  29.724  1.00  0.00    -0.458 OA
BRANCH  29  30
ATOM     30  C   UNL A   1      36.472  30.757  30.308  1.00  0.00     0.338 C 
ATOM     31  O   UNL A   1      35.777  30.033  30.998  1.00  0.00    -0.246 OA
BRANCH  30  32
ATOM     32  C   UNL A   1      37.882  30.473  29.978  1.00  0.00     0.060 A 
ATOM     33  C   UNL A   1      38.263  30.358  28.645  1.00  0.00     0.016 A 
ATOM     34  C   UNL A   1      38.810  30.237  30.988  1.00  0.00     0.016 A 
ATOM     35  C   UNL A   1      39.543  29.919  28.312  1.00  0.00     0.010 A 
ATOM     36  C   UNL A   1      40.126  29.896  30.650  1.00  0.00     0.010 A 
ATOM     37  C   UNL A   1      40.501  29.692  29.309  1.00  0.00    -0.014 A 
BRANCH  37  38
ATOM     38  C   UNL A   1      41.867  29.203  28.955  1.00  0.00     0.031 A 
ATOM     39  C   UNL A   1      43.054  30.133  29.037  1.00  0.00     0.074 A 
ATOM     40  C   UNL A   1      42.069  27.922  28.580  1.00  0.00     0.049 A 
ATOM     41  N   UNL A   1      44.279  29.944  28.614  1.00  0.00    -0.248 NA
ATOM     42  C   UNL A   1      42.832  31.444  29.665  1.00  0.00     0.031 C 
ATOM     43  C   UNL A   1      41.038  26.887  28.489  1.00  0.00     0.029 A 
ATOM     44  N   UNL A   1      43.222  27.268  28.210  1.00  0.00    -0.354 N 
ATOM     45  C   UNL A   1      44.960  31.128  28.884  1.00  0.00     0.074 A 
ATOM     46  C   UNL A   1      44.011  32.029  29.501  1.00  0.00     0.031 C 
ATOM     47  C   UNL A   1      41.607  25.725  28.132  1.00  0.00     0.029 A 
ATOM     48  C   UNL A   1      43.026  25.948  27.879  1.00  0.00     0.049 A 
ATOM     49  H   UNL A   1      44.105  27.705  28.186  1.00  0.00     0.167 HD
ATOM     50  C   UNL A   1      46.254  31.442  28.635  1.00  0.00     0.031 A 
ATOM     51  C   UNL A   1      43.869  25.022  27.380  1.00  0.00     0.031 A 
ATOM     52  C   UNL A   1      47.214  30.543  28.050  1.00  0.00     0.049 A 
ATOM     53  C   UNL A   1      45.292  25.398  27.082  1.00  0.00     0.074 A 
ATOM     54  C   UNL A   1      48.545  30.781  27.749  1.00  0.00     0.029 A 
ATOM     55  N   UNL A   1      46.954  29.229  27.696  1.00  0.00    -0.354 N 
ATOM     56  N   UNL A   1      45.892  26.550  27.264  1.00  0.00    -0.248 NA
ATOM     57  C   UNL A   1      46.146  24.356  26.494  1.00  0.00     0.031 C 
ATOM     58  C   UNL A   1      49.079  29.624  27.172  1.00  0.00     0.029 A 
ATOM     59  C   UNL A   1      48.097  28.647  27.171  1.00  0.00     0.049 A 
ATOM     60  H   UNL A   1      46.087  28.777  27.803  1.00  0.00     0.167 HD
ATOM     61  C   UNL A   1      47.191  26.374  26.804  1.00  0.00     0.074 A 
ATOM     62  C   UNL A   1      47.302  24.997  26.370  1.00  0.00     0.031 C 
ATOM     63  C   UNL A   1      48.199  27.278  26.737  1.00  0.00     0.031 A 
BRANCH  50  64
ATOM     64  C   UNL A   1      46.702  32.846  28.944  1.00  0.00    -0.014 A 
ATOM     65  C   UNL A   1      46.436  33.913  28.069  1.00  0.00     0.010 A 
ATOM     66  C   UNL A   1      47.360  33.106  30.160  1.00  0.00     0.010 A 
ATOM     67  C   UNL A   1      46.847  35.210  28.390  1.00  0.00     0.020 A 
ATOM     68  C   UNL A   1      47.752  34.404  30.497  1.00  0.00     0.020 A 
ATOM     69  C   UNL A   1      47.507  35.447  29.602  1.00  0.00     0.054 A 
BRANCH  69  70
ATOM     70  S   UNL A   1      48.005  37.142  30.012  1.00  0.00     0.124 S 
ATOM     71  O   UNL A   1      48.697  36.953  31.284  1.00  0.00    -0.237 OA
ATOM     72  O   UNL A   1      48.856  37.512  28.884  1.00  0.00    -0.237 OA
ATOM     73  O   UNL A   1      46.738  37.865  30.094  1.00  0.00    -0.744 OA
ENDBRANCH  69  70
ENDBRANCH  50  64
BRANCH  51  74
ATOM     74  C   UNL A   1      43.364  23.655  27.077  1.00  0.00    -0.014 A 
ATOM     75  C   UNL A   1      43.127  23.257  25.751  1.00  0.00     0.010 A 
ATOM     76  C   UNL A   1      43.157  22.731  28.118  1.00  0.00     0.010 A 
ATOM     77  C   UNL A   1      42.695  21.958  25.470  1.00  0.00     0.020 A 
ATOM     78  C   UNL A   1      42.752  21.424  27.839  1.00  0.00     0.020 A 
ATOM     79  C   UNL A   1      42.517  21.047  26.516  1.00  0.00     0.054 A 
BRANCH  79  80
ATOM     80  S   UNL A   1      42.042  19.339  26.125  1.00  0.00     0.124 S 
ATOM     81  O   UNL A   1      40.599  19.459  25.951  1.00  0.00    -0.237 OA
ATOM     82  O   UNL A   1      42.806  19.067  24.910  1.00  0.00    -0.237 OA
ATOM     83  O   UNL A   1      42.473  18.590  27.302  1.00  0.00    -0.744 OA
ENDBRANCH  79  80
ENDBRANCH  51  74
BRANCH  63  84
ATOM     84  C   UNL A   1      49.524  26.799  26.213  1.00  0.00    -0.014 A 
ATOM     85  C   UNL A   1      49.898  27.017  24.876  1.00  0.00     0.010 A 
ATOM     86  C   UNL A   1      50.426  26.160  27.084  1.00  0.00     0.010 A 
ATOM     87  C   UNL A   1      51.142  26.580  24.413  1.00  0.00     0.020 A 
ATOM     88  C   UNL A   1      51.677  25.739  26.629  1.00  0.00     0.020 A 
ATOM     89  C   UNL A   1      52.022  25.939  25.291  1.00  0.00     0.054 A 
BRANCH  89  90
ATOM     90  S   UNL A   1      53.645  25.409  24.679  1.00  0.00     0.124 S 
ATOM     91  O   UNL A   1      54.550  26.044  25.632  1.00  0.00    -0.237 OA
ATOM     92  O   UNL A   1      53.562  23.953  24.763  1.00  0.00    -0.237 OA
ATOM     93  O   UNL A   1      53.693  25.946  23.320  1.00  0.00    -0.744 OA
ENDBRANCH  89  90
ENDBRANCH  63  84
ENDBRANCH  37  38
ENDBRANCH  30  32
ENDBRANCH  29  30
ENDBRANCH  28  29
ENDBRANCH   1  28
TORSDOF 17
ENDMDL
MODEL 2
REMARK VINA RESULT:     -11.5      1.890      8.277
REMARK SMILES COc1ccc(/C=C2\SC(=S)N(c3cc(C(=O)OCCOC(=O)c4ccc(-c5c6nc(c(-c7ccc(S(=O)(=O)[O-])cc7)c7ccc([nH]7)c(-c7ccc(S(=O)(=O)[O-])cc7)c7nc(c(-c8ccc(S(=O)(=O)[O-])cc8)c8ccc5[nH]8)C=C7)C=C6)cc4)ccc3C)C2=O)cc1
REMARK SMILES IDX 19 1 18 2 16 3 17 4 15 5 13 6 14 7 86 8 85 9 87 10 84 11
REMARK SMILES IDX 12 12 7 13 8 14 9 15 88 16 10 17 89 18 11 19 6 20 3 21 4 22
REMARK SMILES IDX 91 23 5 24 90 25 2 26 1 27 20 28 21 29 22 30 23 31 24 32
REMARK SMILES IDX 25 33 83 34 26 35 82 36 27 37 28 38 29 39 76 40 30 41 81 42
REMARK SMILES IDX 75 43 77 44 31 45 80 46 74 47 73 48 32 50 62 51 43 52 61 53
REMARK SMILES IDX 44 54 47 55 60 56 78 57 45 58 46 59 59 61 79 62 48 63 33 64
REMARK SMILES IDX 34 65 42 66 35 67 41 68 36 69 37 70 38 71 39 72 40 73 63 74
REMARK SMILES IDX 64 75 72 76 65 77 71 78 66 79 67 80 68 81 69 82 70 83 49 84
REMARK SMILES IDX 50 85 58 86 51 87 57 88 52 89 53 90 54 91 55 92 56 93
REMARK H PARENT 77 49 47 60
REMARK Flexibility Score: inf
ROOT
ATOM      1  C   UNL A   1      34.353  29.951  27.558  1.00  0.00     0.275 C 
ENDROOT
BRANCH   1   2
ATOM      2  O   UNL A   1      34.471  28.570  27.159  1.00  0.00    -0.458 OA
BRANCH   2   3
ATOM      3  C   UNL A   1      33.309  27.927  26.884  1.00  0.00     0.338 C 
ATOM      4  O   UNL A   1      32.275  27.980  27.529  1.00  0.00    -0.246 OA
BRANCH   3   5
ATOM      5  C   UNL A   1      33.409  27.230  25.578  1.00  0.00     0.062 A 
ATOM      6  C   UNL A   1      33.778  25.143  24.385  1.00  0.00     0.054 A 
ATOM      7  C   UNL A   1      33.781  25.881  25.575  1.00  0.00     0.042 A 
ATOM      8  C   UNL A   1      33.476  25.776  23.166  1.00  0.00    -0.027 A 
ATOM      9  C   UNL A   1      33.172  27.150  23.176  1.00  0.00     0.006 A 
ATOM     10  C   UNL A   1      33.507  25.058  21.847  1.00  0.00     0.046 C 
ATOM     11  C   UNL A   1      33.112  27.868  24.374  1.00  0.00     0.016 A 
BRANCH   6  12
ATOM     12  N   UNL A   1      33.965  23.740  24.472  1.00  0.00    -0.261 N 
ATOM     13  C   UNL A   1      32.402  20.481  24.321  1.00  0.00     0.029 C 
ATOM     14  C   UNL A   1      33.278  21.484  24.468  1.00  0.00     0.081 C 
ATOM     15  S   UNL A   1      34.967  21.389  24.774  1.00  0.00    -0.054 SA
ATOM     16  C   UNL A   1      32.860  22.907  24.328  1.00  0.00     0.270 C 
ATOM     17  C   UNL A   1      35.181  23.137  24.727  1.00  0.00     0.152 C 
ATOM     18  O   UNL A   1      31.705  23.251  24.111  1.00  0.00    -0.268 OA
ATOM     19  S   UNL A   1      36.667  23.862  24.975  1.00  0.00    -0.051 S 
BRANCH  13  20
ATOM     20  C   UNL A   1      32.692  19.046  24.410  1.00  0.00    -0.024 A 
ATOM     21  C   UNL A   1      33.224  16.293  24.640  1.00  0.00     0.118 A 
ATOM     22  C   UNL A   1      32.881  17.045  25.765  1.00  0.00     0.047 A 
ATOM     23  C   UNL A   1      33.333  16.928  23.403  1.00  0.00     0.047 A 
ATOM     24  C   UNL A   1      32.628  18.415  25.656  1.00  0.00     0.012 A 
ATOM     25  C   UNL A   1      33.070  18.299  23.289  1.00  0.00     0.012 A 
BRANCH  21  26
ATOM     26  O   UNL A   1      33.394  14.957  24.878  1.00  0.00    -0.497 OA
ATOM     27  C   UNL A   1      32.401  14.332  25.682  1.00  0.00     0.278 C 
ENDBRANCH  21  26
ENDBRANCH  13  20
ENDBRANCH   6  12
ENDBRANCH   3   5
ENDBRANCH   2   3
ENDBRANCH   1   2
BRANCH   1  28
ATOM     28  C   UNL A   1      35.723  30.502  27.949  1.00  0.00     0.275 C 
BRANCH  28  29
ATOM     29  O   UNL A   1      36.694  29.446  27.853  1.00  0.00    -0.458 OA
BRANCH  29  30
ATOM     30  C   UNL A   1      37.427  29.200  28.964  1.00  0.00     0.338 C 
ATOM     31  O   UNL A   1      37.013  28.950  30.082  1.00  0.00    -0.246 OA
BRANCH  30  32
ATOM     32  C   UNL A   1      38.858  29.282  28.615  1.00  0.00     0.060 A 
ATOM     33  C   UNL A   1      39.235  29.338  27.277  1.00  0.00     0.016 A 
ATOM     34  C   UNL A   1      39.832  29.219  29.608  1.00  0.00     0.016 A 
ATOM     35  C   UNL A   1      40.577  29.238  26.917  1.00  0.00     0.010 A 
ATOM     36  C   UNL A   1      41.185  29.223  29.248  1.00  0.00     0.010 A 
ATOM     37  C   UNL A   1      41.577  29.192  27.897  1.00  0.00    -0.014 A 
BRANCH  37  38
ATOM     38  C   UNL A   1      43.015  29.065  27.512  1.00  0.00     0.031 A 
ATOM     39  C   UNL A   1      43.550  27.754  26.988  1.00  0.00     0.074 A 
ATOM     40  C   UNL A   1      43.853  30.119  27.602  1.00  0.00     0.049 A 
ATOM     41  N   UNL A   1      44.791  27.401  26.762  1.00  0.00    -0.248 NA
ATOM     42  C   UNL A   1      42.565  26.703  26.689  1.00  0.00     0.031 C 
ATOM     43  C   UNL A   1      43.486  31.464  28.050  1.00  0.00     0.029 A 
ATOM     44  N   UNL A   1      45.194  30.226  27.313  1.00  0.00    -0.354 N 
ATOM     45  C   UNL A   1      44.738  26.076  26.339  1.00  0.00     0.074 A 
ATOM     46  C   UNL A   1      43.344  25.687  26.345  1.00  0.00     0.031 C 
ATOM     47  C   UNL A   1      44.558  32.267  27.966  1.00  0.00     0.029 A 
ATOM     48  C   UNL A   1      45.712  31.478  27.547  1.00  0.00     0.049 A 
ATOM     49  H   UNL A   1      45.731  29.476  26.969  1.00  0.00     0.167 HD
ATOM     50  C   UNL A   1      45.755  25.254  25.985  1.00  0.00     0.031 A 
ATOM     51  C   UNL A   1      46.976  31.943  27.485  1.00  0.00     0.031 A 
ATOM     52  C   UNL A   1      47.141  25.639  25.947  1.00  0.00     0.049 A 
ATOM     53  C   UNL A   1      48.092  31.008  27.120  1.00  0.00     0.074 A 
ATOM     54  C   UNL A   1      48.241  24.867  25.613  1.00  0.00     0.029 A 
ATOM     55  N   UNL A   1      47.617  26.909  26.232  1.00  0.00    -0.354 N 
ATOM     56  N   UNL A   1      48.030  29.736  26.808  1.00  0.00    -0.248 NA
ATOM     57  C   UNL A   1      49.453  31.566  27.118  1.00  0.00     0.031 C 
ATOM     58  C   UNL A   1      49.388  25.658  25.738  1.00  0.00     0.029 A 
ATOM     59  C   UNL A   1      48.995  26.939  26.091  1.00  0.00     0.049 A 
ATOM     60  H   UNL A   1      47.059  27.676  26.494  1.00  0.00     0.167 HD
ATOM     61  C   UNL A   1      49.343  29.339  26.582  1.00  0.00     0.074 A 
ATOM     62  C   UNL A   1      50.174  30.512  26.757  1.00  0.00     0.031 C 
ATOM     63  C   UNL A   1      49.816  28.108  26.269  1.00  0.00     0.031 A 
BRANCH  50  64
ATOM     64  C   UNL A   1      45.413  23.823  25.662  1.00  0.00    -0.014 A 
ATOM     65  C   UNL A   1      45.161  22.880  26.672  1.00  0.00     0.010 A 
ATOM     66  C   UNL A   1      45.295  23.432  24.315  1.00  0.00     0.010 A 
ATOM     67  C   UNL A   1      44.828  21.563  26.343  1.00  0.00     0.020 A 
ATOM     68  C   UNL A   1      44.939  22.124  23.980  1.00  0.00     0.020 A 
ATOM     69  C   UNL A   1      44.723  21.192  24.997  1.00  0.00     0.054 A 
BRANCH  69  70
ATOM     70  S   UNL A   1      44.259  19.485  24.592  1.00  0.00     0.124 S 
ATOM     71  O   UNL A   1      44.513  19.437  23.154  1.00  0.00    -0.237 OA
ATOM     72  O   UNL A   1      45.172  18.698  25.417  1.00  0.00    -0.237 OA
ATOM     73  O   UNL A   1      42.853  19.407  24.980  1.00  0.00    -0.744 OA
ENDBRANCH  69  70
ENDBRANCH  50  64
BRANCH  51  74
ATOM     74  C   UNL A   1      47.255  33.363  27.834  1.00  0.00    -0.014 A 
ATOM     75  C   UNL A   1      47.208  34.364  26.849  1.00  0.00     0.010 A 
ATOM     76  C   UNL A   1      47.528  33.722  29.166  1.00  0.00     0.010 A 
ATOM     77  C   UNL A   1      47.428  35.701  27.191  1.00  0.00     0.020 A 
ATOM     78  C   UNL A   1      47.721  35.061  29.516  1.00  0.00     0.020 A 
ATOM     79  C   UNL A   1      47.675  36.042  28.525  1.00  0.00     0.054 A 
BRANCH  79  80
ATOM     80  S   UNL A   1      47.868  37.793  28.964  1.00  0.00     0.124 S 
ATOM     81  O   UNL A   1      48.445  37.706  30.301  1.00  0.00    -0.237 OA
ATOM     82  O   UNL A   1      48.761  38.287  27.919  1.00  0.00    -0.237 OA
ATOM     83  O   UNL A   1      46.503  38.311  28.900  1.00  0.00    -0.744 OA
ENDBRANCH  79  80
ENDBRANCH  51  74
BRANCH  63  84
ATOM     84  C   UNL A   1      51.297  27.972  26.053  1.00  0.00    -0.014 A 
ATOM     85  C   UNL A   1      52.159  27.643  27.113  1.00  0.00     0.010 A 
ATOM     86  C   UNL A   1      51.829  28.132  24.760  1.00  0.00     0.010 A 
ATOM     87  C   UNL A   1      53.531  27.503  26.888  1.00  0.00     0.020 A 
ATOM     88  C   UNL A   1      53.197  27.974  24.528  1.00  0.00     0.020 A 
ATOM     89  C   UNL A   1      54.043  27.674  25.597  1.00  0.00     0.054 A 
BRANCH  89  90
ATOM     90  S   UNL A   1      55.821  27.456  25.320  1.00  0.00     0.124 S 
ATOM     91  O   UNL A   1      56.228  28.795  24.903  1.00  0.00    -0.237 OA
ATOM     92  O   UNL A   1      56.303  27.033  26.633  1.00  0.00    -0.237 OA
ATOM     93  O   UNL A   1      55.886  26.432  24.280  1.00  0.00    -0.744 OA
ENDBRANCH  89  90
ENDBRANCH  63  84
ENDBRANCH  37  38
ENDBRANCH  30  32
ENDBRANCH  29  30
ENDBRANCH  28  29
ENDBRANCH   1  28
TORSDOF 17
ENDMDL
MODEL 3
REMARK VINA RESULT:     -11.4      5.833     10.397
REMARK SMILES COc1ccc(/C=C2\SC(=S)N(c3cc(C(=O)OCCOC(=O)c4ccc(-c5c6nc(c(-c7ccc(S(=O)(=O)[O-])cc7)c7ccc([nH]7)c(-c7ccc(S(=O)(=O)[O-])cc7)c7nc(c(-c8ccc(S(=O)(=O)[O-])cc8)c8ccc5[nH]8)C=C7)C=C6)cc4)ccc3C)C2=O)cc1
REMARK SMILES IDX 19 1 18 2 16 3 17 4 15 5 13 6 14 7 86 8 85 9 87 10 84 11
REMARK SMILES IDX 12 12 7 13 8 14 9 15 88 16 10 17 89 18 11 19 6 20 3 21 4 22
REMARK SMILES IDX 91 23 5 24 90 25 2 26 1 27 20 28 21 29 22 30 23 31 24 32
REMARK SMILES IDX 25 33 83 34 26 35 82 36 27 37 28 38 29 39 76 40 30 41 81 42
REMARK SMILES IDX 75 43 77 44 31 45 80 46 74 47 73 48 32 50 62 51 43 52 61 53
REMARK SMILES IDX 44 54 47 55 60 56 78 57 45 58 46 59 59 61 79 62 48 63 33 64
REMARK SMILES IDX 34 65 42 66 35 67 41 68 36 69 37 70 38 71 39 72 40 73 63 74
REMARK SMILES IDX 64 75 72 76 65 77 71 78 66 79 67 80 68 81 69 82 70 83 49 84
REMARK SMILES IDX 50 85 58 86 51 87 57 88 52 89 53 90 54 91 55 92 56 93
REMARK H PARENT 77 49 47 60
REMARK Flexibility Score: inf
ROOT
ATOM      1  C   UNL A   1      33.693  31.531  27.583  1.00  0.00     0.275 C 
ENDROOT
BRANCH   1   2
ATOM      2  O   UNL A   1      33.039  30.334  27.113  1.00  0.00    -0.458 OA
BRANCH   2   3
ATOM      3  C   UNL A   1      33.853  29.314  26.744  1.00  0.00     0.338 C 
ATOM      4  O   UNL A   1      34.816  28.888  27.362  1.00  0.00    -0.246 OA
BRANCH   3   5
ATOM      5  C   UNL A   1      33.334  28.665  25.516  1.00  0.00     0.062 A 
ATOM      6  C   UNL A   1      32.636  26.612  24.412  1.00  0.00     0.054 A 
ATOM      7  C   UNL A   1      33.229  27.269  25.497  1.00  0.00     0.042 A 
ATOM      8  C   UNL A   1      32.212  27.349  23.292  1.00  0.00    -0.027 A 
ATOM      9  C   UNL A   1      32.387  28.745  23.294  1.00  0.00     0.006 A 
ATOM     10  C   UNL A   1      31.619  26.703  22.071  1.00  0.00     0.046 C 
ATOM     11  C   UNL A   1      32.919  29.404  24.407  1.00  0.00     0.016 A 
BRANCH   6  12
ATOM     12  N   UNL A   1      32.374  25.224  24.537  1.00  0.00    -0.261 N 
ATOM     13  C   UNL A   1      33.567  21.868  23.908  1.00  0.00     0.029 C 
ATOM     14  C   UNL A   1      32.825  22.927  24.259  1.00  0.00     0.081 C 
ATOM     15  S   UNL A   1      31.293  22.944  25.039  1.00  0.00    -0.054 SA
ATOM     16  C   UNL A   1      33.303  24.319  24.035  1.00  0.00     0.270 C 
ATOM     17  C   UNL A   1      31.227  24.704  25.103  1.00  0.00     0.152 C 
ATOM     18  O   UNL A   1      34.368  24.586  23.492  1.00  0.00    -0.268 OA
ATOM     19  S   UNL A   1      29.927  25.525  25.759  1.00  0.00    -0.051 S 
BRANCH  13  20
ATOM     20  C   UNL A   1      33.220  20.455  24.096  1.00  0.00    -0.024 A 
ATOM     21  C   UNL A   1      32.576  17.749  24.516  1.00  0.00     0.118 A 
ATOM     22  C   UNL A   1      33.416  18.424  25.403  1.00  0.00     0.047 A 
ATOM     23  C   UNL A   1      32.083  18.422  23.398  1.00  0.00     0.047 A 
ATOM     24  C   UNL A   1      33.747  19.765  25.191  1.00  0.00     0.012 A 
ATOM     25  C   UNL A   1      32.405  19.769  23.188  1.00  0.00     0.012 A 
BRANCH  21  26
ATOM     26  O   UNL A   1      32.292  16.459  24.869  1.00  0.00    -0.497 OA
ATOM     27  C   UNL A   1      33.316  15.759  25.565  1.00  0.00     0.278 C 
ENDBRANCH  21  26
ENDBRANCH  13  20
ENDBRANCH   6  12
ENDBRANCH   3   5
ENDBRANCH   2   3
ENDBRANCH   1   2
BRANCH   1  28
ATOM     28  C   UNL A   1      32.722  32.709  27.543  1.00  0.00     0.275 C 
BRANCH  28  29
ATOM     29  O   UNL A   1      33.469  33.931  27.663  1.00  0.00    -0.458 OA
BRANCH  29  30
ATOM     30  C   UNL A   1      33.388  34.571  28.853  1.00  0.00     0.338 C 
ATOM     31  O   UNL A   1      32.513  35.333  29.225  1.00  0.00    -0.246 OA
BRANCH  30  32
ATOM     32  C   UNL A   1      34.560  34.203  29.670  1.00  0.00     0.060 A 
ATOM     33  C   UNL A   1      35.839  34.366  29.147  1.00  0.00     0.016 A 
ATOM     34  C   UNL A   1      34.392  33.617  30.922  1.00  0.00     0.016 A 
ATOM     35  C   UNL A   1      36.949  33.864  29.824  1.00  0.00     0.010 A 
ATOM     36  C   UNL A   1      35.518  33.207  31.648  1.00  0.00     0.010 A 
ATOM     37  C   UNL A   1      36.808  33.287  31.093  1.00  0.00    -0.014 A 
BRANCH  37  38
ATOM     38  C   UNL A   1      37.994  32.732  31.811  1.00  0.00     0.031 A 
ATOM     39  C   UNL A   1      38.808  31.621  31.192  1.00  0.00     0.074 A 
ATOM     40  C   UNL A   1      38.374  33.224  33.009  1.00  0.00     0.049 A 
ATOM     41  N   UNL A   1      39.761  30.899  31.727  1.00  0.00    -0.248 NA
ATOM     42  C   UNL A   1      38.505  31.271  29.795  1.00  0.00     0.031 C 
ATOM     43  C   UNL A   1      37.721  34.321  33.726  1.00  0.00     0.029 A 
ATOM     44  N   UNL A   1      39.412  32.865  33.838  1.00  0.00    -0.354 N 
ATOM     45  C   UNL A   1      40.138  29.982  30.750  1.00  0.00     0.074 A 
ATOM     46  C   UNL A   1      39.308  30.235  29.592  1.00  0.00     0.031 C 
ATOM     47  C   UNL A   1      38.394  34.574  34.858  1.00  0.00     0.029 A 
ATOM     48  C   UNL A   1      39.471  33.600  34.999  1.00  0.00     0.049 A 
ATOM     49  H   UNL A   1      40.053  32.150  33.619  1.00  0.00     0.167 HD
ATOM     50  C   UNL A   1      41.082  29.013  30.811  1.00  0.00     0.031 A 
ATOM     51  C   UNL A   1      40.263  33.485  36.084  1.00  0.00     0.031 A 
ATOM     52  C   UNL A   1      41.934  28.773  31.946  1.00  0.00     0.049 A 
ATOM     53  C   UNL A   1      41.282  32.385  36.145  1.00  0.00     0.074 A 
ATOM     54  C   UNL A   1      42.910  27.803  32.100  1.00  0.00     0.029 A 
ATOM     55  N   UNL A   1      41.926  29.520  33.112  1.00  0.00    -0.354 N 
ATOM     56  N   UNL A   1      41.563  31.474  35.244  1.00  0.00    -0.248 NA
ATOM     57  C   UNL A   1      42.080  32.285  37.376  1.00  0.00     0.031 C 
ATOM     58  C   UNL A   1      43.464  27.936  33.378  1.00  0.00     0.029 A 
ATOM     59  C   UNL A   1      42.874  29.027  33.995  1.00  0.00     0.049 A 
ATOM     60  H   UNL A   1      41.336  30.288  33.287  1.00  0.00     0.167 HD
ATOM     61  C   UNL A   1      42.562  30.686  35.803  1.00  0.00     0.074 A 
ATOM     62  C   UNL A   1      42.863  31.249  37.104  1.00  0.00     0.031 C 
ATOM     63  C   UNL A   1      43.166  29.589  35.288  1.00  0.00     0.031 A 
BRANCH  50  64
ATOM     64  C   UNL A   1      41.211  28.091  29.627  1.00  0.00    -0.014 A 
ATOM     65  C   UNL A   1      42.091  28.372  28.567  1.00  0.00     0.010 A 
ATOM     66  C   UNL A   1      40.468  26.896  29.602  1.00  0.00     0.010 A 
ATOM     67  C   UNL A   1      42.203  27.489  27.489  1.00  0.00     0.020 A 
ATOM     68  C   UNL A   1      40.594  25.999  28.539  1.00  0.00     0.020 A 
ATOM     69  C   UNL A   1      41.450  26.309  27.480  1.00  0.00     0.054 A 
BRANCH  69  70
ATOM     70  S   UNL A   1      41.634  25.163  26.085  1.00  0.00     0.124 S 
ATOM     71  O   UNL A   1      41.569  26.069  24.941  1.00  0.00    -0.237 OA
ATOM     72  O   UNL A   1      42.941  24.559  26.333  1.00  0.00    -0.237 OA
ATOM     73  O   UNL A   1      40.497  24.257  26.229  1.00  0.00    -0.744 OA
ENDBRANCH  69  70
ENDBRANCH  50  64
BRANCH  51  74
ATOM     74  C   UNL A   1      40.076  34.414  37.232  1.00  0.00    -0.014 A 
ATOM     75  C   UNL A   1      40.733  35.656  37.260  1.00  0.00     0.010 A 
ATOM     76  C   UNL A   1      39.206  34.074  38.283  1.00  0.00     0.010 A 
ATOM     77  C   UNL A   1      40.519  36.543  38.319  1.00  0.00     0.020 A 
ATOM     78  C   UNL A   1      38.969  34.969  39.329  1.00  0.00     0.020 A 
ATOM     79  C   UNL A   1      39.632  36.197  39.343  1.00  0.00     0.054 A 
BRANCH  79  80
ATOM     80  S   UNL A   1      39.299  37.398  40.663  1.00  0.00     0.124 S 
ATOM     81  O   UNL A   1      40.612  38.003  40.859  1.00  0.00    -0.237 OA
ATOM     82  O   UNL A   1      38.287  38.261  40.059  1.00  0.00    -0.237 OA
ATOM     83  O   UNL A   1      38.819  36.566  41.764  1.00  0.00    -0.744 OA
ENDBRANCH  79  80
ENDBRANCH  51  74
BRANCH  63  84
ATOM     84  C   UNL A   1      44.246  28.943  36.112  1.00  0.00    -0.014 A 
ATOM     85  C   UNL A   1      43.962  27.860  36.961  1.00  0.00     0.010 A 
ATOM     86  C   UNL A   1      45.572  29.400  36.000  1.00  0.00     0.010 A 
ATOM     87  C   UNL A   1      44.983  27.262  37.705  1.00  0.00     0.020 A 
ATOM     88  C   UNL A   1      46.598  28.792  36.728  1.00  0.00     0.020 A 
ATOM     89  C   UNL A   1      46.294  27.735  37.587  1.00  0.00     0.054 A 
BRANCH  89  90
ATOM     90  S   UNL A   1      47.610  26.924  38.536  1.00  0.00     0.124 S 
ATOM     91  O   UNL A   1      48.604  27.988  38.644  1.00  0.00    -0.237 OA
ATOM     92  O   UNL A   1      46.936  26.565  39.781  1.00  0.00    -0.237 OA
ATOM     93  O   UNL A   1      47.995  25.793  37.695  1.00  0.00    -0.744 OA
ENDBRANCH  89  90
ENDBRANCH  63  84
ENDBRANCH  37  38
ENDBRANCH  30  32
ENDBRANCH  29  30
ENDBRANCH  28  29
ENDBRANCH   1  28
TORSDOF 17
ENDMDL
