MODEL 1
REMARK VINA RESULT:     -10.0      0.000      0.000
REMARK SMILES O=C(CCc1ccccc1)Nc1ccccc1Oc1ccsc1C(=O)OCCOC(=O)c1ccc(-c2c3nc(c(-c4ccc(S(=O)(=O)[O-])cc4)c4ccc([nH]4)c(-c4ccc(S(=O)(=O)[O-])cc4)c4nc(c(-c5ccc(S(=O)(=O)[O-])cc5)c5ccc2[nH]5)C=C4)C=C3)cc1
REMARK SMILES IDX 26 1 24 2 25 3 23 4 19 5 20 6 21 7 22 8 18 9 17 10 12 11
REMARK SMILES IDX 13 12 14 13 16 14 15 15 11 16 1 17 2 18 3 20 4 21 5 22 6 23
REMARK SMILES IDX 10 24 7 25 9 26 8 27 27 28 28 29 29 30 30 31 31 32 32 33
REMARK SMILES IDX 33 34 91 35 34 36 90 37 35 38 36 39 37 40 84 41 38 42 89 43
REMARK SMILES IDX 83 44 85 45 39 46 88 47 82 48 81 49 40 51 70 52 51 53 69 54
REMARK SMILES IDX 52 55 55 56 68 57 86 58 53 59 54 60 67 62 87 63 56 64 41 65
REMARK SMILES IDX 42 66 50 67 43 68 49 69 44 70 45 71 46 72 47 73 48 74 71 75
REMARK SMILES IDX 72 76 80 77 73 78 79 79 74 80 75 81 76 82 77 83 78 84 57 85
REMARK SMILES IDX 58 86 66 87 59 88 65 89 60 90 61 91 62 92 63 93 64 94
REMARK H PARENT 11 19 85 50 55 61
REMARK Flexibility Score: inf
ROOT
ATOM      1  O   UNL A   1      41.041  21.842  26.427  1.00  0.00    -0.458 OA
ENDROOT
BRANCH   1   2
ATOM      2  C   UNL A   1      41.483  20.667  26.966  1.00  0.00     0.352 C 
ATOM      3  O   UNL A   1      40.987  20.147  27.961  1.00  0.00    -0.245 OA
BRANCH   2   4
ATOM      4  C   UNL A   1      42.612  20.152  26.208  1.00  0.00     0.155 A 
ATOM      5  C   UNL A   1      43.642  20.827  25.573  1.00  0.00     0.152 A 
ATOM      6  C   UNL A   1      44.574  19.945  24.947  1.00  0.00     0.060 A 
ATOM      7  C   UNL A   1      44.179  18.629  25.049  1.00  0.00     0.070 A 
ATOM      8  S   UNL A   1      42.733  18.459  25.944  1.00  0.00    -0.133 S 
BRANCH   5   9
ATOM      9  O   UNL A   1      43.667  22.179  25.609  1.00  0.00    -0.453 OA
BRANCH   9  10
ATOM     10  C   UNL A   1      44.769  22.954  25.842  1.00  0.00     0.151 A 
ATOM     11  C   UNL A   1      45.302  23.325  27.085  1.00  0.00     0.084 A 
ATOM     12  C   UNL A   1      46.428  24.167  27.109  1.00  0.00     0.030 A 
ATOM     13  C   UNL A   1      47.070  24.551  25.929  1.00  0.00     0.002 A 
ATOM     14  C   UNL A   1      45.423  23.345  24.662  1.00  0.00     0.049 A 
ATOM     15  C   UNL A   1      46.573  24.129  24.703  1.00  0.00     0.004 A 
BRANCH  11  16
ATOM     16  N   UNL A   1      44.804  22.958  28.352  1.00  0.00    -0.323 N 
ATOM     17  O   UNL A   1      42.917  24.276  28.535  1.00  0.00    -0.275 OA
ATOM     18  C   UNL A   1      43.760  23.538  29.038  1.00  0.00     0.224 C 
ATOM     19  H   UNL A   1      45.254  22.202  28.796  1.00  0.00     0.170 HD
BRANCH  18  20
ATOM     20  C   UNL A   1      43.758  23.257  30.537  1.00  0.00     0.105 C 
BRANCH  20  21
ATOM     21  C   UNL A   1      44.379  24.327  31.434  1.00  0.00     0.045 C 
BRANCH  21  22
ATOM     22  C   UNL A   1      44.546  23.947  32.888  1.00  0.00    -0.048 A 
ATOM     23  C   UNL A   1      45.705  24.339  33.570  1.00  0.00     0.004 A 
ATOM     24  C   UNL A   1      43.565  23.225  33.586  1.00  0.00     0.004 A 
ATOM     25  C   UNL A   1      45.852  24.071  34.931  1.00  0.00     0.000 A 
ATOM     26  C   UNL A   1      43.704  22.976  34.952  1.00  0.00     0.000 A 
ATOM     27  C   UNL A   1      44.845  23.406  35.626  1.00  0.00     0.000 A 
ENDBRANCH  21  22
ENDBRANCH  20  21
ENDBRANCH  18  20
ENDBRANCH  11  16
ENDBRANCH   9  10
ENDBRANCH   5   9
ENDBRANCH   2   4
ENDBRANCH   1   2
BRANCH   1  28
ATOM     28  C   UNL A   1      40.047  22.566  27.168  1.00  0.00     0.275 C 
BRANCH  28  29
ATOM     29  C   UNL A   1      39.575  23.772  26.361  1.00  0.00     0.275 C 
BRANCH  29  30
ATOM     30  O   UNL A   1      39.331  24.861  27.260  1.00  0.00    -0.458 OA
BRANCH  30  31
ATOM     31  C   UNL A   1      40.051  25.975  27.001  1.00  0.00     0.338 C 
ATOM     32  O   UNL A   1      40.596  26.263  25.948  1.00  0.00    -0.246 OA
BRANCH  31  33
ATOM     33  C   UNL A   1      40.173  26.765  28.244  1.00  0.00     0.060 A 
ATOM     34  C   UNL A   1      39.352  26.523  29.350  1.00  0.00     0.016 A 
ATOM     35  C   UNL A   1      41.114  27.795  28.290  1.00  0.00     0.016 A 
ATOM     36  C   UNL A   1      39.434  27.344  30.478  1.00  0.00     0.010 A 
ATOM     37  C   UNL A   1      41.242  28.570  29.445  1.00  0.00     0.010 A 
ATOM     38  C   UNL A   1      40.383  28.375  30.541  1.00  0.00    -0.014 A 
BRANCH  38  39
ATOM     39  C   UNL A   1      40.471  29.281  31.719  1.00  0.00     0.031 A 
ATOM     40  C   UNL A   1      41.589  29.108  32.718  1.00  0.00     0.074 A 
ATOM     41  C   UNL A   1      39.542  30.236  31.920  1.00  0.00     0.049 A 
ATOM     42  N   UNL A   1      41.762  29.690  33.878  1.00  0.00    -0.248 NA
ATOM     43  C   UNL A   1      42.650  28.149  32.366  1.00  0.00     0.031 C 
ATOM     44  C   UNL A   1      38.423  30.536  31.024  1.00  0.00     0.029 A 
ATOM     45  N   UNL A   1      39.386  31.128  32.953  1.00  0.00    -0.354 N 
ATOM     46  C   UNL A   1      42.931  29.151  34.406  1.00  0.00     0.074 A 
ATOM     47  C   UNL A   1      43.412  28.176  33.450  1.00  0.00     0.031 C 
ATOM     48  C   UNL A   1      37.706  31.548  31.539  1.00  0.00     0.029 A 
ATOM     49  C   UNL A   1      38.276  31.929  32.828  1.00  0.00     0.049 A 
ATOM     50  H   UNL A   1      40.011  31.188  33.711  1.00  0.00     0.167 HD
ATOM     51  C   UNL A   1      43.554  29.446  35.571  1.00  0.00     0.031 A 
ATOM     52  C   UNL A   1      37.753  32.846  33.668  1.00  0.00     0.031 A 
ATOM     53  C   UNL A   1      43.082  30.419  36.522  1.00  0.00     0.049 A 
ATOM     54  C   UNL A   1      38.428  33.106  34.987  1.00  0.00     0.074 A 
ATOM     55  C   UNL A   1      43.642  30.782  37.735  1.00  0.00     0.029 A 
ATOM     56  N   UNL A   1      41.941  31.191  36.364  1.00  0.00    -0.354 N 
ATOM     57  N   UNL A   1      39.523  32.573  35.476  1.00  0.00    -0.248 NA
ATOM     58  C   UNL A   1      37.794  34.097  35.870  1.00  0.00     0.031 C 
ATOM     59  C   UNL A   1      42.820  31.748  38.327  1.00  0.00     0.029 A 
ATOM     60  C   UNL A   1      41.777  32.024  37.458  1.00  0.00     0.049 A 
ATOM     61  H   UNL A   1      41.337  31.154  35.588  1.00  0.00     0.167 HD
ATOM     62  C   UNL A   1      39.722  33.184  36.710  1.00  0.00     0.074 A 
ATOM     63  C   UNL A   1      38.646  34.138  36.885  1.00  0.00     0.031 C 
ATOM     64  C   UNL A   1      40.707  32.974  37.617  1.00  0.00     0.031 A 
BRANCH  51  65
ATOM     65  C   UNL A   1      44.821  28.696  35.895  1.00  0.00    -0.014 A 
ATOM     66  C   UNL A   1      46.066  29.144  35.418  1.00  0.00     0.010 A 
ATOM     67  C   UNL A   1      44.773  27.562  36.724  1.00  0.00     0.010 A 
ATOM     68  C   UNL A   1      47.237  28.451  35.739  1.00  0.00     0.020 A 
ATOM     69  C   UNL A   1      45.946  26.881  37.069  1.00  0.00     0.020 A 
ATOM     70  C   UNL A   1      47.169  27.322  36.561  1.00  0.00     0.054 A 
BRANCH  70  71
ATOM     71  S   UNL A   1      48.710  26.462  36.984  1.00  0.00     0.124 S 
ATOM     72  O   UNL A   1      48.253  25.504  37.988  1.00  0.00    -0.237 OA
ATOM     73  O   UNL A   1      49.116  25.883  35.706  1.00  0.00    -0.237 OA
ATOM     74  O   UNL A   1      49.575  27.526  37.486  1.00  0.00    -0.744 OA
ENDBRANCH  70  71
ENDBRANCH  51  65
BRANCH  52  75
ATOM     75  C   UNL A   1      36.507  33.573  33.303  1.00  0.00    -0.014 A 
ATOM     76  C   UNL A   1      36.570  34.789  32.599  1.00  0.00     0.010 A 
ATOM     77  C   UNL A   1      35.249  33.070  33.683  1.00  0.00     0.010 A 
ATOM     78  C   UNL A   1      35.403  35.503  32.311  1.00  0.00     0.020 A 
ATOM     79  C   UNL A   1      34.078  33.766  33.371  1.00  0.00     0.020 A 
ATOM     80  C   UNL A   1      34.164  34.988  32.703  1.00  0.00     0.054 A 
BRANCH  80  81
ATOM     81  S   UNL A   1      32.661  35.921  32.303  1.00  0.00     0.124 S 
ATOM     82  O   UNL A   1      32.720  37.017  33.264  1.00  0.00    -0.237 OA
ATOM     83  O   UNL A   1      32.877  36.291  30.906  1.00  0.00    -0.237 OA
ATOM     84  O   UNL A   1      31.591  34.951  32.522  1.00  0.00    -0.744 OA
ENDBRANCH  80  81
ENDBRANCH  52  75
BRANCH  64  85
ATOM     85  C   UNL A   1      40.696  33.827  38.858  1.00  0.00    -0.014 A 
ATOM     86  C   UNL A   1      39.997  33.430  40.011  1.00  0.00     0.010 A 
ATOM     87  C   UNL A   1      41.423  35.031  38.875  1.00  0.00     0.010 A 
ATOM     88  C   UNL A   1      39.993  34.244  41.148  1.00  0.00     0.020 A 
ATOM     89  C   UNL A   1      41.443  35.834  40.019  1.00  0.00     0.020 A 
ATOM     90  C   UNL A   1      40.713  35.443  41.143  1.00  0.00     0.054 A 
BRANCH  90  91
ATOM     91  S   UNL A   1      40.717  36.470  42.639  1.00  0.00     0.124 S 
ATOM     92  O   UNL A   1      40.421  35.490  43.680  1.00  0.00    -0.237 OA
ATOM     93  O   UNL A   1      42.073  37.013  42.654  1.00  0.00    -0.237 OA
ATOM     94  O   UNL A   1      39.663  37.451  42.388  1.00  0.00    -0.744 OA
ENDBRANCH  90  91
ENDBRANCH  64  85
ENDBRANCH  38  39
ENDBRANCH  31  33
ENDBRANCH  30  31
ENDBRANCH  29  30
ENDBRANCH  28  29
ENDBRANCH   1  28
TORSDOF 20
ENDMDL
MODEL 2
REMARK VINA RESULT:      -9.8      1.454      1.952
REMARK SMILES O=C(CCc1ccccc1)Nc1ccccc1Oc1ccsc1C(=O)OCCOC(=O)c1ccc(-c2c3nc(c(-c4ccc(S(=O)(=O)[O-])cc4)c4ccc([nH]4)c(-c4ccc(S(=O)(=O)[O-])cc4)c4nc(c(-c5ccc(S(=O)(=O)[O-])cc5)c5ccc2[nH]5)C=C4)C=C3)cc1
REMARK SMILES IDX 26 1 24 2 25 3 23 4 19 5 20 6 21 7 22 8 18 9 17 10 12 11
REMARK SMILES IDX 13 12 14 13 16 14 15 15 11 16 1 17 2 18 3 20 4 21 5 22 6 23
REMARK SMILES IDX 10 24 7 25 9 26 8 27 27 28 28 29 29 30 30 31 31 32 32 33
REMARK SMILES IDX 33 34 91 35 34 36 90 37 35 38 36 39 37 40 84 41 38 42 89 43
REMARK SMILES IDX 83 44 85 45 39 46 88 47 82 48 81 49 40 51 70 52 51 53 69 54
REMARK SMILES IDX 52 55 55 56 68 57 86 58 53 59 54 60 67 62 87 63 56 64 41 65
REMARK SMILES IDX 42 66 50 67 43 68 49 69 44 70 45 71 46 72 47 73 48 74 71 75
REMARK SMILES IDX 72 76 80 77 73 78 79 79 74 80 75 81 76 82 77 83 78 84 57 85
REMARK SMILES IDX 58 86 66 87 59 88 65 89 60 90 61 91 62 92 63 93 64 94
REMARK H PARENT 11 19 85 50 55 61
REMARK Flexibility Score: inf
ROOT
ATOM      1  O   UNL A   1      41.274  21.126  25.973  1.00  0.00    -0.458 OA
ENDROOT
BRANCH   1   2
ATOM      2  C   UNL A   1      42.206  20.271  26.489  1.00  0.00     0.352 C 
ATOM      3  O   UNL A   1      41.981  19.500  27.417  1.00  0.00    -0.245 OA
BRANCH   2   4
ATOM      4  C   UNL A   1      43.477  20.426  25.800  1.00  0.00     0.155 A 
ATOM      5  C   UNL A   1      44.220  21.567  25.544  1.00  0.00     0.152 A 
ATOM      6  C   UNL A   1      45.434  21.288  24.846  1.00  0.00     0.060 A 
ATOM      7  C   UNL A   1      45.537  19.955  24.514  1.00  0.00     0.070 A 
ATOM      8  S   UNL A   1      44.213  19.044  25.094  1.00  0.00    -0.133 S 
BRANCH   5   9
ATOM      9  O   UNL A   1      43.753  22.766  25.961  1.00  0.00    -0.453 OA
BRANCH   9  10
ATOM     10  C   UNL A   1      44.510  23.873  26.227  1.00  0.00     0.151 A 
ATOM     11  C   UNL A   1      45.058  24.254  27.460  1.00  0.00     0.084 A 
ATOM     12  C   UNL A   1      45.779  25.458  27.532  1.00  0.00     0.030 A 
ATOM     13  C   UNL A   1      46.038  26.216  26.387  1.00  0.00     0.002 A 
ATOM     14  C   UNL A   1      44.777  24.642  25.082  1.00  0.00     0.049 A 
ATOM     15  C   UNL A   1      45.545  25.801  25.157  1.00  0.00     0.004 A 
BRANCH  11  16
ATOM     16  N   UNL A   1      44.939  23.556  28.679  1.00  0.00    -0.323 N 
ATOM     17  O   UNL A   1      42.679  23.732  29.125  1.00  0.00    -0.275 OA
ATOM     18  C   UNL A   1      43.824  23.463  29.482  1.00  0.00     0.224 C 
ATOM     19  H   UNL A   1      45.744  23.082  28.992  1.00  0.00     0.170 HD
BRANCH  18  20
ATOM     20  C   UNL A   1      44.117  23.061  30.924  1.00  0.00     0.105 C 
BRANCH  20  21
ATOM     21  C   UNL A   1      44.223  24.195  31.942  1.00  0.00     0.045 C 
BRANCH  21  22
ATOM     22  C   UNL A   1      44.299  23.771  33.392  1.00  0.00    -0.048 A 
ATOM     23  C   UNL A   1      45.115  22.689  33.747  1.00  0.00     0.004 A 
ATOM     24  C   UNL A   1      43.589  24.440  34.401  1.00  0.00     0.004 A 
ATOM     25  C   UNL A   1      45.266  22.323  35.085  1.00  0.00     0.000 A 
ATOM     26  C   UNL A   1      43.758  24.086  35.740  1.00  0.00     0.000 A 
ATOM     27  C   UNL A   1      44.602  23.033  36.082  1.00  0.00     0.000 A 
ENDBRANCH  21  22
ENDBRANCH  20  21
ENDBRANCH  18  20
ENDBRANCH  11  16
ENDBRANCH   9  10
ENDBRANCH   5   9
ENDBRANCH   2   4
ENDBRANCH   1   2
BRANCH   1  28
ATOM     28  C   UNL A   1      40.338  21.705  26.895  1.00  0.00     0.275 C 
BRANCH  28  29
ATOM     29  C   UNL A   1      39.348  22.588  26.141  1.00  0.00     0.275 C 
BRANCH  29  30
ATOM     30  O   UNL A   1      39.206  23.826  26.847  1.00  0.00    -0.458 OA
BRANCH  30  31
ATOM     31  C   UNL A   1      40.200  24.715  26.626  1.00  0.00     0.338 C 
ATOM     32  O   UNL A   1      41.007  24.694  25.710  1.00  0.00    -0.246 OA
BRANCH  31  33
ATOM     33  C   UNL A   1      40.234  25.683  27.743  1.00  0.00     0.060 A 
ATOM     34  C   UNL A   1      39.276  25.661  28.761  1.00  0.00     0.016 A 
ATOM     35  C   UNL A   1      41.235  26.656  27.751  1.00  0.00     0.016 A 
ATOM     36  C   UNL A   1      39.286  26.643  29.756  1.00  0.00     0.010 A 
ATOM     37  C   UNL A   1      41.283  27.595  28.785  1.00  0.00     0.010 A 
ATOM     38  C   UNL A   1      40.292  27.619  29.781  1.00  0.00    -0.014 A 
BRANCH  38  39
ATOM     39  C   UNL A   1      40.309  28.693  30.813  1.00  0.00     0.031 A 
ATOM     40  C   UNL A   1      41.269  28.605  31.974  1.00  0.00     0.074 A 
ATOM     41  C   UNL A   1      39.450  29.729  30.737  1.00  0.00     0.049 A 
ATOM     42  N   UNL A   1      41.342  29.351  33.048  1.00  0.00    -0.248 NA
ATOM     43  C   UNL A   1      42.276  27.532  31.921  1.00  0.00     0.031 C 
ATOM     44  C   UNL A   1      38.487  29.958  29.658  1.00  0.00     0.029 A 
ATOM     45  N   UNL A   1      39.242  30.782  31.594  1.00  0.00    -0.354 N 
ATOM     46  C   UNL A   1      42.381  28.825  33.809  1.00  0.00     0.074 A 
ATOM     47  C   UNL A   1      42.892  27.679  33.086  1.00  0.00     0.031 C 
ATOM     48  C   UNL A   1      37.802  31.086  29.911  1.00  0.00     0.029 A 
ATOM     49  C   UNL A   1      38.233  31.627  31.197  1.00  0.00     0.049 A 
ATOM     50  H   UNL A   1      39.767  30.919  32.416  1.00  0.00     0.167 HD
ATOM     51  C   UNL A   1      42.873  29.257  34.994  1.00  0.00     0.031 A 
ATOM     52  C   UNL A   1      37.691  32.699  31.809  1.00  0.00     0.031 A 
ATOM     53  C   UNL A   1      42.370  30.399  35.714  1.00  0.00     0.049 A 
ATOM     54  C   UNL A   1      38.211  33.120  33.157  1.00  0.00     0.074 A 
ATOM     55  C   UNL A   1      42.800  30.911  36.926  1.00  0.00     0.029 A 
ATOM     56  N   UNL A   1      41.333  31.212  35.284  1.00  0.00    -0.354 N 
ATOM     57  N   UNL A   1      39.182  32.597  33.869  1.00  0.00    -0.248 NA
ATOM     58  C   UNL A   1      37.559  34.278  33.786  1.00  0.00     0.031 C 
ATOM     59  C   UNL A   1      41.999  32.013  37.246  1.00  0.00     0.029 A 
ATOM     60  C   UNL A   1      41.105  32.217  36.208  1.00  0.00     0.049 A 
ATOM     61  H   UNL A   1      40.833  31.093  34.444  1.00  0.00     0.167 HD
ATOM     62  C   UNL A   1      39.274  33.381  35.015  1.00  0.00     0.074 A 
ATOM     63  C   UNL A   1      38.274  34.422  34.893  1.00  0.00     0.031 C 
ATOM     64  C   UNL A   1      40.112  33.251  36.072  1.00  0.00     0.031 A 
BRANCH  51  65
ATOM     65  C   UNL A   1      44.015  28.484  35.600  1.00  0.00    -0.014 A 
ATOM     66  C   UNL A   1      45.311  28.569  35.060  1.00  0.00     0.010 A 
ATOM     67  C   UNL A   1      43.803  27.704  36.750  1.00  0.00     0.010 A 
ATOM     68  C   UNL A   1      46.368  27.862  35.641  1.00  0.00     0.020 A 
ATOM     69  C   UNL A   1      44.863  27.015  37.350  1.00  0.00     0.020 A 
ATOM     70  C   UNL A   1      46.137  27.087  36.781  1.00  0.00     0.054 A 
BRANCH  70  71
ATOM     71  S   UNL A   1      47.534  26.205  37.530  1.00  0.00     0.124 S 
ATOM     72  O   UNL A   1      48.626  26.546  36.622  1.00  0.00    -0.237 OA
ATOM     73  O   UNL A   1      47.615  26.802  38.860  1.00  0.00    -0.237 OA
ATOM     74  O   UNL A   1      47.115  24.805  37.503  1.00  0.00    -0.744 OA
ENDBRANCH  70  71
ENDBRANCH  51  65
BRANCH  52  75
ATOM     75  C   UNL A   1      36.571  33.443  31.169  1.00  0.00    -0.014 A 
ATOM     76  C   UNL A   1      35.384  33.693  31.879  1.00  0.00     0.010 A 
ATOM     77  C   UNL A   1      36.675  33.881  29.837  1.00  0.00     0.010 A 
ATOM     78  C   UNL A   1      34.309  34.337  31.259  1.00  0.00     0.020 A 
ATOM     79  C   UNL A   1      35.614  34.552  29.222  1.00  0.00     0.020 A 
ATOM     80  C   UNL A   1      34.430  34.759  29.932  1.00  0.00     0.054 A 
BRANCH  80  81
ATOM     81  S   UNL A   1      33.031  35.610  29.151  1.00  0.00     0.124 S 
ATOM     82  O   UNL A   1      32.474  34.561  28.303  1.00  0.00    -0.237 OA
ATOM     83  O   UNL A   1      32.213  35.997  30.298  1.00  0.00    -0.237 OA
ATOM     84  O   UNL A   1      33.661  36.721  28.443  1.00  0.00    -0.744 OA
ENDBRANCH  80  81
ENDBRANCH  52  75
BRANCH  64  85
ATOM     85  C   UNL A   1      40.017  34.289  37.159  1.00  0.00    -0.014 A 
ATOM     86  C   UNL A   1      39.189  34.101  38.280  1.00  0.00     0.010 A 
ATOM     87  C   UNL A   1      40.794  35.459  37.068  1.00  0.00     0.010 A 
ATOM     88  C   UNL A   1      39.110  35.084  39.271  1.00  0.00     0.020 A 
ATOM     89  C   UNL A   1      40.738  36.431  38.070  1.00  0.00     0.020 A 
ATOM     90  C   UNL A   1      39.882  36.245  39.157  1.00  0.00     0.054 A 
BRANCH  90  91
ATOM     91  S   UNL A   1      39.785  37.494  40.469  1.00  0.00     0.124 S 
ATOM     92  O   UNL A   1      39.649  38.729  39.703  1.00  0.00    -0.237 OA
ATOM     93  O   UNL A   1      38.599  37.085  41.218  1.00  0.00    -0.237 OA
ATOM     94  O   UNL A   1      41.050  37.341  41.186  1.00  0.00    -0.744 OA
ENDBRANCH  90  91
ENDBRANCH  64  85
ENDBRANCH  38  39
ENDBRANCH  31  33
ENDBRANCH  30  31
ENDBRANCH  29  30
ENDBRANCH  28  29
ENDBRANCH   1  28
TORSDOF 20
ENDMDL
MODEL 3
REMARK VINA RESULT:      -9.4     10.653     16.684
REMARK SMILES O=C(CCc1ccccc1)Nc1ccccc1Oc1ccsc1C(=O)OCCOC(=O)c1ccc(-c2c3nc(c(-c4ccc(S(=O)(=O)[O-])cc4)c4ccc([nH]4)c(-c4ccc(S(=O)(=O)[O-])cc4)c4nc(c(-c5ccc(S(=O)(=O)[O-])cc5)c5ccc2[nH]5)C=C4)C=C3)cc1
REMARK SMILES IDX 26 1 24 2 25 3 23 4 19 5 20 6 21 7 22 8 18 9 17 10 12 11
REMARK SMILES IDX 13 12 14 13 16 14 15 15 11 16 1 17 2 18 3 20 4 21 5 22 6 23
REMARK SMILES IDX 10 24 7 25 9 26 8 27 27 28 28 29 29 30 30 31 31 32 32 33
REMARK SMILES IDX 33 34 91 35 34 36 90 37 35 38 36 39 37 40 84 41 38 42 89 43
REMARK SMILES IDX 83 44 85 45 39 46 88 47 82 48 81 49 40 51 70 52 51 53 69 54
REMARK SMILES IDX 52 55 55 56 68 57 86 58 53 59 54 60 67 62 87 63 56 64 41 65
REMARK SMILES IDX 42 66 50 67 43 68 49 69 44 70 45 71 46 72 47 73 48 74 71 75
REMARK SMILES IDX 72 76 80 77 73 78 79 79 74 80 75 81 76 82 77 83 78 84 57 85
REMARK SMILES IDX 58 86 66 87 59 88 65 89 60 90 61 91 62 92 63 93 64 94
REMARK H PARENT 11 19 85 50 55 61
REMARK Flexibility Score: inf
ROOT
ATOM      1  O   UNL A   1      46.386  40.789  25.989  1.00  0.00    -0.458 OA
ENDROOT
BRANCH   1   2
ATOM      2  C   UNL A   1      45.152  41.287  25.681  1.00  0.00     0.352 C 
ATOM      3  O   UNL A   1      44.151  40.589  25.548  1.00  0.00    -0.245 OA
BRANCH   2   4
ATOM      4  C   UNL A   1      45.211  42.731  25.522  1.00  0.00     0.155 A 
ATOM      5  C   UNL A   1      45.025  43.513  24.394  1.00  0.00     0.152 A 
ATOM      6  C   UNL A   1      45.152  44.909  24.664  1.00  0.00     0.060 A 
ATOM      7  C   UNL A   1      45.517  45.144  25.971  1.00  0.00     0.070 A 
ATOM      8  S   UNL A   1      45.643  43.699  26.874  1.00  0.00    -0.133 S 
BRANCH   5   9
ATOM      9  O   UNL A   1      44.753  42.912  23.212  1.00  0.00    -0.453 OA
BRANCH   9  10
ATOM     10  C   UNL A   1      45.533  42.961  22.090  1.00  0.00     0.151 A 
ATOM     11  C   UNL A   1      45.188  43.480  20.834  1.00  0.00     0.084 A 
ATOM     12  C   UNL A   1      46.128  43.398  19.792  1.00  0.00     0.030 A 
ATOM     13  C   UNL A   1      47.416  42.906  20.016  1.00  0.00     0.002 A 
ATOM     14  C   UNL A   1      46.831  42.469  22.305  1.00  0.00     0.049 A 
ATOM     15  C   UNL A   1      47.773  42.450  21.278  1.00  0.00     0.004 A 
BRANCH  11  16
ATOM     16  N   UNL A   1      43.956  44.068  20.482  1.00  0.00    -0.323 N 
ATOM     17  O   UNL A   1      42.581  42.225  20.261  1.00  0.00    -0.275 OA
ATOM     18  C   UNL A   1      42.805  43.420  20.090  1.00  0.00     0.224 C 
ATOM     19  H   UNL A   1      43.914  45.051  20.520  1.00  0.00     0.170 HD
BRANCH  18  20
ATOM     20  C   UNL A   1      41.814  44.300  19.333  1.00  0.00     0.105 C 
BRANCH  20  21
ATOM     21  C   UNL A   1      42.040  44.445  17.829  1.00  0.00     0.045 C 
BRANCH  21  22
ATOM     22  C   UNL A   1      42.550  45.793  17.370  1.00  0.00    -0.048 A 
ATOM     23  C   UNL A   1      41.721  46.611  16.591  1.00  0.00     0.004 A 
ATOM     24  C   UNL A   1      43.829  46.260  17.713  1.00  0.00     0.004 A 
ATOM     25  C   UNL A   1      42.135  47.890  16.218  1.00  0.00     0.000 A 
ATOM     26  C   UNL A   1      44.232  47.548  17.357  1.00  0.00     0.000 A 
ATOM     27  C   UNL A   1      43.382  48.365  16.616  1.00  0.00     0.000 A 
ENDBRANCH  21  22
ENDBRANCH  20  21
ENDBRANCH  18  20
ENDBRANCH  11  16
ENDBRANCH   9  10
ENDBRANCH   5   9
ENDBRANCH   2   4
ENDBRANCH   1   2
BRANCH   1  28
ATOM     28  C   UNL A   1      46.517  40.100  27.241  1.00  0.00     0.275 C 
BRANCH  28  29
ATOM     29  C   UNL A   1      47.825  39.314  27.266  1.00  0.00     0.275 C 
BRANCH  29  30
ATOM     30  O   UNL A   1      47.521  37.914  27.243  1.00  0.00    -0.458 OA
BRANCH  30  31
ATOM     31  C   UNL A   1      48.289  37.161  28.062  1.00  0.00     0.338 C 
ATOM     32  O   UNL A   1      49.325  37.501  28.609  1.00  0.00    -0.246 OA
BRANCH  31  33
ATOM     33  C   UNL A   1      47.729  35.793  28.118  1.00  0.00     0.060 A 
ATOM     34  C   UNL A   1      47.832  35.006  29.269  1.00  0.00     0.016 A 
ATOM     35  C   UNL A   1      47.112  35.279  26.977  1.00  0.00     0.016 A 
ATOM     36  C   UNL A   1      47.368  33.687  29.261  1.00  0.00     0.010 A 
ATOM     37  C   UNL A   1      46.587  33.984  26.994  1.00  0.00     0.010 A 
ATOM     38  C   UNL A   1      46.737  33.162  28.124  1.00  0.00    -0.014 A 
BRANCH  38  39
ATOM     39  C   UNL A   1      46.260  31.752  28.080  1.00  0.00     0.031 A 
ATOM     40  C   UNL A   1      47.190  30.659  27.614  1.00  0.00     0.074 A 
ATOM     41  C   UNL A   1      44.993  31.446  28.424  1.00  0.00     0.049 A 
ATOM     42  N   UNL A   1      46.930  29.400  27.363  1.00  0.00    -0.248 NA
ATOM     43  C   UNL A   1      48.597  31.034  27.395  1.00  0.00     0.031 C 
ATOM     44  C   UNL A   1      43.994  32.394  28.919  1.00  0.00     0.029 A 
ATOM     45  N   UNL A   1      44.326  30.246  28.398  1.00  0.00    -0.354 N 
ATOM     46  C   UNL A   1      48.129  28.840  26.934  1.00  0.00     0.074 A 
ATOM     47  C   UNL A   1      49.112  29.904  26.932  1.00  0.00     0.031 C 
ATOM     48  C   UNL A   1      42.847  31.738  29.163  1.00  0.00     0.029 A 
ATOM     49  C   UNL A   1      43.009  30.337  28.785  1.00  0.00     0.049 A 
ATOM     50  H   UNL A   1      44.750  29.399  28.127  1.00  0.00     0.167 HD
ATOM     51  C   UNL A   1      48.394  27.560  26.582  1.00  0.00     0.031 A 
ATOM     52  C   UNL A   1      42.032  29.409  28.804  1.00  0.00     0.031 A 
ATOM     53  C   UNL A   1      47.421  26.498  26.587  1.00  0.00     0.049 A 
ATOM     54  C   UNL A   1      42.335  28.008  28.345  1.00  0.00     0.074 A 
ATOM     55  C   UNL A   1      47.593  25.169  26.241  1.00  0.00     0.029 A 
ATOM     56  N   UNL A   1      46.095  26.642  26.965  1.00  0.00    -0.354 N 
ATOM     57  N   UNL A   1      43.471  27.504  27.924  1.00  0.00    -0.248 NA
ATOM     58  C   UNL A   1      41.219  27.050  28.363  1.00  0.00     0.031 C 
ATOM     59  C   UNL A   1      46.362  24.517  26.375  1.00  0.00     0.029 A 
ATOM     60  C   UNL A   1      45.437  25.428  26.855  1.00  0.00     0.049 A 
ATOM     61  H   UNL A   1      45.682  27.482  27.268  1.00  0.00     0.167 HD
ATOM     62  C   UNL A   1      43.212  26.163  27.656  1.00  0.00     0.074 A 
ATOM     63  C   UNL A   1      41.818  25.932  27.977  1.00  0.00     0.031 C 
ATOM     64  C   UNL A   1      44.052  25.210  27.185  1.00  0.00     0.031 A 
BRANCH  51  65
ATOM     65  C   UNL A   1      49.799  27.231  26.149  1.00  0.00    -0.014 A 
ATOM     66  C   UNL A   1      50.140  27.170  24.786  1.00  0.00     0.010 A 
ATOM     67  C   UNL A   1      50.802  27.029  27.115  1.00  0.00     0.010 A 
ATOM     68  C   UNL A   1      51.451  26.881  24.396  1.00  0.00     0.020 A 
ATOM     69  C   UNL A   1      52.121  26.765  26.729  1.00  0.00     0.020 A 
ATOM     70  C   UNL A   1      52.433  26.678  25.370  1.00  0.00     0.054 A 
BRANCH  70  71
ATOM     71  S   UNL A   1      54.132  26.335  24.834  1.00  0.00     0.124 S 
ATOM     72  O   UNL A   1      54.328  27.342  23.794  1.00  0.00    -0.237 OA
ATOM     73  O   UNL A   1      54.902  26.540  26.058  1.00  0.00    -0.237 OA
ATOM     74  O   UNL A   1      54.074  24.954  24.361  1.00  0.00    -0.744 OA
ENDBRANCH  70  71
ENDBRANCH  51  65
BRANCH  52  75
ATOM     75  C   UNL A   1      40.659  29.773  29.251  1.00  0.00    -0.014 A 
ATOM     76  C   UNL A   1      39.636  29.988  28.311  1.00  0.00     0.010 A 
ATOM     77  C   UNL A   1      40.374  29.936  30.619  1.00  0.00     0.010 A 
ATOM     78  C   UNL A   1      38.363  30.390  28.727  1.00  0.00     0.020 A 
ATOM     79  C   UNL A   1      39.095  30.309  31.042  1.00  0.00     0.020 A 
ATOM     80  C   UNL A   1      38.102  30.552  30.090  1.00  0.00     0.054 A 
BRANCH  80  81
ATOM     81  S   UNL A   1      36.439  31.056  30.611  1.00  0.00     0.124 S 
ATOM     82  O   UNL A   1      36.150  30.096  31.670  1.00  0.00    -0.237 OA
ATOM     83  O   UNL A   1      36.645  32.435  31.045  1.00  0.00    -0.237 OA
ATOM     84  O   UNL A   1      35.643  30.907  29.395  1.00  0.00    -0.744 OA
ENDBRANCH  80  81
ENDBRANCH  52  75
BRANCH  64  85
ATOM     85  C   UNL A   1      43.501  23.816  27.037  1.00  0.00    -0.014 A 
ATOM     86  C   UNL A   1      43.258  23.003  28.158  1.00  0.00     0.010 A 
ATOM     87  C   UNL A   1      43.192  23.328  25.754  1.00  0.00     0.010 A 
ATOM     88  C   UNL A   1      42.755  21.709  27.994  1.00  0.00     0.020 A 
ATOM     89  C   UNL A   1      42.664  22.045  25.589  1.00  0.00     0.020 A 
ATOM     90  C   UNL A   1      42.465  21.237  26.710  1.00  0.00     0.054 A 
BRANCH  90  91
ATOM     91  S   UNL A   1      41.785  19.564  26.524  1.00  0.00     0.124 S 
ATOM     92  O   UNL A   1      42.337  18.881  27.690  1.00  0.00    -0.237 OA
ATOM     93  O   UNL A   1      40.343  19.797  26.555  1.00  0.00    -0.237 OA
ATOM     94  O   UNL A   1      42.310  19.119  25.235  1.00  0.00    -0.744 OA
ENDBRANCH  90  91
ENDBRANCH  64  85
ENDBRANCH  38  39
ENDBRANCH  31  33
ENDBRANCH  30  31
ENDBRANCH  29  30
ENDBRANCH  28  29
ENDBRANCH   1  28
TORSDOF 20
ENDMDL
