MODEL 1
REMARK VINA RESULT:     -10.3      0.000      0.000
REMARK SMILES O=C(CCCCCn1cc(Cl)c(I)n1)OCCOC(=O)c1ccc(-c2c3nc(c(-c4ccc(S(=O)(=O)[O-])cc4)c4ccc([nH]4)c(-c4ccc(S(=O)(=O)[O-])cc4)c4nc(c(-c5ccc(S(=O)(=O)[O-])cc5)c5ccc2[nH]5)C=C4)C=C3)cc1
REMARK SMILES IDX 16 1 15 2 2 3 1 4 3 5 4 6 5 7 6 8 7 9 8 10 9 11 14 12 10 13
REMARK SMILES IDX 12 14 11 15 13 16 17 17 18 18 19 19 20 20 21 21 22 22 80 23
REMARK SMILES IDX 23 24 79 25 24 26 25 27 26 28 73 29 27 30 78 31 72 32 74 33
REMARK SMILES IDX 28 34 77 35 71 36 70 37 29 39 59 40 40 41 58 42 41 43 44 44
REMARK SMILES IDX 57 45 75 46 42 47 43 48 56 50 76 51 45 52 30 53 31 54 39 55
REMARK SMILES IDX 32 56 38 57 33 58 34 59 35 60 36 61 37 62 60 63 61 64 69 65
REMARK SMILES IDX 62 66 68 67 63 68 64 69 65 70 66 71 67 72 46 73 47 74 55 75
REMARK SMILES IDX 48 76 54 77 49 78 50 79 51 80 52 81 53 82
REMARK H PARENT 74 38 44 49
REMARK Flexibility Score: inf
ROOT
ATOM      1  C   UNL A   1      39.435  21.554  26.016  1.00  0.00     0.274 C 
ENDROOT
BRANCH   1   2
ATOM      2  O   UNL A   1      38.432  22.581  26.139  1.00  0.00    -0.462 OA
BRANCH   2   3
ATOM      3  C   UNL A   1      37.142  22.510  25.738  1.00  0.00     0.305 C 
ATOM      4  O   UNL A   1      36.608  21.412  25.593  1.00  0.00    -0.252 OA
BRANCH   3   5
ATOM      5  C   UNL A   1      36.378  23.769  25.384  1.00  0.00     0.123 C 
BRANCH   5   6
ATOM      6  C   UNL A   1      34.899  23.766  25.748  1.00  0.00     0.012 C 
BRANCH   6   7
ATOM      7  C   UNL A   1      33.955  23.601  24.556  1.00  0.00     0.002 C 
BRANCH   7   8
ATOM      8  C   UNL A   1      32.675  22.782  24.822  1.00  0.00     0.024 C 
BRANCH   8   9
ATOM      9  C   UNL A   1      32.827  21.603  25.783  1.00  0.00     0.144 C 
BRANCH   9  10
ATOM     10  N   UNL A   1      32.543  20.344  25.125  1.00  0.00    -0.270 N 
ATOM     11  C   UNL A   1      32.359  20.159  23.787  1.00  0.00     0.130 A 
ATOM     12  N   UNL A   1      32.686  19.197  25.815  1.00  0.00    -0.165 NA
ATOM     13  C   UNL A   1      32.497  18.808  23.575  1.00  0.00     0.092 A 
ATOM     14  C   UNL A   1      32.700  18.264  24.861  1.00  0.00     0.141 A 
ATOM     15  Cl  UNL A   1      32.481  18.017  22.077  1.00  0.00    -0.080 Cl
ATOM     16  I   UNL A   1      33.067  16.306  25.303  1.00  0.00    -0.018 I 
ENDBRANCH   9  10
ENDBRANCH   8   9
ENDBRANCH   7   8
ENDBRANCH   6   7
ENDBRANCH   5   6
ENDBRANCH   3   5
ENDBRANCH   2   3
ENDBRANCH   1   2
BRANCH   1  17
ATOM     17  C   UNL A   1      40.416  21.486  27.179  1.00  0.00     0.275 C 
BRANCH  17  18
ATOM     18  O   UNL A   1      41.092  22.720  27.367  1.00  0.00    -0.458 OA
BRANCH  18  19
ATOM     19  C   UNL A   1      41.838  23.153  26.319  1.00  0.00     0.338 C 
ATOM     20  O   UNL A   1      42.330  22.484  25.443  1.00  0.00    -0.246 OA
BRANCH  19  21
ATOM     21  C   UNL A   1      41.995  24.611  26.471  1.00  0.00     0.060 A 
ATOM     22  C   UNL A   1      43.015  25.059  27.312  1.00  0.00     0.016 A 
ATOM     23  C   UNL A   1      41.032  25.489  25.946  1.00  0.00     0.016 A 
ATOM     24  C   UNL A   1      42.927  26.339  27.816  1.00  0.00     0.010 A 
ATOM     25  C   UNL A   1      40.942  26.762  26.451  1.00  0.00     0.010 A 
ATOM     26  C   UNL A   1      41.831  27.130  27.454  1.00  0.00    -0.014 A 
BRANCH  26  27
ATOM     27  C   UNL A   1      41.624  28.384  28.145  1.00  0.00     0.031 A 
ATOM     28  C   UNL A   1      42.711  29.364  27.938  1.00  0.00     0.074 A 
ATOM     29  C   UNL A   1      40.490  28.638  28.827  1.00  0.00     0.049 A 
ATOM     30  N   UNL A   1      43.548  29.805  28.815  1.00  0.00    -0.248 NA
ATOM     31  C   UNL A   1      43.005  29.785  26.559  1.00  0.00     0.031 C 
ATOM     32  C   UNL A   1      39.245  27.862  28.869  1.00  0.00     0.029 A 
ATOM     33  N   UNL A   1      40.184  29.731  29.568  1.00  0.00    -0.354 N 
ATOM     34  C   UNL A   1      44.359  30.711  28.143  1.00  0.00     0.074 A 
ATOM     35  C   UNL A   1      44.089  30.538  26.738  1.00  0.00     0.031 C 
ATOM     36  C   UNL A   1      38.259  28.626  29.397  1.00  0.00     0.029 A 
ATOM     37  C   UNL A   1      38.834  29.876  29.866  1.00  0.00     0.049 A 
ATOM     38  H   UNL A   1      40.865  30.373  29.872  1.00  0.00     0.167 HD
ATOM     39  C   UNL A   1      45.040  31.687  28.803  1.00  0.00     0.031 A 
ATOM     40  C   UNL A   1      38.244  30.972  30.409  1.00  0.00     0.031 A 
ATOM     41  C   UNL A   1      45.129  31.417  30.213  1.00  0.00     0.049 A 
ATOM     42  C   UNL A   1      39.320  31.756  31.068  1.00  0.00     0.074 A 
ATOM     43  C   UNL A   1      45.717  30.416  30.962  1.00  0.00     0.029 A 
ATOM     44  N   UNL A   1      44.189  32.000  31.031  1.00  0.00    -0.354 N 
ATOM     45  N   UNL A   1      39.988  31.319  32.102  1.00  0.00    -0.248 NA
ATOM     46  C   UNL A   1      39.989  32.786  30.287  1.00  0.00     0.031 C 
ATOM     47  C   UNL A   1      44.775  30.130  31.993  1.00  0.00     0.029 A 
ATOM     48  C   UNL A   1      43.709  31.024  31.871  1.00  0.00     0.049 A 
ATOM     49  H   UNL A   1      43.911  32.944  31.017  1.00  0.00     0.167 HD
ATOM     50  C   UNL A   1      41.304  31.688  31.861  1.00  0.00     0.074 A 
ATOM     51  C   UNL A   1      41.230  32.657  30.766  1.00  0.00     0.031 C 
ATOM     52  C   UNL A   1      42.350  30.973  32.374  1.00  0.00     0.031 A 
BRANCH  39  53
ATOM     53  C   UNL A   1      45.315  33.039  28.205  1.00  0.00    -0.014 A 
ATOM     54  C   UNL A   1      46.635  33.523  28.161  1.00  0.00     0.010 A 
ATOM     55  C   UNL A   1      44.283  33.957  27.910  1.00  0.00     0.010 A 
ATOM     56  C   UNL A   1      46.904  34.868  27.869  1.00  0.00     0.020 A 
ATOM     57  C   UNL A   1      44.541  35.286  27.578  1.00  0.00     0.020 A 
ATOM     58  C   UNL A   1      45.852  35.741  27.586  1.00  0.00     0.054 A 
BRANCH  58  59
ATOM     59  S   UNL A   1      46.202  37.492  27.288  1.00  0.00     0.124 S 
ATOM     60  O   UNL A   1      44.875  38.089  27.401  1.00  0.00    -0.237 OA
ATOM     61  O   UNL A   1      47.135  37.806  28.367  1.00  0.00    -0.237 OA
ATOM     62  O   UNL A   1      46.782  37.501  25.947  1.00  0.00    -0.744 OA
ENDBRANCH  58  59
ENDBRANCH  39  53
BRANCH  40  63
ATOM     63  C   UNL A   1      36.926  31.565  30.056  1.00  0.00    -0.014 A 
ATOM     64  C   UNL A   1      36.020  31.989  31.049  1.00  0.00     0.010 A 
ATOM     65  C   UNL A   1      36.684  31.987  28.732  1.00  0.00     0.010 A 
ATOM     66  C   UNL A   1      34.949  32.848  30.737  1.00  0.00     0.020 A 
ATOM     67  C   UNL A   1      35.618  32.840  28.413  1.00  0.00     0.020 A 
ATOM     68  C   UNL A   1      34.769  33.287  29.421  1.00  0.00     0.054 A 
BRANCH  68  69
ATOM     69  S   UNL A   1      33.497  34.536  29.054  1.00  0.00     0.124 S 
ATOM     70  O   UNL A   1      32.626  33.830  28.120  1.00  0.00    -0.237 OA
ATOM     71  O   UNL A   1      32.927  34.807  30.371  1.00  0.00    -0.237 OA
ATOM     72  O   UNL A   1      34.260  35.642  28.475  1.00  0.00    -0.744 OA
ENDBRANCH  68  69
ENDBRANCH  40  63
BRANCH  52  73
ATOM     73  C   UNL A   1      42.050  29.894  33.397  1.00  0.00    -0.014 A 
ATOM     74  C   UNL A   1      41.654  28.581  33.069  1.00  0.00     0.010 A 
ATOM     75  C   UNL A   1      42.332  30.186  34.743  1.00  0.00     0.010 A 
ATOM     76  C   UNL A   1      41.518  27.599  34.066  1.00  0.00     0.020 A 
ATOM     77  C   UNL A   1      42.216  29.210  35.736  1.00  0.00     0.020 A 
ATOM     78  C   UNL A   1      41.798  27.923  35.396  1.00  0.00     0.054 A 
BRANCH  78  79
ATOM     79  S   UNL A   1      41.652  26.651  36.684  1.00  0.00     0.124 S 
ATOM     80  O   UNL A   1      41.531  25.422  35.904  1.00  0.00    -0.237 OA
ATOM     81  O   UNL A   1      42.897  26.801  37.434  1.00  0.00    -0.237 OA
ATOM     82  O   UNL A   1      40.446  27.036  37.419  1.00  0.00    -0.744 OA
ENDBRANCH  78  79
ENDBRANCH  52  73
ENDBRANCH  26  27
ENDBRANCH  19  21
ENDBRANCH  18  19
ENDBRANCH  17  18
ENDBRANCH   1  17
TORSDOF 19
ENDMDL
MODEL 2
REMARK VINA RESULT:     -10.3      5.844     11.907
REMARK SMILES O=C(CCCCCn1cc(Cl)c(I)n1)OCCOC(=O)c1ccc(-c2c3nc(c(-c4ccc(S(=O)(=O)[O-])cc4)c4ccc([nH]4)c(-c4ccc(S(=O)(=O)[O-])cc4)c4nc(c(-c5ccc(S(=O)(=O)[O-])cc5)c5ccc2[nH]5)C=C4)C=C3)cc1
REMARK SMILES IDX 16 1 15 2 2 3 1 4 3 5 4 6 5 7 6 8 7 9 8 10 9 11 14 12 10 13
REMARK SMILES IDX 12 14 11 15 13 16 17 17 18 18 19 19 20 20 21 21 22 22 80 23
REMARK SMILES IDX 23 24 79 25 24 26 25 27 26 28 73 29 27 30 78 31 72 32 74 33
REMARK SMILES IDX 28 34 77 35 71 36 70 37 29 39 59 40 40 41 58 42 41 43 44 44
REMARK SMILES IDX 57 45 75 46 42 47 43 48 56 50 76 51 45 52 30 53 31 54 39 55
REMARK SMILES IDX 32 56 38 57 33 58 34 59 35 60 36 61 37 62 60 63 61 64 69 65
REMARK SMILES IDX 62 66 68 67 63 68 64 69 65 70 66 71 67 72 46 73 47 74 55 75
REMARK SMILES IDX 48 76 54 77 49 78 50 79 51 80 52 81 53 82
REMARK H PARENT 74 38 44 49
REMARK Flexibility Score: inf
ROOT
ATOM      1  C   UNL A   1      34.689  34.242  29.514  1.00  0.00     0.274 C 
ENDROOT
BRANCH   1   2
ATOM      2  O   UNL A   1      34.034  33.449  30.524  1.00  0.00    -0.462 OA
BRANCH   2   3
ATOM      3  C   UNL A   1      34.553  33.049  31.707  1.00  0.00     0.305 C 
ATOM      4  O   UNL A   1      33.839  33.023  32.708  1.00  0.00    -0.252 OA
BRANCH   3   5
ATOM      5  C   UNL A   1      36.026  32.714  31.826  1.00  0.00     0.123 C 
BRANCH   5   6
ATOM      6  C   UNL A   1      36.377  31.647  32.854  1.00  0.00     0.012 C 
BRANCH   6   7
ATOM      7  C   UNL A   1      37.791  31.081  32.721  1.00  0.00     0.002 C 
BRANCH   7   8
ATOM      8  C   UNL A   1      38.926  31.977  33.261  1.00  0.00     0.024 C 
BRANCH   8   9
ATOM      9  C   UNL A   1      39.612  32.874  32.231  1.00  0.00     0.144 C 
BRANCH   9  10
ATOM     10  N   UNL A   1      40.496  33.829  32.867  1.00  0.00    -0.270 N 
ATOM     11  C   UNL A   1      40.687  33.980  34.209  1.00  0.00     0.130 A 
ATOM     12  N   UNL A   1      41.394  34.493  32.115  1.00  0.00    -0.165 NA
ATOM     13  C   UNL A   1      41.849  34.701  34.341  1.00  0.00     0.092 A 
ATOM     14  C   UNL A   1      42.244  34.989  33.017  1.00  0.00     0.141 A 
ATOM     15  Cl  UNL A   1      42.636  35.087  35.791  1.00  0.00    -0.080 Cl
ATOM     16  I   UNL A   1      43.942  35.966  32.444  1.00  0.00    -0.018 I 
ENDBRANCH   9  10
ENDBRANCH   8   9
ENDBRANCH   7   8
ENDBRANCH   6   7
ENDBRANCH   5   6
ENDBRANCH   3   5
ENDBRANCH   2   3
ENDBRANCH   1   2
BRANCH   1  17
ATOM     17  C   UNL A   1      34.457  33.765  28.087  1.00  0.00     0.275 C 
BRANCH  17  18
ATOM     18  O   UNL A   1      35.507  32.920  27.639  1.00  0.00    -0.458 OA
BRANCH  18  19
ATOM     19  C   UNL A   1      35.275  31.586  27.733  1.00  0.00     0.338 C 
ATOM     20  O   UNL A   1      34.327  30.975  27.306  1.00  0.00    -0.246 OA
BRANCH  19  21
ATOM     21  C   UNL A   1      36.382  31.008  28.517  1.00  0.00     0.060 A 
ATOM     22  C   UNL A   1      37.425  31.863  28.875  1.00  0.00     0.016 A 
ATOM     23  C   UNL A   1      36.464  29.619  28.715  1.00  0.00     0.016 A 
ATOM     24  C   UNL A   1      38.640  31.302  29.208  1.00  0.00     0.010 A 
ATOM     25  C   UNL A   1      37.674  29.062  29.042  1.00  0.00     0.010 A 
ATOM     26  C   UNL A   1      38.767  29.909  29.183  1.00  0.00    -0.014 A 
BRANCH  26  27
ATOM     27  C   UNL A   1      40.086  29.332  29.320  1.00  0.00     0.031 A 
ATOM     28  C   UNL A   1      40.488  29.088  30.721  1.00  0.00     0.074 A 
ATOM     29  C   UNL A   1      40.816  28.972  28.246  1.00  0.00     0.049 A 
ATOM     30  N   UNL A   1      41.425  29.678  31.383  1.00  0.00    -0.248 NA
ATOM     31  C   UNL A   1      39.644  28.196  31.533  1.00  0.00     0.031 C 
ATOM     32  C   UNL A   1      40.414  28.910  26.836  1.00  0.00     0.029 A 
ATOM     33  N   UNL A   1      42.080  28.483  28.216  1.00  0.00    -0.354 N 
ATOM     34  C   UNL A   1      41.421  29.096  32.645  1.00  0.00     0.074 A 
ATOM     35  C   UNL A   1      40.213  28.315  32.732  1.00  0.00     0.031 C 
ATOM     36  C   UNL A   1      41.330  28.194  26.140  1.00  0.00     0.029 A 
ATOM     37  C   UNL A   1      42.446  27.883  27.017  1.00  0.00     0.049 A 
ATOM     38  H   UNL A   1      42.692  28.547  28.985  1.00  0.00     0.167 HD
ATOM     39  C   UNL A   1      42.518  29.127  33.450  1.00  0.00     0.031 A 
ATOM     40  C   UNL A   1      43.565  27.143  26.797  1.00  0.00     0.031 A 
ATOM     41  C   UNL A   1      43.465  30.122  33.023  1.00  0.00     0.049 A 
ATOM     42  C   UNL A   1      44.531  27.499  27.868  1.00  0.00     0.074 A 
ATOM     43  C   UNL A   1      43.427  31.498  32.919  1.00  0.00     0.029 A 
ATOM     44  N   UNL A   1      44.498  29.708  32.214  1.00  0.00    -0.354 N 
ATOM     45  N   UNL A   1      45.060  28.687  27.983  1.00  0.00    -0.248 NA
ATOM     46  C   UNL A   1      44.522  26.703  29.086  1.00  0.00     0.031 C 
ATOM     47  C   UNL A   1      44.098  31.791  31.695  1.00  0.00     0.029 A 
ATOM     48  C   UNL A   1      44.581  30.592  31.165  1.00  0.00     0.049 A 
ATOM     49  H   UNL A   1      45.072  28.922  32.359  1.00  0.00     0.167 HD
ATOM     50  C   UNL A   1      45.054  28.953  29.345  1.00  0.00     0.074 A 
ATOM     51  C   UNL A   1      44.783  27.662  29.980  1.00  0.00     0.031 C 
ATOM     52  C   UNL A   1      44.990  30.233  29.821  1.00  0.00     0.031 A 
BRANCH  39  53
ATOM     53  C   UNL A   1      42.862  28.017  34.405  1.00  0.00    -0.014 A 
ATOM     54  C   UNL A   1      43.111  28.318  35.757  1.00  0.00     0.010 A 
ATOM     55  C   UNL A   1      43.195  26.718  33.963  1.00  0.00     0.010 A 
ATOM     56  C   UNL A   1      43.694  27.374  36.613  1.00  0.00     0.020 A 
ATOM     57  C   UNL A   1      43.737  25.758  34.816  1.00  0.00     0.020 A 
ATOM     58  C   UNL A   1      44.009  26.100  36.132  1.00  0.00     0.054 A 
BRANCH  58  59
ATOM     59  S   UNL A   1      44.833  24.915  37.223  1.00  0.00     0.124 S 
ATOM     60  O   UNL A   1      44.157  25.151  38.494  1.00  0.00    -0.237 OA
ATOM     61  O   UNL A   1      44.537  23.641  36.572  1.00  0.00    -0.237 OA
ATOM     62  O   UNL A   1      46.236  25.323  37.173  1.00  0.00    -0.744 OA
ENDBRANCH  58  59
ENDBRANCH  39  53
BRANCH  40  63
ATOM     63  C   UNL A   1      43.689  25.900  25.990  1.00  0.00    -0.014 A 
ATOM     64  C   UNL A   1      44.893  25.561  25.341  1.00  0.00     0.010 A 
ATOM     65  C   UNL A   1      42.707  24.895  26.103  1.00  0.00     0.010 A 
ATOM     66  C   UNL A   1      45.126  24.253  24.876  1.00  0.00     0.020 A 
ATOM     67  C   UNL A   1      42.930  23.590  25.641  1.00  0.00     0.020 A 
ATOM     68  C   UNL A   1      44.149  23.268  25.050  1.00  0.00     0.054 A 
BRANCH  68  69
ATOM     69  S   UNL A   1      44.522  21.541  24.614  1.00  0.00     0.124 S 
ATOM     70  O   UNL A   1      44.518  21.580  23.155  1.00  0.00    -0.237 OA
ATOM     71  O   UNL A   1      45.824  21.329  25.239  1.00  0.00    -0.237 OA
ATOM     72  O   UNL A   1      43.421  20.790  25.216  1.00  0.00    -0.744 OA
ENDBRANCH  68  69
ENDBRANCH  40  63
BRANCH  52  73
ATOM     73  C   UNL A   1      45.150  31.374  28.836  1.00  0.00    -0.014 A 
ATOM     74  C   UNL A   1      46.370  32.034  28.580  1.00  0.00     0.010 A 
ATOM     75  C   UNL A   1      44.044  31.685  28.025  1.00  0.00     0.010 A 
ATOM     76  C   UNL A   1      46.468  32.997  27.560  1.00  0.00     0.020 A 
ATOM     77  C   UNL A   1      44.139  32.627  26.999  1.00  0.00     0.020 A 
ATOM     78  C   UNL A   1      45.347  33.288  26.777  1.00  0.00     0.054 A 
BRANCH  78  79
ATOM     79  S   UNL A   1      45.477  34.511  25.439  1.00  0.00     0.124 S 
ATOM     80  O   UNL A   1      44.701  33.893  24.368  1.00  0.00    -0.237 OA
ATOM     81  O   UNL A   1      44.887  35.708  26.034  1.00  0.00    -0.237 OA
ATOM     82  O   UNL A   1      46.915  34.600  25.187  1.00  0.00    -0.744 OA
ENDBRANCH  78  79
ENDBRANCH  52  73
ENDBRANCH  26  27
ENDBRANCH  19  21
ENDBRANCH  18  19
ENDBRANCH  17  18
ENDBRANCH   1  17
TORSDOF 19
ENDMDL
MODEL 3
REMARK VINA RESULT:     -10.3      2.496      3.577
REMARK SMILES O=C(CCCCCn1cc(Cl)c(I)n1)OCCOC(=O)c1ccc(-c2c3nc(c(-c4ccc(S(=O)(=O)[O-])cc4)c4ccc([nH]4)c(-c4ccc(S(=O)(=O)[O-])cc4)c4nc(c(-c5ccc(S(=O)(=O)[O-])cc5)c5ccc2[nH]5)C=C4)C=C3)cc1
REMARK SMILES IDX 16 1 15 2 2 3 1 4 3 5 4 6 5 7 6 8 7 9 8 10 9 11 14 12 10 13
REMARK SMILES IDX 12 14 11 15 13 16 17 17 18 18 19 19 20 20 21 21 22 22 80 23
REMARK SMILES IDX 23 24 79 25 24 26 25 27 26 28 73 29 27 30 78 31 72 32 74 33
REMARK SMILES IDX 28 34 77 35 71 36 70 37 29 39 59 40 40 41 58 42 41 43 44 44
REMARK SMILES IDX 57 45 75 46 42 47 43 48 56 50 76 51 45 52 30 53 31 54 39 55
REMARK SMILES IDX 32 56 38 57 33 58 34 59 35 60 36 61 37 62 60 63 61 64 69 65
REMARK SMILES IDX 62 66 68 67 63 68 64 69 65 70 66 71 67 72 46 73 47 74 55 75
REMARK SMILES IDX 48 76 54 77 49 78 50 79 51 80 52 81 53 82
REMARK H PARENT 74 38 44 49
REMARK Flexibility Score: inf
ROOT
ATOM      1  C   UNL A   1      42.802  19.200  25.535  1.00  0.00     0.274 C 
ENDROOT
BRANCH   1   2
ATOM      2  O   UNL A   1      42.684  19.854  26.814  1.00  0.00    -0.462 OA
BRANCH   2   3
ATOM      3  C   UNL A   1      41.541  20.155  27.472  1.00  0.00     0.305 C 
ATOM      4  O   UNL A   1      40.952  19.279  28.103  1.00  0.00    -0.252 OA
BRANCH   3   5
ATOM      5  C   UNL A   1      40.936  21.540  27.366  1.00  0.00     0.123 C 
BRANCH   5   6
ATOM      6  C   UNL A   1      40.073  21.788  26.136  1.00  0.00     0.012 C 
BRANCH   6   7
ATOM      7  C   UNL A   1      39.000  22.861  26.324  1.00  0.00     0.002 C 
BRANCH   7   8
ATOM      8  C   UNL A   1      37.721  22.687  25.479  1.00  0.00     0.024 C 
BRANCH   8   9
ATOM      9  C   UNL A   1      36.500  23.476  25.950  1.00  0.00     0.144 C 
BRANCH   9  10
ATOM     10  N   UNL A   1      35.289  23.017  25.301  1.00  0.00    -0.270 N 
ATOM     11  C   UNL A   1      34.729  23.547  24.176  1.00  0.00     0.130 A 
ATOM     12  N   UNL A   1      34.758  21.835  25.664  1.00  0.00    -0.165 NA
ATOM     13  C   UNL A   1      33.848  22.598  23.716  1.00  0.00     0.092 A 
ATOM     14  C   UNL A   1      33.908  21.561  24.671  1.00  0.00     0.141 A 
ATOM     15  Cl  UNL A   1      32.952  22.667  22.280  1.00  0.00    -0.080 Cl
ATOM     16  I   UNL A   1      32.919  19.778  24.589  1.00  0.00    -0.018 I 
ENDBRANCH   9  10
ENDBRANCH   8   9
ENDBRANCH   7   8
ENDBRANCH   6   7
ENDBRANCH   5   6
ENDBRANCH   3   5
ENDBRANCH   2   3
ENDBRANCH   1   2
BRANCH   1  17
ATOM     17  C   UNL A   1      44.171  19.332  24.882  1.00  0.00     0.275 C 
BRANCH  17  18
ATOM     18  O   UNL A   1      44.307  20.568  24.195  1.00  0.00    -0.458 OA
BRANCH  18  19
ATOM     19  C   UNL A   1      45.197  21.446  24.725  1.00  0.00     0.338 C 
ATOM     20  O   UNL A   1      46.391  21.472  24.553  1.00  0.00    -0.246 OA
BRANCH  19  21
ATOM     21  C   UNL A   1      44.441  22.347  25.612  1.00  0.00     0.060 A 
ATOM     22  C   UNL A   1      43.464  23.151  25.023  1.00  0.00     0.016 A 
ATOM     23  C   UNL A   1      44.833  22.522  26.950  1.00  0.00     0.016 A 
ATOM     24  C   UNL A   1      43.054  24.279  25.702  1.00  0.00     0.010 A 
ATOM     25  C   UNL A   1      44.429  23.647  27.623  1.00  0.00     0.010 A 
ATOM     26  C   UNL A   1      43.626  24.559  26.948  1.00  0.00    -0.014 A 
BRANCH  26  27
ATOM     27  C   UNL A   1      43.361  25.843  27.558  1.00  0.00     0.031 A 
ATOM     28  C   UNL A   1      44.397  26.860  27.279  1.00  0.00     0.074 A 
ATOM     29  C   UNL A   1      42.219  26.085  28.231  1.00  0.00     0.049 A 
ATOM     30  N   UNL A   1      45.214  27.398  28.119  1.00  0.00    -0.248 NA
ATOM     31  C   UNL A   1      44.662  27.204  25.873  1.00  0.00     0.031 C 
ATOM     32  C   UNL A   1      41.014  25.253  28.334  1.00  0.00     0.029 A 
ATOM     33  N   UNL A   1      41.862  27.208  28.902  1.00  0.00    -0.354 N 
ATOM     34  C   UNL A   1      45.977  28.297  27.383  1.00  0.00     0.074 A 
ATOM     35  C   UNL A   1      45.708  28.020  25.994  1.00  0.00     0.031 C 
ATOM     36  C   UNL A   1      39.993  26.000  28.819  1.00  0.00     0.029 A 
ATOM     37  C   UNL A   1      40.508  27.305  29.201  1.00  0.00     0.049 A 
ATOM     38  H   UNL A   1      42.512  27.901  29.158  1.00  0.00     0.167 HD
ATOM     39  C   UNL A   1      46.611  29.346  27.972  1.00  0.00     0.031 A 
ATOM     40  C   UNL A   1      39.867  28.404  29.677  1.00  0.00     0.031 A 
ATOM     41  C   UNL A   1      46.720  29.174  29.396  1.00  0.00     0.049 A 
ATOM     42  C   UNL A   1      40.906  29.282  30.274  1.00  0.00     0.074 A 
ATOM     43  C   UNL A   1      47.361  28.254  30.203  1.00  0.00     0.029 A 
ATOM     44  N   UNL A   1      45.756  29.763  30.181  1.00  0.00    -0.354 N 
ATOM     45  N   UNL A   1      41.599  28.946  31.329  1.00  0.00    -0.248 NA
ATOM     46  C   UNL A   1      41.519  30.290  29.423  1.00  0.00     0.031 C 
ATOM     47  C   UNL A   1      46.439  27.990  31.258  1.00  0.00     0.029 A 
ATOM     48  C   UNL A   1      45.330  28.821  31.087  1.00  0.00     0.049 A 
ATOM     49  H   UNL A   1      45.432  30.688  30.108  1.00  0.00     0.167 HD
ATOM     50  C   UNL A   1      42.894  29.363  31.054  1.00  0.00     0.074 A 
ATOM     51  C   UNL A   1      42.767  30.254  29.899  1.00  0.00     0.031 C 
ATOM     52  C   UNL A   1      43.978  28.736  31.604  1.00  0.00     0.031 A 
BRANCH  39  53
ATOM     53  C   UNL A   1      46.815  30.668  27.285  1.00  0.00    -0.014 A 
ATOM     54  C   UNL A   1      48.110  31.213  27.198  1.00  0.00     0.010 A 
ATOM     55  C   UNL A   1      45.738  31.513  26.939  1.00  0.00     0.010 A 
ATOM     56  C   UNL A   1      48.310  32.547  26.818  1.00  0.00     0.020 A 
ATOM     57  C   UNL A   1      45.928  32.829  26.519  1.00  0.00     0.020 A 
ATOM     58  C   UNL A   1      47.214  33.348  26.487  1.00  0.00     0.054 A 
BRANCH  58  59
ATOM     59  S   UNL A   1      47.475  35.090  26.073  1.00  0.00     0.124 S 
ATOM     60  O   UNL A   1      48.491  35.004  25.028  1.00  0.00    -0.237 OA
ATOM     61  O   UNL A   1      46.145  35.504  25.635  1.00  0.00    -0.237 OA
ATOM     62  O   UNL A   1      47.921  35.677  27.335  1.00  0.00    -0.744 OA
ENDBRANCH  58  59
ENDBRANCH  39  53
BRANCH  40  63
ATOM     63  C   UNL A   1      38.519  28.907  29.297  1.00  0.00    -0.014 A 
ATOM     64  C   UNL A   1      37.538  29.187  30.267  1.00  0.00     0.010 A 
ATOM     65  C   UNL A   1      38.300  29.394  27.991  1.00  0.00     0.010 A 
ATOM     66  C   UNL A   1      36.411  29.973  29.957  1.00  0.00     0.020 A 
ATOM     67  C   UNL A   1      37.180  30.175  27.674  1.00  0.00     0.020 A 
ATOM     68  C   UNL A   1      36.251  30.481  28.664  1.00  0.00     0.054 A 
BRANCH  68  69
ATOM     69  S   UNL A   1      34.893  31.642  28.314  1.00  0.00     0.124 S 
ATOM     70  O   UNL A   1      33.931  30.794  27.617  1.00  0.00    -0.237 OA
ATOM     71  O   UNL A   1      34.500  32.083  29.648  1.00  0.00    -0.237 OA
ATOM     72  O   UNL A   1      35.526  32.669  27.487  1.00  0.00    -0.744 OA
ENDBRANCH  68  69
ENDBRANCH  40  63
BRANCH  52  73
ATOM     73  C   UNL A   1      43.736  27.713  32.697  1.00  0.00    -0.014 A 
ATOM     74  C   UNL A   1      43.885  26.321  32.525  1.00  0.00     0.010 A 
ATOM     75  C   UNL A   1      43.498  28.200  33.994  1.00  0.00     0.010 A 
ATOM     76  C   UNL A   1      43.769  25.443  33.617  1.00  0.00     0.020 A 
ATOM     77  C   UNL A   1      43.400  27.335  35.087  1.00  0.00     0.020 A 
ATOM     78  C   UNL A   1      43.524  25.959  34.893  1.00  0.00     0.054 A 
BRANCH  78  79
ATOM     79  S   UNL A   1      43.403  24.832  36.312  1.00  0.00     0.124 S 
ATOM     80  O   UNL A   1      44.502  23.901  36.074  1.00  0.00    -0.237 OA
ATOM     81  O   UNL A   1      43.572  25.728  37.455  1.00  0.00    -0.237 OA
ATOM     82  O   UNL A   1      42.065  24.253  36.184  1.00  0.00    -0.744 OA
ENDBRANCH  78  79
ENDBRANCH  52  73
ENDBRANCH  26  27
ENDBRANCH  19  21
ENDBRANCH  18  19
ENDBRANCH  17  18
ENDBRANCH   1  17
TORSDOF 19
ENDMDL
