MODEL 1
REMARK VINA RESULT:     -12.2      0.000      0.000
REMARK SMILES Cc1cccc(C[C@H](C(=O)OCCOC(=O)c2ccc(-c3c4nc(c(-c5ccc(S(=O)(=O)[O-])cc5)c5ccc([nH]5)c(-c5ccc(S(=O)(=O)[O-])cc5)c5nc(c(-c6ccc(S(=O)(=O)[O-])cc6)c6ccc3[nH]6)C=C5)C=C4)cc2)[C@@H]2CCCC[C@@H]2O)c1
REMARK SMILES IDX 13 1 12 2 11 3 9 4 10 5 8 6 7 7 6 8 1 9 2 10 3 11 84 12 4 13
REMARK SMILES IDX 5 14 77 15 78 16 82 17 79 18 81 19 80 20 83 21 14 23 15 24
REMARK SMILES IDX 16 25 17 26 18 27 76 28 19 29 75 30 20 31 21 32 22 33 69 34
REMARK SMILES IDX 23 35 74 36 68 37 70 38 24 39 73 40 67 41 66 42 25 44 55 45
REMARK SMILES IDX 36 46 54 47 37 48 40 49 53 50 71 51 38 52 39 53 52 55 72 56
REMARK SMILES IDX 41 57 26 58 27 59 35 60 28 61 34 62 29 63 30 64 31 65 32 66
REMARK SMILES IDX 33 67 56 68 57 69 65 70 58 71 64 72 59 73 60 74 61 75 62 76
REMARK SMILES IDX 63 77 42 78 43 79 51 80 44 81 50 82 45 83 46 84 47 85 48 86
REMARK SMILES IDX 49 87
REMARK H PARENT 83 22 70 43 40 54
REMARK Flexibility Score: inf
ROOT
ATOM      1  C   UNL A   1      31.980  29.992  25.215  1.00  0.00     0.275 C 
ENDROOT
BRANCH   1   2
ATOM      2  C   UNL A   1      31.758  29.035  24.012  1.00  0.00     0.274 C 
BRANCH   2   3
ATOM      3  O   UNL A   1      30.511  28.301  23.969  1.00  0.00    -0.462 OA
BRANCH   3   4
ATOM      4  C   UNL A   1      30.550  27.011  24.387  1.00  0.00     0.309 C 
ATOM      5  O   UNL A   1      29.547  26.396  24.732  1.00  0.00    -0.252 OA
BRANCH   4   6
ATOM      6  C   UNL A   1      31.939  26.366  24.163  1.00  0.00     0.109 C 
BRANCH   6   7
ATOM      7  C   UNL A   1      32.370  25.809  25.558  1.00  0.00     0.051 C 
BRANCH   7   8
ATOM      8  C   UNL A   1      33.521  24.847  25.801  1.00  0.00    -0.047 A 
ATOM      9  C   UNL A   1      34.058  21.540  27.684  1.00  0.00     0.044 C 
ATOM     10  C   UNL A   1      34.277  22.715  26.777  1.00  0.00    -0.051 A 
ATOM     11  C   UNL A   1      35.454  22.791  26.031  1.00  0.00     0.003 A 
ATOM     12  C   UNL A   1      33.307  23.725  26.630  1.00  0.00     0.007 A 
ATOM     13  C   UNL A   1      35.709  23.923  25.269  1.00  0.00     0.001 A 
ATOM     14  C   UNL A   1      34.772  24.959  25.211  1.00  0.00     0.004 A 
ENDBRANCH   7   8
ENDBRANCH   6   7
BRANCH   6  15
ATOM     15  C   UNL A   1      31.648  25.440  22.929  1.00  0.00     0.032 C 
ATOM     16  C   UNL A   1      30.737  24.244  23.239  1.00  0.00     0.007 C 
ATOM     17  C   UNL A   1      32.741  25.029  21.917  1.00  0.00     0.118 C 
ATOM     18  C   UNL A   1      31.509  23.033  23.712  1.00  0.00     0.001 C 
ATOM     19  C   UNL A   1      33.365  23.634  22.058  1.00  0.00     0.032 C 
ATOM     20  C   UNL A   1      32.454  22.550  22.628  1.00  0.00     0.003 C 
BRANCH  17  21
ATOM     21  O   UNL A   1      33.732  26.024  21.686  1.00  0.00    -0.393 OA
ATOM     22  H   UNL A   1      33.307  26.893  21.615  1.00  0.00     0.210 HD
ENDBRANCH  17  21
ENDBRANCH   6  15
ENDBRANCH   4   6
ENDBRANCH   3   4
ENDBRANCH   2   3
ENDBRANCH   1   2
BRANCH   1  23
ATOM     23  O   UNL A   1      33.311  29.944  25.746  1.00  0.00    -0.458 OA
BRANCH  23  24
ATOM     24  C   UNL A   1      33.396  29.524  27.020  1.00  0.00     0.338 C 
ATOM     25  O   UNL A   1      32.812  28.549  27.535  1.00  0.00    -0.246 OA
BRANCH  24  26
ATOM     26  C   UNL A   1      34.637  30.059  27.591  1.00  0.00     0.060 A 
ATOM     27  C   UNL A   1      35.091  31.349  27.284  1.00  0.00     0.016 A 
ATOM     28  C   UNL A   1      35.193  29.342  28.665  1.00  0.00     0.016 A 
ATOM     29  C   UNL A   1      36.167  31.857  27.992  1.00  0.00     0.010 A 
ATOM     30  C   UNL A   1      36.064  29.937  29.522  1.00  0.00     0.010 A 
ATOM     31  C   UNL A   1      36.667  31.097  29.062  1.00  0.00    -0.014 A 
BRANCH  31  32
ATOM     32  C   UNL A   1      38.090  31.016  29.320  1.00  0.00     0.031 A 
ATOM     33  C   UNL A   1      38.802  29.820  28.894  1.00  0.00     0.074 A 
ATOM     34  C   UNL A   1      38.598  32.132  29.898  1.00  0.00     0.049 A 
ATOM     35  N   UNL A   1      39.407  29.009  29.688  1.00  0.00    -0.248 NA
ATOM     36  C   UNL A   1      38.809  29.401  27.489  1.00  0.00     0.031 C 
ATOM     37  C   UNL A   1      39.947  32.464  30.297  1.00  0.00     0.029 A 
ATOM     38  N   UNL A   1      37.887  33.236  30.365  1.00  0.00    -0.354 N 
ATOM     39  C   UNL A   1      40.224  28.277  28.857  1.00  0.00     0.074 A 
ATOM     40  C   UNL A   1      39.639  28.353  27.536  1.00  0.00     0.031 C 
ATOM     41  C   UNL A   1      39.871  33.420  31.253  1.00  0.00     0.029 A 
ATOM     42  C   UNL A   1      38.461  33.706  31.525  1.00  0.00     0.049 A 
ATOM     43  H   UNL A   1      37.093  33.623  29.930  1.00  0.00     0.167 HD
ATOM     44  C   UNL A   1      41.528  28.064  29.193  1.00  0.00     0.031 A 
ATOM     45  C   UNL A   1      37.799  33.544  32.713  1.00  0.00     0.031 A 
ATOM     46  C   UNL A   1      41.899  28.867  30.363  1.00  0.00     0.049 A 
ATOM     47  C   UNL A   1      38.465  32.441  33.521  1.00  0.00     0.074 A 
ATOM     48  C   UNL A   1      42.616  30.047  30.481  1.00  0.00     0.029 A 
ATOM     49  N   UNL A   1      41.196  28.726  31.560  1.00  0.00    -0.354 N 
ATOM     50  N   UNL A   1      39.214  31.508  32.990  1.00  0.00    -0.248 NA
ATOM     51  C   UNL A   1      38.409  32.336  34.975  1.00  0.00     0.031 C 
ATOM     52  C   UNL A   1      42.290  30.647  31.727  1.00  0.00     0.029 A 
ATOM     53  C   UNL A   1      41.373  29.836  32.369  1.00  0.00     0.049 A 
ATOM     54  H   UNL A   1      40.649  27.943  31.798  1.00  0.00     0.167 HD
ATOM     55  C   UNL A   1      39.837  30.790  33.975  1.00  0.00     0.074 A 
ATOM     56  C   UNL A   1      39.266  31.322  35.204  1.00  0.00     0.031 C 
ATOM     57  C   UNL A   1      40.811  29.864  33.716  1.00  0.00     0.031 A 
BRANCH  44  58
ATOM     58  C   UNL A   1      42.484  27.506  28.167  1.00  0.00    -0.014 A 
ATOM     59  C   UNL A   1      42.526  26.131  27.883  1.00  0.00     0.010 A 
ATOM     60  C   UNL A   1      43.393  28.331  27.468  1.00  0.00     0.010 A 
ATOM     61  C   UNL A   1      43.478  25.588  27.009  1.00  0.00     0.020 A 
ATOM     62  C   UNL A   1      44.367  27.797  26.608  1.00  0.00     0.020 A 
ATOM     63  C   UNL A   1      44.404  26.423  26.387  1.00  0.00     0.054 A 
BRANCH  63  64
ATOM     64  S   UNL A   1      45.647  25.682  25.297  1.00  0.00     0.124 S 
ATOM     65  O   UNL A   1      46.619  25.141  26.245  1.00  0.00    -0.237 OA
ATOM     66  O   UNL A   1      44.866  24.691  24.563  1.00  0.00    -0.237 OA
ATOM     67  O   UNL A   1      46.128  26.811  24.502  1.00  0.00    -0.744 OA
ENDBRANCH  63  64
ENDBRANCH  44  58
BRANCH  45  68
ATOM     68  C   UNL A   1      36.352  33.978  32.757  1.00  0.00    -0.014 A 
ATOM     69  C   UNL A   1      36.092  35.333  33.094  1.00  0.00     0.010 A 
ATOM     70  C   UNL A   1      35.241  33.205  32.372  1.00  0.00     0.010 A 
ATOM     71  C   UNL A   1      34.819  35.912  32.980  1.00  0.00     0.020 A 
ATOM     72  C   UNL A   1      33.945  33.780  32.268  1.00  0.00     0.020 A 
ATOM     73  C   UNL A   1      33.746  35.134  32.562  1.00  0.00     0.054 A 
BRANCH  73  74
ATOM     74  S   UNL A   1      32.128  35.955  32.351  1.00  0.00     0.124 S 
ATOM     75  O   UNL A   1      32.224  37.062  33.298  1.00  0.00    -0.237 OA
ATOM     76  O   UNL A   1      32.153  36.347  30.945  1.00  0.00    -0.237 OA
ATOM     77  O   UNL A   1      31.166  34.916  32.712  1.00  0.00    -0.744 OA
ENDBRANCH  73  74
ENDBRANCH  45  68
BRANCH  57  78
ATOM     78  C   UNL A   1      41.464  28.938  34.715  1.00  0.00    -0.014 A 
ATOM     79  C   UNL A   1      41.242  27.560  34.788  1.00  0.00     0.010 A 
ATOM     80  C   UNL A   1      42.485  29.469  35.549  1.00  0.00     0.010 A 
ATOM     81  C   UNL A   1      41.977  26.758  35.674  1.00  0.00     0.020 A 
ATOM     82  C   UNL A   1      43.259  28.676  36.389  1.00  0.00     0.020 A 
ATOM     83  C   UNL A   1      42.984  27.320  36.463  1.00  0.00     0.054 A 
BRANCH  83  84
ATOM     84  S   UNL A   1      44.000  26.269  37.524  1.00  0.00     0.124 S 
ATOM     85  O   UNL A   1      45.343  26.760  37.232  1.00  0.00    -0.237 OA
ATOM     86  O   UNL A   1      43.498  26.571  38.862  1.00  0.00    -0.237 OA
ATOM     87  O   UNL A   1      43.707  24.919  37.047  1.00  0.00    -0.744 OA
ENDBRANCH  83  84
ENDBRANCH  57  78
ENDBRANCH  31  32
ENDBRANCH  24  26
ENDBRANCH  23  24
ENDBRANCH   1  23
TORSDOF 18
ENDMDL
MODEL 2
REMARK VINA RESULT:     -12.0      3.148      4.879
REMARK SMILES Cc1cccc(C[C@H](C(=O)OCCOC(=O)c2ccc(-c3c4nc(c(-c5ccc(S(=O)(=O)[O-])cc5)c5ccc([nH]5)c(-c5ccc(S(=O)(=O)[O-])cc5)c5nc(c(-c6ccc(S(=O)(=O)[O-])cc6)c6ccc3[nH]6)C=C5)C=C4)cc2)[C@@H]2CCCC[C@@H]2O)c1
REMARK SMILES IDX 13 1 12 2 11 3 9 4 10 5 8 6 7 7 6 8 1 9 2 10 3 11 84 12 4 13
REMARK SMILES IDX 5 14 77 15 78 16 82 17 79 18 81 19 80 20 83 21 14 23 15 24
REMARK SMILES IDX 16 25 17 26 18 27 76 28 19 29 75 30 20 31 21 32 22 33 69 34
REMARK SMILES IDX 23 35 74 36 68 37 70 38 24 39 73 40 67 41 66 42 25 44 55 45
REMARK SMILES IDX 36 46 54 47 37 48 40 49 53 50 71 51 38 52 39 53 52 55 72 56
REMARK SMILES IDX 41 57 26 58 27 59 35 60 28 61 34 62 29 63 30 64 31 65 32 66
REMARK SMILES IDX 33 67 56 68 57 69 65 70 58 71 64 72 59 73 60 74 61 75 62 76
REMARK SMILES IDX 63 77 42 78 43 79 51 80 44 81 50 82 45 83 46 84 47 85 48 86
REMARK SMILES IDX 49 87
REMARK H PARENT 83 22 70 43 40 54
REMARK Flexibility Score: inf
ROOT
ATOM      1  C   UNL A   1      34.864  30.496  27.717  1.00  0.00     0.275 C 
ENDROOT
BRANCH   1   2
ATOM      2  C   UNL A   1      34.878  29.086  27.063  1.00  0.00     0.274 C 
BRANCH   2   3
ATOM      3  O   UNL A   1      33.598  28.490  26.746  1.00  0.00    -0.462 OA
BRANCH   3   4
ATOM      4  C   UNL A   1      33.232  28.492  25.440  1.00  0.00     0.309 C 
ATOM      5  O   UNL A   1      32.847  29.502  24.862  1.00  0.00    -0.252 OA
BRANCH   4   6
ATOM      6  C   UNL A   1      33.569  27.155  24.737  1.00  0.00     0.109 C 
BRANCH   6   7
ATOM      7  C   UNL A   1      33.753  26.114  25.888  1.00  0.00     0.051 C 
BRANCH   7   8
ATOM      8  C   UNL A   1      34.269  24.695  25.713  1.00  0.00    -0.047 A 
ATOM      9  C   UNL A   1      36.566  22.832  23.260  1.00  0.00     0.044 C 
ATOM     10  C   UNL A   1      35.722  23.152  24.458  1.00  0.00    -0.051 A 
ATOM     11  C   UNL A   1      35.593  22.204  25.474  1.00  0.00     0.003 A 
ATOM     12  C   UNL A   1      35.087  24.401  24.602  1.00  0.00     0.007 A 
ATOM     13  C   UNL A   1      34.735  22.452  26.536  1.00  0.00     0.001 A 
ATOM     14  C   UNL A   1      34.040  23.663  26.612  1.00  0.00     0.004 A 
ENDBRANCH   7   8
ENDBRANCH   6   7
BRANCH   6  15
ATOM     15  C   UNL A   1      32.408  27.065  23.685  1.00  0.00     0.032 C 
ATOM     16  C   UNL A   1      31.013  26.881  24.298  1.00  0.00     0.007 C 
ATOM     17  C   UNL A   1      32.527  26.249  22.377  1.00  0.00     0.118 C 
ATOM     18  C   UNL A   1      30.661  25.426  24.514  1.00  0.00     0.001 C 
ATOM     19  C   UNL A   1      31.870  24.863  22.331  1.00  0.00     0.032 C 
ATOM     20  C   UNL A   1      30.619  24.689  23.189  1.00  0.00     0.003 C 
BRANCH  17  21
ATOM     21  O   UNL A   1      33.834  26.226  21.816  1.00  0.00    -0.393 OA
ATOM     22  H   UNL A   1      34.387  26.888  22.258  1.00  0.00     0.210 HD
ENDBRANCH  17  21
ENDBRANCH   6  15
ENDBRANCH   4   6
ENDBRANCH   3   4
ENDBRANCH   2   3
ENDBRANCH   1   2
BRANCH   1  23
ATOM     23  O   UNL A   1      35.629  30.571  28.928  1.00  0.00    -0.458 OA
BRANCH  23  24
ATOM     24  C   UNL A   1      36.849  31.116  28.792  1.00  0.00     0.338 C 
ATOM     25  O   UNL A   1      37.184  32.293  29.039  1.00  0.00    -0.246 OA
BRANCH  24  26
ATOM     26  C   UNL A   1      37.833  30.028  28.790  1.00  0.00     0.060 A 
ATOM     27  C   UNL A   1      37.854  29.054  29.799  1.00  0.00     0.016 A 
ATOM     28  C   UNL A   1      38.559  29.840  27.601  1.00  0.00     0.016 A 
ATOM     29  C   UNL A   1      38.686  27.958  29.643  1.00  0.00     0.010 A 
ATOM     30  C   UNL A   1      39.164  28.652  27.335  1.00  0.00     0.010 A 
ATOM     31  C   UNL A   1      39.372  27.823  28.425  1.00  0.00    -0.014 A 
BRANCH  31  32
ATOM     32  C   UNL A   1      40.737  27.337  28.388  1.00  0.00     0.031 A 
ATOM     33  C   UNL A   1      40.962  25.936  28.068  1.00  0.00     0.074 A 
ATOM     34  C   UNL A   1      41.660  28.304  28.615  1.00  0.00     0.049 A 
ATOM     35  N   UNL A   1      41.508  25.084  28.861  1.00  0.00    -0.248 NA
ATOM     36  C   UNL A   1      40.490  25.361  26.803  1.00  0.00     0.031 C 
ATOM     37  C   UNL A   1      43.104  28.248  28.646  1.00  0.00     0.029 A 
ATOM     38  N   UNL A   1      41.421  29.624  28.993  1.00  0.00    -0.354 N 
ATOM     39  C   UNL A   1      41.852  24.036  28.038  1.00  0.00     0.074 A 
ATOM     40  C   UNL A   1      40.987  24.122  26.880  1.00  0.00     0.031 C 
ATOM     41  C   UNL A   1      43.541  29.292  29.389  1.00  0.00     0.029 A 
ATOM     42  C   UNL A   1      42.383  30.034  29.890  1.00  0.00     0.049 A 
ATOM     43  H   UNL A   1      40.678  30.180  28.668  1.00  0.00     0.167 HD
ATOM     44  C   UNL A   1      43.090  23.472  28.127  1.00  0.00     0.031 A 
ATOM     45  C   UNL A   1      42.033  30.238  31.198  1.00  0.00     0.031 A 
ATOM     46  C   UNL A   1      43.955  24.260  29.010  1.00  0.00     0.049 A 
ATOM     47  C   UNL A   1      42.562  29.093  32.050  1.00  0.00     0.074 A 
ATOM     48  C   UNL A   1      44.971  25.164  28.739  1.00  0.00     0.029 A 
ATOM     49  N   UNL A   1      43.577  24.497  30.332  1.00  0.00    -0.354 N 
ATOM     50  N   UNL A   1      42.865  27.914  31.568  1.00  0.00    -0.248 NA
ATOM     51  C   UNL A   1      42.859  29.195  33.475  1.00  0.00     0.031 C 
ATOM     52  C   UNL A   1      45.155  25.988  29.881  1.00  0.00     0.029 A 
ATOM     53  C   UNL A   1      44.252  25.590  30.850  1.00  0.00     0.049 A 
ATOM     54  H   UNL A   1      42.919  23.960  30.830  1.00  0.00     0.167 HD
ATOM     55  C   UNL A   1      43.504  27.169  32.522  1.00  0.00     0.074 A 
ATOM     56  C   UNL A   1      43.438  28.003  33.714  1.00  0.00     0.031 C 
ATOM     57  C   UNL A   1      44.088  25.961  32.252  1.00  0.00     0.031 A 
BRANCH  44  58
ATOM     58  C   UNL A   1      43.558  22.520  27.054  1.00  0.00    -0.014 A 
ATOM     59  C   UNL A   1      42.797  21.394  26.696  1.00  0.00     0.010 A 
ATOM     60  C   UNL A   1      44.788  22.700  26.381  1.00  0.00     0.010 A 
ATOM     61  C   UNL A   1      43.268  20.449  25.775  1.00  0.00     0.020 A 
ATOM     62  C   UNL A   1      45.282  21.747  25.474  1.00  0.00     0.020 A 
ATOM     63  C   UNL A   1      44.516  20.622  25.180  1.00  0.00     0.054 A 
BRANCH  63  64
ATOM     64  S   UNL A   1      45.113  19.358  24.027  1.00  0.00     0.124 S 
ATOM     65  O   UNL A   1      44.528  19.786  22.758  1.00  0.00    -0.237 OA
ATOM     66  O   UNL A   1      46.561  19.501  24.131  1.00  0.00    -0.237 OA
ATOM     67  O   UNL A   1      44.568  18.113  24.565  1.00  0.00    -0.744 OA
ENDBRANCH  63  64
ENDBRANCH  44  58
BRANCH  45  68
ATOM     68  C   UNL A   1      40.821  31.102  31.460  1.00  0.00    -0.014 A 
ATOM     69  C   UNL A   1      39.835  30.584  32.341  1.00  0.00     0.010 A 
ATOM     70  C   UNL A   1      40.634  32.424  31.018  1.00  0.00     0.010 A 
ATOM     71  C   UNL A   1      38.766  31.357  32.820  1.00  0.00     0.020 A 
ATOM     72  C   UNL A   1      39.546  33.209  31.487  1.00  0.00     0.020 A 
ATOM     73  C   UNL A   1      38.625  32.672  32.394  1.00  0.00     0.054 A 
BRANCH  73  74
ATOM     74  S   UNL A   1      37.266  33.659  33.111  1.00  0.00     0.124 S 
ATOM     75  O   UNL A   1      36.432  33.922  31.942  1.00  0.00    -0.237 OA
ATOM     76  O   UNL A   1      36.685  32.738  34.084  1.00  0.00    -0.237 OA
ATOM     77  O   UNL A   1      37.944  34.831  33.661  1.00  0.00    -0.744 OA
ENDBRANCH  73  74
ENDBRANCH  45  68
BRANCH  57  78
ATOM     78  C   UNL A   1      44.702  25.011  33.254  1.00  0.00    -0.014 A 
ATOM     79  C   UNL A   1      46.076  24.837  33.448  1.00  0.00     0.010 A 
ATOM     80  C   UNL A   1      43.835  24.351  34.167  1.00  0.00     0.010 A 
ATOM     81  C   UNL A   1      46.559  24.016  34.478  1.00  0.00     0.020 A 
ATOM     82  C   UNL A   1      44.304  23.581  35.226  1.00  0.00     0.020 A 
ATOM     83  C   UNL A   1      45.671  23.400  35.363  1.00  0.00     0.054 A 
BRANCH  83  84
ATOM     84  S   UNL A   1      46.298  22.431  36.752  1.00  0.00     0.124 S 
ATOM     85  O   UNL A   1      45.717  23.133  37.893  1.00  0.00    -0.237 OA
ATOM     86  O   UNL A   1      45.758  21.098  36.494  1.00  0.00    -0.237 OA
ATOM     87  O   UNL A   1      47.749  22.543  36.618  1.00  0.00    -0.744 OA
ENDBRANCH  83  84
ENDBRANCH  57  78
ENDBRANCH  31  32
ENDBRANCH  24  26
ENDBRANCH  23  24
ENDBRANCH   1  23
TORSDOF 18
ENDMDL
MODEL 3
REMARK VINA RESULT:     -11.8      3.804     10.005
REMARK SMILES Cc1cccc(C[C@H](C(=O)OCCOC(=O)c2ccc(-c3c4nc(c(-c5ccc(S(=O)(=O)[O-])cc5)c5ccc([nH]5)c(-c5ccc(S(=O)(=O)[O-])cc5)c5nc(c(-c6ccc(S(=O)(=O)[O-])cc6)c6ccc3[nH]6)C=C5)C=C4)cc2)[C@@H]2CCCC[C@@H]2O)c1
REMARK SMILES IDX 13 1 12 2 11 3 9 4 10 5 8 6 7 7 6 8 1 9 2 10 3 11 84 12 4 13
REMARK SMILES IDX 5 14 77 15 78 16 82 17 79 18 81 19 80 20 83 21 14 23 15 24
REMARK SMILES IDX 16 25 17 26 18 27 76 28 19 29 75 30 20 31 21 32 22 33 69 34
REMARK SMILES IDX 23 35 74 36 68 37 70 38 24 39 73 40 67 41 66 42 25 44 55 45
REMARK SMILES IDX 36 46 54 47 37 48 40 49 53 50 71 51 38 52 39 53 52 55 72 56
REMARK SMILES IDX 41 57 26 58 27 59 35 60 28 61 34 62 29 63 30 64 31 65 32 66
REMARK SMILES IDX 33 67 56 68 57 69 65 70 58 71 64 72 59 73 60 74 61 75 62 76
REMARK SMILES IDX 63 77 42 78 43 79 51 80 44 81 50 82 45 83 46 84 47 85 48 86
REMARK SMILES IDX 49 87
REMARK H PARENT 83 22 70 43 40 54
REMARK Flexibility Score: inf
ROOT
ATOM      1  C   UNL A   1      39.886  22.150  26.848  1.00  0.00     0.275 C 
ENDROOT
BRANCH   1   2
ATOM      2  C   UNL A   1      38.837  21.865  25.738  1.00  0.00     0.274 C 
BRANCH   2   3
ATOM      3  O   UNL A   1      37.440  21.966  26.105  1.00  0.00    -0.462 OA
BRANCH   3   4
ATOM      4  C   UNL A   1      36.779  23.074  25.685  1.00  0.00     0.309 C 
ATOM      5  O   UNL A   1      37.346  24.022  25.154  1.00  0.00    -0.252 OA
BRANCH   4   6
ATOM      6  C   UNL A   1      35.242  22.898  25.751  1.00  0.00     0.109 C 
BRANCH   6   7
ATOM      7  C   UNL A   1      34.659  24.347  25.802  1.00  0.00     0.051 C 
BRANCH   7   8
ATOM      8  C   UNL A   1      33.180  24.697  25.810  1.00  0.00    -0.047 A 
ATOM      9  C   UNL A   1      29.910  23.020  26.933  1.00  0.00     0.044 C 
ATOM     10  C   UNL A   1      30.894  24.049  26.460  1.00  0.00    -0.051 A 
ATOM     11  C   UNL A   1      30.458  25.353  26.226  1.00  0.00     0.003 A 
ATOM     12  C   UNL A   1      32.257  23.740  26.282  1.00  0.00     0.007 A 
ATOM     13  C   UNL A   1      31.338  26.284  25.692  1.00  0.00     0.001 A 
ATOM     14  C   UNL A   1      32.666  25.930  25.434  1.00  0.00     0.004 A 
ENDBRANCH   7   8
ENDBRANCH   6   7
BRANCH   6  15
ATOM     15  C   UNL A   1      34.997  21.922  24.546  1.00  0.00     0.032 C 
ATOM     16  C   UNL A   1      34.857  22.621  23.186  1.00  0.00     0.007 C 
ATOM     17  C   UNL A   1      34.031  20.719  24.629  1.00  0.00     0.118 C 
ATOM     18  C   UNL A   1      33.431  23.028  22.887  1.00  0.00     0.001 C 
ATOM     19  C   UNL A   1      32.634  20.874  24.011  1.00  0.00     0.032 C 
ATOM     20  C   UNL A   1      32.537  21.807  22.806  1.00  0.00     0.003 C 
BRANCH  17  21
ATOM     21  O   UNL A   1      33.970  20.101  25.908  1.00  0.00    -0.393 OA
ATOM     22  H   UNL A   1      33.873  20.782  26.592  1.00  0.00     0.210 HD
ENDBRANCH  17  21
ENDBRANCH   6  15
ENDBRANCH   4   6
ENDBRANCH   3   4
ENDBRANCH   2   3
ENDBRANCH   1   2
BRANCH   1  23
ATOM     23  O   UNL A   1      39.762  23.455  27.430  1.00  0.00    -0.458 OA
BRANCH  23  24
ATOM     24  C   UNL A   1      40.784  24.288  27.173  1.00  0.00     0.338 C 
ATOM     25  O   UNL A   1      41.708  24.119  26.351  1.00  0.00    -0.246 OA
BRANCH  24  26
ATOM     26  C   UNL A   1      40.399  25.630  27.622  1.00  0.00     0.060 A 
ATOM     27  C   UNL A   1      40.596  26.760  26.817  1.00  0.00     0.016 A 
ATOM     28  C   UNL A   1      39.574  25.697  28.759  1.00  0.00     0.016 A 
ATOM     29  C   UNL A   1      40.049  27.965  27.223  1.00  0.00     0.010 A 
ATOM     30  C   UNL A   1      38.828  26.806  29.013  1.00  0.00     0.010 A 
ATOM     31  C   UNL A   1      39.223  27.962  28.359  1.00  0.00    -0.014 A 
BRANCH  31  32
ATOM     32  C   UNL A   1      39.268  29.047  29.318  1.00  0.00     0.031 A 
ATOM     33  C   UNL A   1      38.315  30.137  29.170  1.00  0.00     0.074 A 
ATOM     34  C   UNL A   1      40.194  28.870  30.291  1.00  0.00     0.049 A 
ATOM     35  N   UNL A   1      38.635  31.362  28.947  1.00  0.00    -0.248 NA
ATOM     36  C   UNL A   1      36.870  29.889  29.188  1.00  0.00     0.031 C 
ATOM     37  C   UNL A   1      40.544  29.689  31.429  1.00  0.00     0.029 A 
ATOM     38  N   UNL A   1      41.147  27.855  30.372  1.00  0.00    -0.354 N 
ATOM     39  C   UNL A   1      37.494  32.066  29.255  1.00  0.00     0.074 A 
ATOM     40  C   UNL A   1      36.392  31.137  29.130  1.00  0.00     0.031 C 
ATOM     41  C   UNL A   1      41.810  29.374  31.791  1.00  0.00     0.029 A 
ATOM     42  C   UNL A   1      42.328  28.361  30.869  1.00  0.00     0.049 A 
ATOM     43  H   UNL A   1      40.999  26.918  30.113  1.00  0.00     0.167 HD
ATOM     44  C   UNL A   1      37.568  33.190  30.024  1.00  0.00     0.031 A 
ATOM     45  C   UNL A   1      43.409  28.477  30.036  1.00  0.00     0.031 A 
ATOM     46  C   UNL A   1      38.916  33.348  30.579  1.00  0.00     0.049 A 
ATOM     47  C   UNL A   1      43.615  29.939  29.670  1.00  0.00     0.074 A 
ATOM     48  C   UNL A   1      39.429  33.093  31.842  1.00  0.00     0.029 A 
ATOM     49  N   UNL A   1      40.019  33.426  29.729  1.00  0.00    -0.354 N 
ATOM     50  N   UNL A   1      42.670  30.842  29.739  1.00  0.00    -0.248 NA
ATOM     51  C   UNL A   1      44.895  30.515  29.273  1.00  0.00     0.031 C 
ATOM     52  C   UNL A   1      40.838  32.954  31.734  1.00  0.00     0.029 A 
ATOM     53  C   UNL A   1      41.188  33.121  30.407  1.00  0.00     0.049 A 
ATOM     54  H   UNL A   1      39.974  33.667  28.775  1.00  0.00     0.167 HD
ATOM     55  C   UNL A   1      43.201  32.090  29.551  1.00  0.00     0.074 A 
ATOM     56  C   UNL A   1      44.594  31.827  29.220  1.00  0.00     0.031 C 
ATOM     57  C   UNL A   1      42.480  33.238  29.738  1.00  0.00     0.031 A 
BRANCH  44  58
ATOM     58  C   UNL A   1      36.306  33.798  30.585  1.00  0.00    -0.014 A 
ATOM     59  C   UNL A   1      35.260  34.211  29.743  1.00  0.00     0.010 A 
ATOM     60  C   UNL A   1      36.129  34.004  31.972  1.00  0.00     0.010 A 
ATOM     61  C   UNL A   1      34.128  34.869  30.242  1.00  0.00     0.020 A 
ATOM     62  C   UNL A   1      35.011  34.684  32.482  1.00  0.00     0.020 A 
ATOM     63  C   UNL A   1      34.017  35.117  31.609  1.00  0.00     0.054 A 
BRANCH  63  64
ATOM     64  S   UNL A   1      32.560  36.009  32.215  1.00  0.00     0.124 S 
ATOM     65  O   UNL A   1      33.109  36.803  33.312  1.00  0.00    -0.237 OA
ATOM     66  O   UNL A   1      32.147  36.766  31.037  1.00  0.00    -0.237 OA
ATOM     67  O   UNL A   1      31.647  34.944  32.625  1.00  0.00    -0.744 OA
ENDBRANCH  63  64
ENDBRANCH  44  58
BRANCH  45  68
ATOM     68  C   UNL A   1      43.785  27.258  29.226  1.00  0.00    -0.014 A 
ATOM     69  C   UNL A   1      44.114  27.465  27.860  1.00  0.00     0.010 A 
ATOM     70  C   UNL A   1      43.966  25.954  29.722  1.00  0.00     0.010 A 
ATOM     71  C   UNL A   1      44.666  26.459  27.052  1.00  0.00     0.020 A 
ATOM     72  C   UNL A   1      44.512  24.925  28.907  1.00  0.00     0.020 A 
ATOM     73  C   UNL A   1      44.868  25.189  27.579  1.00  0.00     0.054 A 
BRANCH  73  74
ATOM     74  S   UNL A   1      45.665  23.940  26.512  1.00  0.00     0.124 S 
ATOM     75  O   UNL A   1      45.110  22.695  27.035  1.00  0.00    -0.237 OA
ATOM     76  O   UNL A   1      45.191  24.312  25.182  1.00  0.00    -0.237 OA
ATOM     77  O   UNL A   1      47.092  24.133  26.763  1.00  0.00    -0.744 OA
ENDBRANCH  73  74
ENDBRANCH  45  68
BRANCH  57  78
ATOM     78  C   UNL A   1      42.933  34.647  29.437  1.00  0.00    -0.014 A 
ATOM     79  C   UNL A   1      43.176  35.629  30.402  1.00  0.00     0.010 A 
ATOM     80  C   UNL A   1      43.279  34.966  28.096  1.00  0.00     0.010 A 
ATOM     81  C   UNL A   1      43.703  36.878  30.042  1.00  0.00     0.020 A 
ATOM     82  C   UNL A   1      43.855  36.179  27.735  1.00  0.00     0.020 A 
ATOM     83  C   UNL A   1      44.045  37.142  28.713  1.00  0.00     0.054 A 
BRANCH  83  84
ATOM     84  S   UNL A   1      44.822  38.711  28.269  1.00  0.00     0.124 S 
ATOM     85  O   UNL A   1      44.803  38.650  26.810  1.00  0.00    -0.237 OA
ATOM     86  O   UNL A   1      43.930  39.700  28.868  1.00  0.00    -0.237 OA
ATOM     87  O   UNL A   1      46.144  38.622  28.885  1.00  0.00    -0.744 OA
ENDBRANCH  83  84
ENDBRANCH  57  78
ENDBRANCH  31  32
ENDBRANCH  24  26
ENDBRANCH  23  24
ENDBRANCH   1  23
TORSDOF 18
ENDMDL
