MODEL 1
REMARK VINA RESULT:     -10.9      0.000      0.000
REMARK SMILES CC1(NC(=O)c2csc(/C=C/C(=O)OCCOC(=O)c3ccc(-c4c5nc(c(-c6ccc(S(=O)(=O)[O-])cc6)c6ccc([nH]6)c(-c6ccc(S(=O)(=O)[O-])cc6)c6nc(c(-c7ccc(S(=O)(=O)[O-])cc7)c7ccc4[nH]7)C=C6)C=C5)cc3)c2)CCCCC1
REMARK SMILES IDX 15 1 14 2 12 3 13 4 11 5 10 6 9 7 6 8 7 9 80 10 8 11 4 12
REMARK SMILES IDX 3 13 5 15 2 16 1 17 81 18 85 19 82 20 84 21 83 22 16 23
REMARK SMILES IDX 17 24 18 25 19 26 20 27 21 28 79 29 22 30 78 31 23 32 24 33
REMARK SMILES IDX 25 34 72 35 26 36 77 37 71 38 73 39 27 40 76 41 70 42 69 43
REMARK SMILES IDX 28 45 58 46 39 47 57 48 40 49 43 50 56 51 74 52 41 53 42 54
REMARK SMILES IDX 55 56 75 57 44 58 29 59 30 60 38 61 31 62 37 63 32 64 33 65
REMARK SMILES IDX 34 66 35 67 36 68 59 69 60 70 68 71 61 72 67 73 62 74 63 75
REMARK SMILES IDX 64 76 65 77 66 78 45 79 46 80 54 81 47 82 53 83 48 84 49 85
REMARK SMILES IDX 50 86 51 87 52 88
REMARK H PARENT 3 14 73 44 43 55
REMARK Flexibility Score: inf
ROOT
ATOM      1  C   UNL A   1      39.737  21.495  26.391  1.00  0.00     0.275 C 
ENDROOT
BRANCH   1   2
ATOM      2  O   UNL A   1      38.503  22.190  26.120  1.00  0.00    -0.459 OA
BRANCH   2   3
ATOM      3  C   UNL A   1      37.649  21.546  25.290  1.00  0.00     0.330 C 
ATOM      4  O   UNL A   1      37.754  20.388  24.912  1.00  0.00    -0.247 OA
BRANCH   3   5
ATOM      5  C   UNL A   1      36.496  22.373  24.879  1.00  0.00     0.095 C 
ATOM      6  C   UNL A   1      35.499  21.982  24.072  1.00  0.00     0.026 C 
BRANCH   6   7
ATOM      7  C   UNL A   1      34.417  22.838  23.682  1.00  0.00     0.028 A 
ATOM      8  C   UNL A   1      33.250  24.784  22.980  1.00  0.00     0.051 A 
ATOM      9  C   UNL A   1      32.213  23.901  23.186  1.00  0.00     0.079 A 
ATOM     10  C   UNL A   1      34.515  24.136  23.204  1.00  0.00     0.033 A 
ATOM     11  S   UNL A   1      32.753  22.391  23.774  1.00  0.00    -0.144 S 
BRANCH   8  12
ATOM     12  C   UNL A   1      33.114  26.136  22.481  1.00  0.00     0.252 C 
ATOM     13  N   UNL A   1      32.539  27.129  23.222  1.00  0.00    -0.347 N 
ATOM     14  H   UNL A   1      32.652  28.001  22.779  1.00  0.00     0.164 HD
ATOM     15  O   UNL A   1      33.594  26.455  21.393  1.00  0.00    -0.269 OA
BRANCH  13  16
ATOM     16  C   UNL A   1      31.795  27.284  24.497  1.00  0.00     0.038 C 
ATOM     17  C   UNL A   1      30.359  26.788  24.247  1.00  0.00     0.034 C 
ATOM     18  C   UNL A   1      32.357  26.579  25.749  1.00  0.00     0.028 C 
ATOM     19  C   UNL A   1      31.742  28.808  24.806  1.00  0.00     0.028 C 
ATOM     20  C   UNL A   1      33.706  27.122  26.214  1.00  0.00     0.002 C 
ATOM     21  C   UNL A   1      33.105  29.361  25.233  1.00  0.00     0.002 C 
ATOM     22  C   UNL A   1      33.654  28.625  26.450  1.00  0.00     0.000 C 
ENDBRANCH  13  16
ENDBRANCH   8  12
ENDBRANCH   6   7
ENDBRANCH   3   5
ENDBRANCH   2   3
ENDBRANCH   1   2
BRANCH   1  23
ATOM     23  C   UNL A   1      40.942  22.440  26.426  1.00  0.00     0.275 C 
BRANCH  23  24
ATOM     24  O   UNL A   1      40.555  23.821  26.544  1.00  0.00    -0.458 OA
BRANCH  24  25
ATOM     25  C   UNL A   1      41.567  24.716  26.437  1.00  0.00     0.338 C 
ATOM     26  O   UNL A   1      42.394  24.783  25.538  1.00  0.00    -0.246 OA
BRANCH  25  27
ATOM     27  C   UNL A   1      41.469  25.712  27.517  1.00  0.00     0.060 A 
ATOM     28  C   UNL A   1      40.360  25.654  28.367  1.00  0.00     0.016 A 
ATOM     29  C   UNL A   1      42.428  26.717  27.674  1.00  0.00     0.016 A 
ATOM     30  C   UNL A   1      40.215  26.590  29.390  1.00  0.00     0.010 A 
ATOM     31  C   UNL A   1      42.277  27.660  28.697  1.00  0.00     0.010 A 
ATOM     32  C   UNL A   1      41.172  27.601  29.563  1.00  0.00    -0.014 A 
BRANCH  32  33
ATOM     33  C   UNL A   1      41.019  28.594  30.655  1.00  0.00     0.031 A 
ATOM     34  C   UNL A   1      41.887  28.513  31.879  1.00  0.00     0.074 A 
ATOM     35  C   UNL A   1      40.099  29.571  30.540  1.00  0.00     0.049 A 
ATOM     36  N   UNL A   1      41.844  29.239  32.966  1.00  0.00    -0.248 NA
ATOM     37  C   UNL A   1      42.941  27.487  31.878  1.00  0.00     0.031 C 
ATOM     38  C   UNL A   1      39.226  29.778  29.383  1.00  0.00     0.029 A 
ATOM     39  N   UNL A   1      39.739  30.568  31.413  1.00  0.00    -0.354 N 
ATOM     40  C   UNL A   1      42.866  28.764  33.779  1.00  0.00     0.074 A 
ATOM     41  C   UNL A   1      43.496  27.670  33.069  1.00  0.00     0.031 C 
ATOM     42  C   UNL A   1      38.423  30.829  29.624  1.00  0.00     0.029 A 
ATOM     43  C   UNL A   1      38.694  31.341  30.964  1.00  0.00     0.049 A 
ATOM     44  H   UNL A   1      40.186  30.714  32.278  1.00  0.00     0.167 HD
ATOM     45  C   UNL A   1      43.248  29.205  35.001  1.00  0.00     0.031 A 
ATOM     46  C   UNL A   1      38.008  32.325  31.576  1.00  0.00     0.031 A 
ATOM     47  C   UNL A   1      42.607  30.280  35.713  1.00  0.00     0.049 A 
ATOM     48  C   UNL A   1      38.385  32.724  32.978  1.00  0.00     0.074 A 
ATOM     49  C   UNL A   1      42.919  30.790  36.962  1.00  0.00     0.029 A 
ATOM     50  N   UNL A   1      41.524  31.006  35.244  1.00  0.00    -0.354 N 
ATOM     51  N   UNL A   1      39.358  32.268  33.730  1.00  0.00    -0.248 NA
ATOM     52  C   UNL A   1      37.565  33.765  33.617  1.00  0.00     0.031 C 
ATOM     53  C   UNL A   1      41.995  31.794  37.268  1.00  0.00     0.029 A 
ATOM     54  C   UNL A   1      41.138  31.942  36.189  1.00  0.00     0.049 A 
ATOM     55  H   UNL A   1      41.092  30.875  34.369  1.00  0.00     0.167 HD
ATOM     56  C   UNL A   1      39.273  32.973  34.925  1.00  0.00     0.074 A 
ATOM     57  C   UNL A   1      38.170  33.902  34.789  1.00  0.00     0.031 C 
ATOM     58  C   UNL A   1      40.037  32.858  36.039  1.00  0.00     0.031 A 
BRANCH  45  59
ATOM     59  C   UNL A   1      44.411  28.516  35.661  1.00  0.00    -0.014 A 
ATOM     60  C   UNL A   1      44.217  27.353  36.426  1.00  0.00     0.010 A 
ATOM     61  C   UNL A   1      45.719  28.991  35.455  1.00  0.00     0.010 A 
ATOM     62  C   UNL A   1      45.310  26.689  36.992  1.00  0.00     0.020 A 
ATOM     63  C   UNL A   1      46.816  28.319  36.002  1.00  0.00     0.020 A 
ATOM     64  C   UNL A   1      46.602  27.178  36.777  1.00  0.00     0.054 A 
BRANCH  64  65
ATOM     65  S   UNL A   1      48.004  26.273  37.490  1.00  0.00     0.124 S 
ATOM     66  O   UNL A   1      47.974  25.024  36.730  1.00  0.00    -0.237 OA
ATOM     67  O   UNL A   1      49.134  27.153  37.204  1.00  0.00    -0.237 OA
ATOM     68  O   UNL A   1      47.657  26.150  38.903  1.00  0.00    -0.744 OA
ENDBRANCH  64  65
ENDBRANCH  45  59
BRANCH  46  69
ATOM     69  C   UNL A   1      36.847  32.962  30.895  1.00  0.00    -0.014 A 
ATOM     70  C   UNL A   1      37.039  33.885  29.853  1.00  0.00     0.010 A 
ATOM     71  C   UNL A   1      35.537  32.666  31.315  1.00  0.00     0.010 A 
ATOM     72  C   UNL A   1      35.943  34.522  29.262  1.00  0.00     0.020 A 
ATOM     73  C   UNL A   1      34.439  33.280  30.709  1.00  0.00     0.020 A 
ATOM     74  C   UNL A   1      34.650  34.219  29.698  1.00  0.00     0.054 A 
BRANCH  74  75
ATOM     75  S   UNL A   1      33.238  35.041  28.909  1.00  0.00     0.124 S 
ATOM     76  O   UNL A   1      33.858  36.240  28.355  1.00  0.00    -0.237 OA
ATOM     77  O   UNL A   1      32.795  34.049  27.933  1.00  0.00    -0.237 OA
ATOM     78  O   UNL A   1      32.314  35.267  30.019  1.00  0.00    -0.744 OA
ENDBRANCH  74  75
ENDBRANCH  46  69
BRANCH  58  79
ATOM     79  C   UNL A   1      39.720  33.765  37.196  1.00  0.00    -0.014 A 
ATOM     80  C   UNL A   1      38.866  33.342  38.230  1.00  0.00     0.010 A 
ATOM     81  C   UNL A   1      40.336  35.026  37.286  1.00  0.00     0.010 A 
ATOM     82  C   UNL A   1      38.623  34.170  39.328  1.00  0.00     0.020 A 
ATOM     83  C   UNL A   1      40.112  35.849  38.393  1.00  0.00     0.020 A 
ATOM     84  C   UNL A   1      39.250  35.418  39.405  1.00  0.00     0.054 A 
BRANCH  84  85
ATOM     85  S   UNL A   1      38.971  36.447  40.873  1.00  0.00     0.124 S 
ATOM     86  O   UNL A   1      38.528  37.707  40.283  1.00  0.00    -0.237 OA
ATOM     87  O   UNL A   1      37.949  35.699  41.600  1.00  0.00    -0.237 OA
ATOM     88  O   UNL A   1      40.281  36.488  41.520  1.00  0.00    -0.744 OA
ENDBRANCH  84  85
ENDBRANCH  58  79
ENDBRANCH  32  33
ENDBRANCH  25  27
ENDBRANCH  24  25
ENDBRANCH  23  24
ENDBRANCH   1  23
TORSDOF 17
ENDMDL
MODEL 2
REMARK VINA RESULT:     -10.7      6.387     12.212
REMARK SMILES CC1(NC(=O)c2csc(/C=C/C(=O)OCCOC(=O)c3ccc(-c4c5nc(c(-c6ccc(S(=O)(=O)[O-])cc6)c6ccc([nH]6)c(-c6ccc(S(=O)(=O)[O-])cc6)c6nc(c(-c7ccc(S(=O)(=O)[O-])cc7)c7ccc4[nH]7)C=C6)C=C5)cc3)c2)CCCCC1
REMARK SMILES IDX 15 1 14 2 12 3 13 4 11 5 10 6 9 7 6 8 7 9 80 10 8 11 4 12
REMARK SMILES IDX 3 13 5 15 2 16 1 17 81 18 85 19 82 20 84 21 83 22 16 23
REMARK SMILES IDX 17 24 18 25 19 26 20 27 21 28 79 29 22 30 78 31 23 32 24 33
REMARK SMILES IDX 25 34 72 35 26 36 77 37 71 38 73 39 27 40 76 41 70 42 69 43
REMARK SMILES IDX 28 45 58 46 39 47 57 48 40 49 43 50 56 51 74 52 41 53 42 54
REMARK SMILES IDX 55 56 75 57 44 58 29 59 30 60 38 61 31 62 37 63 32 64 33 65
REMARK SMILES IDX 34 66 35 67 36 68 59 69 60 70 68 71 61 72 67 73 62 74 63 75
REMARK SMILES IDX 64 76 65 77 66 78 45 79 46 80 54 81 47 82 53 83 48 84 49 85
REMARK SMILES IDX 50 86 51 87 52 88
REMARK H PARENT 3 14 73 44 43 55
REMARK Flexibility Score: inf
ROOT
ATOM      1  C   UNL A   1      34.009  29.415  26.974  1.00  0.00     0.275 C 
ENDROOT
BRANCH   1   2
ATOM      2  O   UNL A   1      33.264  30.121  25.963  1.00  0.00    -0.459 OA
BRANCH   2   3
ATOM      3  C   UNL A   1      32.022  29.638  25.717  1.00  0.00     0.330 C 
ATOM      4  O   UNL A   1      31.113  30.245  25.170  1.00  0.00    -0.247 OA
BRANCH   3   5
ATOM      5  C   UNL A   1      31.845  28.236  26.145  1.00  0.00     0.095 C 
ATOM      6  C   UNL A   1      31.597  27.194  25.337  1.00  0.00     0.026 C 
BRANCH   6   7
ATOM      7  C   UNL A   1      31.404  25.855  25.810  1.00  0.00     0.028 A 
ATOM      8  C   UNL A   1      31.902  23.686  26.640  1.00  0.00     0.051 A 
ATOM      9  C   UNL A   1      30.541  23.602  26.449  1.00  0.00     0.079 A 
ATOM     10  C   UNL A   1      32.372  25.011  26.332  1.00  0.00     0.033 A 
ATOM     11  S   UNL A   1      29.889  25.031  25.779  1.00  0.00    -0.144 S 
BRANCH   8  12
ATOM     12  C   UNL A   1      32.737  22.643  27.196  1.00  0.00     0.252 C 
ATOM     13  N   UNL A   1      33.417  21.759  26.407  1.00  0.00    -0.347 N 
ATOM     14  H   UNL A   1      34.030  21.212  26.950  1.00  0.00     0.164 HD
ATOM     15  O   UNL A   1      32.930  22.574  28.411  1.00  0.00    -0.269 OA
BRANCH  13  16
ATOM     16  C   UNL A   1      33.506  21.378  24.976  1.00  0.00     0.038 C 
ATOM     17  C   UNL A   1      32.273  20.514  24.659  1.00  0.00     0.034 C 
ATOM     18  C   UNL A   1      33.603  22.512  23.934  1.00  0.00     0.028 C 
ATOM     19  C   UNL A   1      34.778  20.496  24.822  1.00  0.00     0.028 C 
ATOM     20  C   UNL A   1      34.889  23.330  24.024  1.00  0.00     0.002 C 
ATOM     21  C   UNL A   1      36.069  21.310  24.954  1.00  0.00     0.002 C 
ATOM     22  C   UNL A   1      36.124  22.444  23.937  1.00  0.00     0.000 C 
ENDBRANCH  13  16
ENDBRANCH   8  12
ENDBRANCH   6   7
ENDBRANCH   3   5
ENDBRANCH   2   3
ENDBRANCH   1   2
BRANCH   1  23
ATOM     23  C   UNL A   1      34.751  30.364  27.921  1.00  0.00     0.275 C 
BRANCH  23  24
ATOM     24  O   UNL A   1      35.658  29.670  28.796  1.00  0.00    -0.458 OA
BRANCH  24  25
ATOM     25  C   UNL A   1      36.495  30.462  29.508  1.00  0.00     0.338 C 
ATOM     26  O   UNL A   1      36.177  31.321  30.320  1.00  0.00    -0.246 OA
BRANCH  25  27
ATOM     27  C   UNL A   1      37.891  30.061  29.265  1.00  0.00     0.060 A 
ATOM     28  C   UNL A   1      38.254  29.700  27.963  1.00  0.00     0.016 A 
ATOM     29  C   UNL A   1      38.825  30.000  30.303  1.00  0.00     0.016 A 
ATOM     30  C   UNL A   1      39.560  29.294  27.691  1.00  0.00     0.010 A 
ATOM     31  C   UNL A   1      40.133  29.584  30.028  1.00  0.00     0.010 A 
ATOM     32  C   UNL A   1      40.509  29.232  28.721  1.00  0.00    -0.014 A 
BRANCH  32  33
ATOM     33  C   UNL A   1      41.900  28.803  28.430  1.00  0.00     0.031 A 
ATOM     34  C   UNL A   1      43.015  29.810  28.413  1.00  0.00     0.074 A 
ATOM     35  C   UNL A   1      42.157  27.504  28.182  1.00  0.00     0.049 A 
ATOM     36  N   UNL A   1      44.273  29.638  28.101  1.00  0.00    -0.248 NA
ATOM     37  C   UNL A   1      42.671  31.187  28.802  1.00  0.00     0.031 C 
ATOM     38  C   UNL A   1      41.165  26.427  28.210  1.00  0.00     0.029 A 
ATOM     39  N   UNL A   1      43.328  26.871  27.850  1.00  0.00    -0.354 N 
ATOM     40  C   UNL A   1      44.876  30.880  28.259  1.00  0.00     0.074 A 
ATOM     41  C   UNL A   1      43.839  31.803  28.672  1.00  0.00     0.031 C 
ATOM     42  C   UNL A   1      41.770  25.269  27.895  1.00  0.00     0.029 A 
ATOM     43  C   UNL A   1      43.177  25.528  27.603  1.00  0.00     0.049 A 
ATOM     44  H   UNL A   1      44.195  27.336  27.794  1.00  0.00     0.167 HD
ATOM     45  C   UNL A   1      46.176  31.217  28.084  1.00  0.00     0.031 A 
ATOM     46  C   UNL A   1      44.061  24.615  27.155  1.00  0.00     0.031 A 
ATOM     47  C   UNL A   1      47.201  30.302  27.655  1.00  0.00     0.049 A 
ATOM     48  C   UNL A   1      45.476  25.041  26.865  1.00  0.00     0.074 A 
ATOM     49  C   UNL A   1      48.545  30.556  27.440  1.00  0.00     0.029 A 
ATOM     50  N   UNL A   1      46.997  28.961  27.370  1.00  0.00    -0.354 N 
ATOM     51  N   UNL A   1      46.031  26.218  27.026  1.00  0.00    -0.248 NA
ATOM     52  C   UNL A   1      46.382  24.015  26.326  1.00  0.00     0.031 C 
ATOM     53  C   UNL A   1      49.145  29.379  26.981  1.00  0.00     0.029 A 
ATOM     54  C   UNL A   1      48.184  28.380  26.956  1.00  0.00     0.049 A 
ATOM     55  H   UNL A   1      46.136  28.491  27.450  1.00  0.00     0.167 HD
ATOM     56  C   UNL A   1      47.351  26.072  26.618  1.00  0.00     0.074 A 
ATOM     57  C   UNL A   1      47.520  24.688  26.224  1.00  0.00     0.031 C 
ATOM     58  C   UNL A   1      48.336  27.002  26.567  1.00  0.00     0.031 A 
BRANCH  45  59
ATOM     59  C   UNL A   1      46.569  32.646  28.344  1.00  0.00    -0.014 A 
ATOM     60  C   UNL A   1      46.609  33.583  27.297  1.00  0.00     0.010 A 
ATOM     61  C   UNL A   1      46.830  33.075  29.658  1.00  0.00     0.010 A 
ATOM     62  C   UNL A   1      46.924  34.919  27.556  1.00  0.00     0.020 A 
ATOM     63  C   UNL A   1      47.126  34.416  29.925  1.00  0.00     0.020 A 
ATOM     64  C   UNL A   1      47.181  35.327  28.868  1.00  0.00     0.054 A 
BRANCH  64  65
ATOM     65  S   UNL A   1      47.548  37.077  29.180  1.00  0.00     0.124 S 
ATOM     66  O   UNL A   1      46.229  37.690  29.035  1.00  0.00    -0.237 OA
ATOM     67  O   UNL A   1      48.084  37.056  30.539  1.00  0.00    -0.237 OA
ATOM     68  O   UNL A   1      48.512  37.421  28.139  1.00  0.00    -0.744 OA
ENDBRANCH  64  65
ENDBRANCH  45  59
BRANCH  46  69
ATOM     69  C   UNL A   1      43.622  23.218  26.887  1.00  0.00    -0.014 A 
ATOM     70  C   UNL A   1      42.952  22.470  27.871  1.00  0.00     0.010 A 
ATOM     71  C   UNL A   1      43.903  22.619  25.646  1.00  0.00     0.010 A 
ATOM     72  C   UNL A   1      42.599  21.139  27.628  1.00  0.00     0.020 A 
ATOM     73  C   UNL A   1      43.528  21.298  25.390  1.00  0.00     0.020 A 
ATOM     74  C   UNL A   1      42.894  20.560  26.391  1.00  0.00     0.054 A 
BRANCH  74  75
ATOM     75  S   UNL A   1      42.413  18.838  26.086  1.00  0.00     0.124 S 
ATOM     76  O   UNL A   1      43.327  18.454  25.015  1.00  0.00    -0.237 OA
ATOM     77  O   UNL A   1      42.654  18.205  27.380  1.00  0.00    -0.237 OA
ATOM     78  O   UNL A   1      41.006  18.940  25.704  1.00  0.00    -0.744 OA
ENDBRANCH  74  75
ENDBRANCH  46  69
BRANCH  58  79
ATOM     79  C   UNL A   1      49.688  26.557  26.082  1.00  0.00    -0.014 A 
ATOM     80  C   UNL A   1      50.131  26.877  24.787  1.00  0.00     0.010 A 
ATOM     81  C   UNL A   1      50.553  25.872  26.955  1.00  0.00     0.010 A 
ATOM     82  C   UNL A   1      51.411  26.508  24.368  1.00  0.00     0.020 A 
ATOM     83  C   UNL A   1      51.842  25.519  26.546  1.00  0.00     0.020 A 
ATOM     84  C   UNL A   1      52.260  25.833  25.251  1.00  0.00     0.054 A 
BRANCH  84  85
ATOM     85  S   UNL A   1      53.941  25.424  24.704  1.00  0.00     0.124 S 
ATOM     86  O   UNL A   1      54.051  24.018  25.084  1.00  0.00    -0.237 OA
ATOM     87  O   UNL A   1      53.885  25.685  23.269  1.00  0.00    -0.237 OA
ATOM     88  O   UNL A   1      54.786  26.343  25.466  1.00  0.00    -0.744 OA
ENDBRANCH  84  85
ENDBRANCH  58  79
ENDBRANCH  32  33
ENDBRANCH  25  27
ENDBRANCH  24  25
ENDBRANCH  23  24
ENDBRANCH   1  23
TORSDOF 17
ENDMDL
MODEL 3
REMARK VINA RESULT:     -10.7      5.925     10.717
REMARK SMILES CC1(NC(=O)c2csc(/C=C/C(=O)OCCOC(=O)c3ccc(-c4c5nc(c(-c6ccc(S(=O)(=O)[O-])cc6)c6ccc([nH]6)c(-c6ccc(S(=O)(=O)[O-])cc6)c6nc(c(-c7ccc(S(=O)(=O)[O-])cc7)c7ccc4[nH]7)C=C6)C=C5)cc3)c2)CCCCC1
REMARK SMILES IDX 15 1 14 2 12 3 13 4 11 5 10 6 9 7 6 8 7 9 80 10 8 11 4 12
REMARK SMILES IDX 3 13 5 15 2 16 1 17 81 18 85 19 82 20 84 21 83 22 16 23
REMARK SMILES IDX 17 24 18 25 19 26 20 27 21 28 79 29 22 30 78 31 23 32 24 33
REMARK SMILES IDX 25 34 72 35 26 36 77 37 71 38 73 39 27 40 76 41 70 42 69 43
REMARK SMILES IDX 28 45 58 46 39 47 57 48 40 49 43 50 56 51 74 52 41 53 42 54
REMARK SMILES IDX 55 56 75 57 44 58 29 59 30 60 38 61 31 62 37 63 32 64 33 65
REMARK SMILES IDX 34 66 35 67 36 68 59 69 60 70 68 71 61 72 67 73 62 74 63 75
REMARK SMILES IDX 64 76 65 77 66 78 45 79 46 80 54 81 47 82 53 83 48 84 49 85
REMARK SMILES IDX 50 86 51 87 52 88
REMARK H PARENT 3 14 73 44 43 55
REMARK Flexibility Score: inf
ROOT
ATOM      1  C   UNL A   1      38.557  21.037  25.376  1.00  0.00     0.275 C 
ENDROOT
BRANCH   1   2
ATOM      2  O   UNL A   1      38.770  21.961  26.462  1.00  0.00    -0.459 OA
BRANCH   2   3
ATOM      3  C   UNL A   1      38.458  23.251  26.192  1.00  0.00     0.330 C 
ATOM      4  O   UNL A   1      39.079  24.232  26.575  1.00  0.00    -0.247 OA
BRANCH   3   5
ATOM      5  C   UNL A   1      37.273  23.397  25.324  1.00  0.00     0.095 C 
ATOM      6  C   UNL A   1      36.026  23.672  25.738  1.00  0.00     0.026 C 
BRANCH   6   7
ATOM      7  C   UNL A   1      34.904  23.775  24.852  1.00  0.00     0.028 A 
ATOM      8  C   UNL A   1      33.360  24.699  23.301  1.00  0.00     0.051 A 
ATOM      9  C   UNL A   1      32.800  23.465  23.545  1.00  0.00     0.079 A 
ATOM     10  C   UNL A   1      34.606  24.834  24.008  1.00  0.00     0.033 A 
ATOM     11  S   UNL A   1      33.678  22.570  24.705  1.00  0.00    -0.144 S 
BRANCH   8  12
ATOM     12  C   UNL A   1      32.852  25.681  22.368  1.00  0.00     0.252 C 
ATOM     13  N   UNL A   1      31.818  26.516  22.683  1.00  0.00    -0.347 N 
ATOM     14  H   UNL A   1      31.699  27.198  21.983  1.00  0.00     0.164 HD
ATOM     15  O   UNL A   1      33.399  25.852  21.277  1.00  0.00    -0.269 OA
BRANCH  13  16
ATOM     16  C   UNL A   1      30.823  26.703  23.768  1.00  0.00     0.038 C 
ATOM     17  C   UNL A   1      29.849  25.512  23.698  1.00  0.00     0.034 C 
ATOM     18  C   UNL A   1      31.349  26.835  25.212  1.00  0.00     0.028 C 
ATOM     19  C   UNL A   1      30.035  28.002  23.439  1.00  0.00     0.028 C 
ATOM     20  C   UNL A   1      32.179  28.092  25.458  1.00  0.00     0.002 C 
ATOM     21  C   UNL A   1      30.881  29.263  23.646  1.00  0.00     0.002 C 
ATOM     22  C   UNL A   1      31.417  29.351  25.071  1.00  0.00     0.000 C 
ENDBRANCH  13  16
ENDBRANCH   8  12
ENDBRANCH   6   7
ENDBRANCH   3   5
ENDBRANCH   2   3
ENDBRANCH   1   2
BRANCH   1  23
ATOM     23  C   UNL A   1      39.184  19.665  25.646  1.00  0.00     0.275 C 
BRANCH  23  24
ATOM     24  O   UNL A   1      40.243  19.726  26.618  1.00  0.00    -0.458 OA
BRANCH  24  25
ATOM     25  C   UNL A   1      41.493  19.833  26.105  1.00  0.00     0.338 C 
ATOM     26  O   UNL A   1      42.061  19.023  25.385  1.00  0.00    -0.246 OA
BRANCH  25  27
ATOM     27  C   UNL A   1      42.057  21.153  26.434  1.00  0.00     0.060 A 
ATOM     28  C   UNL A   1      42.302  22.044  25.384  1.00  0.00     0.016 A 
ATOM     29  C   UNL A   1      42.379  21.503  27.748  1.00  0.00     0.016 A 
ATOM     30  C   UNL A   1      42.854  23.297  25.647  1.00  0.00     0.010 A 
ATOM     31  C   UNL A   1      42.941  22.758  28.009  1.00  0.00     0.010 A 
ATOM     32  C   UNL A   1      43.179  23.664  26.961  1.00  0.00    -0.014 A 
BRANCH  32  33
ATOM     33  C   UNL A   1      43.763  24.999  27.240  1.00  0.00     0.031 A 
ATOM     34  C   UNL A   1      42.892  26.118  27.737  1.00  0.00     0.074 A 
ATOM     35  C   UNL A   1      45.081  25.201  27.048  1.00  0.00     0.049 A 
ATOM     36  N   UNL A   1      43.205  27.368  27.957  1.00  0.00    -0.248 NA
ATOM     37  C   UNL A   1      41.487  25.786  28.027  1.00  0.00     0.031 C 
ATOM     38  C   UNL A   1      46.036  24.183  26.608  1.00  0.00     0.029 A 
ATOM     39  N   UNL A   1      45.842  26.335  27.189  1.00  0.00    -0.354 N 
ATOM     40  C   UNL A   1      42.042  27.975  28.417  1.00  0.00     0.074 A 
ATOM     41  C   UNL A   1      41.009  26.960  28.420  1.00  0.00     0.031 C 
ATOM     42  C   UNL A   1      47.254  24.742  26.504  1.00  0.00     0.029 A 
ATOM     43  C   UNL A   1      47.157  26.163  26.827  1.00  0.00     0.049 A 
ATOM     44  H   UNL A   1      45.480  27.190  27.518  1.00  0.00     0.167 HD
ATOM     45  C   UNL A   1      41.856  29.259  28.808  1.00  0.00     0.031 A 
ATOM     46  C   UNL A   1      48.162  27.055  26.730  1.00  0.00     0.031 A 
ATOM     47  C   UNL A   1      42.880  30.270  28.785  1.00  0.00     0.049 A 
ATOM     48  C   UNL A   1      47.900  28.498  27.069  1.00  0.00     0.074 A 
ATOM     49  C   UNL A   1      42.782  31.601  29.153  1.00  0.00     0.029 A 
ATOM     50  N   UNL A   1      44.186  30.067  28.368  1.00  0.00    -0.354 N 
ATOM     51  N   UNL A   1      46.796  29.054  27.507  1.00  0.00    -0.248 NA
ATOM     52  C   UNL A   1      49.018  29.437  26.891  1.00  0.00     0.031 C 
ATOM     53  C   UNL A   1      44.016  32.214  28.915  1.00  0.00     0.029 A 
ATOM     54  C   UNL A   1      44.897  31.253  28.444  1.00  0.00     0.049 A 
ATOM     55  H   UNL A   1      44.554  29.207  28.062  1.00  0.00     0.167 HD
ATOM     56  C   UNL A   1      47.090  30.404  27.667  1.00  0.00     0.074 A 
ATOM     57  C   UNL A   1      48.481  30.578  27.301  1.00  0.00     0.031 C 
ATOM     58  C   UNL A   1      46.280  31.410  28.075  1.00  0.00     0.031 A 
BRANCH  45  59
ATOM     59  C   UNL A   1      40.485  29.653  29.285  1.00  0.00    -0.014 A 
ATOM     60  C   UNL A   1      40.244  29.908  30.646  1.00  0.00     0.010 A 
ATOM     61  C   UNL A   1      39.446  29.842  28.356  1.00  0.00     0.010 A 
ATOM     62  C   UNL A   1      38.980  30.325  31.072  1.00  0.00     0.020 A 
ATOM     63  C   UNL A   1      38.185  30.278  28.776  1.00  0.00     0.020 A 
ATOM     64  C   UNL A   1      37.959  30.506  30.135  1.00  0.00     0.054 A 
BRANCH  64  65
ATOM     65  S   UNL A   1      36.339  31.087  30.713  1.00  0.00     0.124 S 
ATOM     66  O   UNL A   1      35.535  30.996  29.496  1.00  0.00    -0.237 OA
ATOM     67  O   UNL A   1      36.006  30.122  31.758  1.00  0.00    -0.237 OA
ATOM     68  O   UNL A   1      36.603  32.443  31.185  1.00  0.00    -0.744 OA
ENDBRANCH  64  65
ENDBRANCH  45  59
BRANCH  46  69
ATOM     69  C   UNL A   1      49.496  26.626  26.229  1.00  0.00    -0.014 A 
ATOM     70  C   UNL A   1      50.470  26.123  27.109  1.00  0.00     0.010 A 
ATOM     71  C   UNL A   1      49.808  26.751  24.863  1.00  0.00     0.010 A 
ATOM     72  C   UNL A   1      51.740  25.780  26.635  1.00  0.00     0.020 A 
ATOM     73  C   UNL A   1      51.067  26.384  24.382  1.00  0.00     0.020 A 
ATOM     74  C   UNL A   1      52.032  25.918  25.275  1.00  0.00     0.054 A 
BRANCH  74  75
ATOM     75  S   UNL A   1      53.679  25.453  24.675  1.00  0.00     0.124 S 
ATOM     76  O   UNL A   1      54.551  26.149  25.615  1.00  0.00    -0.237 OA
ATOM     77  O   UNL A   1      53.661  23.996  24.787  1.00  0.00    -0.237 OA
ATOM     78  O   UNL A   1      53.698  25.963  23.305  1.00  0.00    -0.744 OA
ENDBRANCH  74  75
ENDBRANCH  46  69
BRANCH  58  79
ATOM     79  C   UNL A   1      46.874  32.789  28.162  1.00  0.00    -0.014 A 
ATOM     80  C   UNL A   1      46.792  33.679  27.077  1.00  0.00     0.010 A 
ATOM     81  C   UNL A   1      47.459  33.224  29.365  1.00  0.00     0.010 A 
ATOM     82  C   UNL A   1      47.297  34.977  27.189  1.00  0.00     0.020 A 
ATOM     83  C   UNL A   1      47.947  34.528  29.487  1.00  0.00     0.020 A 
ATOM     84  C   UNL A   1      47.869  35.395  28.394  1.00  0.00     0.054 A 
BRANCH  84  85
ATOM     85  S   UNL A   1      48.457  37.105  28.536  1.00  0.00     0.124 S 
ATOM     86  O   UNL A   1      47.235  37.818  28.898  1.00  0.00    -0.237 OA
ATOM     87  O   UNL A   1      49.466  37.012  29.587  1.00  0.00    -0.237 OA
ATOM     88  O   UNL A   1      48.981  37.402  27.203  1.00  0.00    -0.744 OA
ENDBRANCH  84  85
ENDBRANCH  58  79
ENDBRANCH  32  33
ENDBRANCH  25  27
ENDBRANCH  24  25
ENDBRANCH  23  24
ENDBRANCH   1  23
TORSDOF 17
ENDMDL
