MODEL 1
REMARK VINA RESULT:     -11.6      0.000      0.000
REMARK SMILES Cc1ccc(NC(=O)[C@H]2CC=CC[C@H]2C(=O)OCCOC(=O)c2ccc(-c3c4nc(c(-c5ccc(S(=O)(=O)[O-])cc5)c5ccc([nH]5)c(-c5ccc(S(=O)(=O)[O-])cc5)c5nc(c(-c6ccc(S(=O)(=O)[O-])cc6)c6ccc3[nH]6)C=C5)C=C4)cc2)cc1F
REMARK SMILES IDX 19 1 18 2 17 3 15 4 16 5 14 6 9 7 10 8 11 9 13 10 12 11 7 12
REMARK SMILES IDX 6 13 8 15 5 16 1 17 2 18 3 19 84 20 4 21 83 22 85 23 20 24
REMARK SMILES IDX 21 25 22 26 23 27 24 28 82 29 25 30 81 31 26 32 27 33 28 34
REMARK SMILES IDX 75 35 29 36 80 37 74 38 76 39 30 40 79 41 73 42 72 43 31 45
REMARK SMILES IDX 61 46 42 47 60 48 43 49 46 50 59 51 77 52 44 53 45 54 58 56
REMARK SMILES IDX 78 57 47 58 32 59 33 60 41 61 34 62 40 63 35 64 36 65 37 66
REMARK SMILES IDX 38 67 39 68 62 69 63 70 71 71 64 72 70 73 65 74 66 75 67 76
REMARK SMILES IDX 68 77 69 78 48 79 49 80 57 81 50 82 56 83 51 84 52 85 53 86
REMARK SMILES IDX 54 87 55 88
REMARK H PARENT 6 14 76 44 46 55
REMARK Flexibility Score: inf
ROOT
ATOM      1  C   UNL A   1      38.149  23.687  26.182  1.00  0.00     0.275 C 
ENDROOT
BRANCH   1   2
ATOM      2  C   UNL A   1      37.130  23.283  25.096  1.00  0.00     0.274 C 
BRANCH   2   3
ATOM      3  O   UNL A   1      35.749  23.414  25.507  1.00  0.00    -0.462 OA
BRANCH   3   4
ATOM      4  C   UNL A   1      34.839  23.432  24.502  1.00  0.00     0.310 C 
ATOM      5  O   UNL A   1      35.018  22.890  23.413  1.00  0.00    -0.252 OA
BRANCH   4   6
ATOM      6  C   UNL A   1      33.566  24.210  24.787  1.00  0.00     0.116 C 
ATOM      7  C   UNL A   1      32.295  23.448  25.224  1.00  0.00     0.097 C 
ATOM      8  C   UNL A   1      31.088  24.408  25.331  1.00  0.00     0.041 C 
ATOM      9  C   UNL A   1      31.420  25.836  25.679  1.00  0.00    -0.030 C 
ATOM     10  C   UNL A   1      33.884  25.440  25.634  1.00  0.00     0.043 C 
ATOM     11  C   UNL A   1      32.669  26.296  25.837  1.00  0.00    -0.030 C 
BRANCH   7  12
ATOM     12  C   UNL A   1      32.425  22.676  26.534  1.00  0.00     0.228 C 
ATOM     13  N   UNL A   1      32.826  21.366  26.595  1.00  0.00    -0.326 N 
ATOM     14  H   UNL A   1      32.827  21.000  27.509  1.00  0.00     0.169 HD
ATOM     15  O   UNL A   1      32.184  23.228  27.616  1.00  0.00    -0.274 OA
BRANCH  13  16
ATOM     16  C   UNL A   1      33.237  20.438  25.619  1.00  0.00     0.044 A 
ATOM     17  C   UNL A   1      34.006  16.955  23.185  1.00  0.00     0.047 C 
ATOM     18  C   UNL A   1      33.758  18.234  23.925  1.00  0.00    -0.015 A 
ATOM     19  C   UNL A   1      32.470  18.769  24.010  1.00  0.00     0.008 A 
ATOM     20  C   UNL A   1      34.783  18.869  24.629  1.00  0.00     0.128 A 
ATOM     21  C   UNL A   1      32.218  19.878  24.830  1.00  0.00     0.026 A 
ATOM     22  C   UNL A   1      34.541  19.977  25.448  1.00  0.00     0.065 A 
ATOM     23  F   UNL A   1      36.031  18.378  24.569  1.00  0.00    -0.207 F 
ENDBRANCH  13  16
ENDBRANCH   7  12
ENDBRANCH   4   6
ENDBRANCH   3   4
ENDBRANCH   2   3
ENDBRANCH   1   2
BRANCH   1  24
ATOM     24  O   UNL A   1      38.975  24.827  25.855  1.00  0.00    -0.458 OA
BRANCH  24  25
ATOM     25  C   UNL A   1      40.056  24.919  26.656  1.00  0.00     0.338 C 
ATOM     26  O   UNL A   1      41.061  24.245  26.540  1.00  0.00    -0.246 OA
BRANCH  25  27
ATOM     27  C   UNL A   1      40.009  25.927  27.712  1.00  0.00     0.060 A 
ATOM     28  C   UNL A   1      41.048  26.868  27.735  1.00  0.00     0.016 A 
ATOM     29  C   UNL A   1      39.121  25.814  28.777  1.00  0.00     0.016 A 
ATOM     30  C   UNL A   1      41.195  27.717  28.824  1.00  0.00     0.010 A 
ATOM     31  C   UNL A   1      39.267  26.668  29.872  1.00  0.00     0.010 A 
ATOM     32  C   UNL A   1      40.298  27.625  29.896  1.00  0.00    -0.014 A 
BRANCH  32  33
ATOM     33  C   UNL A   1      40.329  28.656  30.950  1.00  0.00     0.031 A 
ATOM     34  C   UNL A   1      41.254  28.568  32.122  1.00  0.00     0.074 A 
ATOM     35  C   UNL A   1      39.476  29.687  30.811  1.00  0.00     0.049 A 
ATOM     36  N   UNL A   1      41.352  29.380  33.143  1.00  0.00    -0.248 NA
ATOM     37  C   UNL A   1      42.189  27.434  32.156  1.00  0.00     0.031 C 
ATOM     38  C   UNL A   1      38.563  29.871  29.678  1.00  0.00     0.029 A 
ATOM     39  N   UNL A   1      39.221  30.755  31.626  1.00  0.00    -0.354 N 
ATOM     40  C   UNL A   1      42.361  28.863  33.945  1.00  0.00     0.074 A 
ATOM     41  C   UNL A   1      42.834  27.656  33.297  1.00  0.00     0.031 C 
ATOM     42  C   UNL A   1      37.825  30.969  29.887  1.00  0.00     0.029 A 
ATOM     43  C   UNL A   1      38.194  31.546  31.173  1.00  0.00     0.049 A 
ATOM     44  H   UNL A   1      39.721  30.938  32.453  1.00  0.00     0.167 HD
ATOM     45  C   UNL A   1      42.840  29.359  35.112  1.00  0.00     0.031 A 
ATOM     46  C   UNL A   1      37.593  32.603  31.745  1.00  0.00     0.031 A 
ATOM     47  C   UNL A   1      42.335  30.549  35.751  1.00  0.00     0.049 A 
ATOM     48  C   UNL A   1      38.092  33.089  33.069  1.00  0.00     0.074 A 
ATOM     49  C   UNL A   1      42.767  31.152  36.921  1.00  0.00     0.029 A 
ATOM     50  N   UNL A   1      41.274  31.312  35.281  1.00  0.00    -0.354 N 
ATOM     51  N   UNL A   1      39.064  32.602  33.804  1.00  0.00    -0.248 NA
ATOM     52  C   UNL A   1      37.427  34.266  33.635  1.00  0.00     0.031 C 
ATOM     53  C   UNL A   1      41.941  32.253  37.179  1.00  0.00     0.029 A 
ATOM     54  C   UNL A   1      41.018  32.361  36.149  1.00  0.00     0.049 A 
ATOM     55  H   UNL A   1      40.776  31.134  34.450  1.00  0.00     0.167 HD
ATOM     56  C   UNL A   1      39.138  33.424  34.919  1.00  0.00     0.074 A 
ATOM     57  C   UNL A   1      38.118  34.442  34.755  1.00  0.00     0.031 C 
ATOM     58  C   UNL A   1      39.980  33.346  35.978  1.00  0.00     0.031 A 
BRANCH  45  59
ATOM     59  C   UNL A   1      43.947  28.601  35.791  1.00  0.00    -0.014 A 
ATOM     60  C   UNL A   1      43.667  27.562  36.697  1.00  0.00     0.010 A 
ATOM     61  C   UNL A   1      45.288  28.891  35.478  1.00  0.00     0.010 A 
ATOM     62  C   UNL A   1      44.708  26.847  37.300  1.00  0.00     0.020 A 
ATOM     63  C   UNL A   1      46.331  28.168  36.066  1.00  0.00     0.020 A 
ATOM     64  C   UNL A   1      46.035  27.160  36.985  1.00  0.00     0.054 A 
BRANCH  64  65
ATOM     65  S   UNL A   1      47.370  26.205  37.760  1.00  0.00     0.124 S 
ATOM     66  O   UNL A   1      48.550  26.730  37.078  1.00  0.00    -0.237 OA
ATOM     67  O   UNL A   1      47.250  26.564  39.171  1.00  0.00    -0.237 OA
ATOM     68  O   UNL A   1      47.033  24.819  37.443  1.00  0.00    -0.744 OA
ENDBRANCH  64  65
ENDBRANCH  45  59
BRANCH  46  69
ATOM     69  C   UNL A   1      36.444  33.234  31.051  1.00  0.00    -0.014 A 
ATOM     70  C   UNL A   1      35.230  33.444  31.723  1.00  0.00     0.010 A 
ATOM     71  C   UNL A   1      36.605  33.729  29.742  1.00  0.00     0.010 A 
ATOM     72  C   UNL A   1      34.198  34.153  31.103  1.00  0.00     0.020 A 
ATOM     73  C   UNL A   1      35.582  34.453  29.128  1.00  0.00     0.020 A 
ATOM     74  C   UNL A   1      34.382  34.659  29.812  1.00  0.00     0.054 A 
BRANCH  74  75
ATOM     75  S   UNL A   1      33.076  35.673  29.067  1.00  0.00     0.124 S 
ATOM     76  O   UNL A   1      33.848  36.701  28.376  1.00  0.00    -0.237 OA
ATOM     77  O   UNL A   1      32.380  34.719  28.206  1.00  0.00    -0.237 OA
ATOM     78  O   UNL A   1      32.306  36.132  30.219  1.00  0.00    -0.744 OA
ENDBRANCH  74  75
ENDBRANCH  46  69
BRANCH  58  79
ATOM     79  C   UNL A   1      39.825  34.403  37.034  1.00  0.00    -0.014 A 
ATOM     80  C   UNL A   1      39.096  34.145  38.207  1.00  0.00     0.010 A 
ATOM     81  C   UNL A   1      40.418  35.665  36.850  1.00  0.00     0.010 A 
ATOM     82  C   UNL A   1      38.931  35.146  39.166  1.00  0.00     0.020 A 
ATOM     83  C   UNL A   1      40.270  36.662  37.815  1.00  0.00     0.020 A 
ATOM     84  C   UNL A   1      39.510  36.402  38.959  1.00  0.00     0.054 A 
BRANCH  84  85
ATOM     85  S   UNL A   1      39.299  37.688  40.221  1.00  0.00     0.124 S 
ATOM     86  O   UNL A   1      40.646  38.242  40.316  1.00  0.00    -0.237 OA
ATOM     87  O   UNL A   1      38.297  38.569  39.624  1.00  0.00    -0.237 OA
ATOM     88  O   UNL A   1      38.844  36.945  41.395  1.00  0.00    -0.744 OA
ENDBRANCH  84  85
ENDBRANCH  58  79
ENDBRANCH  32  33
ENDBRANCH  25  27
ENDBRANCH  24  25
ENDBRANCH   1  24
TORSDOF 16
ENDMDL
MODEL 2
REMARK VINA RESULT:     -11.6      4.827     10.540
REMARK SMILES Cc1ccc(NC(=O)[C@H]2CC=CC[C@H]2C(=O)OCCOC(=O)c2ccc(-c3c4nc(c(-c5ccc(S(=O)(=O)[O-])cc5)c5ccc([nH]5)c(-c5ccc(S(=O)(=O)[O-])cc5)c5nc(c(-c6ccc(S(=O)(=O)[O-])cc6)c6ccc3[nH]6)C=C5)C=C4)cc2)cc1F
REMARK SMILES IDX 19 1 18 2 17 3 15 4 16 5 14 6 9 7 10 8 11 9 13 10 12 11 7 12
REMARK SMILES IDX 6 13 8 15 5 16 1 17 2 18 3 19 84 20 4 21 83 22 85 23 20 24
REMARK SMILES IDX 21 25 22 26 23 27 24 28 82 29 25 30 81 31 26 32 27 33 28 34
REMARK SMILES IDX 75 35 29 36 80 37 74 38 76 39 30 40 79 41 73 42 72 43 31 45
REMARK SMILES IDX 61 46 42 47 60 48 43 49 46 50 59 51 77 52 44 53 45 54 58 56
REMARK SMILES IDX 78 57 47 58 32 59 33 60 41 61 34 62 40 63 35 64 36 65 37 66
REMARK SMILES IDX 38 67 39 68 62 69 63 70 71 71 64 72 70 73 65 74 66 75 67 76
REMARK SMILES IDX 68 77 69 78 48 79 49 80 57 81 50 82 56 83 51 84 52 85 53 86
REMARK SMILES IDX 54 87 55 88
REMARK H PARENT 6 14 76 44 46 55
REMARK Flexibility Score: inf
ROOT
ATOM      1  C   UNL A   1      32.470  29.714  26.965  1.00  0.00     0.275 C 
ENDROOT
BRANCH   1   2
ATOM      2  C   UNL A   1      31.767  28.896  25.862  1.00  0.00     0.274 C 
BRANCH   2   3
ATOM      3  O   UNL A   1      31.560  27.505  26.202  1.00  0.00    -0.462 OA
BRANCH   3   4
ATOM      4  C   UNL A   1      32.470  26.637  25.696  1.00  0.00     0.310 C 
ATOM      5  O   UNL A   1      33.397  26.975  24.964  1.00  0.00    -0.252 OA
BRANCH   4   6
ATOM      6  C   UNL A   1      32.255  25.179  26.062  1.00  0.00     0.116 C 
ATOM      7  C   UNL A   1      31.171  24.365  25.320  1.00  0.00     0.097 C 
ATOM      8  C   UNL A   1      31.027  22.953  25.935  1.00  0.00     0.041 C 
ATOM      9  C   UNL A   1      32.273  22.388  26.566  1.00  0.00    -0.030 C 
ATOM     10  C   UNL A   1      33.600  24.467  26.186  1.00  0.00     0.043 C 
ATOM     11  C   UNL A   1      33.432  23.054  26.661  1.00  0.00    -0.030 C 
BRANCH   7  12
ATOM     12  C   UNL A   1      31.386  24.225  23.816  1.00  0.00     0.228 C 
ATOM     13  N   UNL A   1      30.960  25.160  22.908  1.00  0.00    -0.326 N 
ATOM     14  H   UNL A   1      31.143  24.911  21.974  1.00  0.00     0.169 HD
ATOM     15  O   UNL A   1      31.985  23.245  23.355  1.00  0.00    -0.274 OA
BRANCH  13  16
ATOM     16  C   UNL A   1      30.314  26.406  23.039  1.00  0.00     0.044 A 
ATOM     17  C   UNL A   1      27.686  29.825  22.823  1.00  0.00     0.047 C 
ATOM     18  C   UNL A   1      28.637  28.682  23.011  1.00  0.00    -0.015 A 
ATOM     19  C   UNL A   1      28.224  27.510  23.649  1.00  0.00     0.008 A 
ATOM     20  C   UNL A   1      29.924  28.719  22.469  1.00  0.00     0.128 A 
ATOM     21  C   UNL A   1      29.067  26.391  23.685  1.00  0.00     0.026 A 
ATOM     22  C   UNL A   1      30.772  27.607  22.501  1.00  0.00     0.065 A 
ATOM     23  F   UNL A   1      30.349  29.830  21.847  1.00  0.00    -0.207 F 
ENDBRANCH  13  16
ENDBRANCH   7  12
ENDBRANCH   4   6
ENDBRANCH   3   4
ENDBRANCH   2   3
ENDBRANCH   1   2
BRANCH   1  24
ATOM     24  O   UNL A   1      33.900  29.519  27.056  1.00  0.00    -0.458 OA
BRANCH  24  25
ATOM     25  C   UNL A   1      34.495  30.465  27.811  1.00  0.00     0.338 C 
ATOM     26  O   UNL A   1      33.970  31.506  28.155  1.00  0.00    -0.246 OA
BRANCH  25  27
ATOM     27  C   UNL A   1      35.854  30.185  28.265  1.00  0.00     0.060 A 
ATOM     28  C   UNL A   1      36.865  30.211  27.294  1.00  0.00     0.016 A 
ATOM     29  C   UNL A   1      36.099  29.682  29.541  1.00  0.00     0.016 A 
ATOM     30  C   UNL A   1      38.138  29.746  27.599  1.00  0.00     0.010 A 
ATOM     31  C   UNL A   1      37.378  29.216  29.848  1.00  0.00     0.010 A 
ATOM     32  C   UNL A   1      38.401  29.253  28.883  1.00  0.00    -0.014 A 
BRANCH  32  33
ATOM     33  C   UNL A   1      39.794  28.953  29.266  1.00  0.00     0.031 A 
ATOM     34  C   UNL A   1      40.674  29.968  29.924  1.00  0.00     0.074 A 
ATOM     35  C   UNL A   1      40.244  27.717  28.988  1.00  0.00     0.049 A 
ATOM     36  N   UNL A   1      41.930  29.853  30.272  1.00  0.00    -0.248 NA
ATOM     37  C   UNL A   1      40.075  31.274  30.239  1.00  0.00     0.031 C 
ATOM     38  C   UNL A   1      39.441  26.651  28.379  1.00  0.00     0.029 A 
ATOM     39  N   UNL A   1      41.478  27.153  29.158  1.00  0.00    -0.354 N 
ATOM     40  C   UNL A   1      42.278  31.066  30.850  1.00  0.00     0.074 A 
ATOM     41  C   UNL A   1      41.102  31.911  30.793  1.00  0.00     0.031 C 
ATOM     42  C   UNL A   1      40.214  25.572  28.198  1.00  0.00     0.029 A 
ATOM     43  C   UNL A   1      41.564  25.880  28.651  1.00  0.00     0.049 A 
ATOM     44  H   UNL A   1      42.228  27.613  29.599  1.00  0.00     0.167 HD
ATOM     45  C   UNL A   1      43.472  31.430  31.377  1.00  0.00     0.031 A 
ATOM     46  C   UNL A   1      42.622  25.059  28.535  1.00  0.00     0.031 A 
ATOM     47  C   UNL A   1      44.637  30.580  31.399  1.00  0.00     0.049 A 
ATOM     48  C   UNL A   1      43.948  25.512  29.060  1.00  0.00     0.074 A 
ATOM     49  C   UNL A   1      45.889  30.843  31.933  1.00  0.00     0.029 A 
ATOM     50  N   UNL A   1      44.700  29.306  30.852  1.00  0.00    -0.354 N 
ATOM     51  N   UNL A   1      44.255  26.655  29.626  1.00  0.00    -0.248 NA
ATOM     52  C   UNL A   1      45.063  24.567  28.942  1.00  0.00     0.031 C 
ATOM     53  C   UNL A   1      46.718  29.745  31.670  1.00  0.00     0.029 A 
ATOM     54  C   UNL A   1      45.972  28.781  31.007  1.00  0.00     0.049 A 
ATOM     55  H   UNL A   1      43.948  28.843  30.416  1.00  0.00     0.167 HD
ATOM     56  C   UNL A   1      45.601  26.564  29.947  1.00  0.00     0.074 A 
ATOM     57  C   UNL A   1      46.045  25.251  29.518  1.00  0.00     0.031 C 
ATOM     58  C   UNL A   1      46.396  27.482  30.548  1.00  0.00     0.031 A 
BRANCH  45  59
ATOM     59  C   UNL A   1      43.591  32.817  31.947  1.00  0.00    -0.014 A 
ATOM     60  C   UNL A   1      43.865  33.922  31.120  1.00  0.00     0.010 A 
ATOM     61  C   UNL A   1      43.369  33.030  33.320  1.00  0.00     0.010 A 
ATOM     62  C   UNL A   1      43.945  35.209  31.661  1.00  0.00     0.020 A 
ATOM     63  C   UNL A   1      43.432  34.318  33.862  1.00  0.00     0.020 A 
ATOM     64  C   UNL A   1      43.734  35.398  33.031  1.00  0.00     0.054 A 
BRANCH  64  65
ATOM     65  S   UNL A   1      43.818  37.081  33.709  1.00  0.00     0.124 S 
ATOM     66  O   UNL A   1      42.505  37.220  34.332  1.00  0.00    -0.237 OA
ATOM     67  O   UNL A   1      44.946  37.002  34.635  1.00  0.00    -0.237 OA
ATOM     68  O   UNL A   1      44.042  37.917  32.532  1.00  0.00    -0.744 OA
ENDBRANCH  64  65
ENDBRANCH  45  59
BRANCH  46  69
ATOM     69  C   UNL A   1      42.438  23.745  27.874  1.00  0.00    -0.014 A 
ATOM     70  C   UNL A   1      42.701  23.591  26.503  1.00  0.00     0.010 A 
ATOM     71  C   UNL A   1      42.105  22.614  28.645  1.00  0.00     0.010 A 
ATOM     72  C   UNL A   1      42.648  22.324  25.916  1.00  0.00     0.020 A 
ATOM     73  C   UNL A   1      42.069  21.345  28.064  1.00  0.00     0.020 A 
ATOM     74  C   UNL A   1      42.339  21.209  26.701  1.00  0.00     0.054 A 
BRANCH  74  75
ATOM     75  S   UNL A   1      42.386  19.559  25.947  1.00  0.00     0.124 S 
ATOM     76  O   UNL A   1      42.737  18.717  27.086  1.00  0.00    -0.237 OA
ATOM     77  O   UNL A   1      41.026  19.400  25.438  1.00  0.00    -0.237 OA
ATOM     78  O   UNL A   1      43.414  19.687  24.918  1.00  0.00    -0.744 OA
ENDBRANCH  74  75
ENDBRANCH  46  69
BRANCH  58  79
ATOM     79  C   UNL A   1      47.825  27.081  30.778  1.00  0.00    -0.014 A 
ATOM     80  C   UNL A   1      48.190  26.343  31.917  1.00  0.00     0.010 A 
ATOM     81  C   UNL A   1      48.811  27.444  29.843  1.00  0.00     0.010 A 
ATOM     82  C   UNL A   1      49.527  26.005  32.137  1.00  0.00     0.020 A 
ATOM     83  C   UNL A   1      50.146  27.092  30.051  1.00  0.00     0.020 A 
ATOM     84  C   UNL A   1      50.497  26.390  31.207  1.00  0.00     0.054 A 
BRANCH  84  85
ATOM     85  S   UNL A   1      52.228  25.930  31.500  1.00  0.00     0.124 S 
ATOM     86  O   UNL A   1      52.793  26.017  30.157  1.00  0.00    -0.237 OA
ATOM     87  O   UNL A   1      52.682  26.953  32.441  1.00  0.00    -0.237 OA
ATOM     88  O   UNL A   1      52.136  24.581  32.055  1.00  0.00    -0.744 OA
ENDBRANCH  84  85
ENDBRANCH  58  79
ENDBRANCH  32  33
ENDBRANCH  25  27
ENDBRANCH  24  25
ENDBRANCH   1  24
TORSDOF 16
ENDMDL
MODEL 3
REMARK VINA RESULT:     -11.5      3.788      5.209
REMARK SMILES Cc1ccc(NC(=O)[C@H]2CC=CC[C@H]2C(=O)OCCOC(=O)c2ccc(-c3c4nc(c(-c5ccc(S(=O)(=O)[O-])cc5)c5ccc([nH]5)c(-c5ccc(S(=O)(=O)[O-])cc5)c5nc(c(-c6ccc(S(=O)(=O)[O-])cc6)c6ccc3[nH]6)C=C5)C=C4)cc2)cc1F
REMARK SMILES IDX 19 1 18 2 17 3 15 4 16 5 14 6 9 7 10 8 11 9 13 10 12 11 7 12
REMARK SMILES IDX 6 13 8 15 5 16 1 17 2 18 3 19 84 20 4 21 83 22 85 23 20 24
REMARK SMILES IDX 21 25 22 26 23 27 24 28 82 29 25 30 81 31 26 32 27 33 28 34
REMARK SMILES IDX 75 35 29 36 80 37 74 38 76 39 30 40 79 41 73 42 72 43 31 45
REMARK SMILES IDX 61 46 42 47 60 48 43 49 46 50 59 51 77 52 44 53 45 54 58 56
REMARK SMILES IDX 78 57 47 58 32 59 33 60 41 61 34 62 40 63 35 64 36 65 37 66
REMARK SMILES IDX 38 67 39 68 62 69 63 70 71 71 64 72 70 73 65 74 66 75 67 76
REMARK SMILES IDX 68 77 69 78 48 79 49 80 57 81 50 82 56 83 51 84 52 85 53 86
REMARK SMILES IDX 54 87 55 88
REMARK H PARENT 6 14 76 44 46 55
REMARK Flexibility Score: inf
ROOT
ATOM      1  C   UNL A   1      37.291  22.070  24.865  1.00  0.00     0.275 C 
ENDROOT
BRANCH   1   2
ATOM      2  C   UNL A   1      36.874  22.771  23.556  1.00  0.00     0.274 C 
BRANCH   2   3
ATOM      3  O   UNL A   1      35.769  23.693  23.707  1.00  0.00    -0.462 OA
BRANCH   3   4
ATOM      4  C   UNL A   1      34.581  23.269  23.210  1.00  0.00     0.310 C 
ATOM      5  O   UNL A   1      34.244  23.415  22.037  1.00  0.00    -0.252 OA
BRANCH   4   6
ATOM      6  C   UNL A   1      33.647  22.619  24.216  1.00  0.00     0.116 C 
ATOM      7  C   UNL A   1      32.627  23.495  24.979  1.00  0.00     0.097 C 
ATOM      8  C   UNL A   1      31.874  22.663  26.042  1.00  0.00     0.041 C 
ATOM      9  C   UNL A   1      31.714  21.198  25.729  1.00  0.00    -0.030 C 
ATOM     10  C   UNL A   1      33.060  21.336  23.632  1.00  0.00     0.043 C 
ATOM     11  C   UNL A   1      32.225  20.605  24.640  1.00  0.00    -0.030 C 
BRANCH   7  12
ATOM     12  C   UNL A   1      31.604  24.206  24.098  1.00  0.00     0.228 C 
ATOM     13  N   UNL A   1      31.346  25.551  24.186  1.00  0.00    -0.326 N 
ATOM     14  H   UNL A   1      30.636  25.854  23.575  1.00  0.00     0.169 HD
ATOM     15  O   UNL A   1      30.969  23.580  23.240  1.00  0.00    -0.274 OA
BRANCH  13  16
ATOM     16  C   UNL A   1      31.890  26.587  24.970  1.00  0.00     0.044 A 
ATOM     17  C   UNL A   1      34.274  29.113  27.535  1.00  0.00     0.047 C 
ATOM     18  C   UNL A   1      33.397  28.343  26.596  1.00  0.00    -0.015 A 
ATOM     19  C   UNL A   1      33.848  28.004  25.317  1.00  0.00     0.008 A 
ATOM     20  C   UNL A   1      32.152  27.860  27.006  1.00  0.00     0.128 A 
ATOM     21  C   UNL A   1      33.087  27.154  24.503  1.00  0.00     0.026 A 
ATOM     22  C   UNL A   1      31.386  27.012  26.198  1.00  0.00     0.065 A 
ATOM     23  F   UNL A   1      31.693  28.166  28.229  1.00  0.00    -0.207 F 
ENDBRANCH  13  16
ENDBRANCH   7  12
ENDBRANCH   4   6
ENDBRANCH   3   4
ENDBRANCH   2   3
ENDBRANCH   1   2
BRANCH   1  24
ATOM     24  O   UNL A   1      37.554  22.955  25.977  1.00  0.00    -0.458 OA
BRANCH  24  25
ATOM     25  C   UNL A   1      38.844  22.909  26.369  1.00  0.00     0.338 C 
ATOM     26  O   UNL A   1      39.561  21.932  26.272  1.00  0.00    -0.246 OA
BRANCH  25  27
ATOM     27  C   UNL A   1      39.410  24.140  26.916  1.00  0.00     0.060 A 
ATOM     28  C   UNL A   1      39.025  24.490  28.218  1.00  0.00     0.016 A 
ATOM     29  C   UNL A   1      40.098  25.039  26.105  1.00  0.00     0.016 A 
ATOM     30  C   UNL A   1      39.343  25.743  28.725  1.00  0.00     0.010 A 
ATOM     31  C   UNL A   1      40.417  26.298  26.615  1.00  0.00     0.010 A 
ATOM     32  C   UNL A   1      40.048  26.651  27.926  1.00  0.00    -0.014 A 
BRANCH  32  33
ATOM     33  C   UNL A   1      40.560  27.895  28.532  1.00  0.00     0.031 A 
ATOM     34  C   UNL A   1      41.950  28.002  29.075  1.00  0.00     0.074 A 
ATOM     35  C   UNL A   1      39.711  28.937  28.581  1.00  0.00     0.049 A 
ATOM     36  N   UNL A   1      42.512  29.019  29.675  1.00  0.00    -0.248 NA
ATOM     37  C   UNL A   1      42.822  26.827  28.925  1.00  0.00     0.031 C 
ATOM     38  C   UNL A   1      38.348  28.931  28.040  1.00  0.00     0.029 A 
ATOM     39  N   UNL A   1      39.855  30.186  29.119  1.00  0.00    -0.354 N 
ATOM     40  C   UNL A   1      43.807  28.616  29.974  1.00  0.00     0.074 A 
ATOM     41  C   UNL A   1      43.942  27.252  29.502  1.00  0.00     0.031 C 
ATOM     42  C   UNL A   1      37.769  30.110  28.304  1.00  0.00     0.029 A 
ATOM     43  C   UNL A   1      38.708  30.938  29.051  1.00  0.00     0.049 A 
ATOM     44  H   UNL A   1      40.694  30.512  29.516  1.00  0.00     0.167 HD
ATOM     45  C   UNL A   1      44.785  29.327  30.587  1.00  0.00     0.031 A 
ATOM     46  C   UNL A   1      38.432  32.150  29.560  1.00  0.00     0.031 A 
ATOM     47  C   UNL A   1      44.619  30.675  31.072  1.00  0.00     0.049 A 
ATOM     48  C   UNL A   1      39.506  32.887  30.296  1.00  0.00     0.074 A 
ATOM     49  C   UNL A   1      45.554  31.494  31.683  1.00  0.00     0.029 A 
ATOM     50  N   UNL A   1      43.436  31.399  31.013  1.00  0.00    -0.354 N 
ATOM     51  N   UNL A   1      40.734  32.500  30.550  1.00  0.00    -0.248 NA
ATOM     52  C   UNL A   1      39.166  34.220  30.803  1.00  0.00     0.031 C 
ATOM     53  C   UNL A   1      44.924  32.696  32.031  1.00  0.00     0.029 A 
ATOM     54  C   UNL A   1      43.607  32.642  31.601  1.00  0.00     0.049 A 
ATOM     55  H   UNL A   1      42.597  31.076  30.611  1.00  0.00     0.167 HD
ATOM     56  C   UNL A   1      41.322  33.551  31.238  1.00  0.00     0.074 A 
ATOM     57  C   UNL A   1      40.317  34.591  31.351  1.00  0.00     0.031 C 
ATOM     58  C   UNL A   1      42.583  33.649  31.725  1.00  0.00     0.031 A 
BRANCH  45  59
ATOM     59  C   UNL A   1      46.113  28.653  30.796  1.00  0.00    -0.014 A 
ATOM     60  C   UNL A   1      47.178  28.852  29.899  1.00  0.00     0.010 A 
ATOM     61  C   UNL A   1      46.320  27.854  31.935  1.00  0.00     0.010 A 
ATOM     62  C   UNL A   1      48.417  28.241  30.123  1.00  0.00     0.020 A 
ATOM     63  C   UNL A   1      47.562  27.254  32.171  1.00  0.00     0.020 A 
ATOM     64  C   UNL A   1      48.599  27.441  31.255  1.00  0.00     0.054 A 
BRANCH  64  65
ATOM     65  S   UNL A   1      50.221  26.676  31.538  1.00  0.00     0.124 S 
ATOM     66  O   UNL A   1      49.881  25.256  31.579  1.00  0.00    -0.237 OA
ATOM     67  O   UNL A   1      50.990  27.103  30.371  1.00  0.00    -0.237 OA
ATOM     68  O   UNL A   1      50.656  27.250  32.809  1.00  0.00    -0.744 OA
ENDBRANCH  64  65
ENDBRANCH  45  59
BRANCH  46  69
ATOM     69  C   UNL A   1      37.065  32.702  29.391  1.00  0.00    -0.014 A 
ATOM     70  C   UNL A   1      36.148  32.678  30.453  1.00  0.00     0.010 A 
ATOM     71  C   UNL A   1      36.720  33.356  28.192  1.00  0.00     0.010 A 
ATOM     72  C   UNL A   1      34.909  33.313  30.325  1.00  0.00     0.020 A 
ATOM     73  C   UNL A   1      35.490  34.006  28.069  1.00  0.00     0.020 A 
ATOM     74  C   UNL A   1      34.591  33.979  29.137  1.00  0.00     0.054 A 
BRANCH  74  75
ATOM     75  S   UNL A   1      33.028  34.893  29.029  1.00  0.00     0.124 S 
ATOM     76  O   UNL A   1      32.294  34.120  28.032  1.00  0.00    -0.237 OA
ATOM     77  O   UNL A   1      32.515  34.813  30.395  1.00  0.00    -0.237 OA
ATOM     78  O   UNL A   1      33.445  36.228  28.608  1.00  0.00    -0.744 OA
ENDBRANCH  74  75
ENDBRANCH  46  69
BRANCH  58  79
ATOM     79  C   UNL A   1      42.934  34.935  32.417  1.00  0.00    -0.014 A 
ATOM     80  C   UNL A   1      43.621  35.954  31.735  1.00  0.00     0.010 A 
ATOM     81  C   UNL A   1      42.571  35.125  33.762  1.00  0.00     0.010 A 
ATOM     82  C   UNL A   1      43.971  37.131  32.398  1.00  0.00     0.020 A 
ATOM     83  C   UNL A   1      42.904  36.309  34.423  1.00  0.00     0.020 A 
ATOM     84  C   UNL A   1      43.619  37.297  33.741  1.00  0.00     0.054 A 
BRANCH  84  85
ATOM     85  S   UNL A   1      44.069  38.839  34.586  1.00  0.00     0.124 S 
ATOM     86  O   UNL A   1      43.041  39.756  34.105  1.00  0.00    -0.237 OA
ATOM     87  O   UNL A   1      43.977  38.475  35.999  1.00  0.00    -0.237 OA
ATOM     88  O   UNL A   1      45.423  39.109  34.107  1.00  0.00    -0.744 OA
ENDBRANCH  84  85
ENDBRANCH  58  79
ENDBRANCH  32  33
ENDBRANCH  25  27
ENDBRANCH  24  25
ENDBRANCH   1  24
TORSDOF 16
ENDMDL
