MODEL 1
REMARK VINA RESULT:     -10.4      0.000      0.000
REMARK SMILES C[C@H](NC(=O)OCc1ccccc1)C(=O)NCC(=O)N1CCC[C@H]1C(=O)OCCOC(=O)c1ccc(-c2c3nc(c(-c4ccc(S(=O)(=O)[O-])cc4)c4ccc([nH]4)c(-c4ccc(S(=O)(=O)[O-])cc4)c4nc(c(-c5ccc(S(=O)(=O)[O-])cc5)c5ccc2[nH]5)C=C4)C=C3)cc1
REMARK SMILES IDX 25 1 26 2 24 3 20 4 21 5 22 6 23 7 18 8 19 9 17 10 16 11
REMARK SMILES IDX 14 12 15 13 2 15 1 16 3 17 4 18 5 20 6 21 7 22 8 23 9 24
REMARK SMILES IDX 13 25 10 26 12 27 11 28 27 29 28 30 29 31 30 32 31 33 32 34
REMARK SMILES IDX 33 35 34 36 92 37 35 38 91 39 36 40 37 41 38 42 85 43 39 44
REMARK SMILES IDX 90 45 84 46 86 47 40 48 89 49 83 50 82 51 41 53 71 54 52 55
REMARK SMILES IDX 70 56 53 57 56 58 69 59 87 60 54 61 55 62 68 64 88 65 57 66
REMARK SMILES IDX 42 67 43 68 51 69 44 70 50 71 45 72 46 73 47 74 48 75 49 76
REMARK SMILES IDX 72 77 73 78 81 79 74 80 80 81 75 82 76 83 77 84 78 85 79 86
REMARK SMILES IDX 58 87 59 88 67 89 60 90 66 91 61 92 62 93 63 94 64 95 65 96
REMARK H PARENT 16 14 3 19 86 52 56 63
REMARK Flexibility Score: inf
ROOT
ATOM      1  C   UNL A   1      32.022  28.680  26.063  1.00  0.00     0.328 C 
ATOM      2  O   UNL A   1      31.394  28.002  26.870  1.00  0.00    -0.250 OA
ENDROOT
BRANCH   1   3
ATOM      3  C   UNL A   1      31.940  28.493  24.537  1.00  0.00     0.195 C 
ATOM      4  N   UNL A   1      31.478  27.147  24.185  1.00  0.00    -0.327 N 
ATOM      5  C   UNL A   1      30.059  27.187  23.890  1.00  0.00     0.120 C 
ATOM      6  C   UNL A   1      29.873  28.529  23.220  1.00  0.00     0.024 C 
ATOM      7  C   UNL A   1      30.856  29.416  23.959  1.00  0.00     0.039 C 
BRANCH   4   8
ATOM      8  C   UNL A   1      32.386  26.122  24.165  1.00  0.00     0.242 C 
ATOM      9  O   UNL A   1      33.144  25.983  23.193  1.00  0.00    -0.273 OA
BRANCH   8  10
ATOM     10  C   UNL A   1      32.362  24.994  25.210  1.00  0.00     0.216 C 
BRANCH  10  11
ATOM     11  N   UNL A   1      31.203  24.741  26.040  1.00  0.00    -0.345 N 
ATOM     12  C   UNL A   1      30.826  23.620  26.717  1.00  0.00     0.242 C 
ATOM     13  O   UNL A   1      29.785  23.690  27.378  1.00  0.00    -0.273 OA
ATOM     14  H   UNL A   1      30.586  25.504  26.129  1.00  0.00     0.164 HD
BRANCH  12  15
ATOM     15  C   UNL A   1      31.667  22.323  26.720  1.00  0.00     0.171 C 
ATOM     16  C   UNL A   1      32.941  22.499  27.528  1.00  0.00     0.042 C 
BRANCH  15  17
ATOM     17  N   UNL A   1      31.761  21.782  25.371  1.00  0.00    -0.310 N 
ATOM     18  C   UNL A   1      32.678  21.031  24.706  1.00  0.00     0.408 C 
ATOM     19  H   UNL A   1      30.982  22.013  24.814  1.00  0.00     0.167 HD
ATOM     20  O   UNL A   1      32.595  20.895  23.500  1.00  0.00    -0.225 OA
BRANCH  18  21
ATOM     21  O   UNL A   1      33.625  20.479  25.501  1.00  0.00    -0.445 OA
BRANCH  21  22
ATOM     22  C   UNL A   1      34.856  20.173  24.824  1.00  0.00     0.270 C 
BRANCH  22  23
ATOM     23  C   UNL A   1      35.942  21.189  25.099  1.00  0.00    -0.011 A 
ATOM     24  C   UNL A   1      37.285  20.783  25.156  1.00  0.00     0.007 A 
ATOM     25  C   UNL A   1      35.632  22.536  25.330  1.00  0.00     0.007 A 
ATOM     26  C   UNL A   1      38.292  21.701  25.462  1.00  0.00     0.000 A 
ATOM     27  C   UNL A   1      36.641  23.452  25.639  1.00  0.00     0.000 A 
ATOM     28  C   UNL A   1      37.969  23.033  25.707  1.00  0.00     0.000 A 
ENDBRANCH  22  23
ENDBRANCH  21  22
ENDBRANCH  18  21
ENDBRANCH  15  17
ENDBRANCH  12  15
ENDBRANCH  10  11
ENDBRANCH   8  10
ENDBRANCH   4   8
ENDBRANCH   1   3
BRANCH   1  29
ATOM     29  O   UNL A   1      32.852  29.707  26.392  1.00  0.00    -0.461 OA
BRANCH  29  30
ATOM     30  C   UNL A   1      34.208  29.366  26.735  1.00  0.00     0.274 C 
BRANCH  30  31
ATOM     31  C   UNL A   1      34.686  30.259  27.878  1.00  0.00     0.275 C 
BRANCH  31  32
ATOM     32  O   UNL A   1      36.126  30.320  27.889  1.00  0.00    -0.458 OA
BRANCH  32  33
ATOM     33  C   UNL A   1      36.708  29.654  28.912  1.00  0.00     0.338 C 
ATOM     34  O   UNL A   1      36.246  29.447  30.022  1.00  0.00    -0.246 OA
BRANCH  33  35
ATOM     35  C   UNL A   1      37.978  29.052  28.480  1.00  0.00     0.060 A 
ATOM     36  C   UNL A   1      38.702  28.362  29.438  1.00  0.00     0.016 A 
ATOM     37  C   UNL A   1      38.568  29.376  27.266  1.00  0.00     0.016 A 
ATOM     38  C   UNL A   1      40.074  28.174  29.284  1.00  0.00     0.010 A 
ATOM     39  C   UNL A   1      39.908  29.027  27.043  1.00  0.00     0.010 A 
ATOM     40  C   UNL A   1      40.707  28.493  28.076  1.00  0.00    -0.014 A 
BRANCH  40  41
ATOM     41  C   UNL A   1      42.189  28.324  27.904  1.00  0.00     0.031 A 
ATOM     42  C   UNL A   1      43.134  29.456  28.251  1.00  0.00     0.074 A 
ATOM     43  C   UNL A   1      42.714  27.168  27.440  1.00  0.00     0.049 A 
ATOM     44  N   UNL A   1      44.407  29.594  27.969  1.00  0.00    -0.248 NA
ATOM     45  C   UNL A   1      42.564  30.595  28.988  1.00  0.00     0.031 C 
ATOM     46  C   UNL A   1      41.959  25.960  27.104  1.00  0.00     0.029 A 
ATOM     47  N   UNL A   1      44.018  26.820  27.166  1.00  0.00    -0.354 N 
ATOM     48  C   UNL A   1      44.763  30.866  28.412  1.00  0.00     0.074 A 
ATOM     49  C   UNL A   1      43.568  31.459  28.975  1.00  0.00     0.031 C 
ATOM     50  C   UNL A   1      42.807  24.996  26.719  1.00  0.00     0.029 A 
ATOM     51  C   UNL A   1      44.153  25.547  26.661  1.00  0.00     0.049 A 
ATOM     52  H   UNL A   1      44.780  27.424  27.319  1.00  0.00     0.167 HD
ATOM     53  C   UNL A   1      45.967  31.488  28.351  1.00  0.00     0.031 A 
ATOM     54  C   UNL A   1      45.218  24.900  26.145  1.00  0.00     0.031 A 
ATOM     55  C   UNL A   1      47.168  30.874  27.842  1.00  0.00     0.049 A 
ATOM     56  C   UNL A   1      46.540  25.605  26.067  1.00  0.00     0.074 A 
ATOM     57  C   UNL A   1      48.443  31.408  27.768  1.00  0.00     0.029 A 
ATOM     58  N   UNL A   1      47.245  29.588  27.329  1.00  0.00    -0.354 N 
ATOM     59  N   UNL A   1      46.844  26.825  26.443  1.00  0.00    -0.248 NA
ATOM     60  C   UNL A   1      47.659  24.853  25.487  1.00  0.00     0.031 C 
ATOM     61  C   UNL A   1      49.278  30.464  27.157  1.00  0.00     0.029 A 
ATOM     62  C   UNL A   1      48.540  29.317  26.916  1.00  0.00     0.049 A 
ATOM     63  H   UNL A   1      46.491  28.958  27.269  1.00  0.00     0.167 HD
ATOM     64  C   UNL A   1      48.196  26.980  26.160  1.00  0.00     0.074 A 
ATOM     65  C   UNL A   1      48.653  25.725  25.598  1.00  0.00     0.031 C 
ATOM     66  C   UNL A   1      48.985  28.068  26.349  1.00  0.00     0.031 A 
BRANCH  53  67
ATOM     67  C   UNL A   1      46.027  32.934  28.787  1.00  0.00    -0.014 A 
ATOM     68  C   UNL A   1      46.317  33.308  30.112  1.00  0.00     0.010 A 
ATOM     69  C   UNL A   1      45.776  33.943  27.837  1.00  0.00     0.010 A 
ATOM     70  C   UNL A   1      46.276  34.654  30.493  1.00  0.00     0.020 A 
ATOM     71  C   UNL A   1      45.770  35.292  28.206  1.00  0.00     0.020 A 
ATOM     72  C   UNL A   1      45.990  35.636  29.540  1.00  0.00     0.054 A 
BRANCH  72  73
ATOM     73  S   UNL A   1      45.906  37.371  30.067  1.00  0.00     0.124 S 
ATOM     74  O   UNL A   1      46.462  37.301  31.417  1.00  0.00    -0.237 OA
ATOM     75  O   UNL A   1      46.743  38.047  29.078  1.00  0.00    -0.237 OA
ATOM     76  O   UNL A   1      44.483  37.688  29.996  1.00  0.00    -0.744 OA
ENDBRANCH  72  73
ENDBRANCH  53  67
BRANCH  54  77
ATOM     77  C   UNL A   1      45.042  23.519  25.613  1.00  0.00    -0.014 A 
ATOM     78  C   UNL A   1      44.688  23.305  24.269  1.00  0.00     0.010 A 
ATOM     79  C   UNL A   1      45.303  22.406  26.436  1.00  0.00     0.010 A 
ATOM     80  C   UNL A   1      44.611  22.005  23.758  1.00  0.00     0.020 A 
ATOM     81  C   UNL A   1      45.259  21.109  25.919  1.00  0.00     0.020 A 
ATOM     82  C   UNL A   1      44.912  20.916  24.582  1.00  0.00     0.054 A 
BRANCH  82  83
ATOM     83  S   UNL A   1      44.911  19.249  23.867  1.00  0.00     0.124 S 
ATOM     84  O   UNL A   1      46.324  18.888  23.936  1.00  0.00    -0.237 OA
ATOM     85  O   UNL A   1      44.025  18.519  24.770  1.00  0.00    -0.237 OA
ATOM     86  O   UNL A   1      44.383  19.454  22.520  1.00  0.00    -0.744 OA
ENDBRANCH  82  83
ENDBRANCH  54  77
BRANCH  66  87
ATOM     87  C   UNL A   1      50.440  27.936  25.983  1.00  0.00    -0.014 A 
ATOM     88  C   UNL A   1      50.901  28.220  24.685  1.00  0.00     0.010 A 
ATOM     89  C   UNL A   1      51.367  27.557  26.971  1.00  0.00     0.010 A 
ATOM     90  C   UNL A   1      52.257  28.089  24.372  1.00  0.00     0.020 A 
ATOM     91  C   UNL A   1      52.728  27.456  26.671  1.00  0.00     0.020 A 
ATOM     92  C   UNL A   1      53.162  27.707  25.369  1.00  0.00     0.054 A 
BRANCH  92  93
ATOM     93  S   UNL A   1      54.921  27.575  24.947  1.00  0.00     0.124 S 
ATOM     94  O   UNL A   1      55.122  28.756  24.110  1.00  0.00    -0.237 OA
ATOM     95  O   UNL A   1      55.569  27.616  26.256  1.00  0.00    -0.237 OA
ATOM     96  O   UNL A   1      55.016  26.295  24.251  1.00  0.00    -0.744 OA
ENDBRANCH  92  93
ENDBRANCH  66  87
ENDBRANCH  40  41
ENDBRANCH  33  35
ENDBRANCH  32  33
ENDBRANCH  31  32
ENDBRANCH  30  31
ENDBRANCH  29  30
ENDBRANCH   1  29
TORSDOF 22
ENDMDL
MODEL 2
REMARK VINA RESULT:     -10.2      1.654      2.300
REMARK SMILES C[C@H](NC(=O)OCc1ccccc1)C(=O)NCC(=O)N1CCC[C@H]1C(=O)OCCOC(=O)c1ccc(-c2c3nc(c(-c4ccc(S(=O)(=O)[O-])cc4)c4ccc([nH]4)c(-c4ccc(S(=O)(=O)[O-])cc4)c4nc(c(-c5ccc(S(=O)(=O)[O-])cc5)c5ccc2[nH]5)C=C4)C=C3)cc1
REMARK SMILES IDX 25 1 26 2 24 3 20 4 21 5 22 6 23 7 18 8 19 9 17 10 16 11
REMARK SMILES IDX 14 12 15 13 2 15 1 16 3 17 4 18 5 20 6 21 7 22 8 23 9 24
REMARK SMILES IDX 13 25 10 26 12 27 11 28 27 29 28 30 29 31 30 32 31 33 32 34
REMARK SMILES IDX 33 35 34 36 92 37 35 38 91 39 36 40 37 41 38 42 85 43 39 44
REMARK SMILES IDX 90 45 84 46 86 47 40 48 89 49 83 50 82 51 41 53 71 54 52 55
REMARK SMILES IDX 70 56 53 57 56 58 69 59 87 60 54 61 55 62 68 64 88 65 57 66
REMARK SMILES IDX 42 67 43 68 51 69 44 70 50 71 45 72 46 73 47 74 48 75 49 76
REMARK SMILES IDX 72 77 73 78 81 79 74 80 80 81 75 82 76 83 77 84 78 85 79 86
REMARK SMILES IDX 58 87 59 88 67 89 60 90 66 91 61 92 62 93 63 94 64 95 65 96
REMARK H PARENT 16 14 3 19 86 52 56 63
REMARK Flexibility Score: inf
ROOT
ATOM      1  C   UNL A   1      31.866  28.751  25.282  1.00  0.00     0.328 C 
ATOM      2  O   UNL A   1      31.198  27.913  25.879  1.00  0.00    -0.250 OA
ENDROOT
BRANCH   1   3
ATOM      3  C   UNL A   1      31.708  29.067  23.784  1.00  0.00     0.195 C 
ATOM      4  N   UNL A   1      32.006  27.895  22.955  1.00  0.00    -0.327 N 
ATOM      5  C   UNL A   1      30.765  27.247  22.575  1.00  0.00     0.120 C 
ATOM      6  C   UNL A   1      29.803  28.399  22.394  1.00  0.00     0.024 C 
ATOM      7  C   UNL A   1      30.236  29.375  23.471  1.00  0.00     0.039 C 
BRANCH   4   8
ATOM      8  C   UNL A   1      33.312  27.610  22.659  1.00  0.00     0.242 C 
ATOM      9  O   UNL A   1      33.901  28.248  21.775  1.00  0.00    -0.273 OA
BRANCH   8  10
ATOM     10  C   UNL A   1      34.024  26.374  23.234  1.00  0.00     0.216 C 
BRANCH  10  11
ATOM     11  N   UNL A   1      33.855  25.055  22.663  1.00  0.00    -0.345 N 
ATOM     12  C   UNL A   1      33.073  24.011  23.060  1.00  0.00     0.242 C 
ATOM     13  O   UNL A   1      33.105  22.992  22.362  1.00  0.00    -0.273 OA
ATOM     14  H   UNL A   1      34.394  24.884  21.856  1.00  0.00     0.164 HD
BRANCH  12  15
ATOM     15  C   UNL A   1      32.140  24.085  24.290  1.00  0.00     0.171 C 
ATOM     16  C   UNL A   1      32.759  24.920  25.396  1.00  0.00     0.042 C 
BRANCH  15  17
ATOM     17  N   UNL A   1      31.629  22.760  24.612  1.00  0.00    -0.310 N 
ATOM     18  C   UNL A   1      31.969  21.800  25.513  1.00  0.00     0.408 C 
ATOM     19  H   UNL A   1      30.863  22.501  24.051  1.00  0.00     0.167 HD
ATOM     20  O   UNL A   1      31.493  20.684  25.423  1.00  0.00    -0.225 OA
BRANCH  18  21
ATOM     21  O   UNL A   1      32.836  22.215  26.466  1.00  0.00    -0.445 OA
BRANCH  21  22
ATOM     22  C   UNL A   1      34.055  21.455  26.525  1.00  0.00     0.270 C 
BRANCH  22  23
ATOM     23  C   UNL A   1      35.195  22.118  25.784  1.00  0.00    -0.011 A 
ATOM     24  C   UNL A   1      35.860  23.214  26.355  1.00  0.00     0.007 A 
ATOM     25  C   UNL A   1      35.585  21.676  24.512  1.00  0.00     0.007 A 
ATOM     26  C   UNL A   1      36.878  23.868  25.658  1.00  0.00     0.000 A 
ATOM     27  C   UNL A   1      36.602  22.335  23.816  1.00  0.00     0.000 A 
ATOM     28  C   UNL A   1      37.245  23.431  24.388  1.00  0.00     0.000 A 
ENDBRANCH  22  23
ENDBRANCH  21  22
ENDBRANCH  18  21
ENDBRANCH  15  17
ENDBRANCH  12  15
ENDBRANCH  10  11
ENDBRANCH   8  10
ENDBRANCH   4   8
ENDBRANCH   1   3
BRANCH   1  29
ATOM     29  O   UNL A   1      32.814  29.542  25.857  1.00  0.00    -0.461 OA
BRANCH  29  30
ATOM     30  C   UNL A   1      33.804  28.886  26.672  1.00  0.00     0.274 C 
BRANCH  30  31
ATOM     31  C   UNL A   1      34.471  29.908  27.588  1.00  0.00     0.275 C 
BRANCH  31  32
ATOM     32  O   UNL A   1      35.649  29.338  28.192  1.00  0.00    -0.458 OA
BRANCH  32  33
ATOM     33  C   UNL A   1      36.179  30.075  29.194  1.00  0.00     0.338 C 
ATOM     34  O   UNL A   1      35.592  30.570  30.142  1.00  0.00    -0.246 OA
BRANCH  33  35
ATOM     35  C   UNL A   1      37.645  30.109  29.090  1.00  0.00     0.060 A 
ATOM     36  C   UNL A   1      38.184  30.043  27.816  1.00  0.00     0.016 A 
ATOM     37  C   UNL A   1      38.464  29.938  30.197  1.00  0.00     0.016 A 
ATOM     38  C   UNL A   1      39.491  29.600  27.626  1.00  0.00     0.010 A 
ATOM     39  C   UNL A   1      39.826  29.665  30.005  1.00  0.00     0.010 A 
ATOM     40  C   UNL A   1      40.347  29.412  28.718  1.00  0.00    -0.014 A 
BRANCH  40  41
ATOM     41  C   UNL A   1      41.749  28.907  28.532  1.00  0.00     0.031 A 
ATOM     42  C   UNL A   1      42.926  29.852  28.658  1.00  0.00     0.074 A 
ATOM     43  C   UNL A   1      41.994  27.609  28.248  1.00  0.00     0.049 A 
ATOM     44  N   UNL A   1      44.179  29.671  28.318  1.00  0.00    -0.248 NA
ATOM     45  C   UNL A   1      42.650  31.186  29.214  1.00  0.00     0.031 C 
ATOM     46  C   UNL A   1      40.987  26.551  28.140  1.00  0.00     0.029 A 
ATOM     47  N   UNL A   1      43.179  26.953  27.996  1.00  0.00    -0.354 N 
ATOM     48  C   UNL A   1      44.815  30.891  28.534  1.00  0.00     0.074 A 
ATOM     49  C   UNL A   1      43.807  31.805  29.028  1.00  0.00     0.031 C 
ATOM     50  C   UNL A   1      41.593  25.382  27.892  1.00  0.00     0.029 A 
ATOM     51  C   UNL A   1      43.018  25.618  27.703  1.00  0.00     0.049 A 
ATOM     52  H   UNL A   1      44.057  27.397  28.023  1.00  0.00     0.167 HD
ATOM     53  C   UNL A   1      46.115  31.225  28.334  1.00  0.00     0.031 A 
ATOM     54  C   UNL A   1      43.892  24.688  27.269  1.00  0.00     0.031 A 
ATOM     55  C   UNL A   1      47.129  30.300  27.896  1.00  0.00     0.049 A 
ATOM     56  C   UNL A   1      45.322  25.075  27.034  1.00  0.00     0.074 A 
ATOM     57  C   UNL A   1      48.479  30.532  27.696  1.00  0.00     0.029 A 
ATOM     58  N   UNL A   1      46.908  28.962  27.600  1.00  0.00    -0.354 N 
ATOM     59  N   UNL A   1      45.893  26.245  27.194  1.00  0.00    -0.248 NA
ATOM     60  C   UNL A   1      46.223  24.021  26.552  1.00  0.00     0.031 C 
ATOM     61  C   UNL A   1      49.062  29.349  27.224  1.00  0.00     0.029 A 
ATOM     62  C   UNL A   1      48.090  28.362  27.198  1.00  0.00     0.049 A 
ATOM     63  H   UNL A   1      46.038  28.506  27.668  1.00  0.00     0.167 HD
ATOM     64  C   UNL A   1      47.227  26.064  26.848  1.00  0.00     0.074 A 
ATOM     65  C   UNL A   1      47.380  24.668  26.488  1.00  0.00     0.031 C 
ATOM     66  C   UNL A   1      48.232  26.974  26.831  1.00  0.00     0.031 A 
BRANCH  53  67
ATOM     67  C   UNL A   1      46.498  32.676  28.523  1.00  0.00    -0.014 A 
ATOM     68  C   UNL A   1      46.406  33.618  27.483  1.00  0.00     0.010 A 
ATOM     69  C   UNL A   1      46.971  33.097  29.781  1.00  0.00     0.010 A 
ATOM     70  C   UNL A   1      46.854  34.931  27.675  1.00  0.00     0.020 A 
ATOM     71  C   UNL A   1      47.385  34.418  29.987  1.00  0.00     0.020 A 
ATOM     72  C   UNL A   1      47.352  35.317  28.922  1.00  0.00     0.054 A 
BRANCH  72  73
ATOM     73  S   UNL A   1      47.960  37.015  29.136  1.00  0.00     0.124 S 
ATOM     74  O   UNL A   1      49.132  37.025  28.262  1.00  0.00    -0.237 OA
ATOM     75  O   UNL A   1      46.830  37.820  28.679  1.00  0.00    -0.237 OA
ATOM     76  O   UNL A   1      48.248  37.104  30.564  1.00  0.00    -0.744 OA
ENDBRANCH  72  73
ENDBRANCH  53  67
BRANCH  54  77
ATOM     77  C   UNL A   1      43.403  23.310  26.977  1.00  0.00    -0.014 A 
ATOM     78  C   UNL A   1      43.472  22.782  25.676  1.00  0.00     0.010 A 
ATOM     79  C   UNL A   1      42.931  22.491  28.022  1.00  0.00     0.010 A 
ATOM     80  C   UNL A   1      43.091  21.458  25.430  1.00  0.00     0.020 A 
ATOM     81  C   UNL A   1      42.583  21.160  27.785  1.00  0.00     0.020 A 
ATOM     82  C   UNL A   1      42.663  20.651  26.488  1.00  0.00     0.054 A 
BRANCH  82  83
ATOM     83  S   UNL A   1      42.280  18.908  26.163  1.00  0.00     0.124 S 
ATOM     84  O   UNL A   1      42.634  18.277  27.430  1.00  0.00    -0.237 OA
ATOM     85  O   UNL A   1      40.853  18.952  25.853  1.00  0.00    -0.237 OA
ATOM     86  O   UNL A   1      43.143  18.573  25.032  1.00  0.00    -0.744 OA
ENDBRANCH  82  83
ENDBRANCH  54  77
BRANCH  66  87
ATOM     87  C   UNL A   1      49.603  26.481  26.447  1.00  0.00    -0.014 A 
ATOM     88  C   UNL A   1      50.037  26.484  25.110  1.00  0.00     0.010 A 
ATOM     89  C   UNL A   1      50.484  26.043  27.453  1.00  0.00     0.010 A 
ATOM     90  C   UNL A   1      51.315  26.020  24.781  1.00  0.00     0.020 A 
ATOM     91  C   UNL A   1      51.773  25.609  27.132  1.00  0.00     0.020 A 
ATOM     92  C   UNL A   1      52.174  25.585  25.796  1.00  0.00     0.054 A 
BRANCH  92  93
ATOM     93  S   UNL A   1      53.838  25.019  25.349  1.00  0.00     0.124 S 
ATOM     94  O   UNL A   1      53.586  23.647  24.913  1.00  0.00    -0.237 OA
ATOM     95  O   UNL A   1      54.222  25.953  24.294  1.00  0.00    -0.237 OA
ATOM     96  O   UNL A   1      54.594  25.148  26.593  1.00  0.00    -0.744 OA
ENDBRANCH  92  93
ENDBRANCH  66  87
ENDBRANCH  40  41
ENDBRANCH  33  35
ENDBRANCH  32  33
ENDBRANCH  31  32
ENDBRANCH  30  31
ENDBRANCH  29  30
ENDBRANCH   1  29
TORSDOF 22
ENDMDL
MODEL 3
REMARK VINA RESULT:     -10.2      1.782      2.517
REMARK SMILES C[C@H](NC(=O)OCc1ccccc1)C(=O)NCC(=O)N1CCC[C@H]1C(=O)OCCOC(=O)c1ccc(-c2c3nc(c(-c4ccc(S(=O)(=O)[O-])cc4)c4ccc([nH]4)c(-c4ccc(S(=O)(=O)[O-])cc4)c4nc(c(-c5ccc(S(=O)(=O)[O-])cc5)c5ccc2[nH]5)C=C4)C=C3)cc1
REMARK SMILES IDX 25 1 26 2 24 3 20 4 21 5 22 6 23 7 18 8 19 9 17 10 16 11
REMARK SMILES IDX 14 12 15 13 2 15 1 16 3 17 4 18 5 20 6 21 7 22 8 23 9 24
REMARK SMILES IDX 13 25 10 26 12 27 11 28 27 29 28 30 29 31 30 32 31 33 32 34
REMARK SMILES IDX 33 35 34 36 92 37 35 38 91 39 36 40 37 41 38 42 85 43 39 44
REMARK SMILES IDX 90 45 84 46 86 47 40 48 89 49 83 50 82 51 41 53 71 54 52 55
REMARK SMILES IDX 70 56 53 57 56 58 69 59 87 60 54 61 55 62 68 64 88 65 57 66
REMARK SMILES IDX 42 67 43 68 51 69 44 70 50 71 45 72 46 73 47 74 48 75 49 76
REMARK SMILES IDX 72 77 73 78 81 79 74 80 80 81 75 82 76 83 77 84 78 85 79 86
REMARK SMILES IDX 58 87 59 88 67 89 60 90 66 91 61 92 62 93 63 94 64 95 65 96
REMARK H PARENT 16 14 3 19 86 52 56 63
REMARK Flexibility Score: inf
ROOT
ATOM      1  C   UNL A   1      32.375  28.203  25.128  1.00  0.00     0.328 C 
ATOM      2  O   UNL A   1      31.329  28.639  24.658  1.00  0.00    -0.250 OA
ENDROOT
BRANCH   1   3
ATOM      3  C   UNL A   1      33.523  27.627  24.281  1.00  0.00     0.195 C 
ATOM      4  N   UNL A   1      33.016  26.897  23.114  1.00  0.00    -0.327 N 
ATOM      5  C   UNL A   1      33.072  27.756  21.947  1.00  0.00     0.120 C 
ATOM      6  C   UNL A   1      34.328  28.570  22.166  1.00  0.00     0.024 C 
ATOM      7  C   UNL A   1      34.343  28.773  23.669  1.00  0.00     0.039 C 
BRANCH   4   8
ATOM      8  C   UNL A   1      32.610  25.599  23.273  1.00  0.00     0.242 C 
ATOM      9  O   UNL A   1      33.403  24.671  23.061  1.00  0.00    -0.273 OA
BRANCH   8  10
ATOM     10  C   UNL A   1      31.133  25.232  23.498  1.00  0.00     0.216 C 
BRANCH  10  11
ATOM     11  N   UNL A   1      30.440  25.556  24.727  1.00  0.00    -0.345 N 
ATOM     12  C   UNL A   1      30.195  24.797  25.833  1.00  0.00     0.242 C 
ATOM     13  O   UNL A   1      29.592  25.343  26.762  1.00  0.00    -0.273 OA
ATOM     14  H   UNL A   1      30.088  26.475  24.770  1.00  0.00     0.164 HD
BRANCH  12  15
ATOM     15  C   UNL A   1      30.683  23.337  25.969  1.00  0.00     0.171 C 
ATOM     16  C   UNL A   1      29.866  22.581  27.002  1.00  0.00     0.042 C 
BRANCH  15  17
ATOM     17  N   UNL A   1      32.136  23.300  26.060  1.00  0.00    -0.310 N 
ATOM     18  C   UNL A   1      33.104  22.496  25.545  1.00  0.00     0.408 C 
ATOM     19  H   UNL A   1      32.501  24.022  26.622  1.00  0.00     0.167 HD
ATOM     20  O   UNL A   1      34.246  22.574  25.959  1.00  0.00    -0.225 OA
BRANCH  18  21
ATOM     21  O   UNL A   1      32.672  21.663  24.569  1.00  0.00    -0.445 OA
BRANCH  21  22
ATOM     22  C   UNL A   1      32.174  20.402  25.049  1.00  0.00     0.270 C 
BRANCH  22  23
ATOM     23  C   UNL A   1      32.810  19.219  24.353  1.00  0.00    -0.011 A 
ATOM     24  C   UNL A   1      33.988  18.653  24.864  1.00  0.00     0.007 A 
ATOM     25  C   UNL A   1      32.258  18.689  23.178  1.00  0.00     0.007 A 
ATOM     26  C   UNL A   1      34.613  17.596  24.202  1.00  0.00     0.000 A 
ATOM     27  C   UNL A   1      32.888  17.632  22.515  1.00  0.00     0.000 A 
ATOM     28  C   UNL A   1      34.065  17.089  23.026  1.00  0.00     0.000 A 
ENDBRANCH  22  23
ENDBRANCH  21  22
ENDBRANCH  18  21
ENDBRANCH  15  17
ENDBRANCH  12  15
ENDBRANCH  10  11
ENDBRANCH   8  10
ENDBRANCH   4   8
ENDBRANCH   1   3
BRANCH   1  29
ATOM     29  O   UNL A   1      32.686  28.194  26.454  1.00  0.00    -0.461 OA
BRANCH  29  30
ATOM     30  C   UNL A   1      33.422  29.324  26.958  1.00  0.00     0.274 C 
BRANCH  30  31
ATOM     31  C   UNL A   1      34.777  28.857  27.485  1.00  0.00     0.275 C 
BRANCH  31  32
ATOM     32  O   UNL A   1      35.579  29.992  27.864  1.00  0.00    -0.458 OA
BRANCH  32  33
ATOM     33  C   UNL A   1      36.196  29.869  29.062  1.00  0.00     0.338 C 
ATOM     34  O   UNL A   1      35.680  29.623  30.140  1.00  0.00    -0.246 OA
BRANCH  33  35
ATOM     35  C   UNL A   1      37.655  29.935  28.900  1.00  0.00     0.060 A 
ATOM     36  C   UNL A   1      38.152  29.748  27.620  1.00  0.00     0.016 A 
ATOM     37  C   UNL A   1      38.517  29.908  29.987  1.00  0.00     0.016 A 
ATOM     38  C   UNL A   1      39.466  29.326  27.429  1.00  0.00     0.010 A 
ATOM     39  C   UNL A   1      39.880  29.655  29.773  1.00  0.00     0.010 A 
ATOM     40  C   UNL A   1      40.365  29.281  28.502  1.00  0.00    -0.014 A 
BRANCH  40  41
ATOM     41  C   UNL A   1      41.775  28.801  28.317  1.00  0.00     0.031 A 
ATOM     42  C   UNL A   1      42.936  29.767  28.441  1.00  0.00     0.074 A 
ATOM     43  C   UNL A   1      42.044  27.507  28.038  1.00  0.00     0.049 A 
ATOM     44  N   UNL A   1      44.191  29.607  28.102  1.00  0.00    -0.248 NA
ATOM     45  C   UNL A   1      42.636  31.098  28.993  1.00  0.00     0.031 C 
ATOM     46  C   UNL A   1      41.056  26.431  27.933  1.00  0.00     0.029 A 
ATOM     47  N   UNL A   1      43.240  26.871  27.788  1.00  0.00    -0.354 N 
ATOM     48  C   UNL A   1      44.806  30.840  28.314  1.00  0.00     0.074 A 
ATOM     49  C   UNL A   1      43.782  31.736  28.806  1.00  0.00     0.031 C 
ATOM     50  C   UNL A   1      41.683  25.272  27.689  1.00  0.00     0.029 A 
ATOM     51  C   UNL A   1      43.103  25.533  27.499  1.00  0.00     0.049 A 
ATOM     52  H   UNL A   1      44.110  27.331  27.815  1.00  0.00     0.167 HD
ATOM     53  C   UNL A   1      46.100  31.196  28.114  1.00  0.00     0.031 A 
ATOM     54  C   UNL A   1      43.993  24.617  27.068  1.00  0.00     0.031 A 
ATOM     55  C   UNL A   1      47.130  30.287  27.679  1.00  0.00     0.049 A 
ATOM     56  C   UNL A   1      45.417  25.029  26.833  1.00  0.00     0.074 A 
ATOM     57  C   UNL A   1      48.476  30.543  27.479  1.00  0.00     0.029 A 
ATOM     58  N   UNL A   1      46.933  28.945  27.387  1.00  0.00    -0.354 N 
ATOM     59  N   UNL A   1      45.967  26.209  26.990  1.00  0.00    -0.248 NA
ATOM     60  C   UNL A   1      46.336  23.990  26.354  1.00  0.00     0.031 C 
ATOM     61  C   UNL A   1      49.080  29.369  27.010  1.00  0.00     0.029 A 
ATOM     62  C   UNL A   1      48.126  28.365  26.987  1.00  0.00     0.049 A 
ATOM     63  H   UNL A   1      46.072  28.474  27.456  1.00  0.00     0.167 HD
ATOM     64  C   UNL A   1      47.304  26.050  26.644  1.00  0.00     0.074 A 
ATOM     65  C   UNL A   1      47.481  24.657  26.288  1.00  0.00     0.031 C 
ATOM     66  C   UNL A   1      48.293  26.979  26.625  1.00  0.00     0.031 A 
BRANCH  53  67
ATOM     67  C   UNL A   1      46.457  32.654  28.299  1.00  0.00    -0.014 A 
ATOM     68  C   UNL A   1      46.858  33.176  29.541  1.00  0.00     0.010 A 
ATOM     69  C   UNL A   1      46.378  33.520  27.192  1.00  0.00     0.010 A 
ATOM     70  C   UNL A   1      47.095  34.548  29.690  1.00  0.00     0.020 A 
ATOM     71  C   UNL A   1      46.649  34.886  27.327  1.00  0.00     0.020 A 
ATOM     72  C   UNL A   1      46.976  35.395  28.584  1.00  0.00     0.054 A 
BRANCH  72  73
ATOM     73  S   UNL A   1      47.252  37.175  28.810  1.00  0.00     0.124 S 
ATOM     74  O   UNL A   1      48.215  37.466  27.749  1.00  0.00    -0.237 OA
ATOM     75  O   UNL A   1      45.917  37.735  28.615  1.00  0.00    -0.237 OA
ATOM     76  O   UNL A   1      47.776  37.276  30.169  1.00  0.00    -0.744 OA
ENDBRANCH  72  73
ENDBRANCH  53  67
BRANCH  54  77
ATOM     77  C   UNL A   1      43.529  23.230  26.780  1.00  0.00    -0.014 A 
ATOM     78  C   UNL A   1      43.858  22.597  25.570  1.00  0.00     0.010 A 
ATOM     79  C   UNL A   1      42.813  22.508  27.755  1.00  0.00     0.010 A 
ATOM     80  C   UNL A   1      43.492  21.265  25.346  1.00  0.00     0.020 A 
ATOM     81  C   UNL A   1      42.475  21.168  27.548  1.00  0.00     0.020 A 
ATOM     82  C   UNL A   1      42.816  20.555  26.342  1.00  0.00     0.054 A 
BRANCH  82  83
ATOM     83  S   UNL A   1      42.449  18.799  26.072  1.00  0.00     0.124 S 
ATOM     84  O   UNL A   1      43.379  18.454  25.002  1.00  0.00    -0.237 OA
ATOM     85  O   UNL A   1      42.740  18.213  27.379  1.00  0.00    -0.237 OA
ATOM     86  O   UNL A   1      41.036  18.797  25.700  1.00  0.00    -0.744 OA
ENDBRANCH  82  83
ENDBRANCH  54  77
BRANCH  66  87
ATOM     87  C   UNL A   1      49.672  26.509  26.242  1.00  0.00    -0.014 A 
ATOM     88  C   UNL A   1      50.191  26.724  24.954  1.00  0.00     0.010 A 
ATOM     89  C   UNL A   1      50.475  25.874  27.208  1.00  0.00     0.010 A 
ATOM     90  C   UNL A   1      51.475  26.277  24.626  1.00  0.00     0.020 A 
ATOM     91  C   UNL A   1      51.770  25.454  26.893  1.00  0.00     0.020 A 
ATOM     92  C   UNL A   1      52.255  25.644  25.599  1.00  0.00     0.054 A 
BRANCH  92  93
ATOM     93  S   UNL A   1      53.930  25.102  25.159  1.00  0.00     0.124 S 
ATOM     94  O   UNL A   1      54.705  25.536  26.319  1.00  0.00    -0.237 OA
ATOM     95  O   UNL A   1      53.772  23.657  25.015  1.00  0.00    -0.237 OA
ATOM     96  O   UNL A   1      54.211  25.819  23.918  1.00  0.00    -0.744 OA
ENDBRANCH  92  93
ENDBRANCH  66  87
ENDBRANCH  40  41
ENDBRANCH  33  35
ENDBRANCH  32  33
ENDBRANCH  31  32
ENDBRANCH  30  31
ENDBRANCH  29  30
ENDBRANCH   1  29
TORSDOF 22
ENDMDL
