MODEL 1
REMARK VINA RESULT:     -11.3      0.000      0.000
REMARK SMILES CSCC[C@@H](C(=O)OCCOC(=O)c1ccc(-c2c3nc(c(-c4ccc(S(=O)(=O)[O-])cc4)c4ccc([nH]4)c(-c4ccc(S(=O)(=O)[O-])cc4)c4nc(c(-c5ccc(S(=O)(=O)[O-])cc5)c5ccc2[nH]5)C=C4)C=C3)cc1)N1C(=O)/C(=C/c2ccc(-c3ccccc3Cl)o2)SC1=S
REMARK SMILES IDX 9 1 8 2 6 3 7 4 5 5 4 6 3 7 2 8 1 9 74 10 75 11 92 12 76 13
REMARK SMILES IDX 77 14 91 15 93 16 78 17 79 18 80 19 90 20 81 21 82 22 83 23
REMARK SMILES IDX 84 24 88 25 85 26 87 27 89 28 86 29 10 30 11 31 12 32 13 33
REMARK SMILES IDX 14 34 15 35 73 36 16 37 72 38 17 39 18 40 19 41 66 42 20 43
REMARK SMILES IDX 71 44 65 45 67 46 21 47 70 48 64 49 63 50 22 52 52 53 33 54
REMARK SMILES IDX 51 55 34 56 37 57 50 58 68 59 35 60 36 61 49 63 69 64 38 65
REMARK SMILES IDX 23 66 24 67 32 68 25 69 31 70 26 71 27 72 28 73 29 74 30 75
REMARK SMILES IDX 53 76 54 77 62 78 55 79 61 80 56 81 57 82 58 83 59 84 60 85
REMARK SMILES IDX 39 86 40 87 48 88 41 89 47 90 42 91 43 92 44 93 45 94 46 95
REMARK H PARENT 67 51 37 62
REMARK Flexibility Score: inf
ROOT
ATOM      1  C   UNL A   1      32.746  30.244  27.097  1.00  0.00     0.274 C 
ENDROOT
BRANCH   1   2
ATOM      2  O   UNL A   1      32.700  29.960  25.682  1.00  0.00    -0.461 OA
BRANCH   2   3
ATOM      3  C   UNL A   1      31.529  30.190  25.031  1.00  0.00     0.329 C 
ATOM      4  O   UNL A   1      30.668  30.964  25.433  1.00  0.00    -0.250 OA
BRANCH   3   5
ATOM      5  C   UNL A   1      31.326  29.277  23.806  1.00  0.00     0.202 C 
BRANCH   5   6
ATOM      6  C   UNL A   1      29.901  29.251  23.230  1.00  0.00     0.048 C 
BRANCH   6   7
ATOM      7  C   UNL A   1      29.707  29.987  21.892  1.00  0.00     0.072 C 
BRANCH   7   8
ATOM      8  S   UNL A   1      28.523  31.383  21.899  1.00  0.00    -0.165 SA
ATOM      9  C   UNL A   1      27.725  31.160  23.517  1.00  0.00     0.085 C 
ENDBRANCH   7   8
ENDBRANCH   6   7
ENDBRANCH   5   6
BRANCH   5  10
ATOM     10  N   UNL A   1      31.924  27.941  24.086  1.00  0.00    -0.278 N 
ATOM     11  C   UNL A   1      31.255  26.988  24.841  1.00  0.00     0.267 C 
ATOM     12  C   UNL A   1      33.222  27.619  23.721  1.00  0.00     0.149 C 
ATOM     13  O   UNL A   1      30.125  27.100  25.291  1.00  0.00    -0.268 OA
ATOM     14  C   UNL A   1      32.135  25.813  25.115  1.00  0.00     0.084 C 
ATOM     15  S   UNL A   1      33.655  26.045  24.350  1.00  0.00    -0.054 SA
ATOM     16  S   UNL A   1      34.308  28.505  22.809  1.00  0.00    -0.052 S 
ATOM     17  C   UNL A   1      31.757  24.787  25.894  1.00  0.00     0.068 C 
BRANCH  17  18
ATOM     18  C   UNL A   1      32.651  23.775  26.358  1.00  0.00     0.128 A 
ATOM     19  C   UNL A   1      32.462  22.833  27.366  1.00  0.00     0.051 A 
ATOM     20  O   UNL A   1      33.884  23.517  25.788  1.00  0.00    -0.457 OA
ATOM     21  C   UNL A   1      33.585  21.986  27.402  1.00  0.00     0.051 A 
ATOM     22  C   UNL A   1      34.450  22.467  26.452  1.00  0.00     0.136 A 
BRANCH  22  23
ATOM     23  C   UNL A   1      35.790  22.052  26.073  1.00  0.00     0.036 A 
ATOM     24  C   UNL A   1      36.862  22.914  26.363  1.00  0.00     0.013 A 
ATOM     25  C   UNL A   1      36.047  20.901  25.311  1.00  0.00     0.052 A 
ATOM     26  C   UNL A   1      38.154  22.641  25.908  1.00  0.00     0.001 A 
ATOM     27  C   UNL A   1      37.343  20.635  24.847  1.00  0.00     0.021 A 
ATOM     28  Cl  UNL A   1      34.796  19.804  24.830  1.00  0.00    -0.084 Cl
ATOM     29  C   UNL A   1      38.392  21.505  25.142  1.00  0.00     0.002 A 
ENDBRANCH  22  23
ENDBRANCH  17  18
ENDBRANCH   5  10
ENDBRANCH   3   5
ENDBRANCH   2   3
ENDBRANCH   1   2
BRANCH   1  30
ATOM     30  C   UNL A   1      34.030  30.982  27.459  1.00  0.00     0.275 C 
BRANCH  30  31
ATOM     31  O   UNL A   1      34.956  30.054  28.040  1.00  0.00    -0.458 OA
BRANCH  31  32
ATOM     32  C   UNL A   1      35.801  30.571  28.961  1.00  0.00     0.338 C 
ATOM     33  O   UNL A   1      35.541  31.377  29.836  1.00  0.00    -0.246 OA
BRANCH  32  34
ATOM     34  C   UNL A   1      37.122  29.960  28.759  1.00  0.00     0.060 A 
ATOM     35  C   UNL A   1      37.824  29.486  29.863  1.00  0.00     0.016 A 
ATOM     36  C   UNL A   1      37.696  29.918  27.490  1.00  0.00     0.016 A 
ATOM     37  C   UNL A   1      39.132  29.045  29.717  1.00  0.00     0.010 A 
ATOM     38  C   UNL A   1      38.982  29.391  27.337  1.00  0.00     0.010 A 
ATOM     39  C   UNL A   1      39.735  28.983  28.453  1.00  0.00    -0.014 A 
BRANCH  39  40
ATOM     40  C   UNL A   1      41.160  28.559  28.313  1.00  0.00     0.031 A 
ATOM     41  C   UNL A   1      42.271  29.549  28.564  1.00  0.00     0.074 A 
ATOM     42  C   UNL A   1      41.483  27.283  28.022  1.00  0.00     0.049 A 
ATOM     43  N   UNL A   1      43.547  29.448  28.288  1.00  0.00    -0.248 NA
ATOM     44  C   UNL A   1      41.892  30.821  29.197  1.00  0.00     0.031 C 
ATOM     45  C   UNL A   1      40.537  26.179  27.857  1.00  0.00     0.029 A 
ATOM     46  N   UNL A   1      42.712  26.690  27.849  1.00  0.00    -0.354 N 
ATOM     47  C   UNL A   1      44.108  30.668  28.651  1.00  0.00     0.074 A 
ATOM     48  C   UNL A   1      43.036  31.488  29.171  1.00  0.00     0.031 C 
ATOM     49  C   UNL A   1      41.216  25.039  27.671  1.00  0.00     0.029 A 
ATOM     50  C   UNL A   1      42.639  25.346  27.572  1.00  0.00     0.049 A 
ATOM     51  H   UNL A   1      43.562  27.181  27.916  1.00  0.00     0.167 HD
ATOM     52  C   UNL A   1      45.397  31.072  28.549  1.00  0.00     0.031 A 
ATOM     53  C   UNL A   1      43.590  24.462  27.211  1.00  0.00     0.031 A 
ATOM     54  C   UNL A   1      46.470  30.236  28.081  1.00  0.00     0.049 A 
ATOM     55  C   UNL A   1      45.003  24.939  27.038  1.00  0.00     0.074 A 
ATOM     56  C   UNL A   1      47.813  30.545  27.962  1.00  0.00     0.029 A 
ATOM     57  N   UNL A   1      46.324  28.920  27.675  1.00  0.00    -0.354 N 
ATOM     58  N   UNL A   1      45.497  26.135  27.250  1.00  0.00    -0.248 NA
ATOM     59  C   UNL A   1      45.979  23.957  26.547  1.00  0.00     0.031 C 
ATOM     60  C   UNL A   1      48.478  29.415  27.472  1.00  0.00     0.029 A 
ATOM     61  C   UNL A   1      47.556  28.388  27.338  1.00  0.00     0.049 A 
ATOM     62  H   UNL A   1      45.468  28.434  27.632  1.00  0.00     0.167 HD
ATOM     63  C   UNL A   1      46.841  26.054  26.905  1.00  0.00     0.074 A 
ATOM     64  C   UNL A   1      47.089  24.684  26.500  1.00  0.00     0.031 C 
ATOM     65  C   UNL A   1      47.783  27.029  26.919  1.00  0.00     0.031 A 
BRANCH  52  66
ATOM     66  C   UNL A   1      45.701  32.505  28.896  1.00  0.00    -0.014 A 
ATOM     67  C   UNL A   1      45.585  33.541  27.951  1.00  0.00     0.010 A 
ATOM     68  C   UNL A   1      46.117  32.816  30.204  1.00  0.00     0.010 A 
ATOM     69  C   UNL A   1      45.940  34.851  28.293  1.00  0.00     0.020 A 
ATOM     70  C   UNL A   1      46.448  34.127  30.557  1.00  0.00     0.020 A 
ATOM     71  C   UNL A   1      46.382  35.132  29.591  1.00  0.00     0.054 A 
BRANCH  71  72
ATOM     72  S   UNL A   1      46.865  36.831  30.007  1.00  0.00     0.124 S 
ATOM     73  O   UNL A   1      47.156  37.391  28.690  1.00  0.00    -0.237 OA
ATOM     74  O   UNL A   1      45.668  37.355  30.662  1.00  0.00    -0.237 OA
ATOM     75  O   UNL A   1      48.023  36.657  30.880  1.00  0.00    -0.744 OA
ENDBRANCH  71  72
ENDBRANCH  52  66
BRANCH  53  76
ATOM     76  C   UNL A   1      43.193  23.061  26.899  1.00  0.00    -0.014 A 
ATOM     77  C   UNL A   1      43.364  22.530  25.611  1.00  0.00     0.010 A 
ATOM     78  C   UNL A   1      42.728  22.221  27.931  1.00  0.00     0.010 A 
ATOM     79  C   UNL A   1      43.105  21.176  25.366  1.00  0.00     0.020 A 
ATOM     80  C   UNL A   1      42.500  20.863  27.698  1.00  0.00     0.020 A 
ATOM     81  C   UNL A   1      42.691  20.348  26.415  1.00  0.00     0.054 A 
BRANCH  81  82
ATOM     82  S   UNL A   1      42.493  18.569  26.116  1.00  0.00     0.124 S 
ATOM     83  O   UNL A   1      41.078  18.476  25.771  1.00  0.00    -0.237 OA
ATOM     84  O   UNL A   1      43.429  18.323  25.022  1.00  0.00    -0.237 OA
ATOM     85  O   UNL A   1      42.871  17.968  27.393  1.00  0.00    -0.744 OA
ENDBRANCH  81  82
ENDBRANCH  53  76
BRANCH  65  86
ATOM     86  C   UNL A   1      49.177  26.652  26.506  1.00  0.00    -0.014 A 
ATOM     87  C   UNL A   1      50.041  25.990  27.395  1.00  0.00     0.010 A 
ATOM     88  C   UNL A   1      49.601  26.897  25.187  1.00  0.00     0.010 A 
ATOM     89  C   UNL A   1      51.310  25.584  26.972  1.00  0.00     0.020 A 
ATOM     90  C   UNL A   1      50.859  26.474  24.756  1.00  0.00     0.020 A 
ATOM     91  C   UNL A   1      51.709  25.826  25.654  1.00  0.00     0.054 A 
BRANCH  91  92
ATOM     92  S   UNL A   1      53.333  25.227  25.109  1.00  0.00     0.124 S 
ATOM     93  O   UNL A   1      53.243  23.799  25.403  1.00  0.00    -0.237 OA
ATOM     94  O   UNL A   1      53.345  25.578  23.691  1.00  0.00    -0.237 OA
ATOM     95  O   UNL A   1      54.273  25.976  25.939  1.00  0.00    -0.744 OA
ENDBRANCH  91  92
ENDBRANCH  65  86
ENDBRANCH  39  40
ENDBRANCH  32  34
ENDBRANCH  31  32
ENDBRANCH  30  31
ENDBRANCH   1  30
TORSDOF 20
ENDMDL
MODEL 2
REMARK VINA RESULT:     -11.0      1.654      8.088
REMARK SMILES CSCC[C@@H](C(=O)OCCOC(=O)c1ccc(-c2c3nc(c(-c4ccc(S(=O)(=O)[O-])cc4)c4ccc([nH]4)c(-c4ccc(S(=O)(=O)[O-])cc4)c4nc(c(-c5ccc(S(=O)(=O)[O-])cc5)c5ccc2[nH]5)C=C4)C=C3)cc1)N1C(=O)/C(=C/c2ccc(-c3ccccc3Cl)o2)SC1=S
REMARK SMILES IDX 9 1 8 2 6 3 7 4 5 5 4 6 3 7 2 8 1 9 74 10 75 11 92 12 76 13
REMARK SMILES IDX 77 14 91 15 93 16 78 17 79 18 80 19 90 20 81 21 82 22 83 23
REMARK SMILES IDX 84 24 88 25 85 26 87 27 89 28 86 29 10 30 11 31 12 32 13 33
REMARK SMILES IDX 14 34 15 35 73 36 16 37 72 38 17 39 18 40 19 41 66 42 20 43
REMARK SMILES IDX 71 44 65 45 67 46 21 47 70 48 64 49 63 50 22 52 52 53 33 54
REMARK SMILES IDX 51 55 34 56 37 57 50 58 68 59 35 60 36 61 49 63 69 64 38 65
REMARK SMILES IDX 23 66 24 67 32 68 25 69 31 70 26 71 27 72 28 73 29 74 30 75
REMARK SMILES IDX 53 76 54 77 62 78 55 79 61 80 56 81 57 82 58 83 59 84 60 85
REMARK SMILES IDX 39 86 40 87 48 88 41 89 47 90 42 91 43 92 44 93 45 94 46 95
REMARK H PARENT 67 51 37 62
REMARK Flexibility Score: inf
ROOT
ATOM      1  C   UNL A   1      34.150  28.780  26.957  1.00  0.00     0.274 C 
ENDROOT
BRANCH   1   2
ATOM      2  O   UNL A   1      33.674  29.324  25.707  1.00  0.00    -0.461 OA
BRANCH   2   3
ATOM      3  C   UNL A   1      32.340  29.552  25.586  1.00  0.00     0.329 C 
ATOM      4  O   UNL A   1      31.665  30.113  26.443  1.00  0.00    -0.250 OA
BRANCH   3   5
ATOM      5  C   UNL A   1      31.725  28.911  24.327  1.00  0.00     0.202 C 
BRANCH   5   6
ATOM      6  C   UNL A   1      30.283  29.334  24.006  1.00  0.00     0.048 C 
BRANCH   6   7
ATOM      7  C   UNL A   1      30.006  29.706  22.538  1.00  0.00     0.072 C 
BRANCH   7   8
ATOM      8  S   UNL A   1      28.300  30.242  22.145  1.00  0.00    -0.165 SA
ATOM      9  C   UNL A   1      27.325  29.052  23.114  1.00  0.00     0.085 C 
ENDBRANCH   7   8
ENDBRANCH   6   7
ENDBRANCH   5   6
BRANCH   5  10
ATOM     10  N   UNL A   1      31.966  27.441  24.358  1.00  0.00    -0.278 N 
ATOM     11  C   UNL A   1      31.443  26.639  25.361  1.00  0.00     0.267 C 
ATOM     12  C   UNL A   1      32.823  26.811  23.468  1.00  0.00     0.149 C 
ATOM     13  O   UNL A   1      30.705  27.013  26.261  1.00  0.00    -0.268 OA
ATOM     14  C   UNL A   1      31.969  25.245  25.257  1.00  0.00     0.084 C 
ATOM     15  S   UNL A   1      33.004  25.124  23.892  1.00  0.00    -0.054 SA
ATOM     16  S   UNL A   1      33.615  27.450  22.140  1.00  0.00    -0.052 S 
ATOM     17  C   UNL A   1      31.682  24.291  26.157  1.00  0.00     0.068 C 
BRANCH  17  18
ATOM     18  C   UNL A   1      32.350  23.030  26.212  1.00  0.00     0.128 A 
ATOM     19  C   UNL A   1      33.373  22.615  27.061  1.00  0.00     0.051 A 
ATOM     20  O   UNL A   1      32.005  21.942  25.432  1.00  0.00    -0.457 OA
ATOM     21  C   UNL A   1      33.645  21.259  26.804  1.00  0.00     0.051 A 
ATOM     22  C   UNL A   1      32.818  20.899  25.770  1.00  0.00     0.136 A 
BRANCH  22  23
ATOM     23  C   UNL A   1      32.689  19.654  25.030  1.00  0.00     0.036 A 
ATOM     24  C   UNL A   1      32.942  18.448  25.707  1.00  0.00     0.013 A 
ATOM     25  C   UNL A   1      32.459  19.607  23.646  1.00  0.00     0.052 A 
ATOM     26  C   UNL A   1      32.969  17.229  25.027  1.00  0.00     0.001 A 
ATOM     27  C   UNL A   1      32.496  18.383  22.965  1.00  0.00     0.021 A 
ATOM     28  Cl  UNL A   1      32.207  21.033  22.695  1.00  0.00    -0.084 Cl
ATOM     29  C   UNL A   1      32.754  17.198  23.653  1.00  0.00     0.002 A 
ENDBRANCH  22  23
ENDBRANCH  17  18
ENDBRANCH   5  10
ENDBRANCH   3   5
ENDBRANCH   2   3
ENDBRANCH   1   2
BRANCH   1  30
ATOM     30  C   UNL A   1      35.113  29.748  27.636  1.00  0.00     0.275 C 
BRANCH  30  31
ATOM     31  O   UNL A   1      35.935  29.020  28.559  1.00  0.00    -0.458 OA
BRANCH  31  32
ATOM     32  C   UNL A   1      36.642  29.774  29.432  1.00  0.00     0.338 C 
ATOM     33  O   UNL A   1      36.214  30.414  30.375  1.00  0.00    -0.246 OA
BRANCH  32  34
ATOM     34  C   UNL A   1      38.063  29.669  29.074  1.00  0.00     0.060 A 
ATOM     35  C   UNL A   1      38.428  29.718  27.731  1.00  0.00     0.016 A 
ATOM     36  C   UNL A   1      39.026  29.451  30.056  1.00  0.00     0.016 A 
ATOM     37  C   UNL A   1      39.741  29.468  27.359  1.00  0.00     0.010 A 
ATOM     38  C   UNL A   1      40.364  29.287  29.680  1.00  0.00     0.010 A 
ATOM     39  C   UNL A   1      40.736  29.254  28.323  1.00  0.00    -0.014 A 
BRANCH  39  40
ATOM     40  C   UNL A   1      42.134  28.932  27.912  1.00  0.00     0.031 A 
ATOM     41  C   UNL A   1      42.497  27.526  27.502  1.00  0.00     0.074 A 
ATOM     42  C   UNL A   1      43.079  29.891  27.840  1.00  0.00     0.049 A 
ATOM     43  N   UNL A   1      43.680  26.995  27.324  1.00  0.00    -0.248 NA
ATOM     44  C   UNL A   1      41.381  26.595  27.274  1.00  0.00     0.031 C 
ATOM     45  C   UNL A   1      42.869  31.317  28.096  1.00  0.00     0.029 A 
ATOM     46  N   UNL A   1      44.407  29.813  27.492  1.00  0.00    -0.354 N 
ATOM     47  C   UNL A   1      43.452  25.655  27.032  1.00  0.00     0.074 A 
ATOM     48  C   UNL A   1      42.019  25.457  27.050  1.00  0.00     0.031 C 
ATOM     49  C   UNL A   1      44.002  31.984  27.836  1.00  0.00     0.029 A 
ATOM     50  C   UNL A   1      45.055  31.024  27.522  1.00  0.00     0.049 A 
ATOM     51  H   UNL A   1      44.851  28.970  27.244  1.00  0.00     0.167 HD
ATOM     52  C   UNL A   1      44.354  24.675  26.783  1.00  0.00     0.031 A 
ATOM     53  C   UNL A   1      46.359  31.336  27.385  1.00  0.00     0.031 A 
ATOM     54  C   UNL A   1      45.775  24.886  26.713  1.00  0.00     0.049 A 
ATOM     55  C   UNL A   1      47.356  30.233  27.174  1.00  0.00     0.074 A 
ATOM     56  C   UNL A   1      46.771  23.964  26.445  1.00  0.00     0.029 A 
ATOM     57  N   UNL A   1      46.400  26.109  26.893  1.00  0.00    -0.354 N 
ATOM     58  N   UNL A   1      47.140  28.947  27.039  1.00  0.00    -0.248 NA
ATOM     59  C   UNL A   1      48.773  30.619  27.130  1.00  0.00     0.031 C 
ATOM     60  C   UNL A   1      48.001  24.630  26.473  1.00  0.00     0.029 A 
ATOM     61  C   UNL A   1      47.765  25.976  26.707  1.00  0.00     0.049 A 
ATOM     62  H   UNL A   1      45.941  26.950  27.121  1.00  0.00     0.167 HD
ATOM     63  C   UNL A   1      48.396  28.365  26.907  1.00  0.00     0.074 A 
ATOM     64  C   UNL A   1      49.364  29.444  26.949  1.00  0.00     0.031 C 
ATOM     65  C   UNL A   1      48.716  27.056  26.769  1.00  0.00     0.031 A 
BRANCH  52  66
ATOM     66  C   UNL A   1      43.827  23.273  26.629  1.00  0.00    -0.014 A 
ATOM     67  C   UNL A   1      43.100  22.635  27.649  1.00  0.00     0.010 A 
ATOM     68  C   UNL A   1      44.073  22.581  25.428  1.00  0.00     0.010 A 
ATOM     69  C   UNL A   1      42.684  21.307  27.494  1.00  0.00     0.020 A 
ATOM     70  C   UNL A   1      43.637  21.265  25.259  1.00  0.00     0.020 A 
ATOM     71  C   UNL A   1      42.967  20.627  26.304  1.00  0.00     0.054 A 
BRANCH  71  72
ATOM     72  S   UNL A   1      42.444  18.898  26.133  1.00  0.00     0.124 S 
ATOM     73  O   UNL A   1      41.062  19.045  25.687  1.00  0.00    -0.237 OA
ATOM     74  O   UNL A   1      43.375  18.377  25.135  1.00  0.00    -0.237 OA
ATOM     75  O   UNL A   1      42.610  18.352  27.478  1.00  0.00    -0.744 OA
ENDBRANCH  71  72
ENDBRANCH  52  66
BRANCH  53  76
ATOM     76  C   UNL A   1      46.784  32.754  27.542  1.00  0.00    -0.014 A 
ATOM     77  C   UNL A   1      46.830  33.623  26.440  1.00  0.00     0.010 A 
ATOM     78  C   UNL A   1      47.052  33.264  28.828  1.00  0.00     0.010 A 
ATOM     79  C   UNL A   1      47.108  34.982  26.624  1.00  0.00     0.020 A 
ATOM     80  C   UNL A   1      47.297  34.626  29.019  1.00  0.00     0.020 A 
ATOM     81  C   UNL A   1      47.323  35.478  27.914  1.00  0.00     0.054 A 
BRANCH  81  82
ATOM     82  S   UNL A   1      47.544  37.263  28.153  1.00  0.00     0.124 S 
ATOM     83  O   UNL A   1      46.509  37.815  27.285  1.00  0.00    -0.237 OA
ATOM     84  O   UNL A   1      47.319  37.423  29.588  1.00  0.00    -0.237 OA
ATOM     85  O   UNL A   1      48.920  37.494  27.720  1.00  0.00    -0.744 OA
ENDBRANCH  81  82
ENDBRANCH  53  76
BRANCH  65  86
ATOM     86  C   UNL A   1      50.171  26.709  26.629  1.00  0.00    -0.014 A 
ATOM     87  C   UNL A   1      50.992  26.559  27.760  1.00  0.00     0.010 A 
ATOM     88  C   UNL A   1      50.705  26.455  25.352  1.00  0.00     0.010 A 
ATOM     89  C   UNL A   1      52.325  26.167  27.615  1.00  0.00     0.020 A 
ATOM     90  C   UNL A   1      52.031  26.044  25.206  1.00  0.00     0.020 A 
ATOM     91  C   UNL A   1      52.835  25.909  26.339  1.00  0.00     0.054 A 
BRANCH  91  92
ATOM     92  S   UNL A   1      54.549  25.334  26.182  1.00  0.00     0.124 S 
ATOM     93  O   UNL A   1      54.837  24.870  27.537  1.00  0.00    -0.237 OA
ATOM     94  O   UNL A   1      54.445  24.289  25.167  1.00  0.00    -0.237 OA
ATOM     95  O   UNL A   1      55.277  26.530  25.764  1.00  0.00    -0.744 OA
ENDBRANCH  91  92
ENDBRANCH  65  86
ENDBRANCH  39  40
ENDBRANCH  32  34
ENDBRANCH  31  32
ENDBRANCH  30  31
ENDBRANCH   1  30
TORSDOF 20
ENDMDL
MODEL 3
REMARK VINA RESULT:     -10.3      5.226      9.172
REMARK SMILES CSCC[C@@H](C(=O)OCCOC(=O)c1ccc(-c2c3nc(c(-c4ccc(S(=O)(=O)[O-])cc4)c4ccc([nH]4)c(-c4ccc(S(=O)(=O)[O-])cc4)c4nc(c(-c5ccc(S(=O)(=O)[O-])cc5)c5ccc2[nH]5)C=C4)C=C3)cc1)N1C(=O)/C(=C/c2ccc(-c3ccccc3Cl)o2)SC1=S
REMARK SMILES IDX 9 1 8 2 6 3 7 4 5 5 4 6 3 7 2 8 1 9 74 10 75 11 92 12 76 13
REMARK SMILES IDX 77 14 91 15 93 16 78 17 79 18 80 19 90 20 81 21 82 22 83 23
REMARK SMILES IDX 84 24 88 25 85 26 87 27 89 28 86 29 10 30 11 31 12 32 13 33
REMARK SMILES IDX 14 34 15 35 73 36 16 37 72 38 17 39 18 40 19 41 66 42 20 43
REMARK SMILES IDX 71 44 65 45 67 46 21 47 70 48 64 49 63 50 22 52 52 53 33 54
REMARK SMILES IDX 51 55 34 56 37 57 50 58 68 59 35 60 36 61 49 63 69 64 38 65
REMARK SMILES IDX 23 66 24 67 32 68 25 69 31 70 26 71 27 72 28 73 29 74 30 75
REMARK SMILES IDX 53 76 54 77 62 78 55 79 61 80 56 81 57 82 58 83 59 84 60 85
REMARK SMILES IDX 39 86 40 87 48 88 41 89 47 90 42 91 43 92 44 93 45 94 46 95
REMARK H PARENT 67 51 37 62
REMARK Flexibility Score: inf
ROOT
ATOM      1  C   UNL A   1      33.954  28.500  26.121  1.00  0.00     0.274 C 
ENDROOT
BRANCH   1   2
ATOM      2  O   UNL A   1      33.391  29.178  24.977  1.00  0.00    -0.461 OA
BRANCH   2   3
ATOM      3  C   UNL A   1      32.038  29.290  24.914  1.00  0.00     0.329 C 
ATOM      4  O   UNL A   1      31.368  29.918  25.726  1.00  0.00    -0.250 OA
BRANCH   3   5
ATOM      5  C   UNL A   1      31.409  28.432  23.798  1.00  0.00     0.202 C 
BRANCH   5   6
ATOM      6  C   UNL A   1      29.920  28.694  23.523  1.00  0.00     0.048 C 
BRANCH   6   7
ATOM      7  C   UNL A   1      29.613  29.649  22.355  1.00  0.00     0.072 C 
BRANCH   7   8
ATOM      8  S   UNL A   1      28.053  30.599  22.473  1.00  0.00    -0.165 SA
ATOM      9  C   UNL A   1      28.649  32.170  23.167  1.00  0.00     0.085 C 
ENDBRANCH   7   8
ENDBRANCH   6   7
ENDBRANCH   5   6
BRANCH   5  10
ATOM     10  N   UNL A   1      31.776  27.004  24.012  1.00  0.00    -0.278 N 
ATOM     11  C   UNL A   1      31.306  26.288  25.104  1.00  0.00     0.267 C 
ATOM     12  C   UNL A   1      32.699  26.348  23.213  1.00  0.00     0.149 C 
ATOM     13  O   UNL A   1      30.522  26.703  25.945  1.00  0.00    -0.268 OA
ATOM     14  C   UNL A   1      31.952  24.944  25.176  1.00  0.00     0.084 C 
ATOM     15  S   UNL A   1      33.018  24.748  23.844  1.00  0.00    -0.054 SA
ATOM     16  S   UNL A   1      33.456  26.887  21.823  1.00  0.00    -0.052 S 
ATOM     17  C   UNL A   1      31.733  24.085  26.185  1.00  0.00     0.068 C 
BRANCH  17  18
ATOM     18  C   UNL A   1      32.507  22.904  26.400  1.00  0.00     0.128 A 
ATOM     19  C   UNL A   1      33.322  22.574  27.480  1.00  0.00     0.051 A 
ATOM     20  O   UNL A   1      32.499  21.814  25.550  1.00  0.00    -0.457 OA
ATOM     21  C   UNL A   1      33.806  21.266  27.292  1.00  0.00     0.051 A 
ATOM     22  C   UNL A   1      33.316  20.856  26.077  1.00  0.00     0.136 A 
BRANCH  22  23
ATOM     23  C   UNL A   1      33.523  19.632  25.320  1.00  0.00     0.036 A 
ATOM     24  C   UNL A   1      32.450  18.733  25.200  1.00  0.00     0.013 A 
ATOM     25  C   UNL A   1      34.778  19.244  24.824  1.00  0.00     0.052 A 
ATOM     26  C   UNL A   1      32.618  17.481  24.605  1.00  0.00     0.001 A 
ATOM     27  C   UNL A   1      34.946  17.983  24.236  1.00  0.00     0.021 A 
ATOM     28  Cl  UNL A   1      36.189  20.237  24.979  1.00  0.00    -0.084 Cl
ATOM     29  C   UNL A   1      33.869  17.102  24.130  1.00  0.00     0.002 A 
ENDBRANCH  22  23
ENDBRANCH  17  18
ENDBRANCH   5  10
ENDBRANCH   3   5
ENDBRANCH   2   3
ENDBRANCH   1   2
BRANCH   1  30
ATOM     30  C   UNL A   1      34.953  29.397  26.843  1.00  0.00     0.275 C 
BRANCH  30  31
ATOM     31  O   UNL A   1      34.279  30.093  27.900  1.00  0.00    -0.458 OA
BRANCH  31  32
ATOM     32  C   UNL A   1      34.912  31.192  28.373  1.00  0.00     0.338 C 
ATOM     33  O   UNL A   1      34.486  32.332  28.413  1.00  0.00    -0.246 OA
BRANCH  32  34
ATOM     34  C   UNL A   1      36.224  30.775  28.882  1.00  0.00     0.060 A 
ATOM     35  C   UNL A   1      36.301  29.679  29.738  1.00  0.00     0.016 A 
ATOM     36  C   UNL A   1      37.369  31.505  28.572  1.00  0.00     0.016 A 
ATOM     37  C   UNL A   1      37.505  29.360  30.351  1.00  0.00     0.010 A 
ATOM     38  C   UNL A   1      38.596  31.124  29.126  1.00  0.00     0.010 A 
ATOM     39  C   UNL A   1      38.676  30.070  30.054  1.00  0.00    -0.014 A 
BRANCH  39  40
ATOM     40  C   UNL A   1      39.953  29.755  30.759  1.00  0.00     0.031 A 
ATOM     41  C   UNL A   1      40.869  28.683  30.221  1.00  0.00     0.074 A 
ATOM     42  C   UNL A   1      40.343  30.455  31.843  1.00  0.00     0.049 A 
ATOM     43  N   UNL A   1      41.899  28.112  30.793  1.00  0.00    -0.248 NA
ATOM     44  C   UNL A   1      40.577  28.181  28.870  1.00  0.00     0.031 C 
ATOM     45  C   UNL A   1      39.631  31.593  32.427  1.00  0.00     0.029 A 
ATOM     46  N   UNL A   1      41.464  30.331  32.631  1.00  0.00    -0.354 N 
ATOM     47  C   UNL A   1      42.334  27.139  29.898  1.00  0.00     0.074 A 
ATOM     48  C   UNL A   1      41.461  27.202  28.747  1.00  0.00     0.031 C 
ATOM     49  C   UNL A   1      40.357  32.100  33.432  1.00  0.00     0.029 A 
ATOM     50  C   UNL A   1      41.520  31.248  33.653  1.00  0.00     0.049 A 
ATOM     51  H   UNL A   1      42.158  29.651  32.478  1.00  0.00     0.167 HD
ATOM     52  C   UNL A   1      43.361  26.264  30.030  1.00  0.00     0.031 A 
ATOM     53  C   UNL A   1      42.366  31.362  34.697  1.00  0.00     0.031 A 
ATOM     54  C   UNL A   1      44.260  26.239  31.152  1.00  0.00     0.049 A 
ATOM     55  C   UNL A   1      43.460  30.347  34.866  1.00  0.00     0.074 A 
ATOM     56  C   UNL A   1      45.344  25.407  31.369  1.00  0.00     0.029 A 
ATOM     57  N   UNL A   1      44.192  27.098  32.236  1.00  0.00    -0.354 N 
ATOM     58  N   UNL A   1      43.774  29.342  34.084  1.00  0.00    -0.248 NA
ATOM     59  C   UNL A   1      44.289  30.460  36.073  1.00  0.00     0.031 C 
ATOM     60  C   UNL A   1      45.925  25.758  32.592  1.00  0.00     0.029 A 
ATOM     61  C   UNL A   1      45.234  26.843  33.110  1.00  0.00     0.049 A 
ATOM     62  H   UNL A   1      43.502  27.789  32.367  1.00  0.00     0.167 HD
ATOM     63  C   UNL A   1      44.832  28.694  34.710  1.00  0.00     0.074 A 
ATOM     64  C   UNL A   1      45.122  29.438  35.920  1.00  0.00     0.031 C 
ATOM     65  C   UNL A   1      45.498  27.580  34.319  1.00  0.00     0.031 A 
BRANCH  52  66
ATOM     66  C   UNL A   1      43.522  25.223  28.955  1.00  0.00    -0.014 A 
ATOM     67  C   UNL A   1      44.380  25.411  27.858  1.00  0.00     0.010 A 
ATOM     68  C   UNL A   1      42.788  24.026  29.052  1.00  0.00     0.010 A 
ATOM     69  C   UNL A   1      44.453  24.448  26.845  1.00  0.00     0.020 A 
ATOM     70  C   UNL A   1      42.877  23.050  28.056  1.00  0.00     0.020 A 
ATOM     71  C   UNL A   1      43.690  23.279  26.945  1.00  0.00     0.054 A 
BRANCH  71  72
ATOM     72  S   UNL A   1      43.776  22.055  25.609  1.00  0.00     0.124 S 
ATOM     73  O   UNL A   1      43.088  20.912  26.204  1.00  0.00    -0.237 OA
ATOM     74  O   UNL A   1      43.065  22.718  24.518  1.00  0.00    -0.237 OA
ATOM     75  O   UNL A   1      45.211  21.876  25.395  1.00  0.00    -0.744 OA
ENDBRANCH  71  72
ENDBRANCH  52  66
BRANCH  53  76
ATOM     76  C   UNL A   1      42.131  32.434  35.703  1.00  0.00    -0.014 A 
ATOM     77  C   UNL A   1      42.671  33.718  35.531  1.00  0.00     0.010 A 
ATOM     78  C   UNL A   1      41.278  32.189  36.798  1.00  0.00     0.010 A 
ATOM     79  C   UNL A   1      42.338  34.748  36.419  1.00  0.00     0.020 A 
ATOM     80  C   UNL A   1      40.918  33.222  37.666  1.00  0.00     0.020 A 
ATOM     81  C   UNL A   1      41.450  34.497  37.471  1.00  0.00     0.054 A 
BRANCH  81  82
ATOM     82  S   UNL A   1      40.918  35.871  38.530  1.00  0.00     0.124 S 
ATOM     83  O   UNL A   1      40.232  36.739  37.578  1.00  0.00    -0.237 OA
ATOM     84  O   UNL A   1      40.064  35.206  39.511  1.00  0.00    -0.237 OA
ATOM     85  O   UNL A   1      42.174  36.391  39.065  1.00  0.00    -0.744 OA
ENDBRANCH  81  82
ENDBRANCH  53  76
BRANCH  65  86
ATOM     86  C   UNL A   1      46.624  27.104  35.192  1.00  0.00    -0.014 A 
ATOM     87  C   UNL A   1      46.405  26.149  36.199  1.00  0.00     0.010 A 
ATOM     88  C   UNL A   1      47.933  27.561  34.949  1.00  0.00     0.010 A 
ATOM     89  C   UNL A   1      47.476  25.665  36.956  1.00  0.00     0.020 A 
ATOM     90  C   UNL A   1      49.007  27.064  35.688  1.00  0.00     0.020 A 
ATOM     91  C   UNL A   1      48.771  26.123  36.692  1.00  0.00     0.054 A 
BRANCH  91  92
ATOM     92  S   UNL A   1      50.153  25.427  37.639  1.00  0.00     0.124 S 
ATOM     93  O   UNL A   1      49.501  24.352  38.382  1.00  0.00    -0.237 OA
ATOM     94  O   UNL A   1      51.076  24.998  36.591  1.00  0.00    -0.237 OA
ATOM     95  O   UNL A   1      50.617  26.552  38.448  1.00  0.00    -0.744 OA
ENDBRANCH  91  92
ENDBRANCH  65  86
ENDBRANCH  39  40
ENDBRANCH  32  34
ENDBRANCH  31  32
ENDBRANCH  30  31
ENDBRANCH   1  30
TORSDOF 20
ENDMDL
