MODEL 1
REMARK VINA RESULT:      -9.7      0.000      0.000
REMARK SMILES CC(C)[NH2+][C@]1(C(=O)OCCOC(=O)c2ccc(-c3c4nc(c(-c5ccc(S(=O)(=O)[O-])cc5)c5ccc([nH]5)c(-c5ccc(S(=O)(=O)[O-])cc5)c5nc(c(-c6ccc(S(=O)(=O)[O-])cc6)c6ccc3[nH]6)C=C5)C=C4)cc2)CCC[C@@H]([N@@H+](C)C2CC2)C1
REMARK SMILES IDX 10 1 9 2 8 3 6 4 7 5 5 6 74 7 83 8 75 9 77 10 76 11 4 12
REMARK SMILES IDX 2 15 1 16 3 17 78 18 79 19 80 21 81 22 82 23 11 24 12 25
REMARK SMILES IDX 13 26 14 27 15 28 73 29 16 30 72 31 17 32 18 33 19 34 66 35
REMARK SMILES IDX 20 36 71 37 65 38 67 39 21 40 70 41 64 42 63 43 22 45 52 46
REMARK SMILES IDX 33 47 51 48 34 49 37 50 50 51 68 52 35 53 36 54 49 56 69 57
REMARK SMILES IDX 38 58 23 59 24 60 32 61 25 62 31 63 26 64 27 65 28 66 29 67
REMARK SMILES IDX 30 68 53 69 54 70 62 71 55 72 61 73 56 74 57 75 58 76 59 77
REMARK SMILES IDX 60 78 39 79 40 80 48 81 41 82 47 83 42 84 43 85 44 86 45 87
REMARK SMILES IDX 46 88
REMARK H PARENT 4 13 4 14 78 20 67 44 37 55
REMARK Flexibility Score: inf
ROOT
ATOM      1  C   UNL A   1      32.747  29.769  27.088  1.00  0.00     0.275 C 
ENDROOT
BRANCH   1   2
ATOM      2  C   UNL A   1      33.022  28.287  26.859  1.00  0.00     0.274 C 
BRANCH   2   3
ATOM      3  O   UNL A   1      32.415  27.798  25.648  1.00  0.00    -0.457 OA
BRANCH   3   4
ATOM      4  C   UNL A   1      33.303  27.288  24.745  1.00  0.00     0.368 C 
ATOM      5  O   UNL A   1      34.109  27.981  24.129  1.00  0.00    -0.245 OA
BRANCH   4   6
ATOM      6  C   UNL A   1      33.101  25.772  24.470  1.00  0.00     0.200 C 
ATOM      7  C   UNL A   1      33.557  25.542  23.003  1.00  0.00     0.081 C 
ATOM      8  C   UNL A   1      34.083  25.010  25.389  1.00  0.00     0.146 C 
ATOM      9  C   UNL A   1      33.714  24.067  22.627  1.00  0.00     0.013 C 
ATOM     10  C   UNL A   1      34.293  23.531  25.037  1.00  0.00     0.190 C 
ATOM     11  C   UNL A   1      34.674  23.336  23.563  1.00  0.00     0.065 C 
BRANCH   6  12
ATOM     12  N   UNL A   1      31.687  25.327  24.551  1.00  0.00    -0.330 N 
ATOM     13  H   UNL A   1      31.111  26.139  24.330  1.00  0.00     0.347 HD
ATOM     14  H   UNL A   1      31.656  24.536  23.908  1.00  0.00     0.347 HD
BRANCH  12  15
ATOM     15  C   UNL A   1      31.159  24.764  25.796  1.00  0.00     0.176 C 
ATOM     16  C   UNL A   1      29.837  25.493  26.074  1.00  0.00     0.075 C 
ATOM     17  C   UNL A   1      30.858  23.264  25.735  1.00  0.00     0.075 C 
ENDBRANCH  12  15
ENDBRANCH   6  12
BRANCH  10  18
ATOM     18  N   UNL A   1      35.181  22.857  26.006  1.00  0.00    -0.332 N 
ATOM     19  C   UNL A   1      34.608  21.587  26.464  1.00  0.00     0.333 C 
ATOM     20  H   UNL A   1      35.194  23.572  26.733  1.00  0.00     0.348 HD
BRANCH  18  21
ATOM     21  C   UNL A   1      36.639  22.729  25.767  1.00  0.00     0.184 C 
ATOM     22  C   UNL A   1      37.533  23.613  24.947  1.00  0.00     0.071 C 
ATOM     23  C   UNL A   1      37.547  23.733  26.440  1.00  0.00     0.071 C 
ENDBRANCH  18  21
ENDBRANCH  10  18
ENDBRANCH   4   6
ENDBRANCH   3   4
ENDBRANCH   2   3
ENDBRANCH   1   2
BRANCH   1  24
ATOM     24  O   UNL A   1      33.940  30.545  26.895  1.00  0.00    -0.458 OA
BRANCH  24  25
ATOM     25  C   UNL A   1      34.522  31.002  28.027  1.00  0.00     0.338 C 
ATOM     26  O   UNL A   1      34.092  31.874  28.766  1.00  0.00    -0.246 OA
BRANCH  25  27
ATOM     27  C   UNL A   1      35.809  30.321  28.275  1.00  0.00     0.060 A 
ATOM     28  C   UNL A   1      36.159  29.833  29.536  1.00  0.00     0.016 A 
ATOM     29  C   UNL A   1      36.742  30.295  27.236  1.00  0.00     0.016 A 
ATOM     30  C   UNL A   1      37.469  29.409  29.782  1.00  0.00     0.010 A 
ATOM     31  C   UNL A   1      38.026  29.799  27.465  1.00  0.00     0.010 A 
ATOM     32  C   UNL A   1      38.420  29.395  28.753  1.00  0.00    -0.014 A 
BRANCH  32  33
ATOM     33  C   UNL A   1      39.842  29.031  29.001  1.00  0.00     0.031 A 
ATOM     34  C   UNL A   1      40.796  30.065  29.549  1.00  0.00     0.074 A 
ATOM     35  C   UNL A   1      40.301  27.799  28.708  1.00  0.00     0.049 A 
ATOM     36  N   UNL A   1      42.102  30.030  29.625  1.00  0.00    -0.248 NA
ATOM     37  C   UNL A   1      40.198  31.308  30.062  1.00  0.00     0.031 C 
ATOM     38  C   UNL A   1      39.493  26.684  28.213  1.00  0.00     0.029 A 
ATOM     39  N   UNL A   1      41.573  27.285  28.777  1.00  0.00    -0.354 N 
ATOM     40  C   UNL A   1      42.487  31.267  30.133  1.00  0.00     0.074 A 
ATOM     41  C   UNL A   1      41.275  32.027  30.351  1.00  0.00     0.031 C 
ATOM     42  C   UNL A   1      40.285  25.613  28.038  1.00  0.00     0.029 A 
ATOM     43  C   UNL A   1      41.663  25.986  28.339  1.00  0.00     0.049 A 
ATOM     44  H   UNL A   1      42.344  27.797  29.107  1.00  0.00     0.167 HD
ATOM     45  C   UNL A   1      43.734  31.730  30.388  1.00  0.00     0.031 A 
ATOM     46  C   UNL A   1      42.736  25.190  28.161  1.00  0.00     0.031 A 
ATOM     47  C   UNL A   1      44.938  30.961  30.211  1.00  0.00     0.049 A 
ATOM     48  C   UNL A   1      44.111  25.724  28.448  1.00  0.00     0.074 A 
ATOM     49  C   UNL A   1      46.248  31.342  30.451  1.00  0.00     0.029 A 
ATOM     50  N   UNL A   1      44.980  29.647  29.772  1.00  0.00    -0.354 N 
ATOM     51  N   UNL A   1      44.462  26.916  28.867  1.00  0.00    -0.248 NA
ATOM     52  C   UNL A   1      45.236  24.804  28.231  1.00  0.00     0.031 C 
ATOM     53  C   UNL A   1      47.084  30.265  30.132  1.00  0.00     0.029 A 
ATOM     54  C   UNL A   1      46.291  29.202  29.734  1.00  0.00     0.049 A 
ATOM     55  H   UNL A   1      44.193  29.109  29.524  1.00  0.00     0.167 HD
ATOM     56  C   UNL A   1      45.847  26.886  28.974  1.00  0.00     0.074 A 
ATOM     57  C   UNL A   1      46.268  25.551  28.595  1.00  0.00     0.031 C 
ATOM     58  C   UNL A   1      46.695  27.875  29.349  1.00  0.00     0.031 A 
BRANCH  45  59
ATOM     59  C   UNL A   1      43.863  33.156  30.852  1.00  0.00    -0.014 A 
ATOM     60  C   UNL A   1      44.094  34.206  29.946  1.00  0.00     0.010 A 
ATOM     61  C   UNL A   1      43.716  33.452  32.220  1.00  0.00     0.010 A 
ATOM     62  C   UNL A   1      44.215  35.521  30.404  1.00  0.00     0.020 A 
ATOM     63  C   UNL A   1      43.813  34.768  32.680  1.00  0.00     0.020 A 
ATOM     64  C   UNL A   1      44.080  35.793  31.770  1.00  0.00     0.054 A 
BRANCH  64  65
ATOM     65  S   UNL A   1      44.222  37.509  32.342  1.00  0.00     0.124 S 
ATOM     66  O   UNL A   1      45.626  37.579  32.737  1.00  0.00    -0.237 OA
ATOM     67  O   UNL A   1      43.867  38.278  31.151  1.00  0.00    -0.237 OA
ATOM     68  O   UNL A   1      43.260  37.589  33.438  1.00  0.00    -0.744 OA
ENDBRANCH  64  65
ENDBRANCH  45  59
BRANCH  46  69
ATOM     69  C   UNL A   1      42.549  23.806  27.651  1.00  0.00    -0.014 A 
ATOM     70  C   UNL A   1      42.651  23.535  26.276  1.00  0.00     0.010 A 
ATOM     71  C   UNL A   1      42.291  22.749  28.544  1.00  0.00     0.010 A 
ATOM     72  C   UNL A   1      42.492  22.231  25.801  1.00  0.00     0.020 A 
ATOM     73  C   UNL A   1      42.157  21.441  28.074  1.00  0.00     0.020 A 
ATOM     74  C   UNL A   1      42.249  21.191  26.702  1.00  0.00     0.054 A 
BRANCH  74  75
ATOM     75  S   UNL A   1      42.118  19.493  26.076  1.00  0.00     0.124 S 
ATOM     76  O   UNL A   1      42.607  18.714  27.207  1.00  0.00    -0.237 OA
ATOM     77  O   UNL A   1      40.691  19.367  25.788  1.00  0.00    -0.237 OA
ATOM     78  O   UNL A   1      42.982  19.501  24.896  1.00  0.00    -0.744 OA
ENDBRANCH  74  75
ENDBRANCH  46  69
BRANCH  58  79
ATOM     79  C   UNL A   1      48.160  27.535  29.399  1.00  0.00    -0.014 A 
ATOM     80  C   UNL A   1      48.739  26.983  30.556  1.00  0.00     0.010 A 
ATOM     81  C   UNL A   1      48.965  27.765  28.270  1.00  0.00     0.010 A 
ATOM     82  C   UNL A   1      50.108  26.709  30.596  1.00  0.00     0.020 A 
ATOM     83  C   UNL A   1      50.331  27.472  28.299  1.00  0.00     0.020 A 
ATOM     84  C   UNL A   1      50.898  26.965  29.471  1.00  0.00     0.054 A 
BRANCH  84  85
ATOM     85  S   UNL A   1      52.674  26.599  29.538  1.00  0.00     0.124 S 
ATOM     86  O   UNL A   1      52.756  25.709  30.693  1.00  0.00    -0.237 OA
ATOM     87  O   UNL A   1      52.925  25.972  28.243  1.00  0.00    -0.237 OA
ATOM     88  O   UNL A   1      53.288  27.912  29.716  1.00  0.00    -0.744 OA
ENDBRANCH  84  85
ENDBRANCH  58  79
ENDBRANCH  32  33
ENDBRANCH  25  27
ENDBRANCH  24  25
ENDBRANCH   1  24
TORSDOF 18
ENDMDL
MODEL 2
REMARK VINA RESULT:      -9.5      2.428      3.357
REMARK SMILES CC(C)[NH2+][C@]1(C(=O)OCCOC(=O)c2ccc(-c3c4nc(c(-c5ccc(S(=O)(=O)[O-])cc5)c5ccc([nH]5)c(-c5ccc(S(=O)(=O)[O-])cc5)c5nc(c(-c6ccc(S(=O)(=O)[O-])cc6)c6ccc3[nH]6)C=C5)C=C4)cc2)CCC[C@@H]([N@@H+](C)C2CC2)C1
REMARK SMILES IDX 10 1 9 2 8 3 6 4 7 5 5 6 74 7 83 8 75 9 77 10 76 11 4 12
REMARK SMILES IDX 2 15 1 16 3 17 78 18 79 19 80 21 81 22 82 23 11 24 12 25
REMARK SMILES IDX 13 26 14 27 15 28 73 29 16 30 72 31 17 32 18 33 19 34 66 35
REMARK SMILES IDX 20 36 71 37 65 38 67 39 21 40 70 41 64 42 63 43 22 45 52 46
REMARK SMILES IDX 33 47 51 48 34 49 37 50 50 51 68 52 35 53 36 54 49 56 69 57
REMARK SMILES IDX 38 58 23 59 24 60 32 61 25 62 31 63 26 64 27 65 28 66 29 67
REMARK SMILES IDX 30 68 53 69 54 70 62 71 55 72 61 73 56 74 57 75 58 76 59 77
REMARK SMILES IDX 60 78 39 79 40 80 48 81 41 82 47 83 42 84 43 85 44 86 45 87
REMARK SMILES IDX 46 88
REMARK H PARENT 4 13 4 14 78 20 67 44 37 55
REMARK Flexibility Score: inf
ROOT
ATOM      1  C   UNL A   1      34.541  29.484  27.536  1.00  0.00     0.275 C 
ENDROOT
BRANCH   1   2
ATOM      2  C   UNL A   1      33.881  29.219  26.186  1.00  0.00     0.274 C 
BRANCH   2   3
ATOM      3  O   UNL A   1      34.374  28.019  25.562  1.00  0.00    -0.457 OA
BRANCH   3   4
ATOM      4  C   UNL A   1      33.905  27.816  24.296  1.00  0.00     0.368 C 
ATOM      5  O   UNL A   1      33.879  28.697  23.440  1.00  0.00    -0.245 OA
BRANCH   4   6
ATOM      6  C   UNL A   1      33.280  26.409  24.087  1.00  0.00     0.200 C 
ATOM      7  C   UNL A   1      33.247  26.183  22.549  1.00  0.00     0.081 C 
ATOM      8  C   UNL A   1      34.266  25.381  24.688  1.00  0.00     0.146 C 
ATOM      9  C   UNL A   1      32.939  24.741  22.142  1.00  0.00     0.013 C 
ATOM     10  C   UNL A   1      34.012  23.922  24.289  1.00  0.00     0.190 C 
ATOM     11  C   UNL A   1      33.916  23.748  22.766  1.00  0.00     0.065 C 
BRANCH   6  12
ATOM     12  N   UNL A   1      31.879  26.294  24.563  1.00  0.00    -0.330 N 
ATOM     13  H   UNL A   1      31.457  27.217  24.460  1.00  0.00     0.347 HD
ATOM     14  H   UNL A   1      31.502  25.535  23.996  1.00  0.00     0.347 HD
BRANCH  12  15
ATOM     15  C   UNL A   1      31.598  25.855  25.933  1.00  0.00     0.176 C 
ATOM     16  C   UNL A   1      31.058  27.084  26.678  1.00  0.00     0.075 C 
ATOM     17  C   UNL A   1      30.546  24.748  26.039  1.00  0.00     0.075 C 
ENDBRANCH  12  15
ENDBRANCH   6  12
BRANCH  10  18
ATOM     18  N   UNL A   1      34.945  22.998  24.965  1.00  0.00    -0.332 N 
ATOM     19  C   UNL A   1      36.329  23.222  24.533  1.00  0.00     0.333 C 
ATOM     20  H   UNL A   1      34.562  22.114  24.632  1.00  0.00     0.348 HD
BRANCH  18  21
ATOM     21  C   UNL A   1      34.876  22.755  26.427  1.00  0.00     0.184 C 
ATOM     22  C   UNL A   1      33.668  22.752  27.318  1.00  0.00     0.071 C 
ATOM     23  C   UNL A   1      34.270  21.449  26.889  1.00  0.00     0.071 C 
ENDBRANCH  18  21
ENDBRANCH  10  18
ENDBRANCH   4   6
ENDBRANCH   3   4
ENDBRANCH   2   3
ENDBRANCH   1   2
BRANCH   1  24
ATOM     24  O   UNL A   1      35.970  29.531  27.402  1.00  0.00    -0.458 OA
BRANCH  24  25
ATOM     25  C   UNL A   1      36.659  29.544  28.565  1.00  0.00     0.338 C 
ATOM     26  O   UNL A   1      36.250  29.926  29.651  1.00  0.00    -0.246 OA
BRANCH  25  27
ATOM     27  C   UNL A   1      38.038  29.048  28.371  1.00  0.00     0.060 A 
ATOM     28  C   UNL A   1      38.744  28.403  29.390  1.00  0.00     0.016 A 
ATOM     29  C   UNL A   1      38.679  29.362  27.172  1.00  0.00     0.016 A 
ATOM     30  C   UNL A   1      40.114  28.160  29.244  1.00  0.00     0.010 A 
ATOM     31  C   UNL A   1      40.028  29.049  27.000  1.00  0.00     0.010 A 
ATOM     32  C   UNL A   1      40.774  28.488  28.052  1.00  0.00    -0.014 A 
BRANCH  32  33
ATOM     33  C   UNL A   1      42.245  28.321  27.896  1.00  0.00     0.031 A 
ATOM     34  C   UNL A   1      43.169  29.468  28.226  1.00  0.00     0.074 A 
ATOM     35  C   UNL A   1      42.763  27.169  27.428  1.00  0.00     0.049 A 
ATOM     36  N   UNL A   1      44.440  29.614  27.952  1.00  0.00    -0.248 NA
ATOM     37  C   UNL A   1      42.575  30.608  28.943  1.00  0.00     0.031 C 
ATOM     38  C   UNL A   1      42.004  25.961  27.107  1.00  0.00     0.029 A 
ATOM     39  N   UNL A   1      44.063  26.835  27.132  1.00  0.00    -0.354 N 
ATOM     40  C   UNL A   1      44.783  30.884  28.404  1.00  0.00     0.074 A 
ATOM     41  C   UNL A   1      43.587  31.465  28.975  1.00  0.00     0.031 C 
ATOM     42  C   UNL A   1      42.852  25.013  26.673  1.00  0.00     0.029 A 
ATOM     43  C   UNL A   1      44.200  25.569  26.618  1.00  0.00     0.049 A 
ATOM     44  H   UNL A   1      44.821  27.445  27.273  1.00  0.00     0.167 HD
ATOM     45  C   UNL A   1      45.983  31.512  28.345  1.00  0.00     0.031 A 
ATOM     46  C   UNL A   1      45.279  24.933  26.123  1.00  0.00     0.031 A 
ATOM     47  C   UNL A   1      47.184  30.921  27.817  1.00  0.00     0.049 A 
ATOM     48  C   UNL A   1      46.599  25.648  26.064  1.00  0.00     0.074 A 
ATOM     49  C   UNL A   1      48.449  31.476  27.721  1.00  0.00     0.029 A 
ATOM     50  N   UNL A   1      47.276  29.632  27.314  1.00  0.00    -0.354 N 
ATOM     51  N   UNL A   1      46.892  26.870  26.437  1.00  0.00    -0.248 NA
ATOM     52  C   UNL A   1      47.734  24.896  25.509  1.00  0.00     0.031 C 
ATOM     53  C   UNL A   1      49.301  30.530  27.137  1.00  0.00     0.029 A 
ATOM     54  C   UNL A   1      48.575  29.374  26.908  1.00  0.00     0.049 A 
ATOM     55  H   UNL A   1      46.528  28.994  27.255  1.00  0.00     0.167 HD
ATOM     56  C   UNL A   1      48.247  27.031  26.172  1.00  0.00     0.074 A 
ATOM     57  C   UNL A   1      48.720  25.774  25.626  1.00  0.00     0.031 C 
ATOM     58  C   UNL A   1      49.029  28.122  26.361  1.00  0.00     0.031 A 
BRANCH  45  59
ATOM     59  C   UNL A   1      46.045  32.935  28.833  1.00  0.00    -0.014 A 
ATOM     60  C   UNL A   1      46.395  33.242  30.160  1.00  0.00     0.010 A 
ATOM     61  C   UNL A   1      45.781  33.985  27.934  1.00  0.00     0.010 A 
ATOM     62  C   UNL A   1      46.440  34.571  30.589  1.00  0.00     0.020 A 
ATOM     63  C   UNL A   1      45.847  35.316  28.353  1.00  0.00     0.020 A 
ATOM     64  C   UNL A   1      46.160  35.600  29.684  1.00  0.00     0.054 A 
BRANCH  64  65
ATOM     65  S   UNL A   1      46.242  37.320  30.257  1.00  0.00     0.124 S 
ATOM     66  O   UNL A   1      45.456  37.265  31.486  1.00  0.00    -0.237 OA
ATOM     67  O   UNL A   1      47.676  37.533  30.439  1.00  0.00    -0.237 OA
ATOM     68  O   UNL A   1      45.639  38.078  29.164  1.00  0.00    -0.744 OA
ENDBRANCH  64  65
ENDBRANCH  45  59
BRANCH  46  69
ATOM     69  C   UNL A   1      45.143  23.544  25.609  1.00  0.00    -0.014 A 
ATOM     70  C   UNL A   1      44.929  23.311  24.240  1.00  0.00     0.010 A 
ATOM     71  C   UNL A   1      45.250  22.448  26.485  1.00  0.00     0.010 A 
ATOM     72  C   UNL A   1      44.818  22.004  23.756  1.00  0.00     0.020 A 
ATOM     73  C   UNL A   1      45.165  21.142  26.001  1.00  0.00     0.020 A 
ATOM     74  C   UNL A   1      44.940  20.928  24.639  1.00  0.00     0.054 A 
BRANCH  74  75
ATOM     75  S   UNL A   1      44.867  19.237  23.983  1.00  0.00     0.124 S 
ATOM     76  O   UNL A   1      44.507  19.469  22.588  1.00  0.00    -0.237 OA
ATOM     77  O   UNL A   1      46.223  18.745  24.214  1.00  0.00    -0.237 OA
ATOM     78  O   UNL A   1      43.836  18.601  24.801  1.00  0.00    -0.744 OA
ENDBRANCH  74  75
ENDBRANCH  46  69
BRANCH  58  79
ATOM     79  C   UNL A   1      50.484  27.988  26.005  1.00  0.00    -0.014 A 
ATOM     80  C   UNL A   1      50.951  28.308  24.717  1.00  0.00     0.010 A 
ATOM     81  C   UNL A   1      51.399  27.542  26.976  1.00  0.00     0.010 A 
ATOM     82  C   UNL A   1      52.300  28.142  24.395  1.00  0.00     0.020 A 
ATOM     83  C   UNL A   1      52.752  27.395  26.663  1.00  0.00     0.020 A 
ATOM     84  C   UNL A   1      53.190  27.677  25.367  1.00  0.00     0.054 A 
BRANCH  84  85
ATOM     85  S   UNL A   1      54.940  27.471  24.934  1.00  0.00     0.124 S 
ATOM     86  O   UNL A   1      55.115  28.480  23.892  1.00  0.00    -0.237 OA
ATOM     87  O   UNL A   1      55.622  27.747  26.196  1.00  0.00    -0.237 OA
ATOM     88  O   UNL A   1      55.021  26.085  24.480  1.00  0.00    -0.744 OA
ENDBRANCH  84  85
ENDBRANCH  58  79
ENDBRANCH  32  33
ENDBRANCH  25  27
ENDBRANCH  24  25
ENDBRANCH   1  24
TORSDOF 18
ENDMDL
MODEL 3
REMARK VINA RESULT:      -9.4      2.912      9.400
REMARK SMILES CC(C)[NH2+][C@]1(C(=O)OCCOC(=O)c2ccc(-c3c4nc(c(-c5ccc(S(=O)(=O)[O-])cc5)c5ccc([nH]5)c(-c5ccc(S(=O)(=O)[O-])cc5)c5nc(c(-c6ccc(S(=O)(=O)[O-])cc6)c6ccc3[nH]6)C=C5)C=C4)cc2)CCC[C@@H]([N@@H+](C)C2CC2)C1
REMARK SMILES IDX 10 1 9 2 8 3 6 4 7 5 5 6 74 7 83 8 75 9 77 10 76 11 4 12
REMARK SMILES IDX 2 15 1 16 3 17 78 18 79 19 80 21 81 22 82 23 11 24 12 25
REMARK SMILES IDX 13 26 14 27 15 28 73 29 16 30 72 31 17 32 18 33 19 34 66 35
REMARK SMILES IDX 20 36 71 37 65 38 67 39 21 40 70 41 64 42 63 43 22 45 52 46
REMARK SMILES IDX 33 47 51 48 34 49 37 50 50 51 68 52 35 53 36 54 49 56 69 57
REMARK SMILES IDX 38 58 23 59 24 60 32 61 25 62 31 63 26 64 27 65 28 66 29 67
REMARK SMILES IDX 30 68 53 69 54 70 62 71 55 72 61 73 56 74 57 75 58 76 59 77
REMARK SMILES IDX 60 78 39 79 40 80 48 81 41 82 47 83 42 84 43 85 44 86 45 87
REMARK SMILES IDX 46 88
REMARK H PARENT 4 13 4 14 78 20 67 44 37 55
REMARK Flexibility Score: inf
ROOT
ATOM      1  C   UNL A   1      37.502  21.383  25.265  1.00  0.00     0.275 C 
ENDROOT
BRANCH   1   2
ATOM      2  C   UNL A   1      36.025  21.057  25.458  1.00  0.00     0.274 C 
BRANCH   2   3
ATOM      3  O   UNL A   1      35.207  22.241  25.515  1.00  0.00    -0.457 OA
BRANCH   3   4
ATOM      4  C   UNL A   1      34.021  22.069  26.168  1.00  0.00     0.368 C 
ATOM      5  O   UNL A   1      33.846  21.207  27.026  1.00  0.00    -0.245 OA
BRANCH   4   6
ATOM      6  C   UNL A   1      32.879  22.973  25.626  1.00  0.00     0.200 C 
ATOM      7  C   UNL A   1      31.829  23.061  26.768  1.00  0.00     0.081 C 
ATOM      8  C   UNL A   1      33.475  24.386  25.429  1.00  0.00     0.146 C 
ATOM      9  C   UNL A   1      30.765  24.138  26.548  1.00  0.00     0.013 C 
ATOM     10  C   UNL A   1      32.445  25.505  25.229  1.00  0.00     0.190 C 
ATOM     11  C   UNL A   1      31.383  25.519  26.337  1.00  0.00     0.065 C 
BRANCH   6  12
ATOM     12  N   UNL A   1      32.177  22.413  24.444  1.00  0.00    -0.330 N 
ATOM     13  H   UNL A   1      31.638  21.613  24.774  1.00  0.00     0.347 HD
ATOM     14  H   UNL A   1      31.660  23.214  24.081  1.00  0.00     0.347 HD
BRANCH  12  15
ATOM     15  C   UNL A   1      32.940  21.954  23.280  1.00  0.00     0.176 C 
ATOM     16  C   UNL A   1      32.138  20.798  22.666  1.00  0.00     0.075 C 
ATOM     17  C   UNL A   1      33.133  23.014  22.193  1.00  0.00     0.075 C 
ENDBRANCH  12  15
ENDBRANCH   6  12
BRANCH  10  18
ATOM     18  N   UNL A   1      33.094  26.807  24.969  1.00  0.00    -0.332 N 
ATOM     19  C   UNL A   1      33.859  27.266  26.134  1.00  0.00     0.333 C 
ATOM     20  H   UNL A   1      32.261  27.368  24.795  1.00  0.00     0.348 HD
BRANCH  18  21
ATOM     21  C   UNL A   1      33.831  27.072  23.710  1.00  0.00     0.184 C 
ATOM     22  C   UNL A   1      33.461  26.679  22.309  1.00  0.00     0.071 C 
ATOM     23  C   UNL A   1      33.245  28.091  22.760  1.00  0.00     0.071 C 
ENDBRANCH  18  21
ENDBRANCH  10  18
ENDBRANCH   4   6
ENDBRANCH   3   4
ENDBRANCH   2   3
ENDBRANCH   1   2
BRANCH   1  24
ATOM     24  O   UNL A   1      37.815  22.673  25.812  1.00  0.00    -0.458 OA
BRANCH  24  25
ATOM     25  C   UNL A   1      39.072  22.809  26.290  1.00  0.00     0.338 C 
ATOM     26  O   UNL A   1      39.929  21.941  26.344  1.00  0.00    -0.246 OA
BRANCH  25  27
ATOM     27  C   UNL A   1      39.305  24.180  26.789  1.00  0.00     0.060 A 
ATOM     28  C   UNL A   1      40.053  25.115  26.069  1.00  0.00     0.016 A 
ATOM     29  C   UNL A   1      38.869  24.485  28.080  1.00  0.00     0.016 A 
ATOM     30  C   UNL A   1      40.444  26.313  26.675  1.00  0.00     0.010 A 
ATOM     31  C   UNL A   1      39.197  25.713  28.655  1.00  0.00     0.010 A 
ATOM     32  C   UNL A   1      40.029  26.622  27.978  1.00  0.00    -0.014 A 
BRANCH  32  33
ATOM     33  C   UNL A   1      40.497  27.848  28.682  1.00  0.00     0.031 A 
ATOM     34  C   UNL A   1      41.885  27.889  29.272  1.00  0.00     0.074 A 
ATOM     35  C   UNL A   1      39.683  28.911  28.834  1.00  0.00     0.049 A 
ATOM     36  N   UNL A   1      42.407  28.751  30.107  1.00  0.00    -0.248 NA
ATOM     37  C   UNL A   1      42.801  26.805  28.881  1.00  0.00     0.031 C 
ATOM     38  C   UNL A   1      38.333  29.036  28.285  1.00  0.00     0.029 A 
ATOM     39  N   UNL A   1      39.879  30.090  29.511  1.00  0.00    -0.354 N 
ATOM     40  C   UNL A   1      43.684  28.281  30.392  1.00  0.00     0.074 A 
ATOM     41  C   UNL A   1      43.861  27.060  29.636  1.00  0.00     0.031 C 
ATOM     42  C   UNL A   1      37.827  30.231  28.633  1.00  0.00     0.029 A 
ATOM     43  C   UNL A   1      38.787  30.924  29.487  1.00  0.00     0.049 A 
ATOM     44  H   UNL A   1      40.720  30.316  29.969  1.00  0.00     0.167 HD
ATOM     45  C   UNL A   1      44.623  28.813  31.213  1.00  0.00     0.031 A 
ATOM     46  C   UNL A   1      38.563  32.097  30.109  1.00  0.00     0.031 A 
ATOM     47  C   UNL A   1      44.465  30.049  31.933  1.00  0.00     0.049 A 
ATOM     48  C   UNL A   1      39.615  32.669  31.017  1.00  0.00     0.074 A 
ATOM     49  C   UNL A   1      45.363  30.673  32.782  1.00  0.00     0.029 A 
ATOM     50  N   UNL A   1      43.344  30.863  31.872  1.00  0.00    -0.354 N 
ATOM     51  N   UNL A   1      40.792  32.179  31.325  1.00  0.00    -0.248 NA
ATOM     52  C   UNL A   1      39.303  33.950  31.665  1.00  0.00     0.031 C 
ATOM     53  C   UNL A   1      44.775  31.853  33.255  1.00  0.00     0.029 A 
ATOM     54  C   UNL A   1      43.527  31.982  32.667  1.00  0.00     0.049 A 
ATOM     55  H   UNL A   1      42.537  30.673  31.341  1.00  0.00     0.167 HD
ATOM     56  C   UNL A   1      41.367  33.098  32.196  1.00  0.00     0.074 A 
ATOM     57  C   UNL A   1      40.416  34.182  32.348  1.00  0.00     0.031 C 
ATOM     58  C   UNL A   1      42.571  33.048  32.815  1.00  0.00     0.031 A 
BRANCH  45  59
ATOM     59  C   UNL A   1      45.896  28.034  31.406  1.00  0.00    -0.014 A 
ATOM     60  C   UNL A   1      46.958  28.123  30.488  1.00  0.00     0.010 A 
ATOM     61  C   UNL A   1      46.044  27.225  32.547  1.00  0.00     0.010 A 
ATOM     62  C   UNL A   1      48.128  27.385  30.688  1.00  0.00     0.020 A 
ATOM     63  C   UNL A   1      47.220  26.503  32.763  1.00  0.00     0.020 A 
ATOM     64  C   UNL A   1      48.249  26.574  31.822  1.00  0.00     0.054 A 
BRANCH  64  65
ATOM     65  S   UNL A   1      49.784  25.639  32.072  1.00  0.00     0.124 S 
ATOM     66  O   UNL A   1      49.331  24.540  32.920  1.00  0.00    -0.237 OA
ATOM     67  O   UNL A   1      50.162  25.266  30.711  1.00  0.00    -0.237 OA
ATOM     68  O   UNL A   1      50.673  26.601  32.719  1.00  0.00    -0.744 OA
ENDBRANCH  64  65
ENDBRANCH  45  59
BRANCH  46  69
ATOM     69  C   UNL A   1      37.264  32.795  29.918  1.00  0.00    -0.014 A 
ATOM     70  C   UNL A   1      36.221  32.621  30.844  1.00  0.00     0.010 A 
ATOM     71  C   UNL A   1      37.073  33.654  28.820  1.00  0.00     0.010 A 
ATOM     72  C   UNL A   1      35.006  33.290  30.672  1.00  0.00     0.020 A 
ATOM     73  C   UNL A   1      35.870  34.343  28.660  1.00  0.00     0.020 A 
ATOM     74  C   UNL A   1      34.839  34.150  29.583  1.00  0.00     0.054 A 
BRANCH  74  75
ATOM     75  S   UNL A   1      33.283  35.068  29.415  1.00  0.00     0.124 S 
ATOM     76  O   UNL A   1      32.743  35.000  30.768  1.00  0.00    -0.237 OA
ATOM     77  O   UNL A   1      33.734  36.386  28.978  1.00  0.00    -0.237 OA
ATOM     78  O   UNL A   1      32.548  34.306  28.406  1.00  0.00    -0.744 OA
ENDBRANCH  74  75
ENDBRANCH  46  69
BRANCH  58  79
ATOM     79  C   UNL A   1      42.939  34.217  33.687  1.00  0.00    -0.014 A 
ATOM     80  C   UNL A   1      43.700  35.288  33.185  1.00  0.00     0.010 A 
ATOM     81  C   UNL A   1      42.510  34.247  35.026  1.00  0.00     0.010 A 
ATOM     82  C   UNL A   1      44.064  36.347  34.021  1.00  0.00     0.020 A 
ATOM     83  C   UNL A   1      42.854  35.314  35.859  1.00  0.00     0.020 A 
ATOM     84  C   UNL A   1      43.647  36.348  35.355  1.00  0.00     0.054 A 
BRANCH  84  85
ATOM     85  S   UNL A   1      44.123  37.734  36.426  1.00  0.00     0.124 S 
ATOM     86  O   UNL A   1      43.210  37.573  37.554  1.00  0.00    -0.237 OA
ATOM     87  O   UNL A   1      45.528  37.456  36.711  1.00  0.00    -0.237 OA
ATOM     88  O   UNL A   1      43.885  38.910  35.592  1.00  0.00    -0.744 OA
ENDBRANCH  84  85
ENDBRANCH  58  79
ENDBRANCH  32  33
ENDBRANCH  25  27
ENDBRANCH  24  25
ENDBRANCH   1  24
TORSDOF 18
ENDMDL
