MODEL 1
REMARK VINA RESULT:     -10.3      0.000      0.000
REMARK SMILES CCN(CC(=O)NC(C)C)C(=O)N[C@H]1C=C[C@H](C(=O)OCCOC(=O)c2ccc(-c3c4nc(c(-c5ccc(S(=O)(=O)[O-])cc5)c5ccc([nH]5)c(-c5ccc(S(=O)(=O)[O-])cc5)c5nc(c(-c6ccc(S(=O)(=O)[O-])cc6)c6ccc3[nH]6)C=C5)C=C4)cc2)C1
REMARK SMILES IDX 21 1 20 2 18 3 19 4 17 5 14 6 15 7 86 8 16 9 13 10 11 11
REMARK SMILES IDX 12 12 3 14 2 15 1 16 4 17 5 18 6 19 7 20 8 22 9 23 10 24
REMARK SMILES IDX 22 25 23 26 24 27 25 28 26 29 27 30 85 31 28 32 84 33 29 34
REMARK SMILES IDX 30 35 31 36 78 37 32 38 83 39 77 40 79 41 33 42 82 43 76 44
REMARK SMILES IDX 75 45 34 47 64 48 45 49 63 50 46 51 49 52 62 53 80 54 47 55
REMARK SMILES IDX 48 56 61 58 81 59 50 60 35 61 36 62 44 63 37 64 43 65 38 66
REMARK SMILES IDX 39 67 40 68 41 69 42 70 65 71 66 72 74 73 67 74 73 75 68 76
REMARK SMILES IDX 69 77 70 78 71 79 72 80 51 81 52 82 60 83 53 84 59 85 54 86
REMARK SMILES IDX 55 87 56 88 57 89 58 90
REMARK H PARENT 13 13 7 21 79 46 49 57
REMARK Flexibility Score: inf
ROOT
ATOM      1  C   UNL A   1      34.701  31.848  27.970  1.00  0.00     0.274 C 
ENDROOT
BRANCH   1   2
ATOM      2  O   UNL A   1      33.783  30.777  27.686  1.00  0.00    -0.462 OA
BRANCH   2   3
ATOM      3  C   UNL A   1      34.330  29.577  27.321  1.00  0.00     0.312 C 
ATOM      4  O   UNL A   1      35.421  29.165  27.686  1.00  0.00    -0.252 OA
BRANCH   3   5
ATOM      5  C   UNL A   1      33.375  28.849  26.382  1.00  0.00     0.124 C 
ATOM      6  C   UNL A   1      31.879  26.913  26.483  1.00  0.00     0.107 C 
ATOM      7  C   UNL A   1      33.134  26.585  25.760  1.00  0.00    -0.006 C 
ATOM      8  C   UNL A   1      32.116  28.302  27.075  1.00  0.00     0.048 C 
ATOM      9  C   UNL A   1      33.986  27.620  25.763  1.00  0.00    -0.014 C 
BRANCH   6  10
ATOM     10  N   UNL A   1      30.640  26.681  25.754  1.00  0.00    -0.332 N 
ATOM     11  C   UNL A   1      30.047  26.577  24.565  1.00  0.00     0.318 C 
ATOM     12  O   UNL A   1      28.867  26.202  24.638  1.00  0.00    -0.249 OA
ATOM     13  H   UNL A   1      29.939  26.539  26.432  1.00  0.00     0.165 HD
BRANCH  11  14
ATOM     14  N   UNL A   1      30.616  26.786  23.348  1.00  0.00    -0.316 N 
BRANCH  14  15
ATOM     15  C   UNL A   1      31.483  25.717  22.833  1.00  0.00     0.118 C 
ATOM     16  C   UNL A   1      32.574  26.248  21.906  1.00  0.00     0.027 C 
ENDBRANCH  14  15
BRANCH  14  17
ATOM     17  C   UNL A   1      30.281  27.834  22.398  1.00  0.00     0.221 C 
BRANCH  17  18
ATOM     18  C   UNL A   1      30.400  29.234  23.003  1.00  0.00     0.239 C 
ATOM     19  O   UNL A   1      30.999  29.462  24.052  1.00  0.00    -0.273 OA
ATOM     20  N   UNL A   1      29.860  30.305  22.351  1.00  0.00    -0.352 N 
ATOM     21  H   UNL A   1      30.451  31.054  22.108  1.00  0.00     0.163 HD
BRANCH  20  22
ATOM     22  C   UNL A   1      28.453  30.391  21.997  1.00  0.00     0.075 C 
ATOM     23  C   UNL A   1      27.646  30.688  23.264  1.00  0.00     0.030 C 
ATOM     24  C   UNL A   1      28.242  31.486  20.958  1.00  0.00     0.030 C 
ENDBRANCH  20  22
ENDBRANCH  17  18
ENDBRANCH  14  17
ENDBRANCH  11  14
ENDBRANCH   6  10
ENDBRANCH   3   5
ENDBRANCH   2   3
ENDBRANCH   1   2
BRANCH   1  25
ATOM     25  C   UNL A   1      34.878  32.024  29.480  1.00  0.00     0.275 C 
BRANCH  25  26
ATOM     26  O   UNL A   1      36.263  31.914  29.852  1.00  0.00    -0.458 OA
BRANCH  26  27
ATOM     27  C   UNL A   1      36.592  30.798  30.543  1.00  0.00     0.338 C 
ATOM     28  O   UNL A   1      35.881  30.164  31.312  1.00  0.00    -0.246 OA
BRANCH  27  29
ATOM     29  C   UNL A   1      37.913  30.330  30.101  1.00  0.00     0.060 A 
ATOM     30  C   UNL A   1      38.792  29.886  31.089  1.00  0.00     0.016 A 
ATOM     31  C   UNL A   1      38.311  30.360  28.765  1.00  0.00     0.016 A 
ATOM     32  C   UNL A   1      40.073  29.457  30.755  1.00  0.00     0.010 A 
ATOM     33  C   UNL A   1      39.601  29.925  28.428  1.00  0.00     0.010 A 
ATOM     34  C   UNL A   1      40.491  29.470  29.420  1.00  0.00    -0.014 A 
BRANCH  34  35
ATOM     35  C   UNL A   1      41.868  29.044  29.066  1.00  0.00     0.031 A 
ATOM     36  C   UNL A   1      42.997  30.032  29.126  1.00  0.00     0.074 A 
ATOM     37  C   UNL A   1      42.111  27.770  28.704  1.00  0.00     0.049 A 
ATOM     38  N   UNL A   1      44.238  29.896  28.731  1.00  0.00    -0.248 NA
ATOM     39  C   UNL A   1      42.691  31.348  29.709  1.00  0.00     0.031 C 
ATOM     40  C   UNL A   1      41.120  26.693  28.674  1.00  0.00     0.029 A 
ATOM     41  N   UNL A   1      43.273  27.166  28.286  1.00  0.00    -0.354 N 
ATOM     42  C   UNL A   1      44.853  31.115  28.988  1.00  0.00     0.074 A 
ATOM     43  C   UNL A   1      43.848  31.980  29.570  1.00  0.00     0.031 C 
ATOM     44  C   UNL A   1      41.717  25.561  28.265  1.00  0.00     0.029 A 
ATOM     45  C   UNL A   1      43.113  25.844  27.943  1.00  0.00     0.049 A 
ATOM     46  H   UNL A   1      44.136  27.635  28.237  1.00  0.00     0.167 HD
ATOM     47  C   UNL A   1      46.136  31.479  28.755  1.00  0.00     0.031 A 
ATOM     48  C   UNL A   1      43.979  24.969  27.394  1.00  0.00     0.031 A 
ATOM     49  C   UNL A   1      47.135  30.615  28.184  1.00  0.00     0.049 A 
ATOM     50  C   UNL A   1      45.376  25.424  27.063  1.00  0.00     0.074 A 
ATOM     51  C   UNL A   1      48.461  30.897  27.907  1.00  0.00     0.029 A 
ATOM     52  N   UNL A   1      46.918  29.299  27.801  1.00  0.00    -0.354 N 
ATOM     53  N   UNL A   1      45.936  26.590  27.280  1.00  0.00    -0.248 NA
ATOM     54  C   UNL A   1      46.252  24.449  26.397  1.00  0.00     0.031 C 
ATOM     55  C   UNL A   1      49.034  29.767  27.312  1.00  0.00     0.029 A 
ATOM     56  C   UNL A   1      48.077  28.765  27.265  1.00  0.00     0.049 A 
ATOM     57  H   UNL A   1      46.065  28.816  27.897  1.00  0.00     0.167 HD
ATOM     58  C   UNL A   1      47.232  26.485  26.787  1.00  0.00     0.074 A 
ATOM     59  C   UNL A   1      47.381  25.137  26.278  1.00  0.00     0.031 C 
ATOM     60  C   UNL A   1      48.211  27.422  26.759  1.00  0.00     0.031 A 
BRANCH  47  61
ATOM     61  C   UNL A   1      46.521  32.900  29.070  1.00  0.00    -0.014 A 
ATOM     62  C   UNL A   1      46.389  33.923  28.115  1.00  0.00     0.010 A 
ATOM     63  C   UNL A   1      46.991  33.218  30.356  1.00  0.00     0.010 A 
ATOM     64  C   UNL A   1      46.759  35.234  28.431  1.00  0.00     0.020 A 
ATOM     65  C   UNL A   1      47.341  34.530  30.683  1.00  0.00     0.020 A 
ATOM     66  C   UNL A   1      47.241  35.527  29.711  1.00  0.00     0.054 A 
BRANCH  66  67
ATOM     67  S   UNL A   1      47.711  37.236  30.099  1.00  0.00     0.124 S 
ATOM     68  O   UNL A   1      46.457  37.951  29.868  1.00  0.00    -0.237 OA
ATOM     69  O   UNL A   1      48.132  37.146  31.494  1.00  0.00    -0.237 OA
ATOM     70  O   UNL A   1      48.778  37.528  29.146  1.00  0.00    -0.744 OA
ENDBRANCH  66  67
ENDBRANCH  47  61
BRANCH  48  71
ATOM     71  C   UNL A   1      43.531  23.589  27.062  1.00  0.00    -0.014 A 
ATOM     72  C   UNL A   1      43.583  23.112  25.741  1.00  0.00     0.010 A 
ATOM     73  C   UNL A   1      43.050  22.740  28.077  1.00  0.00     0.010 A 
ATOM     74  C   UNL A   1      43.153  21.816  25.440  1.00  0.00     0.020 A 
ATOM     75  C   UNL A   1      42.644  21.436  27.784  1.00  0.00     0.020 A 
ATOM     76  C   UNL A   1      42.688  20.984  26.464  1.00  0.00     0.054 A 
BRANCH  76  77
ATOM     77  S   UNL A   1      42.186  19.287  26.061  1.00  0.00     0.124 S 
ATOM     78  O   UNL A   1      42.952  19.025  24.847  1.00  0.00    -0.237 OA
ATOM     79  O   UNL A   1      42.601  18.542  27.247  1.00  0.00    -0.237 OA
ATOM     80  O   UNL A   1      40.740  19.395  25.879  1.00  0.00    -0.744 OA
ENDBRANCH  76  77
ENDBRANCH  48  71
BRANCH  60  81
ATOM     81  C   UNL A   1      49.539  27.026  26.171  1.00  0.00    -0.014 A 
ATOM     82  C   UNL A   1      50.435  26.217  26.890  1.00  0.00     0.010 A 
ATOM     83  C   UNL A   1      49.860  27.406  24.855  1.00  0.00     0.010 A 
ATOM     84  C   UNL A   1      51.638  25.806  26.306  1.00  0.00     0.020 A 
ATOM     85  C   UNL A   1      51.050  26.978  24.261  1.00  0.00     0.020 A 
ATOM     86  C   UNL A   1      51.936  26.187  24.995  1.00  0.00     0.054 A 
BRANCH  86  87
ATOM     87  S   UNL A   1      53.470  25.584  24.236  1.00  0.00     0.124 S 
ATOM     88  O   UNL A   1      53.218  25.813  22.816  1.00  0.00    -0.237 OA
ATOM     89  O   UNL A   1      54.487  26.442  24.839  1.00  0.00    -0.237 OA
ATOM     90  O   UNL A   1      53.529  24.181  24.640  1.00  0.00    -0.744 OA
ENDBRANCH  86  87
ENDBRANCH  60  81
ENDBRANCH  34  35
ENDBRANCH  27  29
ENDBRANCH  26  27
ENDBRANCH  25  26
ENDBRANCH   1  25
TORSDOF 20
ENDMDL
MODEL 2
REMARK VINA RESULT:     -10.1      6.039     10.957
REMARK SMILES CCN(CC(=O)NC(C)C)C(=O)N[C@H]1C=C[C@H](C(=O)OCCOC(=O)c2ccc(-c3c4nc(c(-c5ccc(S(=O)(=O)[O-])cc5)c5ccc([nH]5)c(-c5ccc(S(=O)(=O)[O-])cc5)c5nc(c(-c6ccc(S(=O)(=O)[O-])cc6)c6ccc3[nH]6)C=C5)C=C4)cc2)C1
REMARK SMILES IDX 21 1 20 2 18 3 19 4 17 5 14 6 15 7 86 8 16 9 13 10 11 11
REMARK SMILES IDX 12 12 3 14 2 15 1 16 4 17 5 18 6 19 7 20 8 22 9 23 10 24
REMARK SMILES IDX 22 25 23 26 24 27 25 28 26 29 27 30 85 31 28 32 84 33 29 34
REMARK SMILES IDX 30 35 31 36 78 37 32 38 83 39 77 40 79 41 33 42 82 43 76 44
REMARK SMILES IDX 75 45 34 47 64 48 45 49 63 50 46 51 49 52 62 53 80 54 47 55
REMARK SMILES IDX 48 56 61 58 81 59 50 60 35 61 36 62 44 63 37 64 43 65 38 66
REMARK SMILES IDX 39 67 40 68 41 69 42 70 65 71 66 72 74 73 67 74 73 75 68 76
REMARK SMILES IDX 69 77 70 78 71 79 72 80 51 81 52 82 60 83 53 84 59 85 54 86
REMARK SMILES IDX 55 87 56 88 57 89 58 90
REMARK H PARENT 13 13 7 21 79 46 49 57
REMARK Flexibility Score: inf
ROOT
ATOM      1  C   UNL A   1      33.209  31.309  27.458  1.00  0.00     0.274 C 
ENDROOT
BRANCH   1   2
ATOM      2  O   UNL A   1      32.858  30.388  26.408  1.00  0.00    -0.462 OA
BRANCH   2   3
ATOM      3  C   UNL A   1      33.379  29.126  26.496  1.00  0.00     0.312 C 
ATOM      4  O   UNL A   1      34.090  28.724  27.405  1.00  0.00    -0.252 OA
BRANCH   3   5
ATOM      5  C   UNL A   1      32.946  28.313  25.282  1.00  0.00     0.124 C 
ATOM      6  C   UNL A   1      33.188  28.443  22.848  1.00  0.00     0.107 C 
ATOM      7  C   UNL A   1      31.833  28.870  23.277  1.00  0.00    -0.006 C 
ATOM      8  C   UNL A   1      33.983  28.289  24.145  1.00  0.00     0.048 C 
ATOM      9  C   UNL A   1      31.718  28.869  24.612  1.00  0.00    -0.014 C 
BRANCH   6  10
ATOM     10  N   UNL A   1      33.242  27.357  21.879  1.00  0.00    -0.332 N 
ATOM     11  C   UNL A   1      33.003  26.070  21.630  1.00  0.00     0.318 C 
ATOM     12  O   UNL A   1      33.169  25.763  20.440  1.00  0.00    -0.249 OA
ATOM     13  H   UNL A   1      33.615  27.739  21.051  1.00  0.00     0.165 HD
BRANCH  11  14
ATOM     14  N   UNL A   1      32.563  25.136  22.516  1.00  0.00    -0.316 N 
BRANCH  14  15
ATOM     15  C   UNL A   1      31.226  25.344  23.086  1.00  0.00     0.118 C 
ATOM     16  C   UNL A   1      30.603  24.047  23.598  1.00  0.00     0.027 C 
ENDBRANCH  14  15
BRANCH  14  17
ATOM     17  C   UNL A   1      33.164  23.839  22.782  1.00  0.00     0.221 C 
BRANCH  17  18
ATOM     18  C   UNL A   1      34.026  23.840  24.046  1.00  0.00     0.239 C 
ATOM     19  O   UNL A   1      34.756  24.777  24.359  1.00  0.00    -0.273 OA
ATOM     20  N   UNL A   1      33.973  22.780  24.906  1.00  0.00    -0.352 N 
ATOM     21  H   UNL A   1      33.724  22.949  25.844  1.00  0.00     0.163 HD
BRANCH  20  22
ATOM     22  C   UNL A   1      34.264  21.415  24.502  1.00  0.00     0.075 C 
ATOM     23  C   UNL A   1      35.623  21.012  25.079  1.00  0.00     0.030 C 
ATOM     24  C   UNL A   1      33.171  20.478  25.002  1.00  0.00     0.030 C 
ENDBRANCH  20  22
ENDBRANCH  17  18
ENDBRANCH  14  17
ENDBRANCH  11  14
ENDBRANCH   6  10
ENDBRANCH   3   5
ENDBRANCH   2   3
ENDBRANCH   1   2
BRANCH   1  25
ATOM     25  C   UNL A   1      32.517  32.657  27.249  1.00  0.00     0.275 C 
BRANCH  25  26
ATOM     26  O   UNL A   1      33.423  33.745  27.507  1.00  0.00    -0.458 OA
BRANCH  26  27
ATOM     27  C   UNL A   1      33.450  34.187  28.786  1.00  0.00     0.338 C 
ATOM     28  O   UNL A   1      32.548  34.741  29.400  1.00  0.00    -0.246 OA
BRANCH  27  29
ATOM     29  C   UNL A   1      34.699  33.745  29.421  1.00  0.00     0.060 A 
ATOM     30  C   UNL A   1      34.587  32.859  30.492  1.00  0.00     0.016 A 
ATOM     31  C   UNL A   1      35.951  34.209  29.018  1.00  0.00     0.016 A 
ATOM     32  C   UNL A   1      35.722  32.418  31.168  1.00  0.00     0.010 A 
ATOM     33  C   UNL A   1      37.094  33.764  29.697  1.00  0.00     0.010 A 
ATOM     34  C   UNL A   1      36.988  32.865  30.776  1.00  0.00    -0.014 A 
BRANCH  34  35
ATOM     35  C   UNL A   1      38.196  32.421  31.516  1.00  0.00     0.031 A 
ATOM     36  C   UNL A   1      39.085  31.362  30.931  1.00  0.00     0.074 A 
ATOM     37  C   UNL A   1      38.505  32.974  32.704  1.00  0.00     0.049 A 
ATOM     38  N   UNL A   1      40.104  30.744  31.474  1.00  0.00    -0.248 NA
ATOM     39  C   UNL A   1      38.790  30.941  29.551  1.00  0.00     0.031 C 
ATOM     40  C   UNL A   1      37.768  34.062  33.349  1.00  0.00     0.029 A 
ATOM     41  N   UNL A   1      39.523  32.692  33.583  1.00  0.00    -0.354 N 
ATOM     42  C   UNL A   1      40.554  29.842  30.517  1.00  0.00     0.074 A 
ATOM     43  C   UNL A   1      39.694  29.990  29.361  1.00  0.00     0.031 C 
ATOM     44  C   UNL A   1      38.361  34.358  34.519  1.00  0.00     0.029 A 
ATOM     45  C   UNL A   1      39.477  33.441  34.736  1.00  0.00     0.049 A 
ATOM     46  H   UNL A   1      40.217  32.019  33.405  1.00  0.00     0.167 HD
ATOM     47  C   UNL A   1      41.584  28.968  30.599  1.00  0.00     0.031 A 
ATOM     48  C   UNL A   1      40.223  33.371  35.856  1.00  0.00     0.031 A 
ATOM     49  C   UNL A   1      42.441  28.829  31.747  1.00  0.00     0.049 A 
ATOM     50  C   UNL A   1      41.307  32.333  35.958  1.00  0.00     0.074 A 
ATOM     51  C   UNL A   1      43.510  27.968  31.923  1.00  0.00     0.029 A 
ATOM     52  N   UNL A   1      42.328  29.570  32.914  1.00  0.00    -0.354 N 
ATOM     53  N   UNL A   1      41.701  31.462  35.059  1.00  0.00    -0.248 NA
ATOM     54  C   UNL A   1      42.037  32.254  37.232  1.00  0.00     0.031 C 
ATOM     55  C   UNL A   1      44.013  28.154  33.216  1.00  0.00     0.029 A 
ATOM     56  C   UNL A   1      43.290  29.166  33.825  1.00  0.00     0.049 A 
ATOM     57  H   UNL A   1      41.663  30.278  33.071  1.00  0.00     0.167 HD
ATOM     58  C   UNL A   1      42.730  30.741  35.655  1.00  0.00     0.074 A 
ATOM     59  C   UNL A   1      42.912  31.289  36.983  1.00  0.00     0.031 C 
ATOM     60  C   UNL A   1      43.458  29.717  35.146  1.00  0.00     0.031 A 
BRANCH  47  61
ATOM     61  C   UNL A   1      41.809  28.050  29.428  1.00  0.00    -0.014 A 
ATOM     62  C   UNL A   1      42.820  28.300  28.484  1.00  0.00     0.010 A 
ATOM     63  C   UNL A   1      41.012  26.899  29.290  1.00  0.00     0.010 A 
ATOM     64  C   UNL A   1      43.003  27.435  27.401  1.00  0.00     0.020 A 
ATOM     65  C   UNL A   1      41.206  26.020  28.223  1.00  0.00     0.020 A 
ATOM     66  C   UNL A   1      42.189  26.305  27.273  1.00  0.00     0.054 A 
BRANCH  66  67
ATOM     67  S   UNL A   1      42.449  25.194  25.862  1.00  0.00     0.124 S 
ATOM     68  O   UNL A   1      41.493  25.719  24.888  1.00  0.00    -0.237 OA
ATOM     69  O   UNL A   1      43.856  25.411  25.536  1.00  0.00    -0.237 OA
ATOM     70  O   UNL A   1      42.132  23.873  26.396  1.00  0.00    -0.744 OA
ENDBRANCH  66  67
ENDBRANCH  47  61
BRANCH  48  71
ATOM     71  C   UNL A   1      39.927  34.275  37.002  1.00  0.00    -0.014 A 
ATOM     72  C   UNL A   1      39.060  33.872  38.032  1.00  0.00     0.010 A 
ATOM     73  C   UNL A   1      40.520  35.550  37.068  1.00  0.00     0.010 A 
ATOM     74  C   UNL A   1      38.783  34.732  39.100  1.00  0.00     0.020 A 
ATOM     75  C   UNL A   1      40.267  36.401  38.146  1.00  0.00     0.020 A 
ATOM     76  C   UNL A   1      39.391  35.991  39.152  1.00  0.00     0.054 A 
BRANCH  76  77
ATOM     77  S   UNL A   1      39.062  37.070  40.574  1.00  0.00     0.124 S 
ATOM     78  O   UNL A   1      38.239  38.117  39.976  1.00  0.00    -0.237 OA
ATOM     79  O   UNL A   1      38.373  36.175  41.500  1.00  0.00    -0.237 OA
ATOM     80  O   UNL A   1      40.396  37.487  40.999  1.00  0.00    -0.744 OA
ENDBRANCH  76  77
ENDBRANCH  48  71
BRANCH  60  81
ATOM     81  C   UNL A   1      44.532  29.124  36.019  1.00  0.00    -0.014 A 
ATOM     82  C   UNL A   1      45.826  29.673  36.047  1.00  0.00     0.010 A 
ATOM     83  C   UNL A   1      44.221  28.054  36.877  1.00  0.00     0.010 A 
ATOM     84  C   UNL A   1      46.795  29.150  36.909  1.00  0.00     0.020 A 
ATOM     85  C   UNL A   1      45.180  27.543  37.756  1.00  0.00     0.020 A 
ATOM     86  C   UNL A   1      46.464  28.091  37.759  1.00  0.00     0.054 A 
BRANCH  86  87
ATOM     87  S   UNL A   1      47.719  27.475  38.917  1.00  0.00     0.124 S 
ATOM     88  O   UNL A   1      48.656  26.802  38.021  1.00  0.00    -0.237 OA
ATOM     89  O   UNL A   1      48.215  28.702  39.537  1.00  0.00    -0.237 OA
ATOM     90  O   UNL A   1      46.967  26.595  39.808  1.00  0.00    -0.744 OA
ENDBRANCH  86  87
ENDBRANCH  60  81
ENDBRANCH  34  35
ENDBRANCH  27  29
ENDBRANCH  26  27
ENDBRANCH  25  26
ENDBRANCH   1  25
TORSDOF 20
ENDMDL
MODEL 3
REMARK VINA RESULT:      -9.9      6.289     11.760
REMARK SMILES CCN(CC(=O)NC(C)C)C(=O)N[C@H]1C=C[C@H](C(=O)OCCOC(=O)c2ccc(-c3c4nc(c(-c5ccc(S(=O)(=O)[O-])cc5)c5ccc([nH]5)c(-c5ccc(S(=O)(=O)[O-])cc5)c5nc(c(-c6ccc(S(=O)(=O)[O-])cc6)c6ccc3[nH]6)C=C5)C=C4)cc2)C1
REMARK SMILES IDX 21 1 20 2 18 3 19 4 17 5 14 6 15 7 86 8 16 9 13 10 11 11
REMARK SMILES IDX 12 12 3 14 2 15 1 16 4 17 5 18 6 19 7 20 8 22 9 23 10 24
REMARK SMILES IDX 22 25 23 26 24 27 25 28 26 29 27 30 85 31 28 32 84 33 29 34
REMARK SMILES IDX 30 35 31 36 78 37 32 38 83 39 77 40 79 41 33 42 82 43 76 44
REMARK SMILES IDX 75 45 34 47 64 48 45 49 63 50 46 51 49 52 62 53 80 54 47 55
REMARK SMILES IDX 48 56 61 58 81 59 50 60 35 61 36 62 44 63 37 64 43 65 38 66
REMARK SMILES IDX 39 67 40 68 41 69 42 70 65 71 66 72 74 73 67 74 73 75 68 76
REMARK SMILES IDX 69 77 70 78 71 79 72 80 51 81 52 82 60 83 53 84 59 85 54 86
REMARK SMILES IDX 55 87 56 88 57 89 58 90
REMARK H PARENT 13 13 7 21 79 46 49 57
REMARK Flexibility Score: inf
ROOT
ATOM      1  C   UNL A   1      40.043  22.224  27.091  1.00  0.00     0.274 C 
ENDROOT
BRANCH   1   2
ATOM      2  O   UNL A   1      38.964  22.070  26.150  1.00  0.00    -0.462 OA
BRANCH   2   3
ATOM      3  C   UNL A   1      38.150  23.154  25.964  1.00  0.00     0.312 C 
ATOM      4  O   UNL A   1      38.312  24.249  26.482  1.00  0.00    -0.252 OA
BRANCH   3   5
ATOM      5  C   UNL A   1      37.010  22.776  25.026  1.00  0.00     0.124 C 
ATOM      6  C   UNL A   1      34.737  21.885  25.223  1.00  0.00     0.107 C 
ATOM      7  C   UNL A   1      35.690  20.834  24.786  1.00  0.00    -0.006 C 
ATOM      8  C   UNL A   1      35.611  23.084  25.589  1.00  0.00     0.048 C 
ATOM      9  C   UNL A   1      36.947  21.299  24.745  1.00  0.00    -0.014 C 
BRANCH   6  10
ATOM     10  N   UNL A   1      33.591  22.112  24.353  1.00  0.00    -0.332 N 
ATOM     11  C   UNL A   1      32.686  22.981  23.904  1.00  0.00     0.318 C 
ATOM     12  O   UNL A   1      31.992  22.530  22.980  1.00  0.00    -0.249 OA
ATOM     13  H   UNL A   1      33.407  21.255  23.904  1.00  0.00     0.165 HD
BRANCH  11  14
ATOM     14  N   UNL A   1      32.511  24.265  24.318  1.00  0.00    -0.316 N 
BRANCH  14  15
ATOM     15  C   UNL A   1      31.494  24.493  25.353  1.00  0.00     0.118 C 
ATOM     16  C   UNL A   1      32.055  24.336  26.765  1.00  0.00     0.027 C 
ENDBRANCH  14  15
BRANCH  14  17
ATOM     17  C   UNL A   1      33.373  25.398  24.025  1.00  0.00     0.221 C 
BRANCH  17  18
ATOM     18  C   UNL A   1      33.145  25.962  22.621  1.00  0.00     0.239 C 
ATOM     19  O   UNL A   1      33.765  25.573  21.634  1.00  0.00    -0.273 OA
ATOM     20  N   UNL A   1      32.188  26.915  22.417  1.00  0.00    -0.352 N 
ATOM     21  H   UNL A   1      31.472  26.729  21.768  1.00  0.00     0.163 HD
BRANCH  20  22
ATOM     22  C   UNL A   1      32.175  28.189  23.117  1.00  0.00     0.075 C 
ATOM     23  C   UNL A   1      33.471  28.937  22.795  1.00  0.00     0.030 C 
ATOM     24  C   UNL A   1      30.964  29.007  22.689  1.00  0.00     0.030 C 
ENDBRANCH  20  22
ENDBRANCH  17  18
ENDBRANCH  14  17
ENDBRANCH  11  14
ENDBRANCH   6  10
ENDBRANCH   3   5
ENDBRANCH   2   3
ENDBRANCH   1   2
BRANCH   1  25
ATOM     25  C   UNL A   1      41.364  22.480  26.363  1.00  0.00     0.275 C 
BRANCH  25  26
ATOM     26  O   UNL A   1      42.113  23.526  27.009  1.00  0.00    -0.458 OA
BRANCH  26  27
ATOM     27  C   UNL A   1      41.983  24.757  26.463  1.00  0.00     0.338 C 
ATOM     28  O   UNL A   1      41.813  25.031  25.282  1.00  0.00    -0.246 OA
BRANCH  27  29
ATOM     29  C   UNL A   1      41.897  25.754  27.539  1.00  0.00     0.060 A 
ATOM     30  C   UNL A   1      40.865  25.602  28.464  1.00  0.00     0.016 A 
ATOM     31  C   UNL A   1      42.770  26.838  27.627  1.00  0.00     0.016 A 
ATOM     32  C   UNL A   1      40.697  26.524  29.494  1.00  0.00     0.010 A 
ATOM     33  C   UNL A   1      42.602  27.765  28.666  1.00  0.00     0.010 A 
ATOM     34  C   UNL A   1      41.565  27.614  29.607  1.00  0.00    -0.014 A 
BRANCH  34  35
ATOM     35  C   UNL A   1      41.368  28.615  30.686  1.00  0.00     0.031 A 
ATOM     36  C   UNL A   1      42.247  28.588  31.902  1.00  0.00     0.074 A 
ATOM     37  C   UNL A   1      40.412  29.556  30.571  1.00  0.00     0.049 A 
ATOM     38  N   UNL A   1      42.152  29.282  33.008  1.00  0.00    -0.248 NA
ATOM     39  C   UNL A   1      43.386  27.656  31.872  1.00  0.00     0.031 C 
ATOM     40  C   UNL A   1      39.538  29.739  29.410  1.00  0.00     0.029 A 
ATOM     41  N   UNL A   1      40.012  30.535  31.449  1.00  0.00    -0.354 N 
ATOM     42  C   UNL A   1      43.197  28.853  33.817  1.00  0.00     0.074 A 
ATOM     43  C   UNL A   1      43.912  27.835  33.077  1.00  0.00     0.031 C 
ATOM     44  C   UNL A   1      38.709  30.770  29.646  1.00  0.00     0.029 A 
ATOM     45  C   UNL A   1      38.948  31.279  30.995  1.00  0.00     0.049 A 
ATOM     46  H   UNL A   1      40.445  30.689  32.318  1.00  0.00     0.167 HD
ATOM     47  C   UNL A   1      43.525  29.267  35.064  1.00  0.00     0.031 A 
ATOM     48  C   UNL A   1      38.220  32.233  31.608  1.00  0.00     0.031 A 
ATOM     49  C   UNL A   1      42.817  30.284  35.794  1.00  0.00     0.049 A 
ATOM     50  C   UNL A   1      38.550  32.615  33.027  1.00  0.00     0.074 A 
ATOM     51  C   UNL A   1      43.074  30.768  37.065  1.00  0.00     0.029 A 
ATOM     52  N   UNL A   1      41.712  30.976  35.319  1.00  0.00    -0.354 N 
ATOM     53  N   UNL A   1      39.520  32.177  33.793  1.00  0.00    -0.248 NA
ATOM     54  C   UNL A   1      37.676  33.607  33.670  1.00  0.00     0.031 C 
ATOM     55  C   UNL A   1      42.095  31.718  37.378  1.00  0.00     0.029 A 
ATOM     56  C   UNL A   1      41.259  31.862  36.282  1.00  0.00     0.049 A 
ATOM     57  H   UNL A   1      41.310  30.855  34.429  1.00  0.00     0.167 HD
ATOM     58  C   UNL A   1      39.379  32.848  35.003  1.00  0.00     0.074 A 
ATOM     59  C   UNL A   1      38.243  33.734  34.862  1.00  0.00     0.031 C 
ATOM     60  C   UNL A   1      40.124  32.737  36.130  1.00  0.00     0.031 A 
BRANCH  47  61
ATOM     61  C   UNL A   1      44.676  28.574  35.742  1.00  0.00    -0.014 A 
ATOM     62  C   UNL A   1      44.472  27.467  36.585  1.00  0.00     0.010 A 
ATOM     63  C   UNL A   1      45.988  29.022  35.503  1.00  0.00     0.010 A 
ATOM     64  C   UNL A   1      45.559  26.846  37.208  1.00  0.00     0.020 A 
ATOM     65  C   UNL A   1      47.078  28.390  36.106  1.00  0.00     0.020 A 
ATOM     66  C   UNL A   1      46.854  27.317  36.971  1.00  0.00     0.054 A 
BRANCH  66  67
ATOM     67  S   UNL A   1      48.248  26.492  37.788  1.00  0.00     0.124 S 
ATOM     68  O   UNL A   1      47.586  25.824  38.907  1.00  0.00    -0.237 OA
ATOM     69  O   UNL A   1      48.756  25.607  36.743  1.00  0.00    -0.237 OA
ATOM     70  O   UNL A   1      49.136  27.591  38.156  1.00  0.00    -0.744 OA
ENDBRANCH  66  67
ENDBRANCH  47  61
BRANCH  48  71
ATOM     71  C   UNL A   1      37.064  32.853  30.904  1.00  0.00    -0.014 A 
ATOM     72  C   UNL A   1      37.260  33.871  29.956  1.00  0.00     0.010 A 
ATOM     73  C   UNL A   1      35.754  32.419  31.180  1.00  0.00     0.010 A 
ATOM     74  C   UNL A   1      36.166  34.452  29.305  1.00  0.00     0.020 A 
ATOM     75  C   UNL A   1      34.661  32.977  30.513  1.00  0.00     0.020 A 
ATOM     76  C   UNL A   1      34.873  33.999  29.586  1.00  0.00     0.054 A 
BRANCH  76  77
ATOM     77  S   UNL A   1      33.471  34.727  28.691  1.00  0.00     0.124 S 
ATOM     78  O   UNL A   1      32.509  34.950  29.765  1.00  0.00    -0.237 OA
ATOM     79  O   UNL A   1      34.058  35.929  28.105  1.00  0.00    -0.237 OA
ATOM     80  O   UNL A   1      33.107  33.689  27.729  1.00  0.00    -0.744 OA
ENDBRANCH  76  77
ENDBRANCH  48  71
BRANCH  60  81
ATOM     81  C   UNL A   1      39.750  33.605  37.302  1.00  0.00    -0.014 A 
ATOM     82  C   UNL A   1      38.821  33.165  38.260  1.00  0.00     0.010 A 
ATOM     83  C   UNL A   1      40.392  34.843  37.485  1.00  0.00     0.010 A 
ATOM     84  C   UNL A   1      38.530  33.956  39.376  1.00  0.00     0.020 A 
ATOM     85  C   UNL A   1      40.121  35.626  38.611  1.00  0.00     0.020 A 
ATOM     86  C   UNL A   1      39.184  35.180  39.545  1.00  0.00     0.054 A 
BRANCH  86  87
ATOM     87  S   UNL A   1      38.841  36.156  41.036  1.00  0.00     0.124 S 
ATOM     88  O   UNL A   1      38.483  37.456  40.473  1.00  0.00    -0.237 OA
ATOM     89  O   UNL A   1      37.744  35.419  41.658  1.00  0.00    -0.237 OA
ATOM     90  O   UNL A   1      40.102  36.122  41.771  1.00  0.00    -0.744 OA
ENDBRANCH  86  87
ENDBRANCH  60  81
ENDBRANCH  34  35
ENDBRANCH  27  29
ENDBRANCH  26  27
ENDBRANCH  25  26
ENDBRANCH   1  25
TORSDOF 20
ENDMDL
