MODEL 1
REMARK VINA RESULT:     -11.5      0.000      0.000
REMARK SMILES NS(=O)(=O)c1ccc(/N=N/c2ccc(O)c(C(=O)OCCOC(=O)c3ccc(-c4c5nc(c(-c6ccc(S(=O)(=O)[O-])cc6)c6ccc([nH]6)c(-c6ccc(S(=O)(=O)[O-])cc6)c6nc(c(-c7ccc(S(=O)(=O)[O-])cc7)c7ccc4[nH]7)C=C6)C=C5)cc3)c2)cc1
REMARK SMILES IDX 20 1 19 2 17 3 18 4 16 5 11 6 12 7 85 8 13 9 14 10 10 11
REMARK SMILES IDX 9 12 8 13 5 14 6 15 87 16 7 17 86 18 2 19 3 20 4 21 1 22
REMARK SMILES IDX 15 25 21 27 22 28 23 29 24 30 25 31 26 32 84 33 27 34 83 35
REMARK SMILES IDX 28 36 29 37 30 38 77 39 31 40 82 41 76 42 78 43 32 44 81 45
REMARK SMILES IDX 75 46 74 47 33 49 63 50 44 51 62 52 45 53 48 54 61 55 79 56
REMARK SMILES IDX 46 57 47 58 60 60 80 61 49 62 34 63 35 64 43 65 36 66 42 67
REMARK SMILES IDX 37 68 38 69 39 70 40 71 41 72 64 73 65 74 73 75 66 76 72 77
REMARK SMILES IDX 67 78 68 79 69 80 70 81 71 82 50 83 51 84 59 85 52 86 58 87
REMARK SMILES IDX 53 88 54 89 55 90 56 91 57 92
REMARK H PARENT 1 23 1 24 15 26 78 48 48 59
REMARK Flexibility Score: inf
ROOT
ATOM      1  C   UNL A   1      39.356  21.532  26.096  1.00  0.00     0.275 C 
ENDROOT
BRANCH   1   2
ATOM      2  O   UNL A   1      40.607  20.998  26.570  1.00  0.00    -0.458 OA
BRANCH   2   3
ATOM      3  C   UNL A   1      40.990  19.801  26.066  1.00  0.00     0.342 C 
ATOM      4  O   UNL A   1      40.260  18.877  25.738  1.00  0.00    -0.246 OA
BRANCH   3   5
ATOM      5  C   UNL A   1      42.456  19.759  25.845  1.00  0.00     0.104 A 
ATOM      6  C   UNL A   1      44.560  20.878  25.374  1.00  0.00     0.087 A 
ATOM      7  C   UNL A   1      45.185  19.637  25.221  1.00  0.00     0.034 A 
ATOM      8  C   UNL A   1      43.185  20.933  25.639  1.00  0.00     0.049 A 
ATOM      9  C   UNL A   1      44.470  18.461  25.448  1.00  0.00     0.049 A 
ATOM     10  C   UNL A   1      43.125  18.528  25.806  1.00  0.00     0.130 A 
BRANCH   6  11
ATOM     11  N   UNL A   1      45.307  22.066  25.311  1.00  0.00    -0.151 NA
ATOM     12  N   UNL A   1      44.512  23.020  25.465  1.00  0.00    -0.151 NA
BRANCH  12  13
ATOM     13  C   UNL A   1      45.102  24.283  25.310  1.00  0.00     0.086 A 
ATOM     14  C   UNL A   1      46.395  26.718  24.831  1.00  0.00     0.082 A 
ATOM     15  C   UNL A   1      47.103  25.525  24.688  1.00  0.00     0.024 A 
ATOM     16  C   UNL A   1      45.055  26.712  25.230  1.00  0.00     0.024 A 
ATOM     17  C   UNL A   1      46.449  24.315  24.924  1.00  0.00     0.031 A 
ATOM     18  C   UNL A   1      44.411  25.495  25.460  1.00  0.00     0.031 A 
BRANCH  14  19
ATOM     19  S   UNL A   1      47.192  28.260  24.504  1.00  0.00     0.238 S 
ATOM     20  O   UNL A   1      48.626  28.093  24.609  1.00  0.00    -0.207 OA
ATOM     21  O   UNL A   1      46.482  29.314  25.182  1.00  0.00    -0.207 OA
BRANCH  19  22
ATOM     22  N   UNL A   1      46.886  28.459  22.865  1.00  0.00    -0.225 NA
ATOM     23  H   UNL A   1      46.445  29.366  22.710  1.00  0.00     0.137 HD
ATOM     24  H   UNL A   1      46.264  27.718  22.544  1.00  0.00     0.137 HD
ENDBRANCH  19  22
ENDBRANCH  14  19
ENDBRANCH  12  13
ENDBRANCH   6  11
BRANCH  10  25
ATOM     25  O   UNL A   1      42.516  17.330  26.070  1.00  0.00    -0.507 OA
ATOM     26  H   UNL A   1      42.965  16.677  26.572  1.00  0.00     0.293 HD
ENDBRANCH  10  25
ENDBRANCH   3   5
ENDBRANCH   2   3
ENDBRANCH   1   2
BRANCH   1  27
ATOM     27  C   UNL A   1      39.168  22.989  26.531  1.00  0.00     0.275 C 
BRANCH  27  28
ATOM     28  O   UNL A   1      40.259  23.436  27.357  1.00  0.00    -0.458 OA
BRANCH  28  29
ATOM     29  C   UNL A   1      40.854  24.584  26.952  1.00  0.00     0.338 C 
ATOM     30  O   UNL A   1      41.383  24.792  25.872  1.00  0.00    -0.246 OA
BRANCH  29  31
ATOM     31  C   UNL A   1      40.591  25.649  27.936  1.00  0.00     0.060 A 
ATOM     32  C   UNL A   1      41.581  26.621  28.082  1.00  0.00     0.016 A 
ATOM     33  C   UNL A   1      39.445  25.694  28.729  1.00  0.00     0.016 A 
ATOM     34  C   UNL A   1      41.422  27.673  28.976  1.00  0.00     0.010 A 
ATOM     35  C   UNL A   1      39.300  26.733  29.663  1.00  0.00     0.010 A 
ATOM     36  C   UNL A   1      40.287  27.730  29.789  1.00  0.00    -0.014 A 
BRANCH  36  37
ATOM     37  C   UNL A   1      40.212  28.769  30.847  1.00  0.00     0.031 A 
ATOM     38  C   UNL A   1      41.152  28.691  32.016  1.00  0.00     0.074 A 
ATOM     39  C   UNL A   1      39.364  29.809  30.734  1.00  0.00     0.049 A 
ATOM     40  N   UNL A   1      41.225  29.459  33.072  1.00  0.00    -0.248 NA
ATOM     41  C   UNL A   1      42.147  27.608  31.987  1.00  0.00     0.031 C 
ATOM     42  C   UNL A   1      38.470  30.054  29.602  1.00  0.00     0.029 A 
ATOM     43  N   UNL A   1      39.122  30.859  31.585  1.00  0.00    -0.354 N 
ATOM     44  C   UNL A   1      42.259  28.943  33.844  1.00  0.00     0.074 A 
ATOM     45  C   UNL A   1      42.772  27.785  33.142  1.00  0.00     0.031 C 
ATOM     46  C   UNL A   1      37.772  31.180  29.833  1.00  0.00     0.029 A 
ATOM     47  C   UNL A   1      38.132  31.707  31.148  1.00  0.00     0.049 A 
ATOM     48  H   UNL A   1      39.611  30.992  32.429  1.00  0.00     0.167 HD
ATOM     49  C   UNL A   1      42.739  29.392  35.028  1.00  0.00     0.031 A 
ATOM     50  C   UNL A   1      37.559  32.769  31.750  1.00  0.00     0.031 A 
ATOM     51  C   UNL A   1      42.218  30.539  35.727  1.00  0.00     0.049 A 
ATOM     52  C   UNL A   1      38.035  33.185  33.119  1.00  0.00     0.074 A 
ATOM     53  C   UNL A   1      42.631  31.066  36.938  1.00  0.00     0.029 A 
ATOM     54  N   UNL A   1      41.170  31.332  35.283  1.00  0.00    -0.354 N 
ATOM     55  N   UNL A   1      39.004  32.679  33.846  1.00  0.00    -0.248 NA
ATOM     56  C   UNL A   1      37.343  34.319  33.747  1.00  0.00     0.031 C 
ATOM     57  C   UNL A   1      41.788  32.135  37.259  1.00  0.00     0.029 A 
ATOM     58  C   UNL A   1      40.902  32.325  36.211  1.00  0.00     0.049 A 
ATOM     59  H   UNL A   1      40.688  31.207  34.434  1.00  0.00     0.167 HD
ATOM     60  C   UNL A   1      39.058  33.454  35.001  1.00  0.00     0.074 A 
ATOM     61  C   UNL A   1      38.035  34.470  34.869  1.00  0.00     0.031 C 
ATOM     62  C   UNL A   1      39.883  33.335  36.072  1.00  0.00     0.031 A 
BRANCH  49  63
ATOM     63  C   UNL A   1      43.847  28.602  35.674  1.00  0.00    -0.014 A 
ATOM     64  C   UNL A   1      45.199  28.844  35.369  1.00  0.00     0.010 A 
ATOM     65  C   UNL A   1      43.527  27.618  36.627  1.00  0.00     0.010 A 
ATOM     66  C   UNL A   1      46.206  28.089  35.976  1.00  0.00     0.020 A 
ATOM     67  C   UNL A   1      44.532  26.883  37.260  1.00  0.00     0.020 A 
ATOM     68  C   UNL A   1      45.866  27.111  36.917  1.00  0.00     0.054 A 
BRANCH  68  69
ATOM     69  S   UNL A   1      47.194  26.158  37.702  1.00  0.00     0.124 S 
ATOM     70  O   UNL A   1      48.271  26.279  36.722  1.00  0.00    -0.237 OA
ATOM     71  O   UNL A   1      47.403  26.875  38.956  1.00  0.00    -0.237 OA
ATOM     72  O   UNL A   1      46.627  24.819  37.840  1.00  0.00    -0.744 OA
ENDBRANCH  68  69
ENDBRANCH  49  63
BRANCH  50  73
ATOM     73  C   UNL A   1      36.437  33.493  31.085  1.00  0.00    -0.014 A 
ATOM     74  C   UNL A   1      36.512  33.853  29.729  1.00  0.00     0.010 A 
ATOM     75  C   UNL A   1      35.289  33.845  31.820  1.00  0.00     0.010 A 
ATOM     76  C   UNL A   1      35.471  34.569  29.125  1.00  0.00     0.020 A 
ATOM     77  C   UNL A   1      34.233  34.529  31.213  1.00  0.00     0.020 A 
ATOM     78  C   UNL A   1      34.336  34.899  29.872  1.00  0.00     0.054 A 
BRANCH  78  79
ATOM     79  S   UNL A   1      32.980  35.787  29.057  1.00  0.00     0.124 S 
ATOM     80  O   UNL A   1      33.691  36.856  28.363  1.00  0.00    -0.237 OA
ATOM     81  O   UNL A   1      32.397  34.756  28.203  1.00  0.00    -0.237 OA
ATOM     82  O   UNL A   1      32.135  36.218  30.169  1.00  0.00    -0.744 OA
ENDBRANCH  78  79
ENDBRANCH  50  73
BRANCH  62  83
ATOM     83  C   UNL A   1      39.755  34.360  37.171  1.00  0.00    -0.014 A 
ATOM     84  C   UNL A   1      39.029  34.096  38.346  1.00  0.00     0.010 A 
ATOM     85  C   UNL A   1      40.426  35.592  37.047  1.00  0.00     0.010 A 
ATOM     86  C   UNL A   1      38.947  35.058  39.358  1.00  0.00     0.020 A 
ATOM     87  C   UNL A   1      40.374  36.541  38.070  1.00  0.00     0.020 A 
ATOM     88  C   UNL A   1      39.622  36.274  39.215  1.00  0.00     0.054 A 
BRANCH  88  89
ATOM     89  S   UNL A   1      39.534  37.486  40.562  1.00  0.00     0.124 S 
ATOM     90  O   UNL A   1      38.789  38.578  39.941  1.00  0.00    -0.237 OA
ATOM     91  O   UNL A   1      38.823  36.754  41.606  1.00  0.00    -0.237 OA
ATOM     92  O   UNL A   1      40.935  37.780  40.858  1.00  0.00    -0.744 OA
ENDBRANCH  88  89
ENDBRANCH  62  83
ENDBRANCH  36  37
ENDBRANCH  29  31
ENDBRANCH  28  29
ENDBRANCH  27  28
ENDBRANCH   1  27
TORSDOF 19
ENDMDL
MODEL 2
REMARK VINA RESULT:     -11.3      6.824     13.846
REMARK SMILES NS(=O)(=O)c1ccc(/N=N/c2ccc(O)c(C(=O)OCCOC(=O)c3ccc(-c4c5nc(c(-c6ccc(S(=O)(=O)[O-])cc6)c6ccc([nH]6)c(-c6ccc(S(=O)(=O)[O-])cc6)c6nc(c(-c7ccc(S(=O)(=O)[O-])cc7)c7ccc4[nH]7)C=C6)C=C5)cc3)c2)cc1
REMARK SMILES IDX 20 1 19 2 17 3 18 4 16 5 11 6 12 7 85 8 13 9 14 10 10 11
REMARK SMILES IDX 9 12 8 13 5 14 6 15 87 16 7 17 86 18 2 19 3 20 4 21 1 22
REMARK SMILES IDX 15 25 21 27 22 28 23 29 24 30 25 31 26 32 84 33 27 34 83 35
REMARK SMILES IDX 28 36 29 37 30 38 77 39 31 40 82 41 76 42 78 43 32 44 81 45
REMARK SMILES IDX 75 46 74 47 33 49 63 50 44 51 62 52 45 53 48 54 61 55 79 56
REMARK SMILES IDX 46 57 47 58 60 60 80 61 49 62 34 63 35 64 43 65 36 66 42 67
REMARK SMILES IDX 37 68 38 69 39 70 40 71 41 72 64 73 65 74 73 75 66 76 72 77
REMARK SMILES IDX 67 78 68 79 69 80 70 81 71 82 50 83 51 84 59 85 52 86 58 87
REMARK SMILES IDX 53 88 54 89 55 90 56 91 57 92
REMARK H PARENT 1 23 1 24 15 26 78 48 48 59
REMARK Flexibility Score: inf
ROOT
ATOM      1  C   UNL A   1      34.029  29.245  27.592  1.00  0.00     0.275 C 
ENDROOT
BRANCH   1   2
ATOM      2  O   UNL A   1      32.712  29.287  27.011  1.00  0.00    -0.458 OA
BRANCH   2   3
ATOM      3  C   UNL A   1      31.976  28.152  27.080  1.00  0.00     0.342 C 
ATOM      4  O   UNL A   1      31.102  27.896  27.895  1.00  0.00    -0.246 OA
BRANCH   3   5
ATOM      5  C   UNL A   1      32.285  27.246  25.949  1.00  0.00     0.104 A 
ATOM      6  C   UNL A   1      32.786  25.032  25.085  1.00  0.00     0.087 A 
ATOM      7  C   UNL A   1      33.076  25.586  23.834  1.00  0.00     0.034 A 
ATOM      8  C   UNL A   1      32.436  25.871  26.150  1.00  0.00     0.049 A 
ATOM      9  C   UNL A   1      32.905  26.953  23.618  1.00  0.00     0.049 A 
ATOM     10  C   UNL A   1      32.463  27.767  24.660  1.00  0.00     0.130 A 
BRANCH   6  11
ATOM     11  N   UNL A   1      32.795  23.639  25.267  1.00  0.00    -0.151 NA
ATOM     12  N   UNL A   1      33.632  23.159  24.471  1.00  0.00    -0.151 NA
BRANCH  12  13
ATOM     13  C   UNL A   1      33.668  21.757  24.458  1.00  0.00     0.086 A 
ATOM     14  C   UNL A   1      33.633  18.967  24.237  1.00  0.00     0.082 A 
ATOM     15  C   UNL A   1      32.533  19.705  23.799  1.00  0.00     0.024 A 
ATOM     16  C   UNL A   1      34.741  19.603  24.803  1.00  0.00     0.024 A 
ATOM     17  C   UNL A   1      32.561  21.096  23.908  1.00  0.00     0.031 A 
ATOM     18  C   UNL A   1      34.758  20.996  24.904  1.00  0.00     0.031 A 
BRANCH  14  19
ATOM     19  S   UNL A   1      33.634  17.209  24.076  1.00  0.00     0.238 S 
ATOM     20  O   UNL A   1      34.625  16.643  24.966  1.00  0.00    -0.207 OA
ATOM     21  O   UNL A   1      33.558  16.861  22.680  1.00  0.00    -0.207 OA
BRANCH  19  22
ATOM     22  N   UNL A   1      32.149  16.805  24.747  1.00  0.00    -0.225 NA
ATOM     23  H   UNL A   1      32.197  16.901  25.761  1.00  0.00     0.137 HD
ATOM     24  H   UNL A   1      31.918  15.842  24.506  1.00  0.00     0.137 HD
ENDBRANCH  19  22
ENDBRANCH  14  19
ENDBRANCH  12  13
ENDBRANCH   6  11
BRANCH  10  25
ATOM     25  O   UNL A   1      32.263  29.085  24.345  1.00  0.00    -0.507 OA
ATOM     26  H   UNL A   1      31.410  29.381  24.094  1.00  0.00     0.293 HD
ENDBRANCH  10  25
ENDBRANCH   3   5
ENDBRANCH   2   3
ENDBRANCH   1   2
BRANCH   1  27
ATOM     27  C   UNL A   1      34.534  30.649  27.939  1.00  0.00     0.275 C 
BRANCH  27  28
ATOM     28  O   UNL A   1      35.972  30.689  28.006  1.00  0.00    -0.458 OA
BRANCH  28  29
ATOM     29  C   UNL A   1      36.505  30.262  29.177  1.00  0.00     0.338 C 
ATOM     30  O   UNL A   1      35.898  29.991  30.201  1.00  0.00    -0.246 OA
BRANCH  29  31
ATOM     31  C   UNL A   1      37.935  29.961  28.986  1.00  0.00     0.060 A 
ATOM     32  C   UNL A   1      38.335  29.635  27.691  1.00  0.00     0.016 A 
ATOM     33  C   UNL A   1      38.861  29.948  30.029  1.00  0.00     0.016 A 
ATOM     34  C   UNL A   1      39.665  29.347  27.406  1.00  0.00     0.010 A 
ATOM     35  C   UNL A   1      40.198  29.617  29.752  1.00  0.00     0.010 A 
ATOM     36  C   UNL A   1      40.607  29.316  28.437  1.00  0.00    -0.014 A 
BRANCH  36  37
ATOM     37  C   UNL A   1      41.984  28.850  28.140  1.00  0.00     0.031 A 
ATOM     38  C   UNL A   1      43.111  29.844  28.152  1.00  0.00     0.074 A 
ATOM     39  C   UNL A   1      42.241  27.545  27.930  1.00  0.00     0.049 A 
ATOM     40  N   UNL A   1      44.376  29.665  27.873  1.00  0.00    -0.248 NA
ATOM     41  C   UNL A   1      42.766  31.222  28.539  1.00  0.00     0.031 C 
ATOM     42  C   UNL A   1      41.255  26.467  27.988  1.00  0.00     0.029 A 
ATOM     43  N   UNL A   1      43.419  26.905  27.628  1.00  0.00    -0.354 N 
ATOM     44  C   UNL A   1      44.976  30.909  28.030  1.00  0.00     0.074 A 
ATOM     45  C   UNL A   1      43.932  31.837  28.411  1.00  0.00     0.031 C 
ATOM     46  C   UNL A   1      41.867  25.300  27.725  1.00  0.00     0.029 A 
ATOM     47  C   UNL A   1      43.276  25.552  27.430  1.00  0.00     0.049 A 
ATOM     48  H   UNL A   1      44.283  27.371  27.561  1.00  0.00     0.167 HD
ATOM     49  C   UNL A   1      46.279  31.247  27.872  1.00  0.00     0.031 A 
ATOM     50  C   UNL A   1      44.171  24.627  27.027  1.00  0.00     0.031 A 
ATOM     51  C   UNL A   1      47.311  30.322  27.483  1.00  0.00     0.049 A 
ATOM     52  C   UNL A   1      45.592  25.049  26.750  1.00  0.00     0.074 A 
ATOM     53  C   UNL A   1      48.658  30.572  27.287  1.00  0.00     0.029 A 
ATOM     54  N   UNL A   1      47.114  28.973  27.225  1.00  0.00    -0.354 N 
ATOM     55  N   UNL A   1      46.145  26.231  26.887  1.00  0.00    -0.248 NA
ATOM     56  C   UNL A   1      46.512  24.008  26.268  1.00  0.00     0.031 C 
ATOM     57  C   UNL A   1      49.262  29.390  26.844  1.00  0.00     0.029 A 
ATOM     58  C   UNL A   1      48.308  28.385  26.842  1.00  0.00     0.049 A 
ATOM     59  H   UNL A   1      46.253  28.503  27.304  1.00  0.00     0.167 HD
ATOM     60  C   UNL A   1      47.483  26.068  26.540  1.00  0.00     0.074 A 
ATOM     61  C   UNL A   1      47.659  24.671  26.201  1.00  0.00     0.031 C 
ATOM     62  C   UNL A   1      48.476  26.992  26.508  1.00  0.00     0.031 A 
BRANCH  49  63
ATOM     63  C   UNL A   1      46.648  32.695  28.061  1.00  0.00    -0.014 A 
ATOM     64  C   UNL A   1      46.901  33.230  29.337  1.00  0.00     0.010 A 
ATOM     65  C   UNL A   1      46.774  33.527  26.934  1.00  0.00     0.010 A 
ATOM     66  C   UNL A   1      47.232  34.581  29.483  1.00  0.00     0.020 A 
ATOM     67  C   UNL A   1      47.137  34.869  27.072  1.00  0.00     0.020 A 
ATOM     68  C   UNL A   1      47.346  35.392  28.349  1.00  0.00     0.054 A 
BRANCH  68  69
ATOM     69  S   UNL A   1      47.794  37.135  28.568  1.00  0.00     0.124 S 
ATOM     70  O   UNL A   1      48.794  37.059  29.631  1.00  0.00    -0.237 OA
ATOM     71  O   UNL A   1      48.305  37.501  27.250  1.00  0.00    -0.237 OA
ATOM     72  O   UNL A   1      46.535  37.774  28.944  1.00  0.00    -0.744 OA
ENDBRANCH  68  69
ENDBRANCH  49  63
BRANCH  50  73
ATOM     73  C   UNL A   1      43.745  23.213  26.816  1.00  0.00    -0.014 A 
ATOM     74  C   UNL A   1      43.903  22.588  25.567  1.00  0.00     0.010 A 
ATOM     75  C   UNL A   1      43.154  22.489  27.869  1.00  0.00     0.010 A 
ATOM     76  C   UNL A   1      43.461  21.275  25.369  1.00  0.00     0.020 A 
ATOM     77  C   UNL A   1      42.742  21.167  27.685  1.00  0.00     0.020 A 
ATOM     78  C   UNL A   1      42.887  20.572  26.432  1.00  0.00     0.054 A 
BRANCH  78  79
ATOM     79  S   UNL A   1      42.362  18.856  26.164  1.00  0.00     0.124 S 
ATOM     80  O   UNL A   1      43.294  18.410  25.133  1.00  0.00    -0.237 OA
ATOM     81  O   UNL A   1      42.548  18.260  27.485  1.00  0.00    -0.237 OA
ATOM     82  O   UNL A   1      40.971  18.985  25.736  1.00  0.00    -0.744 OA
ENDBRANCH  78  79
ENDBRANCH  50  73
BRANCH  62  83
ATOM     83  C   UNL A   1      49.861  26.520  26.143  1.00  0.00    -0.014 A 
ATOM     84  C   UNL A   1      50.420  26.778  24.879  1.00  0.00     0.010 A 
ATOM     85  C   UNL A   1      50.639  25.852  27.109  1.00  0.00     0.010 A 
ATOM     86  C   UNL A   1      51.716  26.347  24.577  1.00  0.00     0.020 A 
ATOM     87  C   UNL A   1      51.946  25.450  26.822  1.00  0.00     0.020 A 
ATOM     88  C   UNL A   1      52.472  25.687  25.551  1.00  0.00     0.054 A 
BRANCH  88  89
ATOM     89  S   UNL A   1      54.165  25.177  25.147  1.00  0.00     0.124 S 
ATOM     90  O   UNL A   1      54.021  23.731  25.001  1.00  0.00    -0.237 OA
ATOM     91  O   UNL A   1      54.434  25.910  23.913  1.00  0.00    -0.237 OA
ATOM     92  O   UNL A   1      54.945  25.610  26.305  1.00  0.00    -0.744 OA
ENDBRANCH  88  89
ENDBRANCH  62  83
ENDBRANCH  36  37
ENDBRANCH  29  31
ENDBRANCH  28  29
ENDBRANCH  27  28
ENDBRANCH   1  27
TORSDOF 19
ENDMDL
MODEL 3
REMARK VINA RESULT:     -11.3      6.903     14.194
REMARK SMILES NS(=O)(=O)c1ccc(/N=N/c2ccc(O)c(C(=O)OCCOC(=O)c3ccc(-c4c5nc(c(-c6ccc(S(=O)(=O)[O-])cc6)c6ccc([nH]6)c(-c6ccc(S(=O)(=O)[O-])cc6)c6nc(c(-c7ccc(S(=O)(=O)[O-])cc7)c7ccc4[nH]7)C=C6)C=C5)cc3)c2)cc1
REMARK SMILES IDX 20 1 19 2 17 3 18 4 16 5 11 6 12 7 85 8 13 9 14 10 10 11
REMARK SMILES IDX 9 12 8 13 5 14 6 15 87 16 7 17 86 18 2 19 3 20 4 21 1 22
REMARK SMILES IDX 15 25 21 27 22 28 23 29 24 30 25 31 26 32 84 33 27 34 83 35
REMARK SMILES IDX 28 36 29 37 30 38 77 39 31 40 82 41 76 42 78 43 32 44 81 45
REMARK SMILES IDX 75 46 74 47 33 49 63 50 44 51 62 52 45 53 48 54 61 55 79 56
REMARK SMILES IDX 46 57 47 58 60 60 80 61 49 62 34 63 35 64 43 65 36 66 42 67
REMARK SMILES IDX 37 68 38 69 39 70 40 71 41 72 64 73 65 74 73 75 66 76 72 77
REMARK SMILES IDX 67 78 68 79 69 80 70 81 71 82 50 83 51 84 59 85 52 86 58 87
REMARK SMILES IDX 53 88 54 89 55 90 56 91 57 92
REMARK H PARENT 1 23 1 24 15 26 78 48 48 59
REMARK Flexibility Score: inf
ROOT
ATOM      1  C   UNL A   1      33.997  29.891  26.721  1.00  0.00     0.275 C 
ENDROOT
BRANCH   1   2
ATOM      2  O   UNL A   1      32.744  29.190  26.599  1.00  0.00    -0.458 OA
BRANCH   2   3
ATOM      3  C   UNL A   1      31.860  29.671  25.692  1.00  0.00     0.342 C 
ATOM      4  O   UNL A   1      31.377  30.793  25.665  1.00  0.00    -0.246 OA
BRANCH   3   5
ATOM      5  C   UNL A   1      31.602  28.679  24.621  1.00  0.00     0.104 A 
ATOM      6  C   UNL A   1      32.030  26.527  23.579  1.00  0.00     0.087 A 
ATOM      7  C   UNL A   1      31.260  26.908  22.476  1.00  0.00     0.034 A 
ATOM      8  C   UNL A   1      32.236  27.434  24.627  1.00  0.00     0.049 A 
ATOM      9  C   UNL A   1      30.605  28.139  22.473  1.00  0.00     0.049 A 
ATOM     10  C   UNL A   1      30.738  28.996  23.564  1.00  0.00     0.130 A 
BRANCH   6  11
ATOM     11  N   UNL A   1      32.557  25.227  23.667  1.00  0.00    -0.151 NA
ATOM     12  N   UNL A   1      31.595  24.438  23.798  1.00  0.00    -0.151 NA
BRANCH  12  13
ATOM     13  C   UNL A   1      31.977  23.106  24.016  1.00  0.00     0.086 A 
ATOM     14  C   UNL A   1      32.566  20.432  24.592  1.00  0.00     0.082 A 
ATOM     15  C   UNL A   1      32.105  21.267  25.609  1.00  0.00     0.024 A 
ATOM     16  C   UNL A   1      32.757  20.920  23.296  1.00  0.00     0.024 A 
ATOM     17  C   UNL A   1      31.808  22.598  25.312  1.00  0.00     0.031 A 
ATOM     18  C   UNL A   1      32.454  22.253  23.011  1.00  0.00     0.031 A 
BRANCH  14  19
ATOM     19  S   UNL A   1      32.914  18.735  24.937  1.00  0.00     0.238 S 
ATOM     20  O   UNL A   1      34.271  18.430  24.538  1.00  0.00    -0.207 OA
ATOM     21  O   UNL A   1      31.789  17.930  24.536  1.00  0.00    -0.207 OA
BRANCH  19  22
ATOM     22  N   UNL A   1      32.930  18.726  26.616  1.00  0.00    -0.225 NA
ATOM     23  H   UNL A   1      32.797  19.676  26.963  1.00  0.00     0.137 HD
ATOM     24  H   UNL A   1      33.826  18.365  26.945  1.00  0.00     0.137 HD
ENDBRANCH  19  22
ENDBRANCH  14  19
ENDBRANCH  12  13
ENDBRANCH   6  11
BRANCH  10  25
ATOM     25  O   UNL A   1      30.013  30.156  23.505  1.00  0.00    -0.507 OA
ATOM     26  H   UNL A   1      29.264  30.268  24.057  1.00  0.00     0.293 HD
ENDBRANCH  10  25
ENDBRANCH   3   5
ENDBRANCH   2   3
ENDBRANCH   1   2
BRANCH   1  27
ATOM     27  C   UNL A   1      34.781  29.427  27.952  1.00  0.00     0.275 C 
BRANCH  27  28
ATOM     28  O   UNL A   1      36.161  29.832  27.880  1.00  0.00    -0.458 OA
BRANCH  28  29
ATOM     29  C   UNL A   1      36.906  29.534  28.973  1.00  0.00     0.338 C 
ATOM     30  O   UNL A   1      36.497  29.351  30.108  1.00  0.00    -0.246 OA
BRANCH  29  31
ATOM     31  C   UNL A   1      38.292  29.250  28.561  1.00  0.00     0.060 A 
ATOM     32  C   UNL A   1      39.174  28.863  29.569  1.00  0.00     0.016 A 
ATOM     33  C   UNL A   1      38.746  29.390  27.250  1.00  0.00     0.016 A 
ATOM     34  C   UNL A   1      40.500  28.561  29.280  1.00  0.00     0.010 A 
ATOM     35  C   UNL A   1      40.095  29.125  26.962  1.00  0.00     0.010 A 
ATOM     36  C   UNL A   1      40.979  28.707  27.976  1.00  0.00    -0.014 A 
BRANCH  36  37
ATOM     37  C   UNL A   1      42.430  28.535  27.720  1.00  0.00     0.031 A 
ATOM     38  C   UNL A   1      43.365  29.675  28.012  1.00  0.00     0.074 A 
ATOM     39  C   UNL A   1      42.922  27.355  27.297  1.00  0.00     0.049 A 
ATOM     40  N   UNL A   1      44.655  29.760  27.816  1.00  0.00    -0.248 NA
ATOM     41  C   UNL A   1      42.764  30.877  28.614  1.00  0.00     0.031 C 
ATOM     42  C   UNL A   1      42.136  26.142  27.070  1.00  0.00     0.029 A 
ATOM     43  N   UNL A   1      44.208  26.983  26.987  1.00  0.00    -0.354 N 
ATOM     44  C   UNL A   1      45.020  31.028  28.251  1.00  0.00     0.074 A 
ATOM     45  C   UNL A   1      43.811  31.684  28.703  1.00  0.00     0.031 C 
ATOM     46  C   UNL A   1      42.956  25.162  26.652  1.00  0.00     0.029 A 
ATOM     47  C   UNL A   1      44.314  25.690  26.532  1.00  0.00     0.049 A 
ATOM     48  H   UNL A   1      44.980  27.586  27.082  1.00  0.00     0.167 HD
ATOM     49  C   UNL A   1      46.250  31.595  28.272  1.00  0.00     0.031 A 
ATOM     50  C   UNL A   1      45.377  25.017  26.046  1.00  0.00     0.031 A 
ATOM     51  C   UNL A   1      47.448  30.942  27.811  1.00  0.00     0.049 A 
ATOM     52  C   UNL A   1      46.716  25.707  25.976  1.00  0.00     0.074 A 
ATOM     53  C   UNL A   1      48.739  31.438  27.782  1.00  0.00     0.029 A 
ATOM     54  N   UNL A   1      47.503  29.655  27.294  1.00  0.00    -0.354 N 
ATOM     55  N   UNL A   1      47.046  26.913  26.375  1.00  0.00    -0.248 NA
ATOM     56  C   UNL A   1      47.828  24.942  25.394  1.00  0.00     0.031 C 
ATOM     57  C   UNL A   1      49.563  30.478  27.184  1.00  0.00     0.029 A 
ATOM     58  C   UNL A   1      48.800  29.353  26.915  1.00  0.00     0.049 A 
ATOM     59  H   UNL A   1      46.734  29.047  27.210  1.00  0.00     0.167 HD
ATOM     60  C   UNL A   1      48.409  27.038  26.122  1.00  0.00     0.074 A 
ATOM     61  C   UNL A   1      48.843  25.781  25.550  1.00  0.00     0.031 C 
ATOM     62  C   UNL A   1      49.226  28.098  26.347  1.00  0.00     0.031 A 
BRANCH  49  63
ATOM     63  C   UNL A   1      46.351  33.018  28.754  1.00  0.00    -0.014 A 
ATOM     64  C   UNL A   1      46.619  33.322  30.101  1.00  0.00     0.010 A 
ATOM     65  C   UNL A   1      46.205  34.071  27.833  1.00  0.00     0.010 A 
ATOM     66  C   UNL A   1      46.697  34.652  30.523  1.00  0.00     0.020 A 
ATOM     67  C   UNL A   1      46.314  35.401  28.244  1.00  0.00     0.020 A 
ATOM     68  C   UNL A   1      46.543  35.684  29.591  1.00  0.00     0.054 A 
BRANCH  68  69
ATOM     69  S   UNL A   1      46.666  37.400  30.164  1.00  0.00     0.124 S 
ATOM     70  O   UNL A   1      48.081  37.501  30.512  1.00  0.00    -0.237 OA
ATOM     71  O   UNL A   1      46.253  38.160  28.987  1.00  0.00    -0.237 OA
ATOM     72  O   UNL A   1      45.742  37.458  31.294  1.00  0.00    -0.744 OA
ENDBRANCH  68  69
ENDBRANCH  49  63
BRANCH  50  73
ATOM     73  C   UNL A   1      45.215  23.623  25.543  1.00  0.00    -0.014 A 
ATOM     74  C   UNL A   1      44.996  23.366  24.178  1.00  0.00     0.010 A 
ATOM     75  C   UNL A   1      45.259  22.539  26.440  1.00  0.00     0.010 A 
ATOM     76  C   UNL A   1      44.804  22.057  23.723  1.00  0.00     0.020 A 
ATOM     77  C   UNL A   1      45.102  21.227  25.985  1.00  0.00     0.020 A 
ATOM     78  C   UNL A   1      44.863  20.995  24.631  1.00  0.00     0.054 A 
BRANCH  78  79
ATOM     79  S   UNL A   1      44.655  19.302  24.012  1.00  0.00     0.124 S 
ATOM     80  O   UNL A   1      43.430  18.880  24.684  1.00  0.00    -0.237 OA
ATOM     81  O   UNL A   1      44.547  19.506  22.569  1.00  0.00    -0.237 OA
ATOM     82  O   UNL A   1      45.874  18.624  24.449  1.00  0.00    -0.744 OA
ENDBRANCH  78  79
ENDBRANCH  50  73
BRANCH  62  83
ATOM     83  C   UNL A   1      50.690  27.934  26.024  1.00  0.00    -0.014 A 
ATOM     84  C   UNL A   1      51.587  27.348  26.935  1.00  0.00     0.010 A 
ATOM     85  C   UNL A   1      51.165  28.325  24.757  1.00  0.00     0.010 A 
ATOM     86  C   UNL A   1      52.935  27.189  26.599  1.00  0.00     0.020 A 
ATOM     87  C   UNL A   1      52.504  28.136  24.405  1.00  0.00     0.020 A 
ATOM     88  C   UNL A   1      53.385  27.582  25.335  1.00  0.00     0.054 A 
BRANCH  88  89
ATOM     89  S   UNL A   1      55.129  27.326  24.909  1.00  0.00     0.124 S 
ATOM     90  O   UNL A   1      55.404  28.470  24.045  1.00  0.00    -0.237 OA
ATOM     91  O   UNL A   1      55.785  27.352  26.214  1.00  0.00    -0.237 OA
ATOM     92  O   UNL A   1      55.137  26.026  24.240  1.00  0.00    -0.744 OA
ENDBRANCH  88  89
ENDBRANCH  62  83
ENDBRANCH  36  37
ENDBRANCH  29  31
ENDBRANCH  28  29
ENDBRANCH  27  28
ENDBRANCH   1  27
TORSDOF 19
ENDMDL
