MODEL 1
REMARK VINA RESULT:     -11.5      0.000      0.000
REMARK SMILES COc1ccc2c(CC(=O)OCCOC(=O)c3ccc(-c4c5nc(c(-c6ccc(S(=O)(=O)[O-])cc6)c6ccc([nH]6)c(-c6ccc(S(=O)(=O)[O-])cc6)c6nc(c(-c7ccc(S(=O)(=O)[O-])cc7)c7ccc4[nH]7)C=C6)C=C5)cc3)c(C(=O)c3cc(C)ccn3)[nH]c2c1
REMARK SMILES IDX 12 1 11 2 9 3 10 4 8 5 7 6 3 7 4 8 89 9 5 10 88 11 6 12
REMARK SMILES IDX 87 13 77 14 2 16 1 17 78 18 79 19 80 20 81 21 86 22 82 23
REMARK SMILES IDX 85 24 83 25 84 26 13 27 14 28 15 29 16 30 17 31 18 32 76 33
REMARK SMILES IDX 19 34 75 35 20 36 21 37 22 38 69 39 23 40 74 41 68 42 70 43
REMARK SMILES IDX 24 44 73 45 67 46 66 47 25 49 55 50 36 51 54 52 37 53 40 54
REMARK SMILES IDX 53 55 71 56 38 57 39 58 52 60 72 61 41 62 26 63 27 64 35 65
REMARK SMILES IDX 28 66 34 67 29 68 30 69 31 70 32 71 33 72 56 73 57 74 65 75
REMARK SMILES IDX 58 76 64 77 59 78 60 79 61 80 62 81 63 82 42 83 43 84 51 85
REMARK SMILES IDX 44 86 50 87 45 88 46 89 47 90 48 91 49 92
REMARK H PARENT 87 15 70 48 40 59
REMARK Flexibility Score: inf
ROOT
ATOM      1  C   UNL A   1      32.180  28.123  27.241  1.00  0.00     0.274 C 
ENDROOT
BRANCH   1   2
ATOM      2  O   UNL A   1      31.031  27.728  26.464  1.00  0.00    -0.462 OA
BRANCH   2   3
ATOM      3  C   UNL A   1      30.970  26.409  26.141  1.00  0.00     0.310 C 
ATOM      4  O   UNL A   1      31.286  25.499  26.905  1.00  0.00    -0.252 OA
BRANCH   3   5
ATOM      5  C   UNL A   1      30.430  26.118  24.759  1.00  0.00     0.161 C 
BRANCH   5   6
ATOM      6  C   UNL A   1      30.633  27.180  23.718  1.00  0.00     0.000 A 
ATOM      7  C   UNL A   1      28.124  30.126  22.107  1.00  0.00     0.120 A 
ATOM      8  C   UNL A   1      27.485  29.169  22.892  1.00  0.00     0.047 A 
ATOM      9  C   UNL A   1      29.473  29.991  21.759  1.00  0.00     0.073 A 
ATOM     10  C   UNL A   1      28.205  28.098  23.430  1.00  0.00     0.014 A 
ATOM     11  C   UNL A   1      30.184  28.936  22.340  1.00  0.00     0.050 A 
ATOM     12  C   UNL A   1      29.591  28.008  23.190  1.00  0.00     0.004 A 
ATOM     13  N   UNL A   1      31.516  28.604  22.255  1.00  0.00    -0.351 N 
ATOM     14  C   UNL A   1      31.840  27.680  23.225  1.00  0.00     0.093 A 
ATOM     15  H   UNL A   1      32.148  28.974  21.596  1.00  0.00     0.167 HD
BRANCH   7  16
ATOM     16  O   UNL A   1      27.477  31.232  21.618  1.00  0.00    -0.497 OA
ATOM     17  C   UNL A   1      28.299  31.994  20.733  1.00  0.00     0.278 C 
ENDBRANCH   7  16
BRANCH  14  18
ATOM     18  C   UNL A   1      33.195  27.407  23.681  1.00  0.00     0.227 C 
ATOM     19  O   UNL A   1      33.998  28.295  23.957  1.00  0.00    -0.285 OA
BRANCH  18  20
ATOM     20  C   UNL A   1      33.693  26.012  23.698  1.00  0.00     0.113 A 
ATOM     21  C   UNL A   1      34.298  25.522  24.850  1.00  0.00     0.036 A 
ATOM     22  N   UNL A   1      33.483  25.284  22.576  1.00  0.00    -0.253 NA
ATOM     23  C   UNL A   1      34.707  24.187  24.863  1.00  0.00    -0.047 A 
ATOM     24  C   UNL A   1      33.815  23.979  22.645  1.00  0.00     0.112 A 
ATOM     25  C   UNL A   1      35.395  23.592  26.055  1.00  0.00     0.044 C 
ATOM     26  C   UNL A   1      34.427  23.395  23.746  1.00  0.00     0.023 A 
ENDBRANCH  18  20
ENDBRANCH  14  18
ENDBRANCH   5   6
ENDBRANCH   3   5
ENDBRANCH   2   3
ENDBRANCH   1   2
BRANCH   1  27
ATOM     27  C   UNL A   1      32.354  29.639  27.205  1.00  0.00     0.275 C 
BRANCH  27  28
ATOM     28  O   UNL A   1      33.722  29.959  26.900  1.00  0.00    -0.458 OA
BRANCH  28  29
ATOM     29  C   UNL A   1      34.363  30.696  27.837  1.00  0.00     0.338 C 
ATOM     30  O   UNL A   1      33.962  31.738  28.339  1.00  0.00    -0.246 OA
BRANCH  29  31
ATOM     31  C   UNL A   1      35.677  30.102  28.160  1.00  0.00     0.060 A 
ATOM     32  C   UNL A   1      35.973  29.615  29.435  1.00  0.00     0.016 A 
ATOM     33  C   UNL A   1      36.671  30.128  27.180  1.00  0.00     0.016 A 
ATOM     34  C   UNL A   1      37.286  29.262  29.758  1.00  0.00     0.010 A 
ATOM     35  C   UNL A   1      37.960  29.680  27.478  1.00  0.00     0.010 A 
ATOM     36  C   UNL A   1      38.296  29.286  28.783  1.00  0.00    -0.014 A 
BRANCH  36  37
ATOM     37  C   UNL A   1      39.705  28.937  29.122  1.00  0.00     0.031 A 
ATOM     38  C   UNL A   1      40.587  29.927  29.844  1.00  0.00     0.074 A 
ATOM     39  C   UNL A   1      40.213  27.738  28.772  1.00  0.00     0.049 A 
ATOM     40  N   UNL A   1      41.876  29.877  30.069  1.00  0.00    -0.248 NA
ATOM     41  C   UNL A   1      39.938  31.144  30.363  1.00  0.00     0.031 C 
ATOM     42  C   UNL A   1      39.479  26.669  28.093  1.00  0.00     0.029 A 
ATOM     43  N   UNL A   1      41.472  27.217  28.944  1.00  0.00    -0.354 N 
ATOM     44  C   UNL A   1      42.203  31.073  30.699  1.00  0.00     0.074 A 
ATOM     45  C   UNL A   1      40.976  31.832  30.819  1.00  0.00     0.031 C 
ATOM     46  C   UNL A   1      40.284  25.606  27.944  1.00  0.00     0.029 A 
ATOM     47  C   UNL A   1      41.612  25.942  28.448  1.00  0.00     0.049 A 
ATOM     48  H   UNL A   1      42.205  27.709  29.380  1.00  0.00     0.167 HD
ATOM     49  C   UNL A   1      43.412  31.501  31.135  1.00  0.00     0.031 A 
ATOM     50  C   UNL A   1      42.690  25.138  28.377  1.00  0.00     0.031 A 
ATOM     51  C   UNL A   1      44.626  30.729  31.066  1.00  0.00     0.049 A 
ATOM     52  C   UNL A   1      44.015  25.627  28.883  1.00  0.00     0.074 A 
ATOM     53  C   UNL A   1      45.897  31.079  31.493  1.00  0.00     0.029 A 
ATOM     54  N   UNL A   1      44.718  29.442  30.559  1.00  0.00    -0.354 N 
ATOM     55  N   UNL A   1      44.314  26.783  29.422  1.00  0.00    -0.248 NA
ATOM     56  C   UNL A   1      45.150  24.701  28.762  1.00  0.00     0.031 C 
ATOM     57  C   UNL A   1      46.761  30.011  31.225  1.00  0.00     0.029 A 
ATOM     58  C   UNL A   1      46.021  28.984  30.664  1.00  0.00     0.049 A 
ATOM     59  H   UNL A   1      43.967  28.929  30.180  1.00  0.00     0.167 HD
ATOM     60  C   UNL A   1      45.672  26.724  29.710  1.00  0.00     0.074 A 
ATOM     61  C   UNL A   1      46.131  25.411  29.305  1.00  0.00     0.031 C 
ATOM     62  C   UNL A   1      46.467  27.676  30.255  1.00  0.00     0.031 A 
BRANCH  49  63
ATOM     63  C   UNL A   1      43.491  32.892  31.707  1.00  0.00    -0.014 A 
ATOM     64  C   UNL A   1      43.398  33.119  33.091  1.00  0.00     0.010 A 
ATOM     65  C   UNL A   1      43.696  33.985  30.845  1.00  0.00     0.010 A 
ATOM     66  C   UNL A   1      43.467  34.420  33.599  1.00  0.00     0.020 A 
ATOM     67  C   UNL A   1      43.787  35.284  31.350  1.00  0.00     0.020 A 
ATOM     68  C   UNL A   1      43.651  35.495  32.723  1.00  0.00     0.054 A 
BRANCH  68  69
ATOM     69  S   UNL A   1      43.738  37.174  33.405  1.00  0.00     0.124 S 
ATOM     70  O   UNL A   1      45.003  37.135  34.134  1.00  0.00    -0.237 OA
ATOM     71  O   UNL A   1      43.731  38.012  32.208  1.00  0.00    -0.237 OA
ATOM     72  O   UNL A   1      42.541  37.272  34.237  1.00  0.00    -0.744 OA
ENDBRANCH  68  69
ENDBRANCH  49  63
BRANCH  50  73
ATOM     73  C   UNL A   1      42.553  23.784  27.777  1.00  0.00    -0.014 A 
ATOM     74  C   UNL A   1      42.727  23.599  26.396  1.00  0.00     0.010 A 
ATOM     75  C   UNL A   1      42.287  22.670  28.594  1.00  0.00     0.010 A 
ATOM     76  C   UNL A   1      42.634  22.320  25.839  1.00  0.00     0.020 A 
ATOM     77  C   UNL A   1      42.216  21.388  28.044  1.00  0.00     0.020 A 
ATOM     78  C   UNL A   1      42.382  21.223  26.666  1.00  0.00     0.054 A 
BRANCH  78  79
ATOM     79  S   UNL A   1      42.340  19.560  25.942  1.00  0.00     0.124 S 
ATOM     80  O   UNL A   1      42.616  18.718  27.101  1.00  0.00    -0.237 OA
ATOM     81  O   UNL A   1      40.983  19.475  25.408  1.00  0.00    -0.237 OA
ATOM     82  O   UNL A   1      43.395  19.605  24.931  1.00  0.00    -0.744 OA
ENDBRANCH  78  79
ENDBRANCH  50  73
BRANCH  62  83
ATOM     83  C   UNL A   1      47.911  27.319  30.469  1.00  0.00    -0.014 A 
ATOM     84  C   UNL A   1      48.876  27.580  29.480  1.00  0.00     0.010 A 
ATOM     85  C   UNL A   1      48.310  26.731  31.682  1.00  0.00     0.010 A 
ATOM     86  C   UNL A   1      50.211  27.225  29.686  1.00  0.00     0.020 A 
ATOM     87  C   UNL A   1      49.648  26.392  31.899  1.00  0.00     0.020 A 
ATOM     88  C   UNL A   1      50.588  26.626  30.892  1.00  0.00     0.054 A 
BRANCH  88  89
ATOM     89  S   UNL A   1      52.330  26.191  31.153  1.00  0.00     0.124 S 
ATOM     90  O   UNL A   1      52.835  26.133  29.784  1.00  0.00    -0.237 OA
ATOM     91  O   UNL A   1      52.827  27.303  31.959  1.00  0.00    -0.237 OA
ATOM     92  O   UNL A   1      52.264  24.908  31.849  1.00  0.00    -0.744 OA
ENDBRANCH  88  89
ENDBRANCH  62  83
ENDBRANCH  36  37
ENDBRANCH  29  31
ENDBRANCH  28  29
ENDBRANCH  27  28
ENDBRANCH   1  27
TORSDOF 18
ENDMDL
MODEL 2
REMARK VINA RESULT:     -11.5      4.569     10.603
REMARK SMILES COc1ccc2c(CC(=O)OCCOC(=O)c3ccc(-c4c5nc(c(-c6ccc(S(=O)(=O)[O-])cc6)c6ccc([nH]6)c(-c6ccc(S(=O)(=O)[O-])cc6)c6nc(c(-c7ccc(S(=O)(=O)[O-])cc7)c7ccc4[nH]7)C=C6)C=C5)cc3)c(C(=O)c3cc(C)ccn3)[nH]c2c1
REMARK SMILES IDX 12 1 11 2 9 3 10 4 8 5 7 6 3 7 4 8 89 9 5 10 88 11 6 12
REMARK SMILES IDX 87 13 77 14 2 16 1 17 78 18 79 19 80 20 81 21 86 22 82 23
REMARK SMILES IDX 85 24 83 25 84 26 13 27 14 28 15 29 16 30 17 31 18 32 76 33
REMARK SMILES IDX 19 34 75 35 20 36 21 37 22 38 69 39 23 40 74 41 68 42 70 43
REMARK SMILES IDX 24 44 73 45 67 46 66 47 25 49 55 50 36 51 54 52 37 53 40 54
REMARK SMILES IDX 53 55 71 56 38 57 39 58 52 60 72 61 41 62 26 63 27 64 35 65
REMARK SMILES IDX 28 66 34 67 29 68 30 69 31 70 32 71 33 72 56 73 57 74 65 75
REMARK SMILES IDX 58 76 64 77 59 78 60 79 61 80 62 81 63 82 42 83 43 84 51 85
REMARK SMILES IDX 44 86 50 87 45 88 46 89 47 90 48 91 49 92
REMARK H PARENT 87 15 70 48 40 59
REMARK Flexibility Score: inf
ROOT
ATOM      1  C   UNL A   1      37.934  22.239  25.532  1.00  0.00     0.274 C 
ENDROOT
BRANCH   1   2
ATOM      2  O   UNL A   1      37.340  23.492  25.134  1.00  0.00    -0.462 OA
BRANCH   2   3
ATOM      3  C   UNL A   1      36.624  23.458  23.979  1.00  0.00     0.310 C 
ATOM      4  O   UNL A   1      37.069  23.057  22.906  1.00  0.00    -0.252 OA
BRANCH   3   5
ATOM      5  C   UNL A   1      35.189  23.916  24.109  1.00  0.00     0.161 C 
BRANCH   5   6
ATOM      6  C   UNL A   1      34.139  23.023  23.515  1.00  0.00     0.000 A 
ATOM      7  C   UNL A   1      32.595  19.288  24.627  1.00  0.00     0.120 A 
ATOM      8  C   UNL A   1      33.743  19.682  25.313  1.00  0.00     0.047 A 
ATOM      9  C   UNL A   1      32.116  20.024  23.538  1.00  0.00     0.073 A 
ATOM     10  C   UNL A   1      34.388  20.878  24.984  1.00  0.00     0.014 A 
ATOM     11  C   UNL A   1      32.752  21.237  23.251  1.00  0.00     0.050 A 
ATOM     12  C   UNL A   1      33.853  21.695  23.968  1.00  0.00     0.004 A 
ATOM     13  N   UNL A   1      32.459  22.198  22.312  1.00  0.00    -0.351 N 
ATOM     14  C   UNL A   1      33.152  23.359  22.586  1.00  0.00     0.093 A 
ATOM     15  H   UNL A   1      31.843  22.076  21.554  1.00  0.00     0.167 HD
BRANCH   7  16
ATOM     16  O   UNL A   1      31.886  18.163  24.961  1.00  0.00    -0.497 OA
ATOM     17  C   UNL A   1      32.728  17.021  25.128  1.00  0.00     0.278 C 
ENDBRANCH   7  16
BRANCH  14  18
ATOM     18  C   UNL A   1      32.801  24.669  22.059  1.00  0.00     0.227 C 
ATOM     19  O   UNL A   1      33.441  25.225  21.171  1.00  0.00    -0.285 OA
BRANCH  18  20
ATOM     20  C   UNL A   1      31.706  25.441  22.693  1.00  0.00     0.113 A 
ATOM     21  C   UNL A   1      31.492  26.758  22.304  1.00  0.00     0.036 A 
ATOM     22  N   UNL A   1      30.949  24.778  23.598  1.00  0.00    -0.253 NA
ATOM     23  C   UNL A   1      30.419  27.448  22.872  1.00  0.00    -0.047 A 
ATOM     24  C   UNL A   1      29.873  25.441  24.070  1.00  0.00     0.112 A 
ATOM     25  C   UNL A   1      30.140  28.880  22.529  1.00  0.00     0.044 C 
ATOM     26  C   UNL A   1      29.576  26.759  23.748  1.00  0.00     0.023 A 
ENDBRANCH  18  20
ENDBRANCH  14  18
ENDBRANCH   5   6
ENDBRANCH   3   5
ENDBRANCH   2   3
ENDBRANCH   1   2
BRANCH   1  27
ATOM     27  C   UNL A   1      39.202  22.483  26.344  1.00  0.00     0.275 C 
BRANCH  27  28
ATOM     28  O   UNL A   1      39.512  23.887  26.343  1.00  0.00    -0.458 OA
BRANCH  28  29
ATOM     29  C   UNL A   1      40.710  24.213  26.884  1.00  0.00     0.338 C 
ATOM     30  O   UNL A   1      41.756  23.588  26.759  1.00  0.00    -0.246 OA
BRANCH  29  31
ATOM     31  C   UNL A   1      40.594  25.427  27.717  1.00  0.00     0.060 A 
ATOM     32  C   UNL A   1      41.583  26.413  27.725  1.00  0.00     0.016 A 
ATOM     33  C   UNL A   1      39.509  25.527  28.589  1.00  0.00     0.016 A 
ATOM     34  C   UNL A   1      41.541  27.433  28.680  1.00  0.00     0.010 A 
ATOM     35  C   UNL A   1      39.419  26.604  29.475  1.00  0.00     0.010 A 
ATOM     36  C   UNL A   1      40.458  27.545  29.565  1.00  0.00    -0.014 A 
BRANCH  36  37
ATOM     37  C   UNL A   1      40.415  28.612  30.603  1.00  0.00     0.031 A 
ATOM     38  C   UNL A   1      41.383  28.591  31.762  1.00  0.00     0.074 A 
ATOM     39  C   UNL A   1      39.500  29.600  30.529  1.00  0.00     0.049 A 
ATOM     40  N   UNL A   1      41.390  29.326  32.848  1.00  0.00    -0.248 NA
ATOM     41  C   UNL A   1      42.474  27.603  31.703  1.00  0.00     0.031 C 
ATOM     42  C   UNL A   1      38.515  29.767  29.459  1.00  0.00     0.029 A 
ATOM     43  N   UNL A   1      39.252  30.654  31.375  1.00  0.00    -0.354 N 
ATOM     44  C   UNL A   1      42.442  28.852  33.624  1.00  0.00     0.074 A 
ATOM     45  C   UNL A   1      43.050  27.764  32.887  1.00  0.00     0.031 C 
ATOM     46  C   UNL A   1      37.800  30.879  29.688  1.00  0.00     0.029 A 
ATOM     47  C   UNL A   1      38.223  31.463  30.957  1.00  0.00     0.049 A 
ATOM     48  H   UNL A   1      39.763  30.814  32.201  1.00  0.00     0.167 HD
ATOM     49  C   UNL A   1      42.862  29.279  34.839  1.00  0.00     0.031 A 
ATOM     50  C   UNL A   1      37.657  32.539  31.537  1.00  0.00     0.031 A 
ATOM     51  C   UNL A   1      42.294  30.394  35.554  1.00  0.00     0.049 A 
ATOM     52  C   UNL A   1      38.150  33.005  32.875  1.00  0.00     0.074 A 
ATOM     53  C   UNL A   1      42.662  30.905  36.788  1.00  0.00     0.029 A 
ATOM     54  N   UNL A   1      41.255  31.185  35.090  1.00  0.00    -0.354 N 
ATOM     55  N   UNL A   1      39.107  32.507  33.618  1.00  0.00    -0.248 NA
ATOM     56  C   UNL A   1      37.478  34.177  33.455  1.00  0.00     0.031 C 
ATOM     57  C   UNL A   1      41.831  31.994  37.078  1.00  0.00     0.029 A 
ATOM     58  C   UNL A   1      40.971  32.181  36.010  1.00  0.00     0.049 A 
ATOM     59  H   UNL A   1      40.788  31.059  34.232  1.00  0.00     0.167 HD
ATOM     60  C   UNL A   1      39.157  33.307  34.753  1.00  0.00     0.074 A 
ATOM     61  C   UNL A   1      38.149  34.334  34.588  1.00  0.00     0.031 C 
ATOM     62  C   UNL A   1      39.963  33.196  35.837  1.00  0.00     0.031 A 
BRANCH  49  63
ATOM     63  C   UNL A   1      43.982  28.517  35.495  1.00  0.00    -0.014 A 
ATOM     64  C   UNL A   1      45.326  28.877  35.295  1.00  0.00     0.010 A 
ATOM     65  C   UNL A   1      43.681  27.443  36.353  1.00  0.00     0.010 A 
ATOM     66  C   UNL A   1      46.351  28.150  35.909  1.00  0.00     0.020 A 
ATOM     67  C   UNL A   1      44.701  26.727  36.985  1.00  0.00     0.020 A 
ATOM     68  C   UNL A   1      46.031  27.073  36.742  1.00  0.00     0.054 A 
BRANCH  68  69
ATOM     69  S   UNL A   1      47.377  26.144  37.527  1.00  0.00     0.124 S 
ATOM     70  O   UNL A   1      47.320  24.873  36.810  1.00  0.00    -0.237 OA
ATOM     71  O   UNL A   1      48.549  26.969  37.243  1.00  0.00    -0.237 OA
ATOM     72  O   UNL A   1      46.985  26.088  38.933  1.00  0.00    -0.744 OA
ENDBRANCH  68  69
ENDBRANCH  49  63
BRANCH  50  73
ATOM     73  C   UNL A   1      36.536  33.234  30.851  1.00  0.00    -0.014 A 
ATOM     74  C   UNL A   1      35.222  33.109  31.332  1.00  0.00     0.010 A 
ATOM     75  C   UNL A   1      36.786  34.055  29.736  1.00  0.00     0.010 A 
ATOM     76  C   UNL A   1      34.174  33.791  30.707  1.00  0.00     0.020 A 
ATOM     77  C   UNL A   1      35.745  34.756  29.124  1.00  0.00     0.020 A 
ATOM     78  C   UNL A   1      34.443  34.613  29.609  1.00  0.00     0.054 A 
BRANCH  78  79
ATOM     79  S   UNL A   1      33.086  35.554  28.856  1.00  0.00     0.124 S 
ATOM     80  O   UNL A   1      32.392  34.524  28.090  1.00  0.00    -0.237 OA
ATOM     81  O   UNL A   1      32.367  36.069  30.019  1.00  0.00    -0.237 OA
ATOM     82  O   UNL A   1      33.778  36.569  28.064  1.00  0.00    -0.744 OA
ENDBRANCH  78  79
ENDBRANCH  50  73
BRANCH  62  83
ATOM     83  C   UNL A   1      39.801  34.229  36.916  1.00  0.00    -0.014 A 
ATOM     84  C   UNL A   1      40.397  35.497  36.799  1.00  0.00     0.010 A 
ATOM     85  C   UNL A   1      39.028  33.933  38.053  1.00  0.00     0.010 A 
ATOM     86  C   UNL A   1      40.253  36.440  37.819  1.00  0.00     0.020 A 
ATOM     87  C   UNL A   1      38.867  34.881  39.067  1.00  0.00     0.020 A 
ATOM     88  C   UNL A   1      39.495  36.124  38.951  1.00  0.00     0.054 A 
BRANCH  88  89
ATOM     89  S   UNL A   1      39.299  37.368  40.257  1.00  0.00     0.124 S 
ATOM     90  O   UNL A   1      38.408  38.334  39.622  1.00  0.00    -0.237 OA
ATOM     91  O   UNL A   1      38.716  36.602  41.354  1.00  0.00    -0.237 OA
ATOM     92  O   UNL A   1      40.663  37.838  40.491  1.00  0.00    -0.744 OA
ENDBRANCH  88  89
ENDBRANCH  62  83
ENDBRANCH  36  37
ENDBRANCH  29  31
ENDBRANCH  28  29
ENDBRANCH  27  28
ENDBRANCH   1  27
TORSDOF 18
ENDMDL
MODEL 3
REMARK VINA RESULT:     -11.4      2.698      4.782
REMARK SMILES COc1ccc2c(CC(=O)OCCOC(=O)c3ccc(-c4c5nc(c(-c6ccc(S(=O)(=O)[O-])cc6)c6ccc([nH]6)c(-c6ccc(S(=O)(=O)[O-])cc6)c6nc(c(-c7ccc(S(=O)(=O)[O-])cc7)c7ccc4[nH]7)C=C6)C=C5)cc3)c(C(=O)c3cc(C)ccn3)[nH]c2c1
REMARK SMILES IDX 12 1 11 2 9 3 10 4 8 5 7 6 3 7 4 8 89 9 5 10 88 11 6 12
REMARK SMILES IDX 87 13 77 14 2 16 1 17 78 18 79 19 80 20 81 21 86 22 82 23
REMARK SMILES IDX 85 24 83 25 84 26 13 27 14 28 15 29 16 30 17 31 18 32 76 33
REMARK SMILES IDX 19 34 75 35 20 36 21 37 22 38 69 39 23 40 74 41 68 42 70 43
REMARK SMILES IDX 24 44 73 45 67 46 66 47 25 49 55 50 36 51 54 52 37 53 40 54
REMARK SMILES IDX 53 55 71 56 38 57 39 58 52 60 72 61 41 62 26 63 27 64 35 65
REMARK SMILES IDX 28 66 34 67 29 68 30 69 31 70 32 71 33 72 56 73 57 74 65 75
REMARK SMILES IDX 58 76 64 77 59 78 60 79 61 80 62 81 63 82 42 83 43 84 51 85
REMARK SMILES IDX 44 86 50 87 45 88 46 89 47 90 48 91 49 92
REMARK H PARENT 87 15 70 48 40 59
REMARK Flexibility Score: inf
ROOT
ATOM      1  C   UNL A   1      33.235  30.278  26.698  1.00  0.00     0.274 C 
ENDROOT
BRANCH   1   2
ATOM      2  O   UNL A   1      32.567  29.157  27.311  1.00  0.00    -0.462 OA
BRANCH   2   3
ATOM      3  C   UNL A   1      31.639  28.535  26.536  1.00  0.00     0.310 C 
ATOM      4  O   UNL A   1      31.019  27.529  26.877  1.00  0.00    -0.252 OA
BRANCH   3   5
ATOM      5  C   UNL A   1      31.373  29.203  25.205  1.00  0.00     0.161 C 
BRANCH   5   6
ATOM      6  C   UNL A   1      31.359  28.315  23.995  1.00  0.00     0.000 A 
ATOM      7  C   UNL A   1      33.695  25.039  22.822  1.00  0.00     0.120 A 
ATOM      8  C   UNL A   1      34.181  25.750  23.918  1.00  0.00     0.047 A 
ATOM      9  C   UNL A   1      32.603  25.507  22.083  1.00  0.00     0.073 A 
ATOM     10  C   UNL A   1      33.524  26.901  24.361  1.00  0.00     0.014 A 
ATOM     11  C   UNL A   1      31.937  26.638  22.568  1.00  0.00     0.050 A 
ATOM     12  C   UNL A   1      32.352  27.325  23.705  1.00  0.00     0.004 A 
ATOM     13  N   UNL A   1      30.803  27.269  22.112  1.00  0.00    -0.351 N 
ATOM     14  C   UNL A   1      30.332  28.150  23.064  1.00  0.00     0.093 A 
ATOM     15  H   UNL A   1      30.387  27.115  21.233  1.00  0.00     0.167 HD
BRANCH   7  16
ATOM     16  O   UNL A   1      34.261  23.864  22.394  1.00  0.00    -0.497 OA
ATOM     17  C   UNL A   1      33.325  23.029  21.711  1.00  0.00     0.278 C 
ENDBRANCH   7  16
BRANCH  14  18
ATOM     18  C   UNL A   1      28.977  28.679  23.094  1.00  0.00     0.227 C 
ATOM     19  O   UNL A   1      28.016  28.031  23.501  1.00  0.00    -0.285 OA
BRANCH  18  20
ATOM     20  C   UNL A   1      28.698  30.006  22.497  1.00  0.00     0.113 A 
ATOM     21  C   UNL A   1      29.044  31.153  23.202  1.00  0.00     0.036 A 
ATOM     22  N   UNL A   1      28.148  30.004  21.260  1.00  0.00    -0.253 NA
ATOM     23  C   UNL A   1      28.823  32.391  22.595  1.00  0.00    -0.047 A 
ATOM     24  C   UNL A   1      28.020  31.209  20.667  1.00  0.00     0.112 A 
ATOM     25  C   UNL A   1      29.141  33.675  23.300  1.00  0.00     0.044 C 
ATOM     26  C   UNL A   1      28.332  32.412  21.286  1.00  0.00     0.023 A 
ENDBRANCH  18  20
ENDBRANCH  14  18
ENDBRANCH   5   6
ENDBRANCH   3   5
ENDBRANCH   2   3
ENDBRANCH   1   2
BRANCH   1  27
ATOM     27  C   UNL A   1      34.092  31.014  27.723  1.00  0.00     0.275 C 
BRANCH  27  28
ATOM     28  O   UNL A   1      35.441  30.518  27.668  1.00  0.00    -0.458 OA
BRANCH  28  29
ATOM     29  C   UNL A   1      36.100  30.511  28.850  1.00  0.00     0.338 C 
ATOM     30  O   UNL A   1      35.706  30.996  29.903  1.00  0.00    -0.246 OA
BRANCH  29  31
ATOM     31  C   UNL A   1      37.424  29.871  28.707  1.00  0.00     0.060 A 
ATOM     32  C   UNL A   1      38.153  29.430  29.813  1.00  0.00     0.016 A 
ATOM     33  C   UNL A   1      37.990  29.805  27.433  1.00  0.00     0.016 A 
ATOM     34  C   UNL A   1      39.483  29.030  29.655  1.00  0.00     0.010 A 
ATOM     35  C   UNL A   1      39.286  29.310  27.267  1.00  0.00     0.010 A 
ATOM     36  C   UNL A   1      40.066  28.961  28.380  1.00  0.00    -0.014 A 
BRANCH  36  37
ATOM     37  C   UNL A   1      41.491  28.561  28.203  1.00  0.00     0.031 A 
ATOM     38  C   UNL A   1      42.594  29.583  28.335  1.00  0.00     0.074 A 
ATOM     39  C   UNL A   1      41.808  27.285  27.903  1.00  0.00     0.049 A 
ATOM     40  N   UNL A   1      43.868  29.468  28.048  1.00  0.00    -0.248 NA
ATOM     41  C   UNL A   1      42.215  30.914  28.838  1.00  0.00     0.031 C 
ATOM     42  C   UNL A   1      40.856  26.182  27.766  1.00  0.00     0.029 A 
ATOM     43  N   UNL A   1      43.029  26.702  27.664  1.00  0.00    -0.354 N 
ATOM     44  C   UNL A   1      44.427  30.720  28.276  1.00  0.00     0.074 A 
ATOM     45  C   UNL A   1      43.354  31.583  28.725  1.00  0.00     0.031 C 
ATOM     46  C   UNL A   1      41.528  25.049  27.509  1.00  0.00     0.029 A 
ATOM     47  C   UNL A   1      42.949  25.357  27.390  1.00  0.00     0.049 A 
ATOM     48  H   UNL A   1      43.878  27.198  27.685  1.00  0.00     0.167 HD
ATOM     49  C   UNL A   1      45.714  31.117  28.124  1.00  0.00     0.031 A 
ATOM     50  C   UNL A   1      43.904  24.469  27.051  1.00  0.00     0.031 A 
ATOM     51  C   UNL A   1      46.795  30.251  27.729  1.00  0.00     0.049 A 
ATOM     52  C   UNL A   1      45.325  24.927  26.907  1.00  0.00     0.074 A 
ATOM     53  C   UNL A   1      48.133  30.564  27.559  1.00  0.00     0.029 A 
ATOM     54  N   UNL A   1      46.667  28.895  27.465  1.00  0.00    -0.354 N 
ATOM     55  N   UNL A   1      45.823  26.128  27.071  1.00  0.00    -0.248 NA
ATOM     56  C   UNL A   1      46.312  23.908  26.523  1.00  0.00     0.031 C 
ATOM     57  C   UNL A   1      48.812  29.402  27.173  1.00  0.00     0.029 A 
ATOM     58  C   UNL A   1      47.901  28.359  27.137  1.00  0.00     0.049 A 
ATOM     59  H   UNL A   1      45.823  28.389  27.506  1.00  0.00     0.167 HD
ATOM     60  C   UNL A   1      47.183  26.010  26.814  1.00  0.00     0.074 A 
ATOM     61  C   UNL A   1      47.434  24.616  26.506  1.00  0.00     0.031 C 
ATOM     62  C   UNL A   1      48.138  26.972  26.828  1.00  0.00     0.031 A 
BRANCH  49  63
ATOM     63  C   UNL A   1      46.024  32.571  28.362  1.00  0.00    -0.014 A 
ATOM     64  C   UNL A   1      45.924  33.518  27.328  1.00  0.00     0.010 A 
ATOM     65  C   UNL A   1      46.389  33.000  29.651  1.00  0.00     0.010 A 
ATOM     66  C   UNL A   1      46.223  34.862  27.570  1.00  0.00     0.020 A 
ATOM     67  C   UNL A   1      46.668  34.346  29.902  1.00  0.00     0.020 A 
ATOM     68  C   UNL A   1      46.603  35.265  28.854  1.00  0.00     0.054 A 
BRANCH  68  69
ATOM     69  S   UNL A   1      46.988  37.014  29.144  1.00  0.00     0.124 S 
ATOM     70  O   UNL A   1      45.685  37.643  28.942  1.00  0.00    -0.237 OA
ATOM     71  O   UNL A   1      47.475  37.016  30.522  1.00  0.00    -0.237 OA
ATOM     72  O   UNL A   1      47.993  37.320  28.130  1.00  0.00    -0.744 OA
ENDBRANCH  68  69
ENDBRANCH  49  63
BRANCH  50  73
ATOM     73  C   UNL A   1      43.530  23.051  26.804  1.00  0.00    -0.014 A 
ATOM     74  C   UNL A   1      43.891  22.421  25.603  1.00  0.00     0.010 A 
ATOM     75  C   UNL A   1      42.844  22.317  27.789  1.00  0.00     0.010 A 
ATOM     76  C   UNL A   1      43.569  21.077  25.387  1.00  0.00     0.020 A 
ATOM     77  C   UNL A   1      42.541  20.969  27.586  1.00  0.00     0.020 A 
ATOM     78  C   UNL A   1      42.899  20.359  26.381  1.00  0.00     0.054 A 
BRANCH  78  79
ATOM     79  S   UNL A   1      42.557  18.596  26.120  1.00  0.00     0.124 S 
ATOM     80  O   UNL A   1      41.145  18.615  25.752  1.00  0.00    -0.237 OA
ATOM     81  O   UNL A   1      43.485  18.243  25.049  1.00  0.00    -0.237 OA
ATOM     82  O   UNL A   1      42.861  17.998  27.418  1.00  0.00    -0.744 OA
ENDBRANCH  78  79
ENDBRANCH  50  73
BRANCH  62  83
ATOM     83  C   UNL A   1      49.545  26.541  26.525  1.00  0.00    -0.014 A 
ATOM     84  C   UNL A   1      50.361  25.979  27.522  1.00  0.00     0.010 A 
ATOM     85  C   UNL A   1      50.051  26.683  25.221  1.00  0.00     0.010 A 
ATOM     86  C   UNL A   1      51.673  25.600  27.230  1.00  0.00     0.020 A 
ATOM     87  C   UNL A   1      51.357  26.288  24.920  1.00  0.00     0.020 A 
ATOM     88  C   UNL A   1      52.166  25.764  25.932  1.00  0.00     0.054 A 
BRANCH  88  89
ATOM     89  S   UNL A   1      53.865  25.247  25.562  1.00  0.00     0.124 S 
ATOM     90  O   UNL A   1      54.403  24.999  26.897  1.00  0.00    -0.237 OA
ATOM     91  O   UNL A   1      53.673  24.061  24.733  1.00  0.00    -0.237 OA
ATOM     92  O   UNL A   1      54.433  26.399  24.866  1.00  0.00    -0.744 OA
ENDBRANCH  88  89
ENDBRANCH  62  83
ENDBRANCH  36  37
ENDBRANCH  29  31
ENDBRANCH  28  29
ENDBRANCH  27  28
ENDBRANCH   1  27
TORSDOF 18
ENDMDL
