MODEL 1
REMARK VINA RESULT:      -8.9      0.000      0.000
REMARK SMILES C=CC[N@@H+](CC(=O)OCCOC(=O)c1ccc(-c2c3nc(c(-c4ccc(S(=O)(=O)[O-])cc4)c4ccc([nH]4)c(-c4ccc(S(=O)(=O)[O-])cc4)c4nc(c(-c5ccc(S(=O)(=O)[O-])cc5)c5ccc2[nH]5)C=C4)C=C3)cc1)[C@@H]1CC[N@@H+](C(C)C)C1
REMARK SMILES IDX 9 1 8 2 6 3 7 4 5 5 4 6 3 8 2 9 1 10 74 11 75 12 81 13 76 14
REMARK SMILES IDX 77 15 78 17 79 18 80 19 10 20 11 21 12 22 13 23 14 24 15 25
REMARK SMILES IDX 73 26 16 27 72 28 17 29 18 30 19 31 66 32 20 33 71 34 65 35
REMARK SMILES IDX 67 36 21 37 70 38 64 39 63 40 22 42 52 43 33 44 51 45 34 46
REMARK SMILES IDX 37 47 50 48 68 49 35 50 36 51 49 53 69 54 38 55 23 56 24 57
REMARK SMILES IDX 32 58 25 59 31 60 26 61 27 62 28 63 29 64 30 65 53 66 54 67
REMARK SMILES IDX 62 68 55 69 61 70 56 71 57 72 58 73 59 74 60 75 39 76 40 77
REMARK SMILES IDX 48 78 41 79 47 80 42 81 43 82 44 83 45 84 46 85
REMARK H PARENT 4 7 77 16 67 41 37 52
REMARK Flexibility Score: inf
ROOT
ATOM      1  C   UNL A   1      46.611  23.917  25.444  1.00  0.00     0.274 C 
ENDROOT
BRANCH   1   2
ATOM      2  O   UNL A   1      46.054  22.836  26.222  1.00  0.00    -0.458 OA
BRANCH   2   3
ATOM      3  C   UNL A   1      45.644  21.733  25.543  1.00  0.00     0.361 C 
ATOM      4  O   UNL A   1      46.413  20.887  25.092  1.00  0.00    -0.245 OA
BRANCH   3   5
ATOM      5  C   UNL A   1      44.145  21.685  25.251  1.00  0.00     0.387 C 
BRANCH   5   6
ATOM      6  N   UNL A   1      43.246  20.957  26.174  1.00  0.00    -0.315 N 
ATOM      7  H   UNL A   1      43.837  20.768  26.983  1.00  0.00     0.349 HD
BRANCH   6   8
ATOM      8  C   UNL A   1      42.819  19.671  25.604  1.00  0.00     0.291 C 
BRANCH   8   9
ATOM      9  C   UNL A   1      43.486  18.472  26.206  1.00  0.00     0.025 C 
ATOM     10  C   UNL A   1      43.026  17.837  27.293  1.00  0.00     0.010 C 
ENDBRANCH   8   9
ENDBRANCH   6   8
BRANCH   6  11
ATOM     11  C   UNL A   1      42.158  21.723  26.829  1.00  0.00     0.246 C 
ATOM     12  C   UNL A   1      40.903  20.985  27.317  1.00  0.00     0.132 C 
ATOM     13  C   UNL A   1      41.552  22.783  25.862  1.00  0.00     0.328 C 
ATOM     14  C   UNL A   1      39.746  21.434  26.447  1.00  0.00     0.269 C 
ATOM     15  N   UNL A   1      40.090  22.769  25.976  1.00  0.00    -0.328 N 
ATOM     16  H   UNL A   1      39.681  22.960  25.062  1.00  0.00     0.348 HD
BRANCH  15  17
ATOM     17  C   UNL A   1      39.462  23.872  26.715  1.00  0.00     0.177 C 
ATOM     18  C   UNL A   1      40.056  25.267  26.498  1.00  0.00     0.075 C 
ATOM     19  C   UNL A   1      37.954  23.887  26.427  1.00  0.00     0.075 C 
ENDBRANCH  15  17
ENDBRANCH   6  11
ENDBRANCH   5   6
ENDBRANCH   3   5
ENDBRANCH   2   3
ENDBRANCH   1   2
BRANCH   1  20
ATOM     20  C   UNL A   1      46.211  25.264  26.036  1.00  0.00     0.275 C 
BRANCH  20  21
ATOM     21  O   UNL A   1      45.055  25.072  26.861  1.00  0.00    -0.458 OA
BRANCH  21  22
ATOM     22  C   UNL A   1      43.936  25.736  26.490  1.00  0.00     0.338 C 
ATOM     23  O   UNL A   1      43.422  25.752  25.385  1.00  0.00    -0.246 OA
BRANCH  22  24
ATOM     24  C   UNL A   1      43.393  26.459  27.659  1.00  0.00     0.060 A 
ATOM     25  C   UNL A   1      42.658  25.781  28.634  1.00  0.00     0.016 A 
ATOM     26  C   UNL A   1      43.540  27.844  27.734  1.00  0.00     0.016 A 
ATOM     27  C   UNL A   1      42.025  26.489  29.651  1.00  0.00     0.010 A 
ATOM     28  C   UNL A   1      43.000  28.537  28.822  1.00  0.00     0.010 A 
ATOM     29  C   UNL A   1      42.238  27.867  29.793  1.00  0.00    -0.014 A 
BRANCH  29  30
ATOM     30  C   UNL A   1      41.752  28.591  30.998  1.00  0.00     0.031 A 
ATOM     31  C   UNL A   1      40.531  29.467  30.940  1.00  0.00     0.074 A 
ATOM     32  C   UNL A   1      42.462  28.509  32.143  1.00  0.00     0.049 A 
ATOM     33  N   UNL A   1      40.112  30.351  31.808  1.00  0.00    -0.248 NA
ATOM     34  C   UNL A   1      39.678  29.345  29.746  1.00  0.00     0.031 C 
ATOM     35  C   UNL A   1      43.651  27.676  32.349  1.00  0.00     0.029 A 
ATOM     36  N   UNL A   1      42.297  29.145  33.348  1.00  0.00    -0.354 N 
ATOM     37  C   UNL A   1      38.977  30.927  31.250  1.00  0.00     0.074 A 
ATOM     38  C   UNL A   1      38.768  30.286  29.967  1.00  0.00     0.031 C 
ATOM     39  C   UNL A   1      44.090  27.832  33.606  1.00  0.00     0.029 A 
ATOM     40  C   UNL A   1      43.281  28.849  34.261  1.00  0.00     0.049 A 
ATOM     41  H   UNL A   1      41.547  29.755  33.540  1.00  0.00     0.167 HD
ATOM     42  C   UNL A   1      38.191  31.907  31.758  1.00  0.00     0.031 A 
ATOM     43  C   UNL A   1      43.557  29.379  35.468  1.00  0.00     0.031 A 
ATOM     44  C   UNL A   1      38.393  32.521  33.046  1.00  0.00     0.049 A 
ATOM     45  C   UNL A   1      42.713  30.504  35.980  1.00  0.00     0.074 A 
ATOM     46  C   UNL A   1      37.631  33.500  33.662  1.00  0.00     0.029 A 
ATOM     47  N   UNL A   1      39.429  32.217  33.916  1.00  0.00    -0.354 N 
ATOM     48  N   UNL A   1      41.669  31.066  35.420  1.00  0.00    -0.248 NA
ATOM     49  C   UNL A   1      43.101  31.085  37.271  1.00  0.00     0.031 C 
ATOM     50  C   UNL A   1      38.232  33.819  34.885  1.00  0.00     0.029 A 
ATOM     51  C   UNL A   1      39.343  33.008  35.050  1.00  0.00     0.049 A 
ATOM     52  H   UNL A   1      40.123  31.539  33.752  1.00  0.00     0.167 HD
ATOM     53  C   UNL A   1      41.278  32.076  36.289  1.00  0.00     0.074 A 
ATOM     54  C   UNL A   1      42.181  32.028  37.422  1.00  0.00     0.031 C 
ATOM     55  C   UNL A   1      40.265  32.966  36.156  1.00  0.00     0.031 A 
BRANCH  42  56
ATOM     56  C   UNL A   1      37.059  32.413  30.905  1.00  0.00    -0.014 A 
ATOM     57  C   UNL A   1      35.729  32.020  31.139  1.00  0.00     0.010 A 
ATOM     58  C   UNL A   1      37.327  33.349  29.887  1.00  0.00     0.010 A 
ATOM     59  C   UNL A   1      34.692  32.532  30.352  1.00  0.00     0.020 A 
ATOM     60  C   UNL A   1      36.291  33.877  29.112  1.00  0.00     0.020 A 
ATOM     61  C   UNL A   1      34.981  33.455  29.341  1.00  0.00     0.054 A 
BRANCH  61  62
ATOM     62  S   UNL A   1      33.615  34.127  28.352  1.00  0.00     0.124 S 
ATOM     63  O   UNL A   1      32.746  34.690  29.382  1.00  0.00    -0.237 OA
ATOM     64  O   UNL A   1      34.286  35.102  27.495  1.00  0.00    -0.237 OA
ATOM     65  O   UNL A   1      33.081  32.958  27.657  1.00  0.00    -0.744 OA
ENDBRANCH  61  62
ENDBRANCH  42  56
BRANCH  43  66
ATOM     66  C   UNL A   1      44.739  28.889  36.223  1.00  0.00    -0.014 A 
ATOM     67  C   UNL A   1      44.617  27.814  37.118  1.00  0.00     0.010 A 
ATOM     68  C   UNL A   1      46.008  29.457  35.997  1.00  0.00     0.010 A 
ATOM     69  C   UNL A   1      45.747  27.306  37.767  1.00  0.00     0.020 A 
ATOM     70  C   UNL A   1      47.142  28.936  36.624  1.00  0.00     0.020 A 
ATOM     71  C   UNL A   1      47.003  27.866  37.510  1.00  0.00     0.054 A 
BRANCH  71  72
ATOM     72  S   UNL A   1      48.470  27.132  38.284  1.00  0.00     0.124 S 
ATOM     73  O   UNL A   1      48.434  25.768  37.767  1.00  0.00    -0.237 OA
ATOM     74  O   UNL A   1      49.554  27.972  37.778  1.00  0.00    -0.237 OA
ATOM     75  O   UNL A   1      48.205  27.270  39.714  1.00  0.00    -0.744 OA
ENDBRANCH  71  72
ENDBRANCH  43  66
BRANCH  55  76
ATOM     76  C   UNL A   1      40.089  33.961  37.266  1.00  0.00    -0.014 A 
ATOM     77  C   UNL A   1      40.703  35.224  37.202  1.00  0.00     0.010 A 
ATOM     78  C   UNL A   1      39.285  33.639  38.373  1.00  0.00     0.010 A 
ATOM     79  C   UNL A   1      40.540  36.140  38.244  1.00  0.00     0.020 A 
ATOM     80  C   UNL A   1      39.104  34.560  39.408  1.00  0.00     0.020 A 
ATOM     81  C   UNL A   1      39.745  35.799  39.343  1.00  0.00     0.054 A 
BRANCH  81  82
ATOM     82  S   UNL A   1      39.522  37.014  40.672  1.00  0.00     0.124 S 
ATOM     83  O   UNL A   1      38.304  37.702  40.251  1.00  0.00    -0.237 OA
ATOM     84  O   UNL A   1      39.391  36.175  41.860  1.00  0.00    -0.237 OA
ATOM     85  O   UNL A   1      40.743  37.816  40.614  1.00  0.00    -0.744 OA
ENDBRANCH  81  82
ENDBRANCH  55  76
ENDBRANCH  29  30
ENDBRANCH  22  24
ENDBRANCH  21  22
ENDBRANCH  20  21
ENDBRANCH   1  20
TORSDOF 19
ENDMDL
MODEL 2
REMARK VINA RESULT:      -8.7      6.480      9.598
REMARK SMILES C=CC[N@@H+](CC(=O)OCCOC(=O)c1ccc(-c2c3nc(c(-c4ccc(S(=O)(=O)[O-])cc4)c4ccc([nH]4)c(-c4ccc(S(=O)(=O)[O-])cc4)c4nc(c(-c5ccc(S(=O)(=O)[O-])cc5)c5ccc2[nH]5)C=C4)C=C3)cc1)[C@@H]1CC[N@@H+](C(C)C)C1
REMARK SMILES IDX 9 1 8 2 6 3 7 4 5 5 4 6 3 8 2 9 1 10 74 11 75 12 81 13 76 14
REMARK SMILES IDX 77 15 78 17 79 18 80 19 10 20 11 21 12 22 13 23 14 24 15 25
REMARK SMILES IDX 73 26 16 27 72 28 17 29 18 30 19 31 66 32 20 33 71 34 65 35
REMARK SMILES IDX 67 36 21 37 70 38 64 39 63 40 22 42 52 43 33 44 51 45 34 46
REMARK SMILES IDX 37 47 50 48 68 49 35 50 36 51 49 53 69 54 38 55 23 56 24 57
REMARK SMILES IDX 32 58 25 59 31 60 26 61 27 62 28 63 29 64 30 65 53 66 54 67
REMARK SMILES IDX 62 68 55 69 61 70 56 71 57 72 58 73 59 74 60 75 39 76 40 77
REMARK SMILES IDX 48 78 41 79 47 80 42 81 43 82 44 83 45 84 46 85
REMARK H PARENT 4 7 77 16 67 41 37 52
REMARK Flexibility Score: inf
ROOT
ATOM      1  C   UNL A   1      39.066  21.455  26.040  1.00  0.00     0.274 C 
ENDROOT
BRANCH   1   2
ATOM      2  O   UNL A   1      37.937  21.851  25.234  1.00  0.00    -0.458 OA
BRANCH   2   3
ATOM      3  C   UNL A   1      37.130  22.823  25.734  1.00  0.00     0.361 C 
ATOM      4  O   UNL A   1      37.547  23.868  26.225  1.00  0.00    -0.245 OA
BRANCH   3   5
ATOM      5  C   UNL A   1      35.646  22.459  25.775  1.00  0.00     0.387 C 
BRANCH   5   6
ATOM      6  N   UNL A   1      34.834  22.575  24.542  1.00  0.00    -0.315 N 
ATOM      7  H   UNL A   1      35.530  22.571  23.797  1.00  0.00     0.349 HD
BRANCH   6   8
ATOM      8  C   UNL A   1      34.112  23.855  24.493  1.00  0.00     0.291 C 
BRANCH   8   9
ATOM      9  C   UNL A   1      34.024  24.467  23.128  1.00  0.00     0.025 C 
ATOM     10  C   UNL A   1      32.974  24.304  22.311  1.00  0.00     0.010 C 
ENDBRANCH   8   9
ENDBRANCH   6   8
BRANCH   6  11
ATOM     11  C   UNL A   1      34.021  21.404  24.136  1.00  0.00     0.246 C 
ATOM     12  C   UNL A   1      32.581  21.268  24.651  1.00  0.00     0.132 C 
ATOM     13  C   UNL A   1      34.665  20.073  24.626  1.00  0.00     0.328 C 
ATOM     14  C   UNL A   1      32.547  20.083  25.595  1.00  0.00     0.269 C 
ATOM     15  N   UNL A   1      33.621  19.196  25.167  1.00  0.00    -0.328 N 
ATOM     16  H   UNL A   1      34.003  18.666  25.950  1.00  0.00     0.348 HD
BRANCH  15  17
ATOM     17  C   UNL A   1      33.199  18.059  24.338  1.00  0.00     0.177 C 
ATOM     18  C   UNL A   1      32.536  18.397  23.000  1.00  0.00     0.075 C 
ATOM     19  C   UNL A   1      34.392  17.119  24.116  1.00  0.00     0.075 C 
ENDBRANCH  15  17
ENDBRANCH   6  11
ENDBRANCH   5   6
ENDBRANCH   3   5
ENDBRANCH   2   3
ENDBRANCH   1   2
BRANCH   1  20
ATOM     20  C   UNL A   1      39.458  20.013  25.739  1.00  0.00     0.275 C 
BRANCH  20  21
ATOM     21  O   UNL A   1      40.533  19.642  26.612  1.00  0.00    -0.458 OA
BRANCH  21  22
ATOM     22  C   UNL A   1      41.781  19.726  26.096  1.00  0.00     0.338 C 
ATOM     23  O   UNL A   1      42.363  18.884  25.437  1.00  0.00    -0.246 OA
BRANCH  22  24
ATOM     24  C   UNL A   1      42.360  21.040  26.446  1.00  0.00     0.060 A 
ATOM     25  C   UNL A   1      42.817  21.903  25.447  1.00  0.00     0.016 A 
ATOM     26  C   UNL A   1      42.533  21.376  27.789  1.00  0.00     0.016 A 
ATOM     27  C   UNL A   1      43.495  23.070  25.787  1.00  0.00     0.010 A 
ATOM     28  C   UNL A   1      43.110  22.604  28.125  1.00  0.00     0.010 A 
ATOM     29  C   UNL A   1      43.596  23.466  27.128  1.00  0.00    -0.014 A 
BRANCH  29  30
ATOM     30  C   UNL A   1      44.116  24.812  27.486  1.00  0.00     0.031 A 
ATOM     31  C   UNL A   1      43.193  25.903  27.954  1.00  0.00     0.074 A 
ATOM     32  C   UNL A   1      45.430  25.072  27.322  1.00  0.00     0.049 A 
ATOM     33  N   UNL A   1      43.430  27.184  28.072  1.00  0.00    -0.248 NA
ATOM     34  C   UNL A   1      41.825  25.506  28.326  1.00  0.00     0.031 C 
ATOM     35  C   UNL A   1      46.444  24.100  26.900  1.00  0.00     0.029 A 
ATOM     36  N   UNL A   1      46.140  26.237  27.475  1.00  0.00    -0.354 N 
ATOM     37  C   UNL A   1      42.232  27.758  28.482  1.00  0.00     0.074 A 
ATOM     38  C   UNL A   1      41.270  26.681  28.601  1.00  0.00     0.031 C 
ATOM     39  C   UNL A   1      47.642  24.699  26.854  1.00  0.00     0.029 A 
ATOM     40  C   UNL A   1      47.468  26.116  27.140  1.00  0.00     0.049 A 
ATOM     41  H   UNL A   1      45.737  27.077  27.794  1.00  0.00     0.167 HD
ATOM     42  C   UNL A   1      41.960  29.063  28.726  1.00  0.00     0.031 A 
ATOM     43  C   UNL A   1      48.435  27.043  27.006  1.00  0.00     0.031 A 
ATOM     44  C   UNL A   1      42.931  30.123  28.628  1.00  0.00     0.049 A 
ATOM     45  C   UNL A   1      48.096  28.485  27.218  1.00  0.00     0.074 A 
ATOM     46  C   UNL A   1      42.761  31.473  28.887  1.00  0.00     0.029 A 
ATOM     47  N   UNL A   1      44.253  29.956  28.244  1.00  0.00    -0.354 N 
ATOM     48  N   UNL A   1      46.948  29.015  27.564  1.00  0.00    -0.248 NA
ATOM     49  C   UNL A   1      49.174  29.457  26.993  1.00  0.00     0.031 C 
ATOM     50  C   UNL A   1      43.967  32.128  28.616  1.00  0.00     0.029 A 
ATOM     51  C   UNL A   1      44.901  31.181  28.230  1.00  0.00     0.049 A 
ATOM     52  H   UNL A   1      44.669  29.094  28.015  1.00  0.00     0.167 HD
ATOM     53  C   UNL A   1      47.162  30.387  27.592  1.00  0.00     0.074 A 
ATOM     54  C   UNL A   1      48.555  30.601  27.254  1.00  0.00     0.031 C 
ATOM     55  C   UNL A   1      46.281  31.378  27.866  1.00  0.00     0.031 A 
BRANCH  42  56
ATOM     56  C   UNL A   1      40.545  29.432  29.082  1.00  0.00    -0.014 A 
ATOM     57  C   UNL A   1      40.142  29.592  30.420  1.00  0.00     0.010 A 
ATOM     58  C   UNL A   1      39.618  29.683  28.053  1.00  0.00     0.010 A 
ATOM     59  C   UNL A   1      38.829  29.968  30.721  1.00  0.00     0.020 A 
ATOM     60  C   UNL A   1      38.311  30.078  28.350  1.00  0.00     0.020 A 
ATOM     61  C   UNL A   1      37.921  30.205  29.683  1.00  0.00     0.054 A 
BRANCH  61  62
ATOM     62  S   UNL A   1      36.231  30.721  30.098  1.00  0.00     0.124 S 
ATOM     63  O   UNL A   1      36.141  30.351  31.508  1.00  0.00    -0.237 OA
ATOM     64  O   UNL A   1      36.254  32.156  29.826  1.00  0.00    -0.237 OA
ATOM     65  O   UNL A   1      35.396  29.934  29.194  1.00  0.00    -0.744 OA
ENDBRANCH  61  62
ENDBRANCH  42  56
BRANCH  43  66
ATOM     66  C   UNL A   1      49.792  26.621  26.571  1.00  0.00    -0.014 A 
ATOM     67  C   UNL A   1      50.686  26.046  27.488  1.00  0.00     0.010 A 
ATOM     68  C   UNL A   1      50.167  26.731  25.219  1.00  0.00     0.010 A 
ATOM     69  C   UNL A   1      51.932  25.577  27.058  1.00  0.00     0.020 A 
ATOM     70  C   UNL A   1      51.400  26.241  24.782  1.00  0.00     0.020 A 
ATOM     71  C   UNL A   1      52.278  25.672  25.707  1.00  0.00     0.054 A 
BRANCH  71  72
ATOM     72  S   UNL A   1      53.855  24.971  25.149  1.00  0.00     0.124 S 
ATOM     73  O   UNL A   1      53.535  23.552  25.044  1.00  0.00    -0.237 OA
ATOM     74  O   UNL A   1      54.085  25.664  23.884  1.00  0.00    -0.237 OA
ATOM     75  O   UNL A   1      54.783  25.329  26.221  1.00  0.00    -0.744 OA
ENDBRANCH  71  72
ENDBRANCH  43  66
BRANCH  55  76
ATOM     76  C   UNL A   1      46.805  32.784  27.807  1.00  0.00    -0.014 A 
ATOM     77  C   UNL A   1      46.785  33.507  26.601  1.00  0.00     0.010 A 
ATOM     78  C   UNL A   1      47.303  33.395  28.970  1.00  0.00     0.010 A 
ATOM     79  C   UNL A   1      47.282  34.812  26.554  1.00  0.00     0.020 A 
ATOM     80  C   UNL A   1      47.783  34.706  28.930  1.00  0.00     0.020 A 
ATOM     81  C   UNL A   1      47.784  35.401  27.719  1.00  0.00     0.054 A 
BRANCH  81  82
ATOM     82  S   UNL A   1      48.398  37.106  27.642  1.00  0.00     0.124 S 
ATOM     83  O   UNL A   1      49.486  37.079  28.616  1.00  0.00    -0.237 OA
ATOM     84  O   UNL A   1      48.808  37.240  26.246  1.00  0.00    -0.237 OA
ATOM     85  O   UNL A   1      47.238  37.908  28.024  1.00  0.00    -0.744 OA
ENDBRANCH  81  82
ENDBRANCH  55  76
ENDBRANCH  29  30
ENDBRANCH  22  24
ENDBRANCH  21  22
ENDBRANCH  20  21
ENDBRANCH   1  20
TORSDOF 19
ENDMDL
MODEL 3
REMARK VINA RESULT:      -8.4      4.417     10.623
REMARK SMILES C=CC[N@@H+](CC(=O)OCCOC(=O)c1ccc(-c2c3nc(c(-c4ccc(S(=O)(=O)[O-])cc4)c4ccc([nH]4)c(-c4ccc(S(=O)(=O)[O-])cc4)c4nc(c(-c5ccc(S(=O)(=O)[O-])cc5)c5ccc2[nH]5)C=C4)C=C3)cc1)[C@@H]1CC[N@@H+](C(C)C)C1
REMARK SMILES IDX 9 1 8 2 6 3 7 4 5 5 4 6 3 8 2 9 1 10 74 11 75 12 81 13 76 14
REMARK SMILES IDX 77 15 78 17 79 18 80 19 10 20 11 21 12 22 13 23 14 24 15 25
REMARK SMILES IDX 73 26 16 27 72 28 17 29 18 30 19 31 66 32 20 33 71 34 65 35
REMARK SMILES IDX 67 36 21 37 70 38 64 39 63 40 22 42 52 43 33 44 51 45 34 46
REMARK SMILES IDX 37 47 50 48 68 49 35 50 36 51 49 53 69 54 38 55 23 56 24 57
REMARK SMILES IDX 32 58 25 59 31 60 26 61 27 62 28 63 29 64 30 65 53 66 54 67
REMARK SMILES IDX 62 68 55 69 61 70 56 71 57 72 58 73 59 74 60 75 39 76 40 77
REMARK SMILES IDX 48 78 41 79 47 80 42 81 43 82 44 83 45 84 46 85
REMARK H PARENT 4 7 77 16 67 41 37 52
REMARK Flexibility Score: inf
ROOT
ATOM      1  C   UNL A   1      33.560  28.724  25.579  1.00  0.00     0.274 C 
ENDROOT
BRANCH   1   2
ATOM      2  O   UNL A   1      34.055  29.037  24.259  1.00  0.00    -0.458 OA
BRANCH   2   3
ATOM      3  C   UNL A   1      33.402  28.480  23.206  1.00  0.00     0.361 C 
ATOM      4  O   UNL A   1      33.954  28.150  22.160  1.00  0.00    -0.245 OA
BRANCH   3   5
ATOM      5  C   UNL A   1      31.882  28.424  23.358  1.00  0.00     0.387 C 
BRANCH   5   6
ATOM      6  N   UNL A   1      31.165  27.167  23.045  1.00  0.00    -0.315 N 
ATOM      7  H   UNL A   1      31.475  26.945  22.099  1.00  0.00     0.349 HD
BRANCH   6   8
ATOM      8  C   UNL A   1      29.709  27.371  23.017  1.00  0.00     0.291 C 
BRANCH   8   9
ATOM      9  C   UNL A   1      29.275  28.784  23.265  1.00  0.00     0.025 C 
ATOM     10  C   UNL A   1      28.408  29.440  22.481  1.00  0.00     0.010 C 
ENDBRANCH   8   9
ENDBRANCH   6   8
BRANCH   6  11
ATOM     11  C   UNL A   1      31.592  25.933  23.747  1.00  0.00     0.246 C 
ATOM     12  C   UNL A   1      31.895  24.667  22.934  1.00  0.00     0.132 C 
ATOM     13  C   UNL A   1      30.489  25.430  24.726  1.00  0.00     0.328 C 
ATOM     14  C   UNL A   1      30.823  23.647  23.264  1.00  0.00     0.269 C 
ATOM     15  N   UNL A   1      30.357  23.974  24.605  1.00  0.00    -0.328 N 
ATOM     16  H   UNL A   1      29.379  23.716  24.735  1.00  0.00     0.348 HD
BRANCH  15  17
ATOM     17  C   UNL A   1      30.928  23.155  25.682  1.00  0.00     0.177 C 
ATOM     18  C   UNL A   1      31.974  22.115  25.270  1.00  0.00     0.075 C 
ATOM     19  C   UNL A   1      31.495  24.072  26.775  1.00  0.00     0.075 C 
ENDBRANCH  15  17
ENDBRANCH   6  11
ENDBRANCH   5   6
ENDBRANCH   3   5
ENDBRANCH   2   3
ENDBRANCH   1   2
BRANCH   1  20
ATOM     20  C   UNL A   1      33.164  29.998  26.317  1.00  0.00     0.275 C 
BRANCH  20  21
ATOM     21  O   UNL A   1      33.815  30.006  27.593  1.00  0.00    -0.458 OA
BRANCH  21  22
ATOM     22  C   UNL A   1      34.439  31.154  27.941  1.00  0.00     0.338 C 
ATOM     23  O   UNL A   1      34.017  32.290  27.811  1.00  0.00    -0.246 OA
BRANCH  22  24
ATOM     24  C   UNL A   1      35.752  30.830  28.538  1.00  0.00     0.060 A 
ATOM     25  C   UNL A   1      36.825  31.715  28.416  1.00  0.00     0.016 A 
ATOM     26  C   UNL A   1      35.938  29.588  29.145  1.00  0.00     0.016 A 
ATOM     27  C   UNL A   1      38.094  31.339  28.849  1.00  0.00     0.010 A 
ATOM     28  C   UNL A   1      37.186  29.262  29.683  1.00  0.00     0.010 A 
ATOM     29  C   UNL A   1      38.278  30.135  29.542  1.00  0.00    -0.014 A 
BRANCH  29  30
ATOM     30  C   UNL A   1      39.575  29.829  30.202  1.00  0.00     0.031 A 
ATOM     31  C   UNL A   1      40.458  28.718  29.704  1.00  0.00     0.074 A 
ATOM     32  C   UNL A   1      39.928  30.520  31.307  1.00  0.00     0.049 A 
ATOM     33  N   UNL A   1      41.484  28.159  30.292  1.00  0.00    -0.248 NA
ATOM     34  C   UNL A   1      40.140  28.154  28.382  1.00  0.00     0.031 C 
ATOM     35  C   UNL A   1      39.180  31.641  31.885  1.00  0.00     0.029 A 
ATOM     36  N   UNL A   1      41.000  30.373  32.152  1.00  0.00    -0.354 N 
ATOM     37  C   UNL A   1      41.907  27.145  29.439  1.00  0.00     0.074 A 
ATOM     38  C   UNL A   1      41.028  27.172  28.287  1.00  0.00     0.031 C 
ATOM     39  C   UNL A   1      39.825  32.093  32.968  1.00  0.00     0.029 A 
ATOM     40  C   UNL A   1      40.972  31.234  33.223  1.00  0.00     0.049 A 
ATOM     41  H   UNL A   1      41.717  29.714  32.006  1.00  0.00     0.167 HD
ATOM     42  C   UNL A   1      42.926  26.269  29.610  1.00  0.00     0.031 A 
ATOM     43  C   UNL A   1      41.737  31.295  34.329  1.00  0.00     0.031 A 
ATOM     44  C   UNL A   1      43.810  26.267  30.748  1.00  0.00     0.049 A 
ATOM     45  C   UNL A   1      42.816  30.277  34.527  1.00  0.00     0.074 A 
ATOM     46  C   UNL A   1      44.892  25.439  30.997  1.00  0.00     0.029 A 
ATOM     47  N   UNL A   1      43.716  27.132  31.827  1.00  0.00    -0.354 N 
ATOM     48  N   UNL A   1      43.175  29.298  33.731  1.00  0.00    -0.248 NA
ATOM     49  C   UNL A   1      43.574  30.352  35.782  1.00  0.00     0.031 C 
ATOM     50  C   UNL A   1      45.424  25.775  32.246  1.00  0.00     0.029 A 
ATOM     51  C   UNL A   1      44.701  26.840  32.757  1.00  0.00     0.049 A 
ATOM     52  H   UNL A   1      43.047  27.848  31.920  1.00  0.00     0.167 HD
ATOM     53  C   UNL A   1      44.198  28.634  34.393  1.00  0.00     0.074 A 
ATOM     54  C   UNL A   1      44.417  29.338  35.641  1.00  0.00     0.031 C 
ATOM     55  C   UNL A   1      44.888  27.535  34.004  1.00  0.00     0.031 A 
BRANCH  42  56
ATOM     56  C   UNL A   1      43.122  25.206  28.563  1.00  0.00    -0.014 A 
ATOM     57  C   UNL A   1      42.471  23.961  28.648  1.00  0.00     0.010 A 
ATOM     58  C   UNL A   1      43.925  25.482  27.440  1.00  0.00     0.010 A 
ATOM     59  C   UNL A   1      42.645  23.004  27.643  1.00  0.00     0.020 A 
ATOM     60  C   UNL A   1      44.084  24.535  26.425  1.00  0.00     0.020 A 
ATOM     61  C   UNL A   1      43.454  23.296  26.540  1.00  0.00     0.054 A 
BRANCH  61  62
ATOM     62  S   UNL A   1      43.640  22.048  25.235  1.00  0.00     0.124 S 
ATOM     63  O   UNL A   1      42.591  21.092  25.580  1.00  0.00    -0.237 OA
ATOM     64  O   UNL A   1      43.409  22.819  24.015  1.00  0.00    -0.237 OA
ATOM     65  O   UNL A   1      45.007  21.564  25.410  1.00  0.00    -0.744 OA
ENDBRANCH  61  62
ENDBRANCH  42  56
BRANCH  43  66
ATOM     66  C   UNL A   1      41.438  32.319  35.365  1.00  0.00    -0.014 A 
ATOM     67  C   UNL A   1      42.060  33.576  35.322  1.00  0.00     0.010 A 
ATOM     68  C   UNL A   1      40.474  32.059  36.358  1.00  0.00     0.010 A 
ATOM     69  C   UNL A   1      41.717  34.564  36.252  1.00  0.00     0.020 A 
ATOM     70  C   UNL A   1      40.111  33.051  37.271  1.00  0.00     0.020 A 
ATOM     71  C   UNL A   1      40.740  34.297  37.216  1.00  0.00     0.054 A 
BRANCH  71  72
ATOM     72  S   UNL A   1      40.236  35.619  38.350  1.00  0.00     0.124 S 
ATOM     73  O   UNL A   1      41.427  35.781  39.176  1.00  0.00    -0.237 OA
ATOM     74  O   UNL A   1      39.940  36.725  37.442  1.00  0.00    -0.237 OA
ATOM     75  O   UNL A   1      39.070  35.057  39.030  1.00  0.00    -0.744 OA
ENDBRANCH  71  72
ENDBRANCH  43  66
BRANCH  55  76
ATOM     76  C   UNL A   1      45.943  27.030  34.947  1.00  0.00    -0.014 A 
ATOM     77  C   UNL A   1      47.259  27.518  34.879  1.00  0.00     0.010 A 
ATOM     78  C   UNL A   1      45.610  26.076  35.924  1.00  0.00     0.010 A 
ATOM     79  C   UNL A   1      48.235  27.036  35.754  1.00  0.00     0.020 A 
ATOM     80  C   UNL A   1      46.579  25.606  36.813  1.00  0.00     0.020 A 
ATOM     81  C   UNL A   1      47.889  26.078  36.713  1.00  0.00     0.054 A 
BRANCH  81  82
ATOM     82  S   UNL A   1      49.165  25.488  37.859  1.00  0.00     0.124 S 
ATOM     83  O   UNL A   1      48.440  25.455  39.127  1.00  0.00    -0.237 OA
ATOM     84  O   UNL A   1      49.519  24.183  37.305  1.00  0.00    -0.237 OA
ATOM     85  O   UNL A   1      50.211  26.504  37.764  1.00  0.00    -0.744 OA
ENDBRANCH  81  82
ENDBRANCH  55  76
ENDBRANCH  29  30
ENDBRANCH  22  24
ENDBRANCH  21  22
ENDBRANCH  20  21
ENDBRANCH   1  20
TORSDOF 19
ENDMDL
