MODEL 1
REMARK VINA RESULT:     -10.6      0.000      0.000
REMARK SMILES C#Cc1ccc2c(c1)C=C(C(=O)OCCOC(=O)c1ccc(-c3c4nc(c(-c5ccc(S(=O)(=O)[O-])cc5)c5ccc([nH]5)c(-c5ccc(S(=O)(=O)[O-])cc5)c5nc(c(-c6ccc(S(=O)(=O)[O-])cc6)c6ccc3[nH]6)C=C5)C=C4)cc1)[C@@H](C(F)(F)F)O2
REMARK SMILES IDX 15 1 14 2 13 3 11 4 12 5 10 6 3 7 4 8 8 9 5 10 7 11 6 12
REMARK SMILES IDX 9 13 84 14 79 15 2 16 1 17 80 18 81 19 82 20 83 21 16 22
REMARK SMILES IDX 17 23 18 24 19 25 20 26 78 27 21 28 77 29 22 30 23 31 24 32
REMARK SMILES IDX 71 33 25 34 76 35 70 36 72 37 26 38 75 39 69 40 68 41 27 43
REMARK SMILES IDX 57 44 38 45 56 46 39 47 42 48 55 49 73 50 40 51 41 52 54 54
REMARK SMILES IDX 74 55 43 56 28 57 29 58 37 59 30 60 36 61 31 62 32 63 33 64
REMARK SMILES IDX 34 65 35 66 58 67 59 68 67 69 60 70 66 71 61 72 62 73 63 74
REMARK SMILES IDX 64 75 65 76 44 77 45 78 53 79 46 80 52 81 47 82 48 83 49 84
REMARK SMILES IDX 50 85 51 86
REMARK H PARENT 72 42 42 53
REMARK Flexibility Score: inf
ROOT
ATOM      1  C   UNL A   1      37.028  22.715  24.346  1.00  0.00     0.275 C 
ENDROOT
BRANCH   1   2
ATOM      2  C   UNL A   1      35.933  21.786  24.876  1.00  0.00     0.275 C 
BRANCH   2   3
ATOM      3  O   UNL A   1      34.817  22.528  25.423  1.00  0.00    -0.459 OA
BRANCH   3   4
ATOM      4  C   UNL A   1      33.841  22.850  24.541  1.00  0.00     0.338 C 
ATOM      5  O   UNL A   1      33.589  22.266  23.500  1.00  0.00    -0.246 OA
BRANCH   4   6
ATOM      6  C   UNL A   1      33.078  24.029  25.002  1.00  0.00     0.087 C 
ATOM      7  C   UNL A   1      33.140  28.474  26.860  1.00  0.00     0.025 A 
ATOM      8  C   UNL A   1      31.778  28.377  27.142  1.00  0.00     0.021 A 
ATOM      9  C   UNL A   1      33.781  27.423  26.209  1.00  0.00     0.029 A 
ATOM     10  C   UNL A   1      31.059  27.232  26.768  1.00  0.00     0.048 A 
ATOM     11  C   UNL A   1      33.063  26.271  25.862  1.00  0.00     0.018 A 
ATOM     12  C   UNL A   1      31.703  26.171  26.131  1.00  0.00     0.128 A 
ATOM     13  C   UNL A   1      33.753  25.153  25.265  1.00  0.00     0.027 C 
ATOM     14  O   UNL A   1      30.948  25.081  25.797  1.00  0.00    -0.475 OA
ATOM     15  C   UNL A   1      31.619  23.877  25.313  1.00  0.00     0.316 C 
BRANCH   7  16
ATOM     16  C   UNL A   1      33.899  29.622  27.250  1.00  0.00    -0.070 C 
ATOM     17  C   UNL A   1      34.497  30.618  27.561  1.00  0.00     0.010 C 
ENDBRANCH   7  16
BRANCH  15  18
ATOM     18  C   UNL A   1      31.395  22.744  26.328  1.00  0.00     0.430 C 
ATOM     19  F   UNL A   1      30.173  22.833  26.905  1.00  0.00    -0.167 F 
ATOM     20  F   UNL A   1      31.449  21.525  25.737  1.00  0.00    -0.167 F 
ATOM     21  F   UNL A   1      32.313  22.754  27.319  1.00  0.00    -0.167 F 
ENDBRANCH  15  18
ENDBRANCH   4   6
ENDBRANCH   3   4
ENDBRANCH   2   3
ENDBRANCH   1   2
BRANCH   1  22
ATOM     22  O   UNL A   1      37.524  23.581  25.381  1.00  0.00    -0.458 OA
BRANCH  22  23
ATOM     23  C   UNL A   1      38.629  23.129  26.012  1.00  0.00     0.338 C 
ATOM     24  O   UNL A   1      39.129  22.020  25.929  1.00  0.00    -0.246 OA
BRANCH  23  25
ATOM     25  C   UNL A   1      39.272  24.235  26.730  1.00  0.00     0.060 A 
ATOM     26  C   UNL A   1      40.006  25.216  26.083  1.00  0.00     0.016 A 
ATOM     27  C   UNL A   1      38.977  24.367  28.079  1.00  0.00     0.016 A 
ATOM     28  C   UNL A   1      40.446  26.321  26.821  1.00  0.00     0.010 A 
ATOM     29  C   UNL A   1      39.229  25.552  28.750  1.00  0.00     0.010 A 
ATOM     30  C   UNL A   1      40.027  26.527  28.154  1.00  0.00    -0.014 A 
BRANCH  30  31
ATOM     31  C   UNL A   1      40.438  27.724  28.941  1.00  0.00     0.031 A 
ATOM     32  C   UNL A   1      41.834  27.829  29.520  1.00  0.00     0.074 A 
ATOM     33  C   UNL A   1      39.545  28.714  29.152  1.00  0.00     0.049 A 
ATOM     34  N   UNL A   1      42.372  28.823  30.181  1.00  0.00    -0.248 NA
ATOM     35  C   UNL A   1      42.735  26.669  29.378  1.00  0.00     0.031 C 
ATOM     36  C   UNL A   1      38.143  28.687  28.727  1.00  0.00     0.029 A 
ATOM     37  N   UNL A   1      39.684  29.946  29.742  1.00  0.00    -0.354 N 
ATOM     38  C   UNL A   1      43.652  28.402  30.530  1.00  0.00     0.074 A 
ATOM     39  C   UNL A   1      43.782  27.032  30.103  1.00  0.00     0.031 C 
ATOM     40  C   UNL A   1      37.584  29.879  28.975  1.00  0.00     0.029 A 
ATOM     41  C   UNL A   1      38.560  30.736  29.640  1.00  0.00     0.049 A 
ATOM     42  H   UNL A   1      40.508  30.237  30.197  1.00  0.00     0.167 HD
ATOM     43  C   UNL A   1      44.654  29.109  31.101  1.00  0.00     0.031 A 
ATOM     44  C   UNL A   1      38.339  32.011  30.019  1.00  0.00     0.031 A 
ATOM     45  C   UNL A   1      44.531  30.493  31.473  1.00  0.00     0.049 A 
ATOM     46  C   UNL A   1      39.469  32.785  30.639  1.00  0.00     0.074 A 
ATOM     47  C   UNL A   1      45.507  31.326  31.989  1.00  0.00     0.029 A 
ATOM     48  N   UNL A   1      43.375  31.248  31.355  1.00  0.00    -0.354 N 
ATOM     49  N   UNL A   1      40.702  32.396  30.866  1.00  0.00    -0.248 NA
ATOM     50  C   UNL A   1      39.193  34.170  31.040  1.00  0.00     0.031 C 
ATOM     51  C   UNL A   1      44.918  32.559  32.266  1.00  0.00     0.029 A 
ATOM     52  C   UNL A   1      43.603  32.529  31.827  1.00  0.00     0.049 A 
ATOM     53  H   UNL A   1      42.520  30.923  30.992  1.00  0.00     0.167 HD
ATOM     54  C   UNL A   1      41.353  33.495  31.416  1.00  0.00     0.074 A 
ATOM     55  C   UNL A   1      40.386  34.572  31.462  1.00  0.00     0.031 C 
ATOM     56  C   UNL A   1      42.632  33.597  31.852  1.00  0.00     0.031 A 
BRANCH  43  57
ATOM     57  C   UNL A   1      45.993  28.441  31.309  1.00  0.00    -0.014 A 
ATOM     58  C   UNL A   1      46.959  28.468  30.284  1.00  0.00     0.010 A 
ATOM     59  C   UNL A   1      46.238  27.656  32.451  1.00  0.00     0.010 A 
ATOM     60  C   UNL A   1      48.111  27.680  30.373  1.00  0.00     0.020 A 
ATOM     61  C   UNL A   1      47.407  26.898  32.562  1.00  0.00     0.020 A 
ATOM     62  C   UNL A   1      48.319  26.888  31.504  1.00  0.00     0.054 A 
BRANCH  62  63
ATOM     63  S   UNL A   1      49.774  25.807  31.560  1.00  0.00     0.124 S 
ATOM     64  O   UNL A   1      50.851  26.753  31.839  1.00  0.00    -0.237 OA
ATOM     65  O   UNL A   1      49.444  24.887  32.646  1.00  0.00    -0.237 OA
ATOM     66  O   UNL A   1      49.805  25.201  30.231  1.00  0.00    -0.744 OA
ENDBRANCH  62  63
ENDBRANCH  43  57
BRANCH  44  67
ATOM     67  C   UNL A   1      37.011  32.636  29.743  1.00  0.00    -0.014 A 
ATOM     68  C   UNL A   1      36.796  33.365  28.557  1.00  0.00     0.010 A 
ATOM     69  C   UNL A   1      35.985  32.591  30.704  1.00  0.00     0.010 A 
ATOM     70  C   UNL A   1      35.618  34.093  28.371  1.00  0.00     0.020 A 
ATOM     71  C   UNL A   1      34.786  33.284  30.503  1.00  0.00     0.020 A 
ATOM     72  C   UNL A   1      34.625  34.059  29.353  1.00  0.00     0.054 A 
BRANCH  72  73
ATOM     73  S   UNL A   1      33.137  35.069  29.116  1.00  0.00     0.124 S 
ATOM     74  O   UNL A   1      32.528  35.019  30.443  1.00  0.00    -0.237 OA
ATOM     75  O   UNL A   1      33.690  36.362  28.726  1.00  0.00    -0.237 OA
ATOM     76  O   UNL A   1      32.406  34.363  28.067  1.00  0.00    -0.744 OA
ENDBRANCH  72  73
ENDBRANCH  44  67
BRANCH  56  77
ATOM     77  C   UNL A   1      43.094  34.914  32.423  1.00  0.00    -0.014 A 
ATOM     78  C   UNL A   1      43.727  35.852  31.585  1.00  0.00     0.010 A 
ATOM     79  C   UNL A   1      43.060  35.147  33.809  1.00  0.00     0.010 A 
ATOM     80  C   UNL A   1      44.368  36.967  32.127  1.00  0.00     0.020 A 
ATOM     81  C   UNL A   1      43.663  36.285  34.350  1.00  0.00     0.020 A 
ATOM     82  C   UNL A   1      44.343  37.170  33.509  1.00  0.00     0.054 A 
BRANCH  82  83
ATOM     83  S   UNL A   1      45.241  38.585  34.198  1.00  0.00     0.124 S 
ATOM     84  O   UNL A   1      44.341  39.034  35.257  1.00  0.00    -0.237 OA
ATOM     85  O   UNL A   1      46.491  37.980  34.647  1.00  0.00    -0.237 OA
ATOM     86  O   UNL A   1      45.370  39.496  33.062  1.00  0.00    -0.744 OA
ENDBRANCH  82  83
ENDBRANCH  56  77
ENDBRANCH  30  31
ENDBRANCH  23  25
ENDBRANCH  22  23
ENDBRANCH   1  22
TORSDOF 16
ENDMDL
MODEL 2
REMARK VINA RESULT:     -10.5      0.671      8.324
REMARK SMILES C#Cc1ccc2c(c1)C=C(C(=O)OCCOC(=O)c1ccc(-c3c4nc(c(-c5ccc(S(=O)(=O)[O-])cc5)c5ccc([nH]5)c(-c5ccc(S(=O)(=O)[O-])cc5)c5nc(c(-c6ccc(S(=O)(=O)[O-])cc6)c6ccc3[nH]6)C=C5)C=C4)cc1)[C@@H](C(F)(F)F)O2
REMARK SMILES IDX 15 1 14 2 13 3 11 4 12 5 10 6 3 7 4 8 8 9 5 10 7 11 6 12
REMARK SMILES IDX 9 13 84 14 79 15 2 16 1 17 80 18 81 19 82 20 83 21 16 22
REMARK SMILES IDX 17 23 18 24 19 25 20 26 78 27 21 28 77 29 22 30 23 31 24 32
REMARK SMILES IDX 71 33 25 34 76 35 70 36 72 37 26 38 75 39 69 40 68 41 27 43
REMARK SMILES IDX 57 44 38 45 56 46 39 47 42 48 55 49 73 50 40 51 41 52 54 54
REMARK SMILES IDX 74 55 43 56 28 57 29 58 37 59 30 60 36 61 31 62 32 63 33 64
REMARK SMILES IDX 34 65 35 66 58 67 59 68 67 69 60 70 66 71 61 72 62 73 63 74
REMARK SMILES IDX 64 75 65 76 44 77 45 78 53 79 46 80 52 81 47 82 48 83 49 84
REMARK SMILES IDX 50 85 51 86
REMARK H PARENT 72 42 42 53
REMARK Flexibility Score: inf
ROOT
ATOM      1  C   UNL A   1      37.296  21.542  25.111  1.00  0.00     0.275 C 
ENDROOT
BRANCH   1   2
ATOM      2  C   UNL A   1      35.793  21.355  25.339  1.00  0.00     0.275 C 
BRANCH   2   3
ATOM      3  O   UNL A   1      35.116  22.620  25.521  1.00  0.00    -0.459 OA
BRANCH   3   4
ATOM      4  C   UNL A   1      34.126  22.886  24.636  1.00  0.00     0.338 C 
ATOM      5  O   UNL A   1      33.889  22.266  23.612  1.00  0.00    -0.246 OA
BRANCH   4   6
ATOM      6  C   UNL A   1      33.325  24.051  25.069  1.00  0.00     0.087 C 
ATOM      7  C   UNL A   1      33.242  28.507  26.901  1.00  0.00     0.025 A 
ATOM      8  C   UNL A   1      31.875  28.381  27.147  1.00  0.00     0.021 A 
ATOM      9  C   UNL A   1      33.922  27.466  26.274  1.00  0.00     0.029 A 
ATOM     10  C   UNL A   1      31.191  27.219  26.760  1.00  0.00     0.048 A 
ATOM     11  C   UNL A   1      33.239  26.297  25.914  1.00  0.00     0.018 A 
ATOM     12  C   UNL A   1      31.875  26.169  26.148  1.00  0.00     0.128 A 
ATOM     13  C   UNL A   1      33.968  25.190  25.343  1.00  0.00     0.027 C 
ATOM     14  O   UNL A   1      31.152  25.061  25.800  1.00  0.00    -0.475 OA
ATOM     15  C   UNL A   1      31.862  23.869  25.341  1.00  0.00     0.316 C 
BRANCH   7  16
ATOM     16  C   UNL A   1      33.965  29.673  27.304  1.00  0.00    -0.070 C 
ATOM     17  C   UNL A   1      34.607  30.645  27.603  1.00  0.00     0.010 C 
ENDBRANCH   7  16
BRANCH  15  18
ATOM     18  C   UNL A   1      31.635  22.737  26.357  1.00  0.00     0.430 C 
ATOM     19  F   UNL A   1      32.538  22.790  27.364  1.00  0.00    -0.167 F 
ATOM     20  F   UNL A   1      30.412  22.822  26.937  1.00  0.00    -0.167 F 
ATOM     21  F   UNL A   1      31.728  21.514  25.791  1.00  0.00    -0.167 F 
ENDBRANCH  15  18
ENDBRANCH   4   6
ENDBRANCH   3   4
ENDBRANCH   2   3
ENDBRANCH   1   2
BRANCH   1  22
ATOM     22  O   UNL A   1      37.744  22.816  25.605  1.00  0.00    -0.458 OA
BRANCH  22  23
ATOM     23  C   UNL A   1      38.940  22.787  26.231  1.00  0.00     0.338 C 
ATOM     24  O   UNL A   1      39.761  21.885  26.221  1.00  0.00    -0.246 OA
BRANCH  23  25
ATOM     25  C   UNL A   1      39.210  24.096  26.835  1.00  0.00     0.060 A 
ATOM     26  C   UNL A   1      38.948  24.369  28.168  1.00  0.00     0.016 A 
ATOM     27  C   UNL A   1      39.906  25.015  26.064  1.00  0.00     0.016 A 
ATOM     28  C   UNL A   1      39.388  25.586  28.703  1.00  0.00     0.010 A 
ATOM     29  C   UNL A   1      40.518  26.114  26.645  1.00  0.00     0.010 A 
ATOM     30  C   UNL A   1      40.216  26.457  27.961  1.00  0.00    -0.014 A 
BRANCH  30  31
ATOM     31  C   UNL A   1      40.741  27.731  28.529  1.00  0.00     0.031 A 
ATOM     32  C   UNL A   1      39.823  28.915  28.754  1.00  0.00     0.074 A 
ATOM     33  C   UNL A   1      42.054  27.830  28.827  1.00  0.00     0.049 A 
ATOM     34  N   UNL A   1      40.103  30.077  29.289  1.00  0.00    -0.248 NA
ATOM     35  C   UNL A   1      38.425  28.809  28.293  1.00  0.00     0.031 C 
ATOM     36  C   UNL A   1      43.056  26.793  28.569  1.00  0.00     0.029 A 
ATOM     37  N   UNL A   1      42.768  28.830  29.440  1.00  0.00    -0.354 N 
ATOM     38  C   UNL A   1      38.931  30.823  29.219  1.00  0.00     0.074 A 
ATOM     39  C   UNL A   1      37.963  30.032  28.503  1.00  0.00     0.031 C 
ATOM     40  C   UNL A   1      44.224  27.164  29.110  1.00  0.00     0.029 A 
ATOM     41  C   UNL A   1      44.080  28.494  29.693  1.00  0.00     0.049 A 
ATOM     42  H   UNL A   1      42.381  29.703  29.677  1.00  0.00     0.167 HD
ATOM     43  C   UNL A   1      38.660  32.035  29.756  1.00  0.00     0.031 A 
ATOM     44  C   UNL A   1      45.056  29.166  30.337  1.00  0.00     0.031 A 
ATOM     45  C   UNL A   1      39.617  32.792  30.517  1.00  0.00     0.049 A 
ATOM     46  C   UNL A   1      44.733  30.506  30.938  1.00  0.00     0.074 A 
ATOM     47  C   UNL A   1      39.425  33.996  31.169  1.00  0.00     0.029 A 
ATOM     48  N   UNL A   1      40.931  32.415  30.742  1.00  0.00    -0.354 N 
ATOM     49  N   UNL A   1      43.586  31.145  30.947  1.00  0.00    -0.248 NA
ATOM     50  C   UNL A   1      45.819  31.210  31.631  1.00  0.00     0.031 C 
ATOM     51  C   UNL A   1      40.647  34.391  31.713  1.00  0.00     0.029 A 
ATOM     52  C   UNL A   1      41.575  33.385  31.492  1.00  0.00     0.049 A 
ATOM     53  H   UNL A   1      41.347  31.583  30.417  1.00  0.00     0.167 HD
ATOM     54  C   UNL A   1      43.810  32.316  31.662  1.00  0.00     0.074 A 
ATOM     55  C   UNL A   1      45.191  32.283  32.095  1.00  0.00     0.031 C 
ATOM     56  C   UNL A   1      42.950  33.330  31.928  1.00  0.00     0.031 A 
BRANCH  43  57
ATOM     57  C   UNL A   1      37.269  32.606  29.607  1.00  0.00    -0.014 A 
ATOM     58  C   UNL A   1      36.951  33.398  28.487  1.00  0.00     0.010 A 
ATOM     59  C   UNL A   1      36.328  32.492  30.646  1.00  0.00     0.010 A 
ATOM     60  C   UNL A   1      35.747  34.107  28.436  1.00  0.00     0.020 A 
ATOM     61  C   UNL A   1      35.106  33.167  30.582  1.00  0.00     0.020 A 
ATOM     62  C   UNL A   1      34.839  34.000  29.493  1.00  0.00     0.054 A 
BRANCH  62  63
ATOM     63  S   UNL A   1      33.325  34.997  29.450  1.00  0.00     0.124 S 
ATOM     64  O   UNL A   1      33.829  36.306  29.047  1.00  0.00    -0.237 OA
ATOM     65  O   UNL A   1      32.514  34.299  28.456  1.00  0.00    -0.237 OA
ATOM     66  O   UNL A   1      32.821  34.916  30.820  1.00  0.00    -0.744 OA
ENDBRANCH  62  63
ENDBRANCH  43  57
BRANCH  44  67
ATOM     67  C   UNL A   1      46.398  28.531  30.498  1.00  0.00    -0.014 A 
ATOM     68  C   UNL A   1      47.401  28.722  29.527  1.00  0.00     0.010 A 
ATOM     69  C   UNL A   1      46.651  27.655  31.568  1.00  0.00     0.010 A 
ATOM     70  C   UNL A   1      48.594  27.997  29.583  1.00  0.00     0.020 A 
ATOM     71  C   UNL A   1      47.862  26.959  31.652  1.00  0.00     0.020 A 
ATOM     72  C   UNL A   1      48.812  27.108  30.638  1.00  0.00     0.054 A 
BRANCH  72  73
ATOM     73  S   UNL A   1      50.339  26.129  30.647  1.00  0.00     0.124 S 
ATOM     74  O   UNL A   1      50.623  26.006  29.220  1.00  0.00    -0.237 OA
ATOM     75  O   UNL A   1      51.256  26.979  31.400  1.00  0.00    -0.237 OA
ATOM     76  O   UNL A   1      49.949  24.891  31.315  1.00  0.00    -0.744 OA
ENDBRANCH  72  73
ENDBRANCH  44  67
BRANCH  56  77
ATOM     77  C   UNL A   1      43.450  34.507  32.726  1.00  0.00    -0.014 A 
ATOM     78  C   UNL A   1      43.382  34.473  34.133  1.00  0.00     0.010 A 
ATOM     79  C   UNL A   1      43.821  35.703  32.088  1.00  0.00     0.010 A 
ATOM     80  C   UNL A   1      43.617  35.627  34.882  1.00  0.00     0.020 A 
ATOM     81  C   UNL A   1      44.098  36.848  32.837  1.00  0.00     0.020 A 
ATOM     82  C   UNL A   1      43.961  36.812  34.227  1.00  0.00     0.054 A 
BRANCH  82  83
ATOM     83  S   UNL A   1      44.192  38.315  35.213  1.00  0.00     0.124 S 
ATOM     84  O   UNL A   1      43.608  37.934  36.496  1.00  0.00    -0.237 OA
ATOM     85  O   UNL A   1      45.643  38.481  35.205  1.00  0.00    -0.237 OA
ATOM     86  O   UNL A   1      43.452  39.332  34.468  1.00  0.00    -0.744 OA
ENDBRANCH  82  83
ENDBRANCH  56  77
ENDBRANCH  30  31
ENDBRANCH  23  25
ENDBRANCH  22  23
ENDBRANCH   1  22
TORSDOF 16
ENDMDL
MODEL 3
REMARK VINA RESULT:     -10.5      2.323      3.040
REMARK SMILES C#Cc1ccc2c(c1)C=C(C(=O)OCCOC(=O)c1ccc(-c3c4nc(c(-c5ccc(S(=O)(=O)[O-])cc5)c5ccc([nH]5)c(-c5ccc(S(=O)(=O)[O-])cc5)c5nc(c(-c6ccc(S(=O)(=O)[O-])cc6)c6ccc3[nH]6)C=C5)C=C4)cc1)[C@@H](C(F)(F)F)O2
REMARK SMILES IDX 15 1 14 2 13 3 11 4 12 5 10 6 3 7 4 8 8 9 5 10 7 11 6 12
REMARK SMILES IDX 9 13 84 14 79 15 2 16 1 17 80 18 81 19 82 20 83 21 16 22
REMARK SMILES IDX 17 23 18 24 19 25 20 26 78 27 21 28 77 29 22 30 23 31 24 32
REMARK SMILES IDX 71 33 25 34 76 35 70 36 72 37 26 38 75 39 69 40 68 41 27 43
REMARK SMILES IDX 57 44 38 45 56 46 39 47 42 48 55 49 73 50 40 51 41 52 54 54
REMARK SMILES IDX 74 55 43 56 28 57 29 58 37 59 30 60 36 61 31 62 32 63 33 64
REMARK SMILES IDX 34 65 35 66 58 67 59 68 67 69 60 70 66 71 61 72 62 73 63 74
REMARK SMILES IDX 64 75 65 76 44 77 45 78 53 79 46 80 52 81 47 82 48 83 49 84
REMARK SMILES IDX 50 85 51 86
REMARK H PARENT 72 42 42 53
REMARK Flexibility Score: inf
ROOT
ATOM      1  C   UNL A   1      36.928  21.108  24.991  1.00  0.00     0.275 C 
ENDROOT
BRANCH   1   2
ATOM      2  C   UNL A   1      35.506  21.269  25.534  1.00  0.00     0.275 C 
BRANCH   2   3
ATOM      3  O   UNL A   1      35.070  22.648  25.500  1.00  0.00    -0.459 OA
BRANCH   3   4
ATOM      4  C   UNL A   1      34.041  22.915  24.661  1.00  0.00     0.338 C 
ATOM      5  O   UNL A   1      33.735  22.277  23.668  1.00  0.00    -0.246 OA
BRANCH   4   6
ATOM      6  C   UNL A   1      33.290  24.109  25.106  1.00  0.00     0.087 C 
ATOM      7  C   UNL A   1      33.400  28.570  26.925  1.00  0.00     0.025 A 
ATOM      8  C   UNL A   1      32.035  28.493  27.198  1.00  0.00     0.021 A 
ATOM      9  C   UNL A   1      34.031  27.504  26.287  1.00  0.00     0.029 A 
ATOM     10  C   UNL A   1      31.303  27.355  26.830  1.00  0.00     0.048 A 
ATOM     11  C   UNL A   1      33.300  26.359  25.946  1.00  0.00     0.018 A 
ATOM     12  C   UNL A   1      31.937  26.279  26.207  1.00  0.00     0.128 A 
ATOM     13  C   UNL A   1      33.978  25.226  25.364  1.00  0.00     0.027 C 
ATOM     14  O   UNL A   1      31.169  25.197  25.878  1.00  0.00    -0.475 OA
ATOM     15  C   UNL A   1      31.827  23.980  25.409  1.00  0.00     0.316 C 
BRANCH   7  16
ATOM     16  C   UNL A   1      34.172  29.711  27.309  1.00  0.00    -0.070 C 
ATOM     17  C   UNL A   1      34.856  30.638  27.654  1.00  0.00     0.010 C 
ENDBRANCH   7  16
BRANCH  15  18
ATOM     18  C   UNL A   1      31.581  22.859  26.433  1.00  0.00     0.430 C 
ATOM     19  F   UNL A   1      32.521  22.866  27.407  1.00  0.00    -0.167 F 
ATOM     20  F   UNL A   1      30.385  23.003  27.056  1.00  0.00    -0.167 F 
ATOM     21  F   UNL A   1      31.595  21.633  25.865  1.00  0.00    -0.167 F 
ENDBRANCH  15  18
ENDBRANCH   4   6
ENDBRANCH   3   4
ENDBRANCH   2   3
ENDBRANCH   1   2
BRANCH   1  22
ATOM     22  O   UNL A   1      37.769  22.199  25.400  1.00  0.00    -0.458 OA
BRANCH  22  23
ATOM     23  C   UNL A   1      38.915  21.828  26.012  1.00  0.00     0.338 C 
ATOM     24  O   UNL A   1      39.495  20.759  25.916  1.00  0.00    -0.246 OA
BRANCH  23  25
ATOM     25  C   UNL A   1      39.484  22.974  26.728  1.00  0.00     0.060 A 
ATOM     26  C   UNL A   1      40.487  22.837  27.675  1.00  0.00     0.016 A 
ATOM     27  C   UNL A   1      39.104  24.238  26.300  1.00  0.00     0.016 A 
ATOM     28  C   UNL A   1      41.087  23.993  28.188  1.00  0.00     0.010 A 
ATOM     29  C   UNL A   1      39.838  25.359  26.650  1.00  0.00     0.010 A 
ATOM     30  C   UNL A   1      40.801  25.269  27.652  1.00  0.00    -0.014 A 
BRANCH  30  31
ATOM     31  C   UNL A   1      41.469  26.506  28.146  1.00  0.00     0.031 A 
ATOM     32  C   UNL A   1      42.970  26.677  28.025  1.00  0.00     0.074 A 
ATOM     33  C   UNL A   1      40.725  27.472  28.725  1.00  0.00     0.049 A 
ATOM     34  N   UNL A   1      43.704  27.711  28.353  1.00  0.00    -0.248 NA
ATOM     35  C   UNL A   1      43.760  25.544  27.508  1.00  0.00     0.031 C 
ATOM     36  C   UNL A   1      39.287  27.384  28.984  1.00  0.00     0.029 A 
ATOM     37  N   UNL A   1      41.061  28.728  29.167  1.00  0.00    -0.354 N 
ATOM     38  C   UNL A   1      45.020  27.345  28.089  1.00  0.00     0.074 A 
ATOM     39  C   UNL A   1      45.005  25.966  27.671  1.00  0.00     0.031 C 
ATOM     40  C   UNL A   1      38.847  28.565  29.439  1.00  0.00     0.029 A 
ATOM     41  C   UNL A   1      39.979  29.477  29.574  1.00  0.00     0.049 A 
ATOM     42  H   UNL A   1      41.987  29.062  29.192  1.00  0.00     0.167 HD
ATOM     43  C   UNL A   1      46.139  28.104  28.130  1.00  0.00     0.031 A 
ATOM     44  C   UNL A   1      39.896  30.756  29.991  1.00  0.00     0.031 A 
ATOM     45  C   UNL A   1      46.136  29.495  28.495  1.00  0.00     0.049 A 
ATOM     46  C   UNL A   1      41.148  31.588  30.018  1.00  0.00     0.074 A 
ATOM     47  C   UNL A   1      47.200  30.377  28.497  1.00  0.00     0.029 A 
ATOM     48  N   UNL A   1      45.019  30.208  28.903  1.00  0.00    -0.354 N 
ATOM     49  N   UNL A   1      42.366  31.248  29.665  1.00  0.00    -0.248 NA
ATOM     50  C   UNL A   1      41.021  32.977  30.478  1.00  0.00     0.031 C 
ATOM     51  C   UNL A   1      46.746  31.599  28.992  1.00  0.00     0.029 A 
ATOM     52  C   UNL A   1      45.378  31.511  29.199  1.00  0.00     0.049 A 
ATOM     53  H   UNL A   1      44.108  29.842  28.974  1.00  0.00     0.167 HD
ATOM     54  C   UNL A   1      43.145  32.387  29.841  1.00  0.00     0.074 A 
ATOM     55  C   UNL A   1      42.256  33.432  30.305  1.00  0.00     0.031 C 
ATOM     56  C   UNL A   1      44.476  32.547  29.646  1.00  0.00     0.031 A 
BRANCH  43  57
ATOM     57  C   UNL A   1      47.456  27.489  27.717  1.00  0.00    -0.014 A 
ATOM     58  C   UNL A   1      48.302  26.921  28.688  1.00  0.00     0.010 A 
ATOM     59  C   UNL A   1      47.925  27.610  26.396  1.00  0.00     0.010 A 
ATOM     60  C   UNL A   1      49.608  26.543  28.360  1.00  0.00     0.020 A 
ATOM     61  C   UNL A   1      49.216  27.196  26.054  1.00  0.00     0.020 A 
ATOM     62  C   UNL A   1      50.061  26.699  27.048  1.00  0.00     0.054 A 
BRANCH  62  63
ATOM     63  S   UNL A   1      51.785  26.286  26.663  1.00  0.00     0.124 S 
ATOM     64  O   UNL A   1      51.727  24.835  26.508  1.00  0.00    -0.237 OA
ATOM     65  O   UNL A   1      52.025  27.043  25.436  1.00  0.00    -0.237 OA
ATOM     66  O   UNL A   1      52.522  26.760  27.832  1.00  0.00    -0.744 OA
ENDBRANCH  62  63
ENDBRANCH  43  57
BRANCH  44  67
ATOM     67  C   UNL A   1      38.561  31.327  30.340  1.00  0.00    -0.014 A 
ATOM     68  C   UNL A   1      37.853  32.112  29.408  1.00  0.00     0.010 A 
ATOM     69  C   UNL A   1      38.032  31.173  31.633  1.00  0.00     0.010 A 
ATOM     70  C   UNL A   1      36.689  32.788  29.783  1.00  0.00     0.020 A 
ATOM     71  C   UNL A   1      36.843  31.813  32.001  1.00  0.00     0.020 A 
ATOM     72  C   UNL A   1      36.198  32.645  31.083  1.00  0.00     0.054 A 
BRANCH  72  73
ATOM     73  S   UNL A   1      34.725  33.589  31.562  1.00  0.00     0.124 S 
ATOM     74  O   UNL A   1      35.314  34.724  32.268  1.00  0.00    -0.237 OA
ATOM     75  O   UNL A   1      34.114  33.898  30.274  1.00  0.00    -0.237 OA
ATOM     76  O   UNL A   1      33.976  32.655  32.398  1.00  0.00    -0.744 OA
ENDBRANCH  72  73
ENDBRANCH  44  67
BRANCH  56  77
ATOM     77  C   UNL A   1      45.087  33.897  29.924  1.00  0.00    -0.014 A 
ATOM     78  C   UNL A   1      45.237  34.822  28.873  1.00  0.00     0.010 A 
ATOM     79  C   UNL A   1      45.666  34.181  31.173  1.00  0.00     0.010 A 
ATOM     80  C   UNL A   1      46.003  35.976  29.047  1.00  0.00     0.020 A 
ATOM     81  C   UNL A   1      46.397  35.355  31.363  1.00  0.00     0.020 A 
ATOM     82  C   UNL A   1      46.589  36.228  30.290  1.00  0.00     0.054 A 
BRANCH  82  83
ATOM     83  S   UNL A   1      47.638  37.695  30.475  1.00  0.00     0.124 S 
ATOM     84  O   UNL A   1      48.707  37.202  31.340  1.00  0.00    -0.237 OA
ATOM     85  O   UNL A   1      48.026  37.985  29.097  1.00  0.00    -0.237 OA
ATOM     86  O   UNL A   1      46.747  38.680  31.085  1.00  0.00    -0.744 OA
ENDBRANCH  82  83
ENDBRANCH  56  77
ENDBRANCH  30  31
ENDBRANCH  23  25
ENDBRANCH  22  23
ENDBRANCH   1  22
TORSDOF 16
ENDMDL
