MODEL 1
REMARK VINA RESULT:      -9.7      0.000      0.000
REMARK SMILES O=C(OCCOC(=O)[C@H]1CCN1C(=O)OCC1c2ccccc2-c2ccccc21)c1ccc(-c2c3nc(c(-c4ccc(S(=O)(=O)[O-])cc4)c4ccc([nH]4)c(-c4ccc(S(=O)(=O)[O-])cc4)c4nc(c(-c5ccc(S(=O)(=O)[O-])cc5)c5ccc2[nH]5)C=C4)C=C3)cc1
REMARK SMILES IDX 5 1 4 2 3 3 2 4 1 5 30 6 31 7 89 8 32 9 88 10 33 11 34 12
REMARK SMILES IDX 35 13 82 14 36 15 87 16 81 17 83 18 37 19 86 20 80 21 79 22
REMARK SMILES IDX 38 24 68 25 49 26 67 27 50 28 53 29 66 30 84 31 51 32 52 33
REMARK SMILES IDX 65 35 85 36 54 37 39 38 40 39 48 40 41 41 47 42 42 43 43 44
REMARK SMILES IDX 44 45 45 46 46 47 69 48 70 49 78 50 71 51 77 52 72 53 73 54
REMARK SMILES IDX 74 55 75 56 76 57 55 58 56 59 64 60 57 61 63 62 58 63 59 64
REMARK SMILES IDX 60 65 61 66 62 67 6 68 7 69 8 70 9 71 10 72 12 73 11 74
REMARK SMILES IDX 13 75 14 76 15 77 16 78 17 79 18 80 29 81 19 82 23 83 24 84
REMARK SMILES IDX 28 85 20 86 22 87 25 88 27 89 21 90 26 91
REMARK H PARENT 83 23 53 34
REMARK Flexibility Score: inf
ROOT
ATOM      1  C   UNL A   1      33.568  33.282  28.170  1.00  0.00     0.274 C 
ENDROOT
BRANCH   1   2
ATOM      2  C   UNL A   1      33.180  31.868  27.710  1.00  0.00     0.275 C 
BRANCH   2   3
ATOM      3  O   UNL A   1      34.256  31.079  27.195  1.00  0.00    -0.458 OA
BRANCH   3   4
ATOM      4  C   UNL A   1      34.769  29.927  27.681  1.00  0.00     0.338 C 
ATOM      5  O   UNL A   1      34.010  28.967  27.807  1.00  0.00    -0.246 OA
BRANCH   4   6
ATOM      6  C   UNL A   1      36.175  29.790  28.190  1.00  0.00     0.060 A 
ATOM      7  C   UNL A   1      36.584  29.359  29.458  1.00  0.00     0.016 A 
ATOM      8  C   UNL A   1      37.179  30.088  27.267  1.00  0.00     0.016 A 
ATOM      9  C   UNL A   1      37.930  29.114  29.759  1.00  0.00     0.010 A 
ATOM     10  C   UNL A   1      38.518  29.824  27.561  1.00  0.00     0.010 A 
ATOM     11  C   UNL A   1      38.916  29.303  28.800  1.00  0.00    -0.014 A 
BRANCH  11  12
ATOM     12  C   UNL A   1      40.354  29.059  29.110  1.00  0.00     0.031 A 
ATOM     13  C   UNL A   1      40.915  27.689  28.831  1.00  0.00     0.074 A 
ATOM     14  C   UNL A   1      41.123  30.002  29.705  1.00  0.00     0.049 A 
ATOM     15  N   UNL A   1      42.070  27.178  29.173  1.00  0.00    -0.248 NA
ATOM     16  C   UNL A   1      40.034  26.748  28.113  1.00  0.00     0.031 C 
ATOM     17  C   UNL A   1      40.670  31.327  30.147  1.00  0.00     0.029 A 
ATOM     18  N   UNL A   1      42.432  29.953  30.137  1.00  0.00    -0.354 N 
ATOM     19  C   UNL A   1      42.028  25.862  28.727  1.00  0.00     0.074 A 
ATOM     20  C   UNL A   1      40.693  25.612  28.240  1.00  0.00     0.031 C 
ATOM     21  C   UNL A   1      41.650  31.923  30.852  1.00  0.00     0.029 A 
ATOM     22  C   UNL A   1      42.800  31.028  30.922  1.00  0.00     0.049 A 
ATOM     23  H   UNL A   1      43.047  29.220  29.905  1.00  0.00     0.167 HD
ATOM     24  C   UNL A   1      43.033  24.962  28.622  1.00  0.00     0.031 A 
ATOM     25  C   UNL A   1      43.901  31.223  31.678  1.00  0.00     0.031 A 
ATOM     26  C   UNL A   1      44.365  25.220  29.074  1.00  0.00     0.049 A 
ATOM     27  C   UNL A   1      45.013  30.203  31.610  1.00  0.00     0.074 A 
ATOM     28  C   UNL A   1      45.476  24.402  29.016  1.00  0.00     0.029 A 
ATOM     29  N   UNL A   1      44.761  26.405  29.679  1.00  0.00    -0.354 N 
ATOM     30  N   UNL A   1      45.085  29.112  30.883  1.00  0.00    -0.248 NA
ATOM     31  C   UNL A   1      46.183  30.425  32.471  1.00  0.00     0.031 C 
ATOM     32  C   UNL A   1      46.538  25.079  29.627  1.00  0.00     0.029 A 
ATOM     33  C   UNL A   1      46.090  26.325  30.047  1.00  0.00     0.049 A 
ATOM     34  H   UNL A   1      44.181  27.187  29.824  1.00  0.00     0.167 HD
ATOM     35  C   UNL A   1      46.311  28.529  31.187  1.00  0.00     0.074 A 
ATOM     36  C   UNL A   1      46.973  29.417  32.121  1.00  0.00     0.031 C 
ATOM     37  C   UNL A   1      46.803  27.323  30.805  1.00  0.00     0.031 A 
BRANCH  24  38
ATOM     38  C   UNL A   1      42.698  23.674  27.916  1.00  0.00    -0.014 A 
ATOM     39  C   UNL A   1      42.191  22.584  28.657  1.00  0.00     0.010 A 
ATOM     40  C   UNL A   1      42.955  23.505  26.547  1.00  0.00     0.010 A 
ATOM     41  C   UNL A   1      42.025  21.334  28.063  1.00  0.00     0.020 A 
ATOM     42  C   UNL A   1      42.750  22.260  25.937  1.00  0.00     0.020 A 
ATOM     43  C   UNL A   1      42.313  21.177  26.707  1.00  0.00     0.054 A 
BRANCH  43  44
ATOM     44  S   UNL A   1      42.088  19.537  25.966  1.00  0.00     0.124 S 
ATOM     45  O   UNL A   1      42.535  18.655  27.042  1.00  0.00    -0.237 OA
ATOM     46  O   UNL A   1      40.654  19.507  25.687  1.00  0.00    -0.237 OA
ATOM     47  O   UNL A   1      42.948  19.568  24.786  1.00  0.00    -0.744 OA
ENDBRANCH  43  44
ENDBRANCH  24  38
BRANCH  25  48
ATOM     48  C   UNL A   1      43.964  32.335  32.677  1.00  0.00    -0.014 A 
ATOM     49  C   UNL A   1      44.503  33.591  32.353  1.00  0.00     0.010 A 
ATOM     50  C   UNL A   1      43.559  32.102  34.008  1.00  0.00     0.010 A 
ATOM     51  C   UNL A   1      44.655  34.578  33.339  1.00  0.00     0.020 A 
ATOM     52  C   UNL A   1      43.687  33.090  34.991  1.00  0.00     0.020 A 
ATOM     53  C   UNL A   1      44.245  34.321  34.652  1.00  0.00     0.054 A 
BRANCH  53  54
ATOM     54  S   UNL A   1      44.438  35.622  35.905  1.00  0.00     0.124 S 
ATOM     55  O   UNL A   1      45.878  35.857  35.885  1.00  0.00    -0.237 OA
ATOM     56  O   UNL A   1      43.613  36.698  35.361  1.00  0.00    -0.237 OA
ATOM     57  O   UNL A   1      43.921  35.005  37.124  1.00  0.00    -0.744 OA
ENDBRANCH  53  54
ENDBRANCH  25  48
BRANCH  37  58
ATOM     58  C   UNL A   1      48.189  26.963  31.251  1.00  0.00    -0.014 A 
ATOM     59  C   UNL A   1      48.409  26.216  32.421  1.00  0.00     0.010 A 
ATOM     60  C   UNL A   1      49.276  27.287  30.419  1.00  0.00     0.010 A 
ATOM     61  C   UNL A   1      49.705  25.825  32.769  1.00  0.00     0.020 A 
ATOM     62  C   UNL A   1      50.567  26.870  30.748  1.00  0.00     0.020 A 
ATOM     63  C   UNL A   1      50.774  26.155  31.929  1.00  0.00     0.054 A 
BRANCH  63  64
ATOM     64  S   UNL A   1      52.440  25.602  32.380  1.00  0.00     0.124 S 
ATOM     65  O   UNL A   1      53.249  26.173  31.308  1.00  0.00    -0.237 OA
ATOM     66  O   UNL A   1      52.630  26.197  33.700  1.00  0.00    -0.237 OA
ATOM     67  O   UNL A   1      52.334  24.143  32.371  1.00  0.00    -0.744 OA
ENDBRANCH  63  64
ENDBRANCH  37  58
ENDBRANCH  11  12
ENDBRANCH   4   6
ENDBRANCH   3   4
ENDBRANCH   2   3
ENDBRANCH   1   2
BRANCH   1  68
ATOM     68  O   UNL A   1      32.524  34.045  28.827  1.00  0.00    -0.461 OA
BRANCH  68  69
ATOM     69  C   UNL A   1      32.913  35.285  29.280  1.00  0.00     0.329 C 
ATOM     70  O   UNL A   1      32.539  36.311  28.700  1.00  0.00    -0.250 OA
BRANCH  69  71
ATOM     71  C   UNL A   1      33.897  35.304  30.540  1.00  0.00     0.200 C 
ATOM     72  C   UNL A   1      33.798  36.679  31.281  1.00  0.00     0.059 C 
ATOM     73  N   UNL A   1      33.499  34.755  31.843  1.00  0.00    -0.294 N 
ATOM     74  C   UNL A   1      32.841  35.991  32.259  1.00  0.00     0.127 C 
BRANCH  73  75
ATOM     75  C   UNL A   1      34.002  33.872  32.775  1.00  0.00     0.410 C 
ATOM     76  O   UNL A   1      33.283  33.012  33.258  1.00  0.00    -0.224 OA
BRANCH  75  77
ATOM     77  O   UNL A   1      35.303  34.062  33.151  1.00  0.00    -0.448 OA
BRANCH  77  78
ATOM     78  C   UNL A   1      35.971  32.823  33.533  1.00  0.00     0.248 C 
BRANCH  78  79
ATOM     79  C   UNL A   1      37.352  32.459  32.927  1.00  0.00     0.088 C 
ATOM     80  C   UNL A   1      37.639  33.007  31.538  1.00  0.00    -0.029 A 
ATOM     81  C   UNL A   1      38.481  33.130  33.735  1.00  0.00    -0.029 A 
ATOM     82  C   UNL A   1      37.000  32.704  30.348  1.00  0.00     0.005 A 
ATOM     83  C   UNL A   1      38.686  33.952  31.580  1.00  0.00    -0.014 A 
ATOM     84  C   UNL A   1      39.214  34.018  32.919  1.00  0.00    -0.014 A 
ATOM     85  C   UNL A   1      38.814  32.989  35.067  1.00  0.00     0.005 A 
ATOM     86  C   UNL A   1      37.354  33.430  29.211  1.00  0.00     0.000 A 
ATOM     87  C   UNL A   1      39.053  34.658  30.449  1.00  0.00     0.009 A 
ATOM     88  C   UNL A   1      40.260  34.778  33.427  1.00  0.00     0.009 A 
ATOM     89  C   UNL A   1      39.869  33.753  35.577  1.00  0.00     0.000 A 
ATOM     90  C   UNL A   1      38.365  34.406  29.264  1.00  0.00     0.001 A 
ATOM     91  C   UNL A   1      40.580  34.651  34.775  1.00  0.00     0.001 A 
ENDBRANCH  78  79
ENDBRANCH  77  78
ENDBRANCH  75  77
ENDBRANCH  73  75
ENDBRANCH  69  71
ENDBRANCH  68  69
ENDBRANCH   1  68
TORSDOF 18
ENDMDL
MODEL 2
REMARK VINA RESULT:      -9.5      4.507     11.427
REMARK SMILES O=C(OCCOC(=O)[C@H]1CCN1C(=O)OCC1c2ccccc2-c2ccccc21)c1ccc(-c2c3nc(c(-c4ccc(S(=O)(=O)[O-])cc4)c4ccc([nH]4)c(-c4ccc(S(=O)(=O)[O-])cc4)c4nc(c(-c5ccc(S(=O)(=O)[O-])cc5)c5ccc2[nH]5)C=C4)C=C3)cc1
REMARK SMILES IDX 5 1 4 2 3 3 2 4 1 5 30 6 31 7 89 8 32 9 88 10 33 11 34 12
REMARK SMILES IDX 35 13 82 14 36 15 87 16 81 17 83 18 37 19 86 20 80 21 79 22
REMARK SMILES IDX 38 24 68 25 49 26 67 27 50 28 53 29 66 30 84 31 51 32 52 33
REMARK SMILES IDX 65 35 85 36 54 37 39 38 40 39 48 40 41 41 47 42 42 43 43 44
REMARK SMILES IDX 44 45 45 46 46 47 69 48 70 49 78 50 71 51 77 52 72 53 73 54
REMARK SMILES IDX 74 55 75 56 76 57 55 58 56 59 64 60 57 61 63 62 58 63 59 64
REMARK SMILES IDX 60 65 61 66 62 67 6 68 7 69 8 70 9 71 10 72 12 73 11 74
REMARK SMILES IDX 13 75 14 76 15 77 16 78 17 79 18 80 29 81 19 82 23 83 24 84
REMARK SMILES IDX 28 85 20 86 22 87 25 88 27 89 21 90 26 91
REMARK H PARENT 83 23 53 34
REMARK Flexibility Score: inf
ROOT
ATOM      1  C   UNL A   1      39.473  21.864  26.015  1.00  0.00     0.274 C 
ENDROOT
BRANCH   1   2
ATOM      2  C   UNL A   1      40.132  22.245  27.350  1.00  0.00     0.275 C 
BRANCH   2   3
ATOM      3  O   UNL A   1      41.351  22.985  27.238  1.00  0.00    -0.458 OA
BRANCH   3   4
ATOM      4  C   UNL A   1      41.526  24.278  26.884  1.00  0.00     0.338 C 
ATOM      5  O   UNL A   1      42.055  24.510  25.797  1.00  0.00    -0.246 OA
BRANCH   4   6
ATOM      6  C   UNL A   1      41.227  25.437  27.789  1.00  0.00     0.060 A 
ATOM      7  C   UNL A   1      40.065  25.655  28.539  1.00  0.00     0.016 A 
ATOM      8  C   UNL A   1      42.253  26.374  27.925  1.00  0.00     0.016 A 
ATOM      9  C   UNL A   1      39.970  26.691  29.477  1.00  0.00     0.010 A 
ATOM     10  C   UNL A   1      42.166  27.393  28.874  1.00  0.00     0.010 A 
ATOM     11  C   UNL A   1      41.038  27.552  29.690  1.00  0.00    -0.014 A 
BRANCH  11  12
ATOM     12  C   UNL A   1      40.948  28.668  30.676  1.00  0.00     0.031 A 
ATOM     13  C   UNL A   1      41.644  28.498  32.001  1.00  0.00     0.074 A 
ATOM     14  C   UNL A   1      40.195  29.769  30.438  1.00  0.00     0.049 A 
ATOM     15  N   UNL A   1      41.569  29.234  33.080  1.00  0.00    -0.248 NA
ATOM     16  C   UNL A   1      42.503  27.307  32.148  1.00  0.00     0.031 C 
ATOM     17  C   UNL A   1      39.366  30.002  29.248  1.00  0.00     0.029 A 
ATOM     18  N   UNL A   1      39.923  30.861  31.234  1.00  0.00    -0.354 N 
ATOM     19  C   UNL A   1      42.351  28.575  34.021  1.00  0.00     0.074 A 
ATOM     20  C   UNL A   1      42.756  27.317  33.443  1.00  0.00     0.031 C 
ATOM     21  C   UNL A   1      38.624  31.110  29.430  1.00  0.00     0.029 A 
ATOM     22  C   UNL A   1      38.914  31.667  30.747  1.00  0.00     0.049 A 
ATOM     23  H   UNL A   1      40.405  31.048  32.072  1.00  0.00     0.167 HD
ATOM     24  C   UNL A   1      42.795  29.013  35.222  1.00  0.00     0.031 A 
ATOM     25  C   UNL A   1      38.244  32.682  31.334  1.00  0.00     0.031 A 
ATOM     26  C   UNL A   1      42.421  30.275  35.782  1.00  0.00     0.049 A 
ATOM     27  C   UNL A   1      38.695  33.152  32.697  1.00  0.00     0.074 A 
ATOM     28  C   UNL A   1      42.809  30.842  36.980  1.00  0.00     0.029 A 
ATOM     29  N   UNL A   1      41.557  31.169  35.165  1.00  0.00    -0.354 N 
ATOM     30  N   UNL A   1      39.696  32.717  33.426  1.00  0.00    -0.248 NA
ATOM     31  C   UNL A   1      37.925  34.234  33.325  1.00  0.00     0.031 C 
ATOM     32  C   UNL A   1      42.142  32.067  37.107  1.00  0.00     0.029 A 
ATOM     33  C   UNL A   1      41.356  32.267  35.980  1.00  0.00     0.049 A 
ATOM     34  H   UNL A   1      41.148  31.040  34.279  1.00  0.00     0.167 HD
ATOM     35  C   UNL A   1      39.684  33.481  34.588  1.00  0.00     0.074 A 
ATOM     36  C   UNL A   1      38.612  34.445  34.440  1.00  0.00     0.031 C 
ATOM     37  C   UNL A   1      40.427  33.337  35.715  1.00  0.00     0.031 A 
BRANCH  24  38
ATOM     38  C   UNL A   1      43.790  28.126  35.924  1.00  0.00    -0.014 A 
ATOM     39  C   UNL A   1      43.331  27.136  36.820  1.00  0.00     0.010 A 
ATOM     40  C   UNL A   1      45.172  28.316  35.770  1.00  0.00     0.010 A 
ATOM     41  C   UNL A   1      44.229  26.411  37.603  1.00  0.00     0.020 A 
ATOM     42  C   UNL A   1      46.079  27.561  36.525  1.00  0.00     0.020 A 
ATOM     43  C   UNL A   1      45.598  26.634  37.456  1.00  0.00     0.054 A 
BRANCH  43  44
ATOM     44  S   UNL A   1      46.739  25.676  38.492  1.00  0.00     0.124 S 
ATOM     45  O   UNL A   1      47.992  25.793  37.750  1.00  0.00    -0.237 OA
ATOM     46  O   UNL A   1      46.695  26.395  39.763  1.00  0.00    -0.237 OA
ATOM     47  O   UNL A   1      46.149  24.341  38.515  1.00  0.00    -0.744 OA
ENDBRANCH  43  44
ENDBRANCH  24  38
BRANCH  25  48
ATOM     48  C   UNL A   1      36.990  33.230  30.729  1.00  0.00    -0.014 A 
ATOM     49  C   UNL A   1      37.021  34.142  29.661  1.00  0.00     0.010 A 
ATOM     50  C   UNL A   1      35.740  32.903  31.295  1.00  0.00     0.010 A 
ATOM     51  C   UNL A   1      35.837  34.728  29.189  1.00  0.00     0.020 A 
ATOM     52  C   UNL A   1      34.553  33.467  30.815  1.00  0.00     0.020 A 
ATOM     53  C   UNL A   1      34.610  34.386  29.769  1.00  0.00     0.054 A 
BRANCH  53  54
ATOM     54  S   UNL A   1      33.090  35.148  29.127  1.00  0.00     0.124 S 
ATOM     55  O   UNL A   1      32.640  34.160  28.152  1.00  0.00    -0.237 OA
ATOM     56  O   UNL A   1      32.273  35.267  30.333  1.00  0.00    -0.237 OA
ATOM     57  O   UNL A   1      33.551  36.416  28.567  1.00  0.00    -0.744 OA
ENDBRANCH  53  54
ENDBRANCH  25  48
BRANCH  37  58
ATOM     58  C   UNL A   1      40.233  34.344  36.810  1.00  0.00    -0.014 A 
ATOM     59  C   UNL A   1      40.974  35.538  36.845  1.00  0.00     0.010 A 
ATOM     60  C   UNL A   1      39.212  34.133  37.755  1.00  0.00     0.010 A 
ATOM     61  C   UNL A   1      40.716  36.494  37.830  1.00  0.00     0.020 A 
ATOM     62  C   UNL A   1      38.931  35.101  38.720  1.00  0.00     0.020 A 
ATOM     63  C   UNL A   1      39.696  36.268  38.760  1.00  0.00     0.054 A 
BRANCH  63  64
ATOM     64  S   UNL A   1      39.352  37.541  40.003  1.00  0.00     0.124 S 
ATOM     65  O   UNL A   1      38.308  38.327  39.352  1.00  0.00    -0.237 OA
ATOM     66  O   UNL A   1      38.923  36.756  41.157  1.00  0.00    -0.237 OA
ATOM     67  O   UNL A   1      40.636  38.223  40.164  1.00  0.00    -0.744 OA
ENDBRANCH  63  64
ENDBRANCH  37  58
ENDBRANCH  11  12
ENDBRANCH   4   6
ENDBRANCH   3   4
ENDBRANCH   2   3
ENDBRANCH   1   2
BRANCH   1  68
ATOM     68  O   UNL A   1      38.025  21.938  25.978  1.00  0.00    -0.461 OA
BRANCH  68  69
ATOM     69  C   UNL A   1      37.518  23.147  25.560  1.00  0.00     0.329 C 
ATOM     70  O   UNL A   1      37.856  24.197  26.117  1.00  0.00    -0.250 OA
BRANCH  69  71
ATOM     71  C   UNL A   1      36.449  23.095  24.371  1.00  0.00     0.200 C 
ATOM     72  C   UNL A   1      35.533  21.835  24.523  1.00  0.00     0.059 C 
ATOM     73  N   UNL A   1      35.178  23.828  24.439  1.00  0.00    -0.294 N 
ATOM     74  C   UNL A   1      34.504  22.762  25.176  1.00  0.00     0.127 C 
BRANCH  73  75
ATOM     75  C   UNL A   1      34.464  24.708  23.654  1.00  0.00     0.410 C 
ATOM     76  O   UNL A   1      34.205  24.426  22.495  1.00  0.00    -0.224 OA
BRANCH  75  77
ATOM     77  O   UNL A   1      34.131  25.904  24.229  1.00  0.00    -0.448 OA
BRANCH  77  78
ATOM     78  C   UNL A   1      32.791  26.352  23.872  1.00  0.00     0.248 C 
BRANCH  78  79
ATOM     79  C   UNL A   1      31.882  27.025  24.934  1.00  0.00     0.088 C 
ATOM     80  C   UNL A   1      32.544  28.074  25.814  1.00  0.00    -0.029 A 
ATOM     81  C   UNL A   1      30.800  27.880  24.242  1.00  0.00    -0.029 A 
ATOM     82  C   UNL A   1      33.555  27.899  26.743  1.00  0.00     0.005 A 
ATOM     83  C   UNL A   1      32.008  29.354  25.557  1.00  0.00    -0.014 A 
ATOM     84  C   UNL A   1      30.930  29.236  24.608  1.00  0.00    -0.014 A 
ATOM     85  C   UNL A   1      29.810  27.499  23.357  1.00  0.00     0.005 A 
ATOM     86  C   UNL A   1      34.095  29.036  27.345  1.00  0.00     0.000 A 
ATOM     87  C   UNL A   1      32.528  30.480  26.168  1.00  0.00     0.009 A 
ATOM     88  C   UNL A   1      30.096  30.215  24.082  1.00  0.00     0.009 A 
ATOM     89  C   UNL A   1      28.970  28.485  22.830  1.00  0.00     0.000 A 
ATOM     90  C   UNL A   1      33.593  30.315  27.052  1.00  0.00     0.001 A 
ATOM     91  C   UNL A   1      29.114  29.833  23.173  1.00  0.00     0.001 A 
ENDBRANCH  78  79
ENDBRANCH  77  78
ENDBRANCH  75  77
ENDBRANCH  73  75
ENDBRANCH  69  71
ENDBRANCH  68  69
ENDBRANCH   1  68
TORSDOF 18
ENDMDL
MODEL 3
REMARK VINA RESULT:      -9.4      3.718      6.907
REMARK SMILES O=C(OCCOC(=O)[C@H]1CCN1C(=O)OCC1c2ccccc2-c2ccccc21)c1ccc(-c2c3nc(c(-c4ccc(S(=O)(=O)[O-])cc4)c4ccc([nH]4)c(-c4ccc(S(=O)(=O)[O-])cc4)c4nc(c(-c5ccc(S(=O)(=O)[O-])cc5)c5ccc2[nH]5)C=C4)C=C3)cc1
REMARK SMILES IDX 5 1 4 2 3 3 2 4 1 5 30 6 31 7 89 8 32 9 88 10 33 11 34 12
REMARK SMILES IDX 35 13 82 14 36 15 87 16 81 17 83 18 37 19 86 20 80 21 79 22
REMARK SMILES IDX 38 24 68 25 49 26 67 27 50 28 53 29 66 30 84 31 51 32 52 33
REMARK SMILES IDX 65 35 85 36 54 37 39 38 40 39 48 40 41 41 47 42 42 43 43 44
REMARK SMILES IDX 44 45 45 46 46 47 69 48 70 49 78 50 71 51 77 52 72 53 73 54
REMARK SMILES IDX 74 55 75 56 76 57 55 58 56 59 64 60 57 61 63 62 58 63 59 64
REMARK SMILES IDX 60 65 61 66 62 67 6 68 7 69 8 70 9 71 10 72 12 73 11 74
REMARK SMILES IDX 13 75 14 76 15 77 16 78 17 79 18 80 29 81 19 82 23 83 24 84
REMARK SMILES IDX 28 85 20 86 22 87 25 88 27 89 21 90 26 91
REMARK H PARENT 83 23 53 34
REMARK Flexibility Score: inf
ROOT
ATOM      1  C   UNL A   1      31.474  28.646  26.360  1.00  0.00     0.274 C 
ENDROOT
BRANCH   1   2
ATOM      2  C   UNL A   1      32.590  28.210  27.321  1.00  0.00     0.275 C 
BRANCH   2   3
ATOM      3  O   UNL A   1      33.875  28.782  27.061  1.00  0.00    -0.458 OA
BRANCH   3   4
ATOM      4  C   UNL A   1      34.511  29.772  27.727  1.00  0.00     0.338 C 
ATOM      5  O   UNL A   1      33.918  30.840  27.873  1.00  0.00    -0.246 OA
BRANCH   4   6
ATOM      6  C   UNL A   1      35.937  29.683  28.188  1.00  0.00     0.060 A 
ATOM      7  C   UNL A   1      36.402  29.315  29.456  1.00  0.00     0.016 A 
ATOM      8  C   UNL A   1      36.901  29.959  27.216  1.00  0.00     0.016 A 
ATOM      9  C   UNL A   1      37.762  29.108  29.716  1.00  0.00     0.010 A 
ATOM     10  C   UNL A   1      38.254  29.733  27.470  1.00  0.00     0.010 A 
ATOM     11  C   UNL A   1      38.708  29.274  28.714  1.00  0.00    -0.014 A 
BRANCH  11  12
ATOM     12  C   UNL A   1      40.162  29.070  28.979  1.00  0.00     0.031 A 
ATOM     13  C   UNL A   1      40.746  27.708  28.710  1.00  0.00     0.074 A 
ATOM     14  C   UNL A   1      40.928  30.043  29.528  1.00  0.00     0.049 A 
ATOM     15  N   UNL A   1      41.923  27.231  29.023  1.00  0.00    -0.248 NA
ATOM     16  C   UNL A   1      39.864  26.731  28.042  1.00  0.00     0.031 C 
ATOM     17  C   UNL A   1      40.458  31.367  29.958  1.00  0.00     0.029 A 
ATOM     18  N   UNL A   1      42.251  30.034  29.916  1.00  0.00    -0.354 N 
ATOM     19  C   UNL A   1      41.898  25.905  28.606  1.00  0.00     0.074 A 
ATOM     20  C   UNL A   1      40.554  25.614  28.170  1.00  0.00     0.031 C 
ATOM     21  C   UNL A   1      41.447  32.001  30.616  1.00  0.00     0.029 A 
ATOM     22  C   UNL A   1      42.619  31.134  30.665  1.00  0.00     0.049 A 
ATOM     23  H   UNL A   1      42.875  29.311  29.679  1.00  0.00     0.167 HD
ATOM     24  C   UNL A   1      42.920  25.027  28.485  1.00  0.00     0.031 A 
ATOM     25  C   UNL A   1      43.740  31.371  31.379  1.00  0.00     0.031 A 
ATOM     26  C   UNL A   1      44.260  25.326  28.886  1.00  0.00     0.049 A 
ATOM     27  C   UNL A   1      44.874  30.376  31.294  1.00  0.00     0.074 A 
ATOM     28  C   UNL A   1      45.387  24.532  28.807  1.00  0.00     0.029 A 
ATOM     29  N   UNL A   1      44.647  26.532  29.452  1.00  0.00    -0.354 N 
ATOM     30  N   UNL A   1      44.947  29.271  30.588  1.00  0.00    -0.248 NA
ATOM     31  C   UNL A   1      46.066  30.643  32.110  1.00  0.00     0.031 C 
ATOM     32  C   UNL A   1      46.453  25.247  29.367  1.00  0.00     0.029 A 
ATOM     33  C   UNL A   1      45.990  26.491  29.776  1.00  0.00     0.049 A 
ATOM     34  H   UNL A   1      44.054  27.303  29.601  1.00  0.00     0.167 HD
ATOM     35  C   UNL A   1      46.196  28.724  30.861  1.00  0.00     0.074 A 
ATOM     36  C   UNL A   1      46.868  29.647  31.754  1.00  0.00     0.031 C 
ATOM     37  C   UNL A   1      46.704  27.522  30.489  1.00  0.00     0.031 A 
BRANCH  24  38
ATOM     38  C   UNL A   1      42.592  23.716  27.818  1.00  0.00    -0.014 A 
ATOM     39  C   UNL A   1      41.984  22.686  28.567  1.00  0.00     0.010 A 
ATOM     40  C   UNL A   1      42.954  23.467  26.485  1.00  0.00     0.010 A 
ATOM     41  C   UNL A   1      41.816  21.413  28.024  1.00  0.00     0.020 A 
ATOM     42  C   UNL A   1      42.750  22.200  25.922  1.00  0.00     0.020 A 
ATOM     43  C   UNL A   1      42.207  21.175  26.706  1.00  0.00     0.054 A 
BRANCH  43  44
ATOM     44  S   UNL A   1      41.978  19.508  26.030  1.00  0.00     0.124 S 
ATOM     45  O   UNL A   1      40.532  19.462  25.821  1.00  0.00    -0.237 OA
ATOM     46  O   UNL A   1      42.786  19.543  24.813  1.00  0.00    -0.237 OA
ATOM     47  O   UNL A   1      42.485  18.633  27.085  1.00  0.00    -0.744 OA
ENDBRANCH  43  44
ENDBRANCH  24  38
BRANCH  25  48
ATOM     48  C   UNL A   1      43.810  32.506  32.352  1.00  0.00    -0.014 A 
ATOM     49  C   UNL A   1      43.303  32.394  33.657  1.00  0.00     0.010 A 
ATOM     50  C   UNL A   1      44.313  33.755  31.932  1.00  0.00     0.010 A 
ATOM     51  C   UNL A   1      43.276  33.508  34.509  1.00  0.00     0.020 A 
ATOM     52  C   UNL A   1      44.310  34.865  32.785  1.00  0.00     0.020 A 
ATOM     53  C   UNL A   1      43.781  34.736  34.068  1.00  0.00     0.054 A 
BRANCH  53  54
ATOM     54  S   UNL A   1      43.750  36.157  35.199  1.00  0.00     0.124 S 
ATOM     55  O   UNL A   1      44.905  36.930  34.753  1.00  0.00    -0.237 OA
ATOM     56  O   UNL A   1      42.444  36.748  34.916  1.00  0.00    -0.237 OA
ATOM     57  O   UNL A   1      43.877  35.548  36.522  1.00  0.00    -0.744 OA
ENDBRANCH  53  54
ENDBRANCH  25  48
BRANCH  37  58
ATOM     58  C   UNL A   1      48.112  27.204  30.894  1.00  0.00    -0.014 A 
ATOM     59  C   UNL A   1      48.388  26.446  32.045  1.00  0.00     0.010 A 
ATOM     60  C   UNL A   1      49.167  27.580  30.042  1.00  0.00     0.010 A 
ATOM     61  C   UNL A   1      49.704  26.096  32.355  1.00  0.00     0.020 A 
ATOM     62  C   UNL A   1      50.479  27.203  30.332  1.00  0.00     0.020 A 
ATOM     63  C   UNL A   1      50.740  26.477  31.495  1.00  0.00     0.054 A 
BRANCH  63  64
ATOM     64  S   UNL A   1      52.435  25.976  31.895  1.00  0.00     0.124 S 
ATOM     65  O   UNL A   1      52.230  24.650  32.470  1.00  0.00    -0.237 OA
ATOM     66  O   UNL A   1      53.094  26.003  30.592  1.00  0.00    -0.237 OA
ATOM     67  O   UNL A   1      52.885  27.000  32.836  1.00  0.00    -0.744 OA
ENDBRANCH  63  64
ENDBRANCH  37  58
ENDBRANCH  11  12
ENDBRANCH   4   6
ENDBRANCH   3   4
ENDBRANCH   2   3
ENDBRANCH   1   2
BRANCH   1  68
ATOM     68  O   UNL A   1      31.895  29.418  25.206  1.00  0.00    -0.461 OA
BRANCH  68  69
ATOM     69  C   UNL A   1      31.293  29.061  24.021  1.00  0.00     0.329 C 
ATOM     70  O   UNL A   1      30.070  29.175  23.878  1.00  0.00    -0.250 OA
BRANCH  69  71
ATOM     71  C   UNL A   1      32.251  28.454  22.894  1.00  0.00     0.200 C 
ATOM     72  C   UNL A   1      33.727  28.918  23.133  1.00  0.00     0.059 C 
ATOM     73  N   UNL A   1      32.826  27.107  23.008  1.00  0.00    -0.294 N 
ATOM     74  C   UNL A   1      33.957  27.564  23.811  1.00  0.00     0.127 C 
BRANCH  73  75
ATOM     75  C   UNL A   1      32.920  25.969  22.235  1.00  0.00     0.410 C 
ATOM     76  O   UNL A   1      33.531  25.992  21.179  1.00  0.00    -0.224 OA
BRANCH  75  77
ATOM     77  O   UNL A   1      32.250  24.868  22.692  1.00  0.00    -0.448 OA
BRANCH  77  78
ATOM     78  C   UNL A   1      32.870  23.614  22.282  1.00  0.00     0.248 C 
BRANCH  78  79
ATOM     79  C   UNL A   1      33.372  22.603  23.346  1.00  0.00     0.088 C 
ATOM     80  C   UNL A   1      34.762  22.859  23.909  1.00  0.00    -0.029 A 
ATOM     81  C   UNL A   1      32.524  22.715  24.629  1.00  0.00    -0.029 A 
ATOM     82  C   UNL A   1      35.977  22.815  23.245  1.00  0.00     0.005 A 
ATOM     83  C   UNL A   1      34.693  23.200  25.276  1.00  0.00    -0.014 A 
ATOM     84  C   UNL A   1      33.327  23.097  25.724  1.00  0.00    -0.014 A 
ATOM     85  C   UNL A   1      31.168  22.522  24.808  1.00  0.00     0.005 A 
ATOM     86  C   UNL A   1      37.118  23.212  23.943  1.00  0.00     0.000 A 
ATOM     87  C   UNL A   1      35.827  23.574  25.974  1.00  0.00     0.009 A 
ATOM     88  C   UNL A   1      32.787  23.307  26.986  1.00  0.00     0.009 A 
ATOM     89  C   UNL A   1      30.625  22.731  26.079  1.00  0.00     0.000 A 
ATOM     90  C   UNL A   1      37.042  23.599  25.292  1.00  0.00     0.001 A 
ATOM     91  C   UNL A   1      31.417  23.133  27.159  1.00  0.00     0.001 A 
ENDBRANCH  78  79
ENDBRANCH  77  78
ENDBRANCH  75  77
ENDBRANCH  73  75
ENDBRANCH  69  71
ENDBRANCH  68  69
ENDBRANCH   1  68
TORSDOF 18
ENDMDL
