MODEL 1
REMARK VINA RESULT:      -9.6      0.000      0.000
REMARK SMILES O=C(CCC(=O)OCCOC(=O)c1ccc(-c2c3nc(c(-c4ccc(S(=O)(=O)[O-])cc4)c4ccc([nH]4)c(-c4ccc(S(=O)(=O)[O-])cc4)c4nc(c(-c5ccc(S(=O)(=O)[O-])cc5)c5ccc2[nH]5)C=C4)C=C3)cc1)Nc1nncs1
REMARK SMILES IDX 8 1 7 2 5 3 6 4 4 5 3 6 2 7 1 8 73 9 74 11 75 12 78 13 76 14
REMARK SMILES IDX 77 15 9 16 10 17 11 18 12 19 13 20 14 21 72 22 15 23 71 24
REMARK SMILES IDX 16 25 17 26 18 27 65 28 19 29 70 30 64 31 66 32 20 33 69 34
REMARK SMILES IDX 63 35 62 36 21 38 51 39 32 40 50 41 33 42 36 43 49 44 67 45
REMARK SMILES IDX 34 46 35 47 48 49 68 50 37 51 22 52 23 53 31 54 24 55 30 56
REMARK SMILES IDX 25 57 26 58 27 59 28 60 29 61 52 62 53 63 61 64 54 65 60 66
REMARK SMILES IDX 55 67 56 68 57 69 58 70 59 71 38 72 39 73 47 74 40 75 46 76
REMARK SMILES IDX 41 77 42 78 43 79 44 80 45 81
REMARK H PARENT 73 10 66 37 36 48
REMARK Flexibility Score: inf
ROOT
ATOM      1  C   UNL A   1      33.848  34.058  28.639  1.00  0.00     0.274 C 
ENDROOT
BRANCH   1   2
ATOM      2  O   UNL A   1      33.185  34.540  29.832  1.00  0.00    -0.462 OA
BRANCH   2   3
ATOM      3  C   UNL A   1      32.820  35.852  29.847  1.00  0.00     0.306 C 
ATOM      4  O   UNL A   1      32.818  36.579  28.864  1.00  0.00    -0.252 OA
BRANCH   3   5
ATOM      5  C   UNL A   1      32.485  36.347  31.241  1.00  0.00     0.132 C 
BRANCH   5   6
ATOM      6  C   UNL A   1      33.584  37.130  31.955  1.00  0.00     0.112 C 
BRANCH   6   7
ATOM      7  C   UNL A   1      34.377  36.248  32.902  1.00  0.00     0.226 C 
ATOM      8  O   UNL A   1      34.281  36.387  34.117  1.00  0.00    -0.275 OA
ATOM      9  N   UNL A   1      35.212  35.386  32.240  1.00  0.00    -0.301 N 
ATOM     10  H   UNL A   1      35.095  35.261  31.271  1.00  0.00     0.172 HD
BRANCH   9  11
ATOM     11  C   UNL A   1      36.202  34.694  32.876  1.00  0.00     0.212 A 
ATOM     12  N   UNL A   1      37.481  34.948  33.001  1.00  0.00    -0.120 NA
ATOM     13  S   UNL A   1      35.699  33.194  33.526  1.00  0.00    -0.083 S 
ATOM     14  N   UNL A   1      38.156  33.904  33.611  1.00  0.00    -0.145 NA
ATOM     15  C   UNL A   1      37.348  32.906  33.894  1.00  0.00     0.204 A 
ENDBRANCH   9  11
ENDBRANCH   6   7
ENDBRANCH   5   6
ENDBRANCH   3   5
ENDBRANCH   2   3
ENDBRANCH   1   2
BRANCH   1  16
ATOM     16  C   UNL A   1      34.550  32.721  28.892  1.00  0.00     0.275 C 
BRANCH  16  17
ATOM     17  O   UNL A   1      34.621  31.944  27.684  1.00  0.00    -0.458 OA
BRANCH  17  18
ATOM     18  C   UNL A   1      34.587  30.604  27.873  1.00  0.00     0.338 C 
ATOM     19  O   UNL A   1      33.626  29.876  27.700  1.00  0.00    -0.246 OA
BRANCH  18  20
ATOM     20  C   UNL A   1      35.949  30.118  28.150  1.00  0.00     0.060 A 
ATOM     21  C   UNL A   1      36.230  29.623  29.426  1.00  0.00     0.016 A 
ATOM     22  C   UNL A   1      36.948  30.180  27.177  1.00  0.00     0.016 A 
ATOM     23  C   UNL A   1      37.517  29.195  29.739  1.00  0.00     0.010 A 
ATOM     24  C   UNL A   1      38.238  29.742  27.492  1.00  0.00     0.010 A 
ATOM     25  C   UNL A   1      38.534  29.260  28.779  1.00  0.00    -0.014 A 
BRANCH  25  26
ATOM     26  C   UNL A   1      39.912  28.851  29.144  1.00  0.00     0.031 A 
ATOM     27  C   UNL A   1      40.786  29.783  29.938  1.00  0.00     0.074 A 
ATOM     28  C   UNL A   1      40.365  27.634  28.789  1.00  0.00     0.049 A 
ATOM     29  N   UNL A   1      42.009  29.603  30.367  1.00  0.00    -0.248 NA
ATOM     30  C   UNL A   1      40.209  31.088  30.291  1.00  0.00     0.031 C 
ATOM     31  C   UNL A   1      39.597  26.631  28.048  1.00  0.00     0.029 A 
ATOM     32  N   UNL A   1      41.574  27.028  29.018  1.00  0.00    -0.354 N 
ATOM     33  C   UNL A   1      42.357  30.779  31.022  1.00  0.00     0.074 A 
ATOM     34  C   UNL A   1      41.224  31.673  30.910  1.00  0.00     0.031 C 
ATOM     35  C   UNL A   1      40.344  25.524  27.910  1.00  0.00     0.029 A 
ATOM     36  C   UNL A   1      41.656  25.754  28.509  1.00  0.00     0.049 A 
ATOM     37  H   UNL A   1      42.313  27.465  29.499  1.00  0.00     0.167 HD
ATOM     38  C   UNL A   1      43.515  31.084  31.659  1.00  0.00     0.031 A 
ATOM     39  C   UNL A   1      42.674  24.872  28.519  1.00  0.00     0.031 A 
ATOM     40  C   UNL A   1      44.641  30.191  31.758  1.00  0.00     0.049 A 
ATOM     41  C   UNL A   1      43.967  25.257  29.185  1.00  0.00     0.074 A 
ATOM     42  C   UNL A   1      45.847  30.394  32.406  1.00  0.00     0.029 A 
ATOM     43  N   UNL A   1      44.706  28.930  31.182  1.00  0.00    -0.354 N 
ATOM     44  N   UNL A   1      44.271  26.363  29.824  1.00  0.00    -0.248 NA
ATOM     45  C   UNL A   1      45.052  24.269  29.136  1.00  0.00     0.031 C 
ATOM     46  C   UNL A   1      46.665  29.283  32.167  1.00  0.00     0.029 A 
ATOM     47  C   UNL A   1      45.944  28.358  31.430  1.00  0.00     0.049 A 
ATOM     48  H   UNL A   1      43.980  28.505  30.672  1.00  0.00     0.167 HD
ATOM     49  C   UNL A   1      45.574  26.191  30.279  1.00  0.00     0.074 A 
ATOM     50  C   UNL A   1      45.990  24.868  29.857  1.00  0.00     0.031 C 
ATOM     51  C   UNL A   1      46.353  27.048  30.985  1.00  0.00     0.031 A 
BRANCH  38  52
ATOM     52  C   UNL A   1      43.637  32.467  32.248  1.00  0.00    -0.014 A 
ATOM     53  C   UNL A   1      43.231  32.749  33.566  1.00  0.00     0.010 A 
ATOM     54  C   UNL A   1      44.180  33.504  31.466  1.00  0.00     0.010 A 
ATOM     55  C   UNL A   1      43.313  34.051  34.070  1.00  0.00     0.020 A 
ATOM     56  C   UNL A   1      44.294  34.800  31.978  1.00  0.00     0.020 A 
ATOM     57  C   UNL A   1      43.837  35.071  33.269  1.00  0.00     0.054 A 
BRANCH  57  58
ATOM     58  S   UNL A   1      43.925  36.753  33.943  1.00  0.00     0.124 S 
ATOM     59  O   UNL A   1      43.147  36.623  35.172  1.00  0.00    -0.237 OA
ATOM     60  O   UNL A   1      45.360  36.950  34.125  1.00  0.00    -0.237 OA
ATOM     61  O   UNL A   1      43.313  37.576  32.903  1.00  0.00    -0.744 OA
ENDBRANCH  57  58
ENDBRANCH  38  52
BRANCH  39  62
ATOM     62  C   UNL A   1      42.508  23.534  27.887  1.00  0.00    -0.014 A 
ATOM     63  C   UNL A   1      42.941  23.310  26.569  1.00  0.00     0.010 A 
ATOM     64  C   UNL A   1      41.927  22.472  28.605  1.00  0.00     0.010 A 
ATOM     65  C   UNL A   1      42.789  22.053  25.977  1.00  0.00     0.020 A 
ATOM     66  C   UNL A   1      41.801  21.207  28.028  1.00  0.00     0.020 A 
ATOM     67  C   UNL A   1      42.224  21.007  26.712  1.00  0.00     0.054 A 
BRANCH  67  68
ATOM     68  S   UNL A   1      42.094  19.369  25.943  1.00  0.00     0.124 S 
ATOM     69  O   UNL A   1      42.952  19.512  24.773  1.00  0.00    -0.237 OA
ATOM     70  O   UNL A   1      42.594  18.487  26.994  1.00  0.00    -0.237 OA
ATOM     71  O   UNL A   1      40.665  19.237  25.659  1.00  0.00    -0.744 OA
ENDBRANCH  67  68
ENDBRANCH  39  62
BRANCH  51  72
ATOM     72  C   UNL A   1      47.727  26.561  31.373  1.00  0.00    -0.014 A 
ATOM     73  C   UNL A   1      48.861  26.872  30.600  1.00  0.00     0.010 A 
ATOM     74  C   UNL A   1      47.885  25.783  32.535  1.00  0.00     0.010 A 
ATOM     75  C   UNL A   1      50.116  26.362  30.949  1.00  0.00     0.020 A 
ATOM     76  C   UNL A   1      49.142  25.302  32.906  1.00  0.00     0.020 A 
ATOM     77  C   UNL A   1      50.246  25.574  32.097  1.00  0.00     0.054 A 
BRANCH  77  78
ATOM     78  S   UNL A   1      51.883  24.923  32.528  1.00  0.00     0.124 S 
ATOM     79  O   UNL A   1      51.638  23.483  32.556  1.00  0.00    -0.237 OA
ATOM     80  O   UNL A   1      52.719  25.397  31.427  1.00  0.00    -0.237 OA
ATOM     81  O   UNL A   1      52.167  25.531  33.825  1.00  0.00    -0.744 OA
ENDBRANCH  77  78
ENDBRANCH  51  72
ENDBRANCH  25  26
ENDBRANCH  18  20
ENDBRANCH  17  18
ENDBRANCH  16  17
ENDBRANCH   1  16
TORSDOF 17
ENDMDL
MODEL 2
REMARK VINA RESULT:      -9.2      2.264      2.819
REMARK SMILES O=C(CCC(=O)OCCOC(=O)c1ccc(-c2c3nc(c(-c4ccc(S(=O)(=O)[O-])cc4)c4ccc([nH]4)c(-c4ccc(S(=O)(=O)[O-])cc4)c4nc(c(-c5ccc(S(=O)(=O)[O-])cc5)c5ccc2[nH]5)C=C4)C=C3)cc1)Nc1nncs1
REMARK SMILES IDX 8 1 7 2 5 3 6 4 4 5 3 6 2 7 1 8 73 9 74 11 75 12 78 13 76 14
REMARK SMILES IDX 77 15 9 16 10 17 11 18 12 19 13 20 14 21 72 22 15 23 71 24
REMARK SMILES IDX 16 25 17 26 18 27 65 28 19 29 70 30 64 31 66 32 20 33 69 34
REMARK SMILES IDX 63 35 62 36 21 38 51 39 32 40 50 41 33 42 36 43 49 44 67 45
REMARK SMILES IDX 34 46 35 47 48 49 68 50 37 51 22 52 23 53 31 54 24 55 30 56
REMARK SMILES IDX 25 57 26 58 27 59 28 60 29 61 52 62 53 63 61 64 54 65 60 66
REMARK SMILES IDX 55 67 56 68 57 69 58 70 59 71 38 72 39 73 47 74 40 75 46 76
REMARK SMILES IDX 41 77 42 78 43 79 44 80 45 81
REMARK H PARENT 73 10 66 37 36 48
REMARK Flexibility Score: inf
ROOT
ATOM      1  C   UNL A   1      33.152  34.473  28.480  1.00  0.00     0.274 C 
ENDROOT
BRANCH   1   2
ATOM      2  O   UNL A   1      33.222  34.756  29.898  1.00  0.00    -0.462 OA
BRANCH   2   3
ATOM      3  C   UNL A   1      32.854  36.005  30.295  1.00  0.00     0.306 C 
ATOM      4  O   UNL A   1      33.153  37.034  29.705  1.00  0.00    -0.252 OA
BRANCH   3   5
ATOM      5  C   UNL A   1      32.090  35.997  31.606  1.00  0.00     0.132 C 
BRANCH   5   6
ATOM      6  C   UNL A   1      32.819  36.590  32.809  1.00  0.00     0.112 C 
BRANCH   6   7
ATOM      7  C   UNL A   1      34.079  35.813  33.141  1.00  0.00     0.226 C 
ATOM      8  O   UNL A   1      35.187  36.307  32.963  1.00  0.00    -0.275 OA
ATOM      9  N   UNL A   1      33.810  34.537  33.568  1.00  0.00    -0.301 N 
ATOM     10  H   UNL A   1      32.886  34.303  33.811  1.00  0.00     0.172 HD
BRANCH   9  11
ATOM     11  C   UNL A   1      34.778  33.580  33.666  1.00  0.00     0.212 A 
ATOM     12  N   UNL A   1      35.667  33.353  34.602  1.00  0.00    -0.120 NA
ATOM     13  S   UNL A   1      34.914  32.579  32.286  1.00  0.00    -0.083 S 
ATOM     14  N   UNL A   1      36.557  32.358  34.235  1.00  0.00    -0.145 NA
ATOM     15  C   UNL A   1      36.303  31.902  33.028  1.00  0.00     0.204 A 
ENDBRANCH   9  11
ENDBRANCH   6   7
ENDBRANCH   5   6
ENDBRANCH   3   5
ENDBRANCH   2   3
ENDBRANCH   1   2
BRANCH   1  16
ATOM     16  C   UNL A   1      34.323  33.596  28.026  1.00  0.00     0.275 C 
BRANCH  16  17
ATOM     17  O   UNL A   1      34.564  32.539  28.970  1.00  0.00    -0.458 OA
BRANCH  17  18
ATOM     18  C   UNL A   1      34.838  31.337  28.412  1.00  0.00     0.338 C 
ATOM     19  O   UNL A   1      34.192  30.782  27.541  1.00  0.00    -0.246 OA
BRANCH  18  20
ATOM     20  C   UNL A   1      36.150  30.869  28.887  1.00  0.00     0.060 A 
ATOM     21  C   UNL A   1      36.199  29.705  29.661  1.00  0.00     0.016 A 
ATOM     22  C   UNL A   1      37.316  31.583  28.606  1.00  0.00     0.016 A 
ATOM     23  C   UNL A   1      37.416  29.255  30.166  1.00  0.00     0.010 A 
ATOM     24  C   UNL A   1      38.538  31.123  29.107  1.00  0.00     0.010 A 
ATOM     25  C   UNL A   1      38.594  29.965  29.902  1.00  0.00    -0.014 A 
BRANCH  25  26
ATOM     26  C   UNL A   1      39.874  29.503  30.492  1.00  0.00     0.031 A 
ATOM     27  C   UNL A   1      40.394  30.140  31.751  1.00  0.00     0.074 A 
ATOM     28  C   UNL A   1      40.550  28.493  29.914  1.00  0.00     0.049 A 
ATOM     29  N   UNL A   1      41.480  29.867  32.427  1.00  0.00    -0.248 NA
ATOM     30  C   UNL A   1      39.588  31.230  32.320  1.00  0.00     0.031 C 
ATOM     31  C   UNL A   1      40.127  27.774  28.709  1.00  0.00     0.029 A 
ATOM     32  N   UNL A   1      41.727  27.885  30.270  1.00  0.00    -0.354 N 
ATOM     33  C   UNL A   1      41.501  30.763  33.489  1.00  0.00     0.074 A 
ATOM     34  C   UNL A   1      40.331  31.605  33.351  1.00  0.00     0.031 C 
ATOM     35  C   UNL A   1      41.017  26.803  28.446  1.00  0.00     0.029 A 
ATOM     36  C   UNL A   1      42.094  26.861  29.430  1.00  0.00     0.049 A 
ATOM     37  H   UNL A   1      42.259  28.158  31.051  1.00  0.00     0.167 HD
ATOM     38  C   UNL A   1      42.411  30.874  34.488  1.00  0.00     0.031 A 
ATOM     39  C   UNL A   1      43.179  26.062  29.448  1.00  0.00     0.031 A 
ATOM     40  C   UNL A   1      43.577  30.037  34.613  1.00  0.00     0.049 A 
ATOM     41  C   UNL A   1      44.201  26.242  30.536  1.00  0.00     0.074 A 
ATOM     42  C   UNL A   1      44.543  30.050  35.604  1.00  0.00     0.029 A 
ATOM     43  N   UNL A   1      43.943  29.048  33.712  1.00  0.00    -0.354 N 
ATOM     44  N   UNL A   1      44.192  27.077  31.549  1.00  0.00    -0.248 NA
ATOM     45  C   UNL A   1      45.377  25.365  30.486  1.00  0.00     0.031 C 
ATOM     46  C   UNL A   1      45.528  29.112  35.267  1.00  0.00     0.029 A 
ATOM     47  C   UNL A   1      45.139  28.467  34.105  1.00  0.00     0.049 A 
ATOM     48  H   UNL A   1      43.430  28.796  32.911  1.00  0.00     0.167 HD
ATOM     49  C   UNL A   1      45.347  26.804  32.274  1.00  0.00     0.074 A 
ATOM     50  C   UNL A   1      46.019  25.716  31.591  1.00  0.00     0.031 C 
ATOM     51  C   UNL A   1      45.808  27.398  33.404  1.00  0.00     0.031 A 
BRANCH  38  52
ATOM     52  C   UNL A   1      42.205  31.980  35.493  1.00  0.00    -0.014 A 
ATOM     53  C   UNL A   1      42.736  33.268  35.296  1.00  0.00     0.010 A 
ATOM     54  C   UNL A   1      41.453  31.724  36.655  1.00  0.00     0.010 A 
ATOM     55  C   UNL A   1      42.568  34.261  36.267  1.00  0.00     0.020 A 
ATOM     56  C   UNL A   1      41.255  32.722  37.613  1.00  0.00     0.020 A 
ATOM     57  C   UNL A   1      41.834  33.979  37.424  1.00  0.00     0.054 A 
BRANCH  57  58
ATOM     58  S   UNL A   1      41.638  35.280  38.672  1.00  0.00     0.124 S 
ATOM     59  O   UNL A   1      41.320  36.442  37.846  1.00  0.00    -0.237 OA
ATOM     60  O   UNL A   1      40.541  34.773  39.493  1.00  0.00    -0.237 OA
ATOM     61  O   UNL A   1      42.939  35.325  39.334  1.00  0.00    -0.744 OA
ENDBRANCH  57  58
ENDBRANCH  38  52
BRANCH  39  62
ATOM     62  C   UNL A   1      43.347  25.011  28.406  1.00  0.00    -0.014 A 
ATOM     63  C   UNL A   1      44.001  25.304  27.197  1.00  0.00     0.010 A 
ATOM     64  C   UNL A   1      42.865  23.707  28.624  1.00  0.00     0.010 A 
ATOM     65  C   UNL A   1      44.162  24.316  26.222  1.00  0.00     0.020 A 
ATOM     66  C   UNL A   1      43.052  22.709  27.663  1.00  0.00     0.020 A 
ATOM     67  C   UNL A   1      43.691  23.023  26.463  1.00  0.00     0.054 A 
BRANCH  67  68
ATOM     68  S   UNL A   1      43.968  21.744  25.207  1.00  0.00     0.124 S 
ATOM     69  O   UNL A   1      45.317  21.289  25.526  1.00  0.00    -0.237 OA
ATOM     70  O   UNL A   1      42.895  20.793  25.484  1.00  0.00    -0.237 OA
ATOM     71  O   UNL A   1      43.834  22.470  23.944  1.00  0.00    -0.744 OA
ENDBRANCH  67  68
ENDBRANCH  39  62
BRANCH  51  72
ATOM     72  C   UNL A   1      47.088  26.855  33.988  1.00  0.00    -0.014 A 
ATOM     73  C   UNL A   1      48.333  27.446  33.706  1.00  0.00     0.010 A 
ATOM     74  C   UNL A   1      47.042  25.735  34.839  1.00  0.00     0.010 A 
ATOM     75  C   UNL A   1      49.512  26.891  34.214  1.00  0.00     0.020 A 
ATOM     76  C   UNL A   1      48.214  25.199  35.377  1.00  0.00     0.020 A 
ATOM     77  C   UNL A   1      49.443  25.766  35.041  1.00  0.00     0.054 A 
BRANCH  77  78
ATOM     78  S   UNL A   1      50.985  25.061  35.687  1.00  0.00     0.124 S 
ATOM     79  O   UNL A   1      50.999  23.740  35.064  1.00  0.00    -0.237 OA
ATOM     80  O   UNL A   1      51.996  25.997  35.199  1.00  0.00    -0.237 OA
ATOM     81  O   UNL A   1      50.788  25.066  37.134  1.00  0.00    -0.744 OA
ENDBRANCH  77  78
ENDBRANCH  51  72
ENDBRANCH  25  26
ENDBRANCH  18  20
ENDBRANCH  17  18
ENDBRANCH  16  17
ENDBRANCH   1  16
TORSDOF 17
ENDMDL
MODEL 3
REMARK VINA RESULT:      -9.0      4.186     12.355
REMARK SMILES O=C(CCC(=O)OCCOC(=O)c1ccc(-c2c3nc(c(-c4ccc(S(=O)(=O)[O-])cc4)c4ccc([nH]4)c(-c4ccc(S(=O)(=O)[O-])cc4)c4nc(c(-c5ccc(S(=O)(=O)[O-])cc5)c5ccc2[nH]5)C=C4)C=C3)cc1)Nc1nncs1
REMARK SMILES IDX 8 1 7 2 5 3 6 4 4 5 3 6 2 7 1 8 73 9 74 11 75 12 78 13 76 14
REMARK SMILES IDX 77 15 9 16 10 17 11 18 12 19 13 20 14 21 72 22 15 23 71 24
REMARK SMILES IDX 16 25 17 26 18 27 65 28 19 29 70 30 64 31 66 32 20 33 69 34
REMARK SMILES IDX 63 35 62 36 21 38 51 39 32 40 50 41 33 42 36 43 49 44 67 45
REMARK SMILES IDX 34 46 35 47 48 49 68 50 37 51 22 52 23 53 31 54 24 55 30 56
REMARK SMILES IDX 25 57 26 58 27 59 28 60 29 61 52 62 53 63 61 64 54 65 60 66
REMARK SMILES IDX 55 67 56 68 57 69 58 70 59 71 38 72 39 73 47 74 40 75 46 76
REMARK SMILES IDX 41 77 42 78 43 79 44 80 45 81
REMARK H PARENT 73 10 66 37 36 48
REMARK Flexibility Score: inf
ROOT
ATOM      1  C   UNL A   1      43.658  21.847  25.615  1.00  0.00     0.274 C 
ENDROOT
BRANCH   1   2
ATOM      2  O   UNL A   1      42.322  21.340  25.378  1.00  0.00    -0.462 OA
BRANCH   2   3
ATOM      3  C   UNL A   1      41.934  20.260  26.110  1.00  0.00     0.306 C 
ATOM      4  O   UNL A   1      42.682  19.360  26.462  1.00  0.00    -0.252 OA
BRANCH   3   5
ATOM      5  C   UNL A   1      40.442  20.250  26.384  1.00  0.00     0.132 C 
BRANCH   5   6
ATOM      6  C   UNL A   1      39.705  21.561  26.121  1.00  0.00     0.112 C 
BRANCH   6   7
ATOM      7  C   UNL A   1      38.302  21.320  25.595  1.00  0.00     0.226 C 
ATOM      8  O   UNL A   1      38.063  20.371  24.857  1.00  0.00    -0.275 OA
ATOM      9  N   UNL A   1      37.422  22.298  25.983  1.00  0.00    -0.301 N 
ATOM     10  H   UNL A   1      37.691  22.925  26.692  1.00  0.00     0.172 HD
BRANCH   9  11
ATOM     11  C   UNL A   1      36.186  22.434  25.419  1.00  0.00     0.212 A 
ATOM     12  N   UNL A   1      35.003  22.072  25.851  1.00  0.00    -0.120 NA
ATOM     13  S   UNL A   1      36.206  23.095  23.842  1.00  0.00    -0.083 S 
ATOM     14  N   UNL A   1      34.022  22.277  24.895  1.00  0.00    -0.145 NA
ATOM     15  C   UNL A   1      34.525  22.763  23.782  1.00  0.00     0.204 A 
ENDBRANCH   9  11
ENDBRANCH   6   7
ENDBRANCH   5   6
ENDBRANCH   3   5
ENDBRANCH   2   3
ENDBRANCH   1   2
BRANCH   1  16
ATOM     16  C   UNL A   1      43.650  22.984  26.640  1.00  0.00     0.275 C 
BRANCH  16  17
ATOM     17  O   UNL A   1      42.382  23.661  26.642  1.00  0.00    -0.458 OA
BRANCH  17  18
ATOM     18  C   UNL A   1      42.423  24.938  26.196  1.00  0.00     0.338 C 
ATOM     19  O   UNL A   1      42.583  25.294  25.042  1.00  0.00    -0.246 OA
BRANCH  18  20
ATOM     20  C   UNL A   1      42.062  25.849  27.295  1.00  0.00     0.060 A 
ATOM     21  C   UNL A   1      42.841  26.993  27.491  1.00  0.00     0.016 A 
ATOM     22  C   UNL A   1      40.992  25.564  28.144  1.00  0.00     0.016 A 
ATOM     23  C   UNL A   1      42.558  27.855  28.547  1.00  0.00     0.010 A 
ATOM     24  C   UNL A   1      40.705  26.437  29.199  1.00  0.00     0.010 A 
ATOM     25  C   UNL A   1      41.494  27.580  29.415  1.00  0.00    -0.014 A 
BRANCH  25  26
ATOM     26  C   UNL A   1      41.239  28.479  30.567  1.00  0.00     0.031 A 
ATOM     27  C   UNL A   1      42.123  28.413  31.781  1.00  0.00     0.074 A 
ATOM     28  C   UNL A   1      40.234  29.372  30.508  1.00  0.00     0.049 A 
ATOM     29  N   UNL A   1      42.073  29.123  32.879  1.00  0.00    -0.248 NA
ATOM     30  C   UNL A   1      43.203  27.414  31.758  1.00  0.00     0.031 C 
ATOM     31  C   UNL A   1      39.331  29.552  29.369  1.00  0.00     0.029 A 
ATOM     32  N   UNL A   1      39.813  30.307  31.419  1.00  0.00    -0.354 N 
ATOM     33  C   UNL A   1      43.099  28.645  33.687  1.00  0.00     0.074 A 
ATOM     34  C   UNL A   1      43.736  27.566  32.961  1.00  0.00     0.031 C 
ATOM     35  C   UNL A   1      38.482  30.558  29.639  1.00  0.00     0.029 A 
ATOM     36  C   UNL A   1      38.749  31.061  30.984  1.00  0.00     0.049 A 
ATOM     37  H   UNL A   1      40.232  30.425  32.302  1.00  0.00     0.167 HD
ATOM     38  C   UNL A   1      43.474  29.066  34.920  1.00  0.00     0.031 A 
ATOM     39  C   UNL A   1      38.063  32.042  31.601  1.00  0.00     0.031 A 
ATOM     40  C   UNL A   1      42.828  30.135  35.638  1.00  0.00     0.049 A 
ATOM     41  C   UNL A   1      38.466  32.453  32.990  1.00  0.00     0.074 A 
ATOM     42  C   UNL A   1      43.151  30.657  36.879  1.00  0.00     0.029 A 
ATOM     43  N   UNL A   1      41.719  30.837  35.187  1.00  0.00    -0.354 N 
ATOM     44  N   UNL A   1      39.455  32.009  33.730  1.00  0.00    -0.248 NA
ATOM     45  C   UNL A   1      37.661  33.505  33.624  1.00  0.00     0.031 C 
ATOM     46  C   UNL A   1      42.198  31.629  37.206  1.00  0.00     0.029 A 
ATOM     47  C   UNL A   1      41.324  31.763  36.140  1.00  0.00     0.049 A 
ATOM     48  H   UNL A   1      41.278  30.697  34.319  1.00  0.00     0.167 HD
ATOM     49  C   UNL A   1      39.410  32.750  34.906  1.00  0.00     0.074 A 
ATOM     50  C   UNL A   1      38.306  33.680  34.769  1.00  0.00     0.031 C 
ATOM     51  C   UNL A   1      40.210  32.669  35.999  1.00  0.00     0.031 A 
BRANCH  38  52
ATOM     52  C   UNL A   1      44.604  28.326  35.590  1.00  0.00    -0.014 A 
ATOM     53  C   UNL A   1      44.370  27.243  36.458  1.00  0.00     0.010 A 
ATOM     54  C   UNL A   1      45.932  28.720  35.336  1.00  0.00     0.010 A 
ATOM     55  C   UNL A   1      45.436  26.605  37.100  1.00  0.00     0.020 A 
ATOM     56  C   UNL A   1      47.002  28.064  35.951  1.00  0.00     0.020 A 
ATOM     57  C   UNL A   1      46.746  27.026  36.848  1.00  0.00     0.054 A 
BRANCH  57  58
ATOM     58  S   UNL A   1      48.111  26.189  37.701  1.00  0.00     0.124 S 
ATOM     59  O   UNL A   1      48.365  27.094  38.820  1.00  0.00    -0.237 OA
ATOM     60  O   UNL A   1      47.524  24.900  38.056  1.00  0.00    -0.237 OA
ATOM     61  O   UNL A   1      49.168  26.133  36.695  1.00  0.00    -0.744 OA
ENDBRANCH  57  58
ENDBRANCH  38  52
BRANCH  39  62
ATOM     62  C   UNL A   1      36.930  32.711  30.902  1.00  0.00    -0.014 A 
ATOM     63  C   UNL A   1      35.603  32.457  31.291  1.00  0.00     0.010 A 
ATOM     64  C   UNL A   1      37.174  33.618  29.854  1.00  0.00     0.010 A 
ATOM     65  C   UNL A   1      34.541  33.088  30.638  1.00  0.00     0.020 A 
ATOM     66  C   UNL A   1      36.116  34.273  29.219  1.00  0.00     0.020 A 
ATOM     67  C   UNL A   1      34.804  33.997  29.609  1.00  0.00     0.054 A 
BRANCH  67  68
ATOM     68  S   UNL A   1      33.411  34.850  28.820  1.00  0.00     0.124 S 
ATOM     69  O   UNL A   1      34.028  36.094  28.373  1.00  0.00    -0.237 OA
ATOM     70  O   UNL A   1      33.028  33.916  27.764  1.00  0.00    -0.237 OA
ATOM     71  O   UNL A   1      32.437  34.987  29.902  1.00  0.00    -0.744 OA
ENDBRANCH  67  68
ENDBRANCH  39  62
BRANCH  51  72
ATOM     72  C   UNL A   1      39.937  33.641  37.120  1.00  0.00    -0.014 A 
ATOM     73  C   UNL A   1      39.069  33.315  38.179  1.00  0.00     0.010 A 
ATOM     74  C   UNL A   1      40.563  34.901  37.114  1.00  0.00     0.010 A 
ATOM     75  C   UNL A   1      38.788  34.254  39.176  1.00  0.00     0.020 A 
ATOM     76  C   UNL A   1      40.313  35.827  38.128  1.00  0.00     0.020 A 
ATOM     77  C   UNL A   1      39.407  35.507  39.139  1.00  0.00     0.054 A 
BRANCH  77  78
ATOM     78  S   UNL A   1      39.025  36.709  40.444  1.00  0.00     0.124 S 
ATOM     79  O   UNL A   1      40.338  36.931  41.045  1.00  0.00    -0.237 OA
ATOM     80  O   UNL A   1      38.480  37.837  39.692  1.00  0.00    -0.237 OA
ATOM     81  O   UNL A   1      38.063  36.008  41.290  1.00  0.00    -0.744 OA
ENDBRANCH  77  78
ENDBRANCH  51  72
ENDBRANCH  25  26
ENDBRANCH  18  20
ENDBRANCH  17  18
ENDBRANCH  16  17
ENDBRANCH   1  16
TORSDOF 17
ENDMDL
