MODEL 1
REMARK VINA RESULT:     -11.3      0.000      0.000
REMARK SMILES C[C@H](c1ccncc1)N1C[C@H](C(=O)OCCOC(=O)c2ccc(-c3c4nc(c(-c5ccc(S(=O)(=O)[O-])cc5)c5ccc([nH]5)c(-c5ccc(S(=O)(=O)[O-])cc5)c5nc(c(-c6ccc(S(=O)(=O)[O-])cc6)c6ccc3[nH]6)C=C5)C=C4)cc2)CC1=O
REMARK SMILES IDX 16 1 15 2 14 3 12 4 13 5 11 6 9 7 10 8 81 9 80 10 82 11 2 12
REMARK SMILES IDX 1 13 3 14 4 15 8 16 5 17 7 18 6 19 17 20 18 21 19 22 20 23
REMARK SMILES IDX 21 24 79 25 22 26 78 27 23 28 24 29 25 30 72 31 26 32 77 33
REMARK SMILES IDX 71 34 73 35 27 36 76 37 70 38 69 39 28 41 58 42 39 43 57 44
REMARK SMILES IDX 40 45 43 46 56 47 74 48 41 49 42 50 55 52 75 53 44 54 29 55
REMARK SMILES IDX 30 56 38 57 31 58 37 59 32 60 33 61 34 62 35 63 36 64 59 65
REMARK SMILES IDX 60 66 68 67 61 68 67 69 62 70 63 71 64 72 65 73 66 74 45 75
REMARK SMILES IDX 46 76 54 77 47 78 53 79 48 80 49 81 50 82 51 83 52 84
REMARK H PARENT 73 40 43 51
REMARK Flexibility Score: inf
ROOT
ATOM      1  C   UNL A   1      44.893  23.723  24.621  1.00  0.00     0.275 C 
ENDROOT
BRANCH   1   2
ATOM      2  C   UNL A   1      44.956  22.687  25.744  1.00  0.00     0.274 C 
BRANCH   2   3
ATOM      3  O   UNL A   1      43.631  22.213  26.096  1.00  0.00    -0.462 OA
BRANCH   3   4
ATOM      4  C   UNL A   1      43.347  20.920  25.782  1.00  0.00     0.311 C 
ATOM      5  O   UNL A   1      43.739  20.362  24.761  1.00  0.00    -0.252 OA
BRANCH   4   6
ATOM      6  C   UNL A   1      42.450  20.215  26.794  1.00  0.00     0.128 C 
ATOM      7  N   UNL A   1      40.318  21.067  26.338  1.00  0.00    -0.335 N 
ATOM      8  C   UNL A   1      41.396  21.177  27.325  1.00  0.00     0.136 C 
ATOM      9  C   UNL A   1      40.253  19.722  25.944  1.00  0.00     0.224 C 
ATOM     10  C   UNL A   1      41.582  19.070  26.279  1.00  0.00     0.117 C 
ATOM     11  O   UNL A   1      39.305  19.136  25.451  1.00  0.00    -0.275 OA
BRANCH   7  12
ATOM     12  C   UNL A   1      39.089  22.307  26.083  1.00  0.00     0.112 C 
ATOM     13  C   UNL A   1      39.871  23.406  27.222  1.00  0.00     0.036 C 
BRANCH  12  14
ATOM     14  C   UNL A   1      37.063  22.040  25.414  1.00  0.00    -0.023 A 
ATOM     15  C   UNL A   1      36.031  23.046  24.859  1.00  0.00     0.026 A 
ATOM     16  C   UNL A   1      36.160  20.764  25.372  1.00  0.00     0.026 A 
ATOM     17  C   UNL A   1      34.714  22.792  24.401  1.00  0.00     0.111 A 
ATOM     18  C   UNL A   1      34.856  20.610  24.856  1.00  0.00     0.111 A 
ATOM     19  N   UNL A   1      34.115  21.601  24.376  1.00  0.00    -0.265 NA
ENDBRANCH  12  14
ENDBRANCH   7  12
ENDBRANCH   4   6
ENDBRANCH   3   4
ENDBRANCH   2   3
ENDBRANCH   1   2
BRANCH   1  20
ATOM     20  O   UNL A   1      43.935  24.724  24.982  1.00  0.00    -0.458 OA
BRANCH  20  21
ATOM     21  C   UNL A   1      44.525  25.875  25.356  1.00  0.00     0.338 C 
ATOM     22  O   UNL A   1      45.518  26.386  24.865  1.00  0.00    -0.246 OA
BRANCH  21  23
ATOM     23  C   UNL A   1      43.797  26.501  26.451  1.00  0.00     0.060 A 
ATOM     24  C   UNL A   1      43.103  25.667  27.913  1.00  0.00     0.016 A 
ATOM     25  C   UNL A   1      43.518  28.256  26.218  1.00  0.00     0.016 A 
ATOM     26  C   UNL A   1      42.278  26.657  29.236  1.00  0.00     0.010 A 
ATOM     27  C   UNL A   1      42.821  29.242  27.577  1.00  0.00     0.010 A 
ATOM     28  C   UNL A   1      42.213  28.474  29.103  1.00  0.00    -0.014 A 
BRANCH  28  29
ATOM     29  C   UNL A   1      41.885  29.399  30.285  1.00  0.00     0.031 A 
ATOM     30  C   UNL A   1      42.709  29.381  31.591  1.00  0.00     0.074 A 
ATOM     31  C   UNL A   1      40.750  30.146  30.293  1.00  0.00     0.049 A 
ATOM     32  N   UNL A   1      42.412  29.868  32.779  1.00  0.00    -0.248 NA
ATOM     33  C   UNL A   1      43.990  28.663  31.608  1.00  0.00     0.031 C 
ATOM     34  C   UNL A   1      39.741  30.209  29.241  1.00  0.00     0.029 A 
ATOM     35  N   UNL A   1      40.226  31.000  31.243  1.00  0.00    -0.354 N 
ATOM     36  C   UNL A   1      43.407  29.410  33.653  1.00  0.00     0.074 A 
ATOM     37  C   UNL A   1      44.237  28.515  32.898  1.00  0.00     0.031 C 
ATOM     38  C   UNL A   1      38.784  31.086  29.542  1.00  0.00     0.029 A 
ATOM     39  C   UNL A   1      39.039  31.599  30.866  1.00  0.00     0.049 A 
ATOM     40  H   UNL A   1      40.659  31.167  32.112  1.00  0.00     0.167 HD
ATOM     41  C   UNL A   1      43.691  29.761  34.933  1.00  0.00     0.031 A 
ATOM     42  C   UNL A   1      38.207  32.455  31.488  1.00  0.00     0.031 A 
ATOM     43  C   UNL A   1      42.978  30.793  35.633  1.00  0.00     0.049 A 
ATOM     44  C   UNL A   1      38.586  32.934  32.846  1.00  0.00     0.074 A 
ATOM     45  C   UNL A   1      43.264  31.363  36.860  1.00  0.00     0.029 A 
ATOM     46  N   UNL A   1      41.861  31.444  35.133  1.00  0.00    -0.354 N 
ATOM     47  N   UNL A   1      39.583  32.535  33.597  1.00  0.00    -0.248 NA
ATOM     48  C   UNL A   1      37.768  34.003  33.424  1.00  0.00     0.031 C 
ATOM     49  C   UNL A   1      42.298  32.340  37.118  1.00  0.00     0.029 A 
ATOM     50  C   UNL A   1      41.444  32.411  36.028  1.00  0.00     0.049 A 
ATOM     51  H   UNL A   1      41.430  31.247  34.270  1.00  0.00     0.167 HD
ATOM     52  C   UNL A   1      39.531  33.326  34.731  1.00  0.00     0.074 A 
ATOM     53  C   UNL A   1      38.418  34.240  34.554  1.00  0.00     0.031 C 
ATOM     54  C   UNL A   1      40.332  33.300  35.822  1.00  0.00     0.031 A 
BRANCH  41  55
ATOM     55  C   UNL A   1      44.867  29.097  35.632  1.00  0.00    -0.014 A 
ATOM     56  C   UNL A   1      44.709  27.914  36.384  1.00  0.00     0.010 A 
ATOM     57  C   UNL A   1      46.163  29.636  35.508  1.00  0.00     0.010 A 
ATOM     58  C   UNL A   1      45.793  27.333  37.052  1.00  0.00     0.020 A 
ATOM     59  C   UNL A   1      47.261  29.032  36.138  1.00  0.00     0.020 A 
ATOM     60  C   UNL A   1      47.064  27.897  36.927  1.00  0.00     0.054 A 
BRANCH  60  61
ATOM     61  S   UNL A   1      48.454  27.104  37.786  1.00  0.00     0.124 S 
ATOM     62  O   UNL A   1      48.191  27.457  39.178  1.00  0.00    -0.237 OA
ATOM     63  O   UNL A   1      48.274  25.694  37.453  1.00  0.00    -0.237 OA
ATOM     64  O   UNL A   1      49.632  27.735  37.196  1.00  0.00    -0.744 OA
ENDBRANCH  60  61
ENDBRANCH  41  55
BRANCH  42  65
ATOM     65  C   UNL A   1      36.999  32.961  30.768  1.00  0.00    -0.014 A 
ATOM     66  C   UNL A   1      35.715  32.556  31.176  1.00  0.00     0.010 A 
ATOM     67  C   UNL A   1      37.113  33.938  29.758  1.00  0.00     0.010 A 
ATOM     68  C   UNL A   1      34.573  33.111  30.590  1.00  0.00     0.020 A 
ATOM     69  C   UNL A   1      35.971  34.519  29.192  1.00  0.00     0.020 A 
ATOM     70  C   UNL A   1      34.707  34.097  29.608  1.00  0.00     0.054 A 
BRANCH  70  71
ATOM     71  S   UNL A   1      33.206  34.858  28.927  1.00  0.00     0.124 S 
ATOM     72  O   UNL A   1      33.720  36.112  28.384  1.00  0.00    -0.237 OA
ATOM     73  O   UNL A   1      32.773  33.871  27.940  1.00  0.00    -0.237 OA
ATOM     74  O   UNL A   1      32.330  34.989  30.088  1.00  0.00    -0.744 OA
ENDBRANCH  70  71
ENDBRANCH  42  65
BRANCH  54  75
ATOM     75  C   UNL A   1      40.045  34.310  36.888  1.00  0.00    -0.014 A 
ATOM     76  C   UNL A   1      39.125  34.029  37.911  1.00  0.00     0.010 A 
ATOM     77  C   UNL A   1      40.729  35.537  36.877  1.00  0.00     0.010 A 
ATOM     78  C   UNL A   1      38.866  34.982  38.893  1.00  0.00     0.020 A 
ATOM     79  C   UNL A   1      40.496  36.478  37.877  1.00  0.00     0.020 A 
ATOM     80  C   UNL A   1      39.554  36.199  38.871  1.00  0.00     0.054 A 
BRANCH  80  81
ATOM     81  S   UNL A   1      39.227  37.401  40.183  1.00  0.00     0.124 S 
ATOM     82  O   UNL A   1      38.715  36.550  41.252  1.00  0.00    -0.237 OA
ATOM     83  O   UNL A   1      40.547  37.982  40.418  1.00  0.00    -0.237 OA
ATOM     84  O   UNL A   1      38.251  38.309  39.586  1.00  0.00    -0.744 OA
ENDBRANCH  80  81
ENDBRANCH  54  75
ENDBRANCH  28  29
ENDBRANCH  21  23
ENDBRANCH  20  21
ENDBRANCH   1  20
TORSDOF 16
ENDMDL
MODEL 2
REMARK VINA RESULT:     -11.2      5.317      8.066
REMARK SMILES C[C@H](c1ccncc1)N1C[C@H](C(=O)OCCOC(=O)c2ccc(-c3c4nc(c(-c5ccc(S(=O)(=O)[O-])cc5)c5ccc([nH]5)c(-c5ccc(S(=O)(=O)[O-])cc5)c5nc(c(-c6ccc(S(=O)(=O)[O-])cc6)c6ccc3[nH]6)C=C5)C=C4)cc2)CC1=O
REMARK SMILES IDX 16 1 15 2 14 3 12 4 13 5 11 6 9 7 10 8 81 9 80 10 82 11 2 12
REMARK SMILES IDX 1 13 3 14 4 15 8 16 5 17 7 18 6 19 17 20 18 21 19 22 20 23
REMARK SMILES IDX 21 24 79 25 22 26 78 27 23 28 24 29 25 30 72 31 26 32 77 33
REMARK SMILES IDX 71 34 73 35 27 36 76 37 70 38 69 39 28 41 58 42 39 43 57 44
REMARK SMILES IDX 40 45 43 46 56 47 74 48 41 49 42 50 55 52 75 53 44 54 29 55
REMARK SMILES IDX 30 56 38 57 31 58 37 59 32 60 33 61 34 62 35 63 36 64 59 65
REMARK SMILES IDX 60 66 68 67 61 68 67 69 62 70 63 71 64 72 65 73 66 74 45 75
REMARK SMILES IDX 46 76 54 77 47 78 53 79 48 80 49 81 50 82 51 83 52 84
REMARK H PARENT 73 40 43 51
REMARK Flexibility Score: inf
ROOT
ATOM      1  C   UNL A   1      38.036  20.071  25.025  1.00  0.00     0.275 C 
ENDROOT
BRANCH   1   2
ATOM      2  C   UNL A   1      37.025  21.116  24.552  1.00  0.00     0.274 C 
BRANCH   2   3
ATOM      3  O   UNL A   1      36.207  21.591  25.651  1.00  0.00    -0.462 OA
BRANCH   3   4
ATOM      4  C   UNL A   1      35.129  22.352  25.319  1.00  0.00     0.311 C 
ATOM      5  O   UNL A   1      34.550  22.284  24.238  1.00  0.00    -0.252 OA
BRANCH   4   6
ATOM      6  C   UNL A   1      34.712  23.347  26.396  1.00  0.00     0.128 C 
ATOM      7  N   UNL A   1      32.559  24.000  25.750  1.00  0.00    -0.335 N 
ATOM      8  C   UNL A   1      33.935  24.501  25.777  1.00  0.00     0.136 C 
ATOM      9  C   UNL A   1      32.366  23.257  26.925  1.00  0.00     0.224 C 
ATOM     10  C   UNL A   1      33.730  22.856  27.456  1.00  0.00     0.117 C 
ATOM     11  O   UNL A   1      31.310  22.990  27.472  1.00  0.00    -0.275 OA
BRANCH   7  12
ATOM     12  C   UNL A   1      31.308  24.618  24.669  1.00  0.00     0.112 C 
ATOM     13  C   UNL A   1      31.319  23.137  23.709  1.00  0.00     0.036 C 
BRANCH  12  14
ATOM     14  C   UNL A   1      30.821  26.669  24.250  1.00  0.00    -0.023 A 
ATOM     15  C   UNL A   1      29.712  27.296  23.377  1.00  0.00     0.026 A 
ATOM     16  C   UNL A   1      31.508  27.997  24.709  1.00  0.00     0.026 A 
ATOM     17  C   UNL A   1      29.426  28.669  23.172  1.00  0.00     0.111 A 
ATOM     18  C   UNL A   1      31.116  29.332  24.473  1.00  0.00     0.111 A 
ATOM     19  N   UNL A   1      30.092  29.692  23.708  1.00  0.00    -0.265 NA
ENDBRANCH  12  14
ENDBRANCH   7  12
ENDBRANCH   4   6
ENDBRANCH   3   4
ENDBRANCH   2   3
ENDBRANCH   1   2
BRANCH   1  20
ATOM     20  O   UNL A   1      38.592  20.511  26.269  1.00  0.00    -0.458 OA
BRANCH  20  21
ATOM     21  C   UNL A   1      39.930  20.646  26.203  1.00  0.00     0.338 C 
ATOM     22  O   UNL A   1      40.722  19.881  25.678  1.00  0.00    -0.246 OA
BRANCH  21  23
ATOM     23  C   UNL A   1      40.359  21.888  26.833  1.00  0.00     0.060 A 
ATOM     24  C   UNL A   1      41.606  22.068  28.147  1.00  0.00     0.016 A 
ATOM     25  C   UNL A   1      39.456  23.329  26.267  1.00  0.00     0.016 A 
ATOM     26  C   UNL A   1      42.066  23.748  28.759  1.00  0.00     0.010 A 
ATOM     27  C   UNL A   1      39.999  24.987  26.779  1.00  0.00     0.010 A 
ATOM     28  C   UNL A   1      41.313  25.227  28.005  1.00  0.00    -0.014 A 
BRANCH  28  29
ATOM     29  C   UNL A   1      41.876  26.646  28.179  1.00  0.00     0.031 A 
ATOM     30  C   UNL A   1      43.348  26.988  27.860  1.00  0.00     0.074 A 
ATOM     31  C   UNL A   1      41.145  27.617  28.786  1.00  0.00     0.049 A 
ATOM     32  N   UNL A   1      44.063  28.037  28.213  1.00  0.00    -0.248 NA
ATOM     33  C   UNL A   1      44.157  26.008  27.123  1.00  0.00     0.031 C 
ATOM     34  C   UNL A   1      39.789  27.488  29.311  1.00  0.00     0.029 A 
ATOM     35  N   UNL A   1      41.446  28.930  29.093  1.00  0.00    -0.354 N 
ATOM     36  C   UNL A   1      45.383  27.759  27.834  1.00  0.00     0.074 A 
ATOM     37  C   UNL A   1      45.396  26.410  27.345  1.00  0.00     0.031 C 
ATOM     38  C   UNL A   1      39.344  28.650  29.789  1.00  0.00     0.029 A 
ATOM     39  C   UNL A   1      40.414  29.614  29.705  1.00  0.00     0.049 A 
ATOM     40  H   UNL A   1      42.319  29.341  28.893  1.00  0.00     0.167 HD
ATOM     41  C   UNL A   1      46.478  28.561  27.789  1.00  0.00     0.031 A 
ATOM     42  C   UNL A   1      40.300  30.869  30.178  1.00  0.00     0.031 A 
ATOM     43  C   UNL A   1      46.430  29.962  28.102  1.00  0.00     0.049 A 
ATOM     44  C   UNL A   1      41.464  31.784  30.015  1.00  0.00     0.074 A 
ATOM     45  C   UNL A   1      47.414  30.920  27.938  1.00  0.00     0.029 A 
ATOM     46  N   UNL A   1      45.310  30.611  28.597  1.00  0.00    -0.354 N 
ATOM     47  N   UNL A   1      42.664  31.498  29.574  1.00  0.00    -0.248 NA
ATOM     48  C   UNL A   1      41.255  33.191  30.365  1.00  0.00     0.031 C 
ATOM     49  C   UNL A   1      46.898  32.146  28.366  1.00  0.00     0.029 A 
ATOM     50  C   UNL A   1      45.578  31.958  28.747  1.00  0.00     0.049 A 
ATOM     51  H   UNL A   1      44.452  30.177  28.810  1.00  0.00     0.167 HD
ATOM     52  C   UNL A   1      43.351  32.699  29.565  1.00  0.00     0.074 A 
ATOM     53  C   UNL A   1      42.423  33.716  30.023  1.00  0.00     0.031 C 
ATOM     54  C   UNL A   1      44.635  32.941  29.208  1.00  0.00     0.031 A 
BRANCH  41  55
ATOM     55  C   UNL A   1      47.796  27.975  27.306  1.00  0.00    -0.014 A 
ATOM     56  C   UNL A   1      48.137  27.948  25.938  1.00  0.00     0.010 A 
ATOM     57  C   UNL A   1      48.733  27.478  28.234  1.00  0.00     0.010 A 
ATOM     58  C   UNL A   1      49.338  27.374  25.505  1.00  0.00     0.020 A 
ATOM     59  C   UNL A   1      49.958  26.942  27.809  1.00  0.00     0.020 A 
ATOM     60  C   UNL A   1      50.242  26.872  26.443  1.00  0.00     0.054 A 
BRANCH  60  61
ATOM     61  S   UNL A   1      51.802  26.156  25.850  1.00  0.00     0.124 S 
ATOM     62  O   UNL A   1      52.793  26.989  26.525  1.00  0.00    -0.237 OA
ATOM     63  O   UNL A   1      51.720  24.776  26.321  1.00  0.00    -0.237 OA
ATOM     64  O   UNL A   1      51.731  26.321  24.401  1.00  0.00    -0.744 OA
ENDBRANCH  60  61
ENDBRANCH  41  55
BRANCH  42  65
ATOM     65  C   UNL A   1      38.999  31.323  30.756  1.00  0.00    -0.014 A 
ATOM     66  C   UNL A   1      38.828  31.378  32.151  1.00  0.00     0.010 A 
ATOM     67  C   UNL A   1      37.971  31.817  29.928  1.00  0.00     0.010 A 
ATOM     68  C   UNL A   1      37.661  31.912  32.707  1.00  0.00     0.020 A 
ATOM     69  C   UNL A   1      36.815  32.382  30.481  1.00  0.00     0.020 A 
ATOM     70  C   UNL A   1      36.664  32.419  31.868  1.00  0.00     0.054 A 
BRANCH  70  71
ATOM     71  S   UNL A   1      35.198  33.181  32.621  1.00  0.00     0.124 S 
ATOM     72  O   UNL A   1      35.378  32.858  34.033  1.00  0.00    -0.237 OA
ATOM     73  O   UNL A   1      35.360  34.589  32.268  1.00  0.00    -0.237 OA
ATOM     74  O   UNL A   1      34.083  32.508  31.959  1.00  0.00    -0.744 OA
ENDBRANCH  70  71
ENDBRANCH  42  65
BRANCH  54  75
ATOM     75  C   UNL A   1      45.091  34.364  29.275  1.00  0.00    -0.014 A 
ATOM     76  C   UNL A   1      45.694  34.868  30.439  1.00  0.00     0.010 A 
ATOM     77  C   UNL A   1      44.941  35.190  28.149  1.00  0.00     0.010 A 
ATOM     78  C   UNL A   1      46.110  36.196  30.487  1.00  0.00     0.020 A 
ATOM     79  C   UNL A   1      45.386  36.510  28.183  1.00  0.00     0.020 A 
ATOM     80  C   UNL A   1      45.955  37.008  29.358  1.00  0.00     0.054 A 
BRANCH  80  81
ATOM     81  S   UNL A   1      46.542  38.718  29.436  1.00  0.00     0.124 S 
ATOM     82  O   UNL A   1      47.808  38.635  28.714  1.00  0.00    -0.237 OA
ATOM     83  O   UNL A   1      45.476  39.451  28.758  1.00  0.00    -0.237 OA
ATOM     84  O   UNL A   1      46.656  38.979  30.869  1.00  0.00    -0.744 OA
ENDBRANCH  80  81
ENDBRANCH  54  75
ENDBRANCH  28  29
ENDBRANCH  21  23
ENDBRANCH  20  21
ENDBRANCH   1  20
TORSDOF 16
ENDMDL
MODEL 3
REMARK VINA RESULT:     -11.1      3.372     10.319
REMARK SMILES C[C@H](c1ccncc1)N1C[C@H](C(=O)OCCOC(=O)c2ccc(-c3c4nc(c(-c5ccc(S(=O)(=O)[O-])cc5)c5ccc([nH]5)c(-c5ccc(S(=O)(=O)[O-])cc5)c5nc(c(-c6ccc(S(=O)(=O)[O-])cc6)c6ccc3[nH]6)C=C5)C=C4)cc2)CC1=O
REMARK SMILES IDX 16 1 15 2 14 3 12 4 13 5 11 6 9 7 10 8 81 9 80 10 82 11 2 12
REMARK SMILES IDX 1 13 3 14 4 15 8 16 5 17 7 18 6 19 17 20 18 21 19 22 20 23
REMARK SMILES IDX 21 24 79 25 22 26 78 27 23 28 24 29 25 30 72 31 26 32 77 33
REMARK SMILES IDX 71 34 73 35 27 36 76 37 70 38 69 39 28 41 58 42 39 43 57 44
REMARK SMILES IDX 40 45 43 46 56 47 74 48 41 49 42 50 55 52 75 53 44 54 29 55
REMARK SMILES IDX 30 56 38 57 31 58 37 59 32 60 33 61 34 62 35 63 36 64 59 65
REMARK SMILES IDX 60 66 68 67 61 68 67 69 62 70 63 71 64 72 65 73 66 74 45 75
REMARK SMILES IDX 46 76 54 77 47 78 53 79 48 80 49 81 50 82 51 83 52 84
REMARK H PARENT 73 40 43 51
REMARK Flexibility Score: inf
ROOT
ATOM      1  C   UNL A   1      31.756  30.064  25.808  1.00  0.00     0.275 C 
ENDROOT
BRANCH   1   2
ATOM      2  C   UNL A   1      31.727  28.555  25.571  1.00  0.00     0.274 C 
BRANCH   2   3
ATOM      3  O   UNL A   1      31.420  28.246  24.188  1.00  0.00    -0.462 OA
BRANCH   3   4
ATOM      4  C   UNL A   1      31.662  26.970  23.783  1.00  0.00     0.311 C 
ATOM      5  O   UNL A   1      30.949  26.013  24.075  1.00  0.00    -0.252 OA
BRANCH   4   6
ATOM      6  C   UNL A   1      32.934  26.808  22.958  1.00  0.00     0.128 C 
ATOM      7  N   UNL A   1      33.796  24.748  23.662  1.00  0.00    -0.335 N 
ATOM      8  C   UNL A   1      34.036  26.187  23.805  1.00  0.00     0.136 C 
ATOM      9  C   UNL A   1      33.386  24.526  22.339  1.00  0.00     0.224 C 
ATOM     10  C   UNL A   1      32.880  25.842  21.777  1.00  0.00     0.117 C 
ATOM     11  O   UNL A   1      33.444  23.486  21.706  1.00  0.00    -0.275 OA
BRANCH   7  12
ATOM     12  C   UNL A   1      34.364  23.537  24.813  1.00  0.00     0.112 C 
ATOM     13  C   UNL A   1      32.796  23.479  25.621  1.00  0.00     0.036 C 
BRANCH  12  14
ATOM     14  C   UNL A   1      36.385  23.158  25.439  1.00  0.00    -0.023 A 
ATOM     15  C   UNL A   1      37.261  21.889  25.345  1.00  0.00     0.026 A 
ATOM     16  C   UNL A   1      37.419  24.076  26.169  1.00  0.00     0.026 A 
ATOM     17  C   UNL A   1      38.608  21.719  25.751  1.00  0.00     0.111 A 
ATOM     18  C   UNL A   1      38.766  23.817  26.501  1.00  0.00     0.111 A 
ATOM     19  N   UNL A   1      39.377  22.653  26.311  1.00  0.00    -0.265 NA
ENDBRANCH  12  14
ENDBRANCH   7  12
ENDBRANCH   4   6
ENDBRANCH   3   4
ENDBRANCH   2   3
ENDBRANCH   1   2
BRANCH   1  20
ATOM     20  O   UNL A   1      33.123  30.483  25.897  1.00  0.00    -0.458 OA
BRANCH  20  21
ATOM     21  C   UNL A   1      33.364  31.179  27.024  1.00  0.00     0.338 C 
ATOM     22  O   UNL A   1      32.587  31.905  27.622  1.00  0.00    -0.246 OA
BRANCH  21  23
ATOM     23  C   UNL A   1      34.720  30.939  27.503  1.00  0.00     0.060 A 
ATOM     24  C   UNL A   1      35.918  32.194  28.052  1.00  0.00     0.016 A 
ATOM     25  C   UNL A   1      35.214  29.218  27.426  1.00  0.00     0.016 A 
ATOM     26  C   UNL A   1      37.567  31.675  28.701  1.00  0.00     0.010 A 
ATOM     27  C   UNL A   1      36.784  28.701  28.182  1.00  0.00     0.010 A 
ATOM     28  C   UNL A   1      37.969  29.903  28.845  1.00  0.00    -0.014 A 
BRANCH  28  29
ATOM     29  C   UNL A   1      39.136  29.365  29.687  1.00  0.00     0.031 A 
ATOM     30  C   UNL A   1      39.505  29.974  31.058  1.00  0.00     0.074 A 
ATOM     31  C   UNL A   1      39.997  28.444  29.181  1.00  0.00     0.049 A 
ATOM     32  N   UNL A   1      40.610  29.848  31.764  1.00  0.00    -0.248 NA
ATOM     33  C   UNL A   1      38.563  30.906  31.693  1.00  0.00     0.031 C 
ATOM     34  C   UNL A   1      39.942  27.838  27.854  1.00  0.00     0.029 A 
ATOM     35  N   UNL A   1      41.125  27.856  29.717  1.00  0.00    -0.354 N 
ATOM     36  C   UNL A   1      40.507  30.759  32.823  1.00  0.00     0.074 A 
ATOM     37  C   UNL A   1      39.305  31.511  32.604  1.00  0.00     0.031 C 
ATOM     38  C   UNL A   1      40.905  26.929  27.700  1.00  0.00     0.029 A 
ATOM     39  C   UNL A   1      41.731  26.937  28.882  1.00  0.00     0.049 A 
ATOM     40  H   UNL A   1      41.467  28.073  30.616  1.00  0.00     0.167 HD
ATOM     41  C   UNL A   1      41.266  30.908  33.940  1.00  0.00     0.031 A 
ATOM     42  C   UNL A   1      42.835  26.177  29.003  1.00  0.00     0.031 A 
ATOM     43  C   UNL A   1      42.362  30.035  34.257  1.00  0.00     0.049 A 
ATOM     44  C   UNL A   1      43.596  26.253  30.281  1.00  0.00     0.074 A 
ATOM     45  C   UNL A   1      43.103  29.965  35.423  1.00  0.00     0.029 A 
ATOM     46  N   UNL A   1      42.836  29.043  33.414  1.00  0.00    -0.354 N 
ATOM     47  N   UNL A   1      43.410  27.070  31.289  1.00  0.00    -0.248 NA
ATOM     48  C   UNL A   1      44.680  25.285  30.464  1.00  0.00     0.031 C 
ATOM     49  C   UNL A   1      44.050  28.948  35.272  1.00  0.00     0.029 A 
ATOM     50  C   UNL A   1      43.862  28.354  34.033  1.00  0.00     0.049 A 
ATOM     51  H   UNL A   1      42.494  28.856  32.510  1.00  0.00     0.167 HD
ATOM     52  C   UNL A   1      44.339  26.696  32.244  1.00  0.00     0.074 A 
ATOM     53  C   UNL A   1      45.068  25.565  31.700  1.00  0.00     0.031 C 
ATOM     54  C   UNL A   1      44.568  27.238  33.464  1.00  0.00     0.031 A 
BRANCH  41  55
ATOM     55  C   UNL A   1      40.892  31.990  34.941  1.00  0.00    -0.014 A 
ATOM     56  C   UNL A   1      41.281  33.333  34.759  1.00  0.00     0.010 A 
ATOM     57  C   UNL A   1      40.106  31.673  36.067  1.00  0.00     0.010 A 
ATOM     58  C   UNL A   1      40.961  34.312  35.706  1.00  0.00     0.020 A 
ATOM     59  C   UNL A   1      39.744  32.659  36.997  1.00  0.00     0.020 A 
ATOM     60  C   UNL A   1      40.196  33.969  36.823  1.00  0.00     0.054 A 
BRANCH  60  61
ATOM     61  S   UNL A   1      39.777  35.267  38.022  1.00  0.00     0.124 S 
ATOM     62  O   UNL A   1      40.938  35.247  38.907  1.00  0.00    -0.237 OA
ATOM     63  O   UNL A   1      39.654  36.453  37.178  1.00  0.00    -0.237 OA
ATOM     64  O   UNL A   1      38.529  34.799  38.619  1.00  0.00    -0.744 OA
ENDBRANCH  60  61
ENDBRANCH  41  55
BRANCH  42  65
ATOM     65  C   UNL A   1      43.199  25.228  27.908  1.00  0.00    -0.014 A 
ATOM     66  C   UNL A   1      44.165  25.594  26.952  1.00  0.00     0.010 A 
ATOM     67  C   UNL A   1      42.683  23.917  27.882  1.00  0.00     0.010 A 
ATOM     68  C   UNL A   1      44.602  24.675  25.993  1.00  0.00     0.020 A 
ATOM     69  C   UNL A   1      43.142  22.985  26.943  1.00  0.00     0.020 A 
ATOM     70  C   UNL A   1      44.095  23.372  26.000  1.00  0.00     0.054 A 
BRANCH  70  71
ATOM     71  S   UNL A   1      44.744  22.179  24.795  1.00  0.00     0.124 S 
ATOM     72  O   UNL A   1      46.031  21.822  25.383  1.00  0.00    -0.237 OA
ATOM     73  O   UNL A   1      43.727  21.131  24.812  1.00  0.00    -0.237 OA
ATOM     74  O   UNL A   1      44.813  22.947  23.554  1.00  0.00    -0.744 OA
ENDBRANCH  70  71
ENDBRANCH  42  65
BRANCH  54  75
ATOM     75  C   UNL A   1      45.631  26.591  34.294  1.00  0.00    -0.014 A 
ATOM     76  C   UNL A   1      46.955  27.055  34.249  1.00  0.00     0.010 A 
ATOM     77  C   UNL A   1      45.288  25.532  35.150  1.00  0.00     0.010 A 
ATOM     78  C   UNL A   1      47.935  26.440  35.025  1.00  0.00     0.020 A 
ATOM     79  C   UNL A   1      46.258  24.936  35.953  1.00  0.00     0.020 A 
ATOM     80  C   UNL A   1      47.579  25.386  35.873  1.00  0.00     0.054 A 
BRANCH  80  81
ATOM     81  S   UNL A   1      48.864  24.633  36.901  1.00  0.00     0.124 S 
ATOM     82  O   UNL A   1      48.550  25.173  38.221  1.00  0.00    -0.237 OA
ATOM     83  O   UNL A   1      48.612  23.204  36.729  1.00  0.00    -0.237 OA
ATOM     84  O   UNL A   1      50.108  25.116  36.309  1.00  0.00    -0.744 OA
ENDBRANCH  80  81
ENDBRANCH  54  75
ENDBRANCH  28  29
ENDBRANCH  21  23
ENDBRANCH  20  21
ENDBRANCH   1  20
TORSDOF 16
ENDMDL
