MODEL 1
REMARK VINA RESULT:     -12.2      0.000      0.000
REMARK SMILES CC1=Nc2ncnn2[C@H](c2ccc(F)cc2)[C@@H]1C(=O)OCCOC(=O)c1ccc(-c2c3nc(c(-c4ccc(S(=O)(=O)[O-])cc4)c4ccc([nH]4)c(-c4ccc(S(=O)(=O)[O-])cc4)c4nc(c(-c5ccc(S(=O)(=O)[O-])cc5)c5ccc2[nH]5)C=C4)C=C3)cc1
REMARK SMILES IDX 22 1 21 2 20 3 18 4 19 5 17 6 1 7 2 8 3 9 4 10 9 11 5 12
REMARK SMILES IDX 8 13 6 14 7 15 10 16 11 17 16 18 12 19 15 20 13 21 14 22
REMARK SMILES IDX 23 23 24 24 25 25 26 26 27 27 85 28 28 29 84 30 29 31 30 32
REMARK SMILES IDX 31 33 78 34 32 35 83 36 77 37 79 38 33 39 82 40 76 41 75 42
REMARK SMILES IDX 34 44 64 45 45 46 63 47 46 48 49 49 62 50 80 51 47 52 48 53
REMARK SMILES IDX 61 55 81 56 50 57 35 58 36 59 44 60 37 61 43 62 38 63 39 64
REMARK SMILES IDX 40 65 41 66 42 67 65 68 66 69 74 70 67 71 73 72 68 73 69 74
REMARK SMILES IDX 70 75 71 76 72 77 51 78 52 79 60 80 53 81 59 82 54 83 55 84
REMARK SMILES IDX 56 85 57 86 58 87
REMARK H PARENT 79 43 49 54
REMARK Flexibility Score: inf
ROOT
ATOM      1  C   UNL A   1      37.970  20.543  24.808  1.00  0.00     0.275 C 
ENDROOT
BRANCH   1   2
ATOM      2  C   UNL A   1      37.185  21.749  24.305  1.00  0.00     0.274 C 
BRANCH   2   3
ATOM      3  O   UNL A   1      35.747  21.593  24.237  1.00  0.00    -0.461 OA
BRANCH   3   4
ATOM      4  C   UNL A   1      34.995  21.966  25.313  1.00  0.00     0.317 C 
ATOM      5  O   UNL A   1      35.148  21.586  26.468  1.00  0.00    -0.251 OA
BRANCH   4   6
ATOM      6  C   UNL A   1      33.831  22.809  24.890  1.00  0.00     0.173 C 
ATOM      7  C   UNL A   1      34.777  25.134  25.636  1.00  0.00     0.063 C 
ATOM      8  C   UNL A   1      33.705  24.070  25.744  1.00  0.00     0.036 C 
ATOM      9  N   UNL A   1      32.709  24.360  26.520  1.00  0.00    -0.220 NA
ATOM     10  C   UNL A   1      31.654  23.524  26.584  1.00  0.00     0.248 A 
ATOM     11  C   UNL A   1      32.532  21.960  24.849  1.00  0.00     0.161 C 
ATOM     12  N   UNL A   1      30.516  23.689  27.226  1.00  0.00    -0.198 NA
ATOM     13  N   UNL A   1      31.561  22.372  25.851  1.00  0.00    -0.221 N 
ATOM     14  C   UNL A   1      29.740  22.660  26.787  1.00  0.00     0.248 A 
ATOM     15  N   UNL A   1      30.316  21.845  25.904  1.00  0.00    -0.157 NA
BRANCH  11  16
ATOM     16  C   UNL A   1      32.602  20.422  24.774  1.00  0.00    -0.022 A 
ATOM     17  C   UNL A   1      32.443  19.795  23.524  1.00  0.00     0.009 A 
ATOM     18  C   UNL A   1      32.733  19.584  25.899  1.00  0.00     0.009 A 
ATOM     19  C   UNL A   1      32.513  18.404  23.399  1.00  0.00     0.039 A 
ATOM     20  C   UNL A   1      32.882  18.200  25.767  1.00  0.00     0.039 A 
ATOM     21  C   UNL A   1      32.772  17.622  24.515  1.00  0.00     0.123 A 
ATOM     22  F   UNL A   1      32.890  16.295  24.385  1.00  0.00    -0.207 F 
ENDBRANCH  11  16
ENDBRANCH   4   6
ENDBRANCH   3   4
ENDBRANCH   2   3
ENDBRANCH   1   2
BRANCH   1  23
ATOM     23  O   UNL A   1      38.953  20.947  25.750  1.00  0.00    -0.458 OA
BRANCH  23  24
ATOM     24  C   UNL A   1      39.951  20.045  25.849  1.00  0.00     0.338 C 
ATOM     25  O   UNL A   1      39.913  18.865  25.535  1.00  0.00    -0.246 OA
BRANCH  24  26
ATOM     26  C   UNL A   1      41.112  20.649  26.485  1.00  0.00     0.060 A 
ATOM     27  C   UNL A   1      41.019  20.790  27.872  1.00  0.00     0.016 A 
ATOM     28  C   UNL A   1      41.860  21.501  25.675  1.00  0.00     0.016 A 
ATOM     29  C   UNL A   1      41.403  21.983  28.418  1.00  0.00     0.010 A 
ATOM     30  C   UNL A   1      42.243  22.694  26.221  1.00  0.00     0.010 A 
ATOM     31  C   UNL A   1      41.920  22.953  27.559  1.00  0.00    -0.014 A 
BRANCH  31  32
ATOM     32  C   UNL A   1      42.321  24.218  28.130  1.00  0.00     0.031 A 
ATOM     33  C   UNL A   1      41.294  25.266  27.896  1.00  0.00     0.074 A 
ATOM     34  C   UNL A   1      43.393  24.283  28.940  1.00  0.00     0.049 A 
ATOM     35  N   UNL A   1      41.436  26.438  27.376  1.00  0.00    -0.248 NA
ATOM     36  C   UNL A   1      39.882  24.866  28.093  1.00  0.00     0.031 C 
ATOM     37  C   UNL A   1      44.237  23.163  29.380  1.00  0.00     0.029 A 
ATOM     38  N   UNL A   1      43.838  25.316  29.703  1.00  0.00    -0.354 N 
ATOM     39  C   UNL A   1      40.163  27.002  27.408  1.00  0.00     0.074 A 
ATOM     40  C   UNL A   1      39.237  25.925  27.615  1.00  0.00     0.031 C 
ATOM     41  C   UNL A   1      44.875  23.515  30.518  1.00  0.00     0.029 A 
ATOM     42  C   UNL A   1      44.557  24.901  30.821  1.00  0.00     0.049 A 
ATOM     43  H   UNL A   1      43.669  26.261  29.486  1.00  0.00     0.167 HD
ATOM     44  C   UNL A   1      39.990  28.333  27.621  1.00  0.00     0.031 A 
ATOM     45  C   UNL A   1      44.753  25.606  31.966  1.00  0.00     0.031 A 
ATOM     46  C   UNL A   1      41.176  29.074  27.279  1.00  0.00     0.049 A 
ATOM     47  C   UNL A   1      44.387  27.018  31.685  1.00  0.00     0.074 A 
ATOM     48  C   UNL A   1      41.936  29.193  26.132  1.00  0.00     0.029 A 
ATOM     49  N   UNL A   1      41.968  29.506  28.317  1.00  0.00    -0.354 N 
ATOM     50  N   UNL A   1      45.059  27.797  30.887  1.00  0.00    -0.248 NA
ATOM     51  C   UNL A   1      43.015  27.433  31.945  1.00  0.00     0.031 C 
ATOM     52  C   UNL A   1      43.283  29.274  26.585  1.00  0.00     0.029 A 
ATOM     53  C   UNL A   1      43.274  29.274  27.981  1.00  0.00     0.049 A 
ATOM     54  H   UNL A   1      41.650  29.913  29.155  1.00  0.00     0.167 HD
ATOM     55  C   UNL A   1      44.095  28.537  30.214  1.00  0.00     0.074 A 
ATOM     56  C   UNL A   1      42.869  28.349  30.984  1.00  0.00     0.031 C 
ATOM     57  C   UNL A   1      44.318  28.990  28.943  1.00  0.00     0.031 A 
BRANCH  44  58
ATOM     58  C   UNL A   1      38.949  28.856  28.592  1.00  0.00    -0.014 A 
ATOM     59  C   UNL A   1      38.090  29.884  28.159  1.00  0.00     0.010 A 
ATOM     60  C   UNL A   1      38.977  28.600  29.982  1.00  0.00     0.010 A 
ATOM     61  C   UNL A   1      37.404  30.690  29.075  1.00  0.00     0.020 A 
ATOM     62  C   UNL A   1      38.262  29.366  30.900  1.00  0.00     0.020 A 
ATOM     63  C   UNL A   1      37.517  30.439  30.442  1.00  0.00     0.054 A 
BRANCH  63  64
ATOM     64  S   UNL A   1      36.746  31.566  31.623  1.00  0.00     0.124 S 
ATOM     65  O   UNL A   1      37.768  32.599  31.756  1.00  0.00    -0.237 OA
ATOM     66  O   UNL A   1      35.528  31.961  30.922  1.00  0.00    -0.237 OA
ATOM     67  O   UNL A   1      36.537  30.732  32.804  1.00  0.00    -0.744 OA
ENDBRANCH  63  64
ENDBRANCH  44  58
BRANCH  45  68
ATOM     68  C   UNL A   1      44.920  25.091  33.351  1.00  0.00    -0.014 A 
ATOM     69  C   UNL A   1      44.016  24.148  33.877  1.00  0.00     0.010 A 
ATOM     70  C   UNL A   1      46.105  25.330  34.077  1.00  0.00     0.010 A 
ATOM     71  C   UNL A   1      44.318  23.429  35.048  1.00  0.00     0.020 A 
ATOM     72  C   UNL A   1      46.405  24.631  35.252  1.00  0.00     0.020 A 
ATOM     73  C   UNL A   1      45.521  23.663  35.718  1.00  0.00     0.054 A 
BRANCH  73  74
ATOM     74  S   UNL A   1      45.984  22.609  37.124  1.00  0.00     0.124 S 
ATOM     75  O   UNL A   1      45.515  21.294  36.697  1.00  0.00    -0.237 OA
ATOM     76  O   UNL A   1      47.433  22.776  37.183  1.00  0.00    -0.237 OA
ATOM     77  O   UNL A   1      45.251  23.194  38.247  1.00  0.00    -0.744 OA
ENDBRANCH  73  74
ENDBRANCH  45  68
BRANCH  57  78
ATOM     78  C   UNL A   1      45.731  28.990  28.415  1.00  0.00    -0.014 A 
ATOM     79  C   UNL A   1      46.268  27.985  27.587  1.00  0.00     0.010 A 
ATOM     80  C   UNL A   1      46.505  30.136  28.666  1.00  0.00     0.010 A 
ATOM     81  C   UNL A   1      47.565  28.108  27.063  1.00  0.00     0.020 A 
ATOM     82  C   UNL A   1      47.785  30.277  28.128  1.00  0.00     0.020 A 
ATOM     83  C   UNL A   1      48.316  29.254  27.343  1.00  0.00     0.054 A 
BRANCH  83  84
ATOM     84  S   UNL A   1      49.984  29.420  26.651  1.00  0.00     0.124 S 
ATOM     85  O   UNL A   1      50.828  28.945  27.744  1.00  0.00    -0.237 OA
ATOM     86  O   UNL A   1      49.935  28.558  25.472  1.00  0.00    -0.237 OA
ATOM     87  O   UNL A   1      50.099  30.848  26.358  1.00  0.00    -0.744 OA
ENDBRANCH  83  84
ENDBRANCH  57  78
ENDBRANCH  31  32
ENDBRANCH  24  26
ENDBRANCH  23  24
ENDBRANCH   1  23
TORSDOF 15
ENDMDL
MODEL 2
REMARK VINA RESULT:     -12.1      5.562     10.513
REMARK SMILES CC1=Nc2ncnn2[C@H](c2ccc(F)cc2)[C@@H]1C(=O)OCCOC(=O)c1ccc(-c2c3nc(c(-c4ccc(S(=O)(=O)[O-])cc4)c4ccc([nH]4)c(-c4ccc(S(=O)(=O)[O-])cc4)c4nc(c(-c5ccc(S(=O)(=O)[O-])cc5)c5ccc2[nH]5)C=C4)C=C3)cc1
REMARK SMILES IDX 22 1 21 2 20 3 18 4 19 5 17 6 1 7 2 8 3 9 4 10 9 11 5 12
REMARK SMILES IDX 8 13 6 14 7 15 10 16 11 17 16 18 12 19 15 20 13 21 14 22
REMARK SMILES IDX 23 23 24 24 25 25 26 26 27 27 85 28 28 29 84 30 29 31 30 32
REMARK SMILES IDX 31 33 78 34 32 35 83 36 77 37 79 38 33 39 82 40 76 41 75 42
REMARK SMILES IDX 34 44 64 45 45 46 63 47 46 48 49 49 62 50 80 51 47 52 48 53
REMARK SMILES IDX 61 55 81 56 50 57 35 58 36 59 44 60 37 61 43 62 38 63 39 64
REMARK SMILES IDX 40 65 41 66 42 67 65 68 66 69 74 70 67 71 73 72 68 73 69 74
REMARK SMILES IDX 70 75 71 76 72 77 51 78 52 79 60 80 53 81 59 82 54 83 55 84
REMARK SMILES IDX 56 85 57 86 58 87
REMARK H PARENT 79 43 49 54
REMARK Flexibility Score: inf
ROOT
ATOM      1  C   UNL A   1      31.798  31.224  26.989  1.00  0.00     0.275 C 
ENDROOT
BRANCH   1   2
ATOM      2  C   UNL A   1      31.870  29.702  27.058  1.00  0.00     0.274 C 
BRANCH   2   3
ATOM      3  O   UNL A   1      31.372  28.985  25.904  1.00  0.00    -0.461 OA
BRANCH   3   4
ATOM      4  C   UNL A   1      32.254  28.613  24.932  1.00  0.00     0.317 C 
ATOM      5  O   UNL A   1      33.008  29.358  24.317  1.00  0.00    -0.251 OA
BRANCH   4   6
ATOM      6  C   UNL A   1      32.092  27.164  24.584  1.00  0.00     0.173 C 
ATOM      7  C   UNL A   1      34.303  26.281  25.678  1.00  0.00     0.063 C 
ATOM      8  C   UNL A   1      33.443  26.462  24.445  1.00  0.00     0.036 C 
ATOM      9  N   UNL A   1      33.908  25.929  23.359  1.00  0.00    -0.220 NA
ATOM     10  C   UNL A   1      33.155  25.938  22.242  1.00  0.00     0.248 A 
ATOM     11  C   UNL A   1      31.182  27.002  23.338  1.00  0.00     0.161 C 
ATOM     12  N   UNL A   1      33.404  25.365  21.082  1.00  0.00    -0.198 NA
ATOM     13  N   UNL A   1      31.897  26.472  22.186  1.00  0.00    -0.221 N 
ATOM     14  C   UNL A   1      32.240  25.507  20.390  1.00  0.00     0.248 A 
ATOM     15  N   UNL A   1      31.263  26.140  21.039  1.00  0.00    -0.157 NA
BRANCH  11  16
ATOM     16  C   UNL A   1      30.239  28.142  22.903  1.00  0.00    -0.022 A 
ATOM     17  C   UNL A   1      28.877  28.066  23.250  1.00  0.00     0.009 A 
ATOM     18  C   UNL A   1      30.635  29.228  22.097  1.00  0.00     0.009 A 
ATOM     19  C   UNL A   1      27.983  29.080  22.894  1.00  0.00     0.039 A 
ATOM     20  C   UNL A   1      29.761  30.279  21.806  1.00  0.00     0.039 A 
ATOM     21  C   UNL A   1      28.441  30.197  22.209  1.00  0.00     0.123 A 
ATOM     22  F   UNL A   1      27.594  31.190  21.913  1.00  0.00    -0.207 F 
ENDBRANCH  11  16
ENDBRANCH   4   6
ENDBRANCH   3   4
ENDBRANCH   2   3
ENDBRANCH   1   2
BRANCH   1  23
ATOM     23  O   UNL A   1      33.034  31.799  27.386  1.00  0.00    -0.458 OA
BRANCH  23  24
ATOM     24  C   UNL A   1      32.891  33.091  27.743  1.00  0.00     0.338 C 
ATOM     25  O   UNL A   1      31.985  33.849  27.429  1.00  0.00    -0.246 OA
BRANCH  24  26
ATOM     26  C   UNL A   1      34.045  33.530  28.514  1.00  0.00     0.060 A 
ATOM     27  C   UNL A   1      35.170  33.863  27.756  1.00  0.00     0.016 A 
ATOM     28  C   UNL A   1      34.114  33.037  29.816  1.00  0.00     0.016 A 
ATOM     29  C   UNL A   1      36.383  33.389  28.174  1.00  0.00     0.010 A 
ATOM     30  C   UNL A   1      35.326  32.563  30.233  1.00  0.00     0.010 A 
ATOM     31  C   UNL A   1      36.419  32.659  29.362  1.00  0.00    -0.014 A 
BRANCH  31  32
ATOM     32  C   UNL A   1      37.697  32.151  29.805  1.00  0.00     0.031 A 
ATOM     33  C   UNL A   1      37.870  30.724  29.430  1.00  0.00     0.074 A 
ATOM     34  C   UNL A   1      38.629  32.995  30.285  1.00  0.00     0.049 A 
ATOM     35  N   UNL A   1      38.183  29.722  30.179  1.00  0.00    -0.248 NA
ATOM     36  C   UNL A   1      37.438  30.339  28.066  1.00  0.00     0.031 C 
ATOM     37  C   UNL A   1      38.529  34.457  30.387  1.00  0.00     0.029 A 
ATOM     38  N   UNL A   1      39.931  32.757  30.593  1.00  0.00    -0.354 N 
ATOM     39  C   UNL A   1      38.220  28.627  29.318  1.00  0.00     0.074 A 
ATOM     40  C   UNL A   1      37.523  29.015  28.125  1.00  0.00     0.031 C 
ATOM     41  C   UNL A   1      39.773  34.979  30.445  1.00  0.00     0.029 A 
ATOM     42  C   UNL A   1      40.735  33.889  30.481  1.00  0.00     0.049 A 
ATOM     43  H   UNL A   1      40.271  31.875  30.867  1.00  0.00     0.167 HD
ATOM     44  C   UNL A   1      39.116  27.621  29.499  1.00  0.00     0.031 A 
ATOM     45  C   UNL A   1      42.080  33.913  30.293  1.00  0.00     0.031 A 
ATOM     46  C   UNL A   1      39.577  27.573  30.861  1.00  0.00     0.049 A 
ATOM     47  C   UNL A   1      42.593  32.550  30.590  1.00  0.00     0.074 A 
ATOM     48  C   UNL A   1      38.947  27.446  32.084  1.00  0.00     0.029 A 
ATOM     49  N   UNL A   1      40.830  28.079  31.119  1.00  0.00    -0.354 N 
ATOM     50  N   UNL A   1      42.595  32.019  31.779  1.00  0.00    -0.248 NA
ATOM     51  C   UNL A   1      42.694  31.603  29.488  1.00  0.00     0.031 C 
ATOM     52  C   UNL A   1      39.680  28.287  32.968  1.00  0.00     0.029 A 
ATOM     53  C   UNL A   1      40.760  28.825  32.264  1.00  0.00     0.049 A 
ATOM     54  H   UNL A   1      41.636  27.929  30.575  1.00  0.00     0.167 HD
ATOM     55  C   UNL A   1      42.264  30.686  31.575  1.00  0.00     0.074 A 
ATOM     56  C   UNL A   1      42.446  30.465  30.143  1.00  0.00     0.031 C 
ATOM     57  C   UNL A   1      41.599  29.973  32.533  1.00  0.00     0.031 A 
BRANCH  44  58
ATOM     58  C   UNL A   1      39.913  27.047  28.342  1.00  0.00    -0.014 A 
ATOM     59  C   UNL A   1      40.057  25.649  28.262  1.00  0.00     0.010 A 
ATOM     60  C   UNL A   1      40.764  27.820  27.520  1.00  0.00     0.010 A 
ATOM     61  C   UNL A   1      41.081  25.069  27.504  1.00  0.00     0.020 A 
ATOM     62  C   UNL A   1      41.757  27.250  26.724  1.00  0.00     0.020 A 
ATOM     63  C   UNL A   1      41.939  25.879  26.760  1.00  0.00     0.054 A 
BRANCH  63  64
ATOM     64  S   UNL A   1      43.343  25.137  25.899  1.00  0.00     0.124 S 
ATOM     65  O   UNL A   1      44.196  24.739  27.013  1.00  0.00    -0.237 OA
ATOM     66  O   UNL A   1      42.710  24.049  25.159  1.00  0.00    -0.237 OA
ATOM     67  O   UNL A   1      43.853  26.230  25.075  1.00  0.00    -0.744 OA
ENDBRANCH  63  64
ENDBRANCH  44  58
BRANCH  45  68
ATOM     68  C   UNL A   1      42.896  34.925  29.571  1.00  0.00    -0.014 A 
ATOM     69  C   UNL A   1      42.899  34.970  28.163  1.00  0.00     0.010 A 
ATOM     70  C   UNL A   1      43.476  36.013  30.256  1.00  0.00     0.010 A 
ATOM     71  C   UNL A   1      43.406  36.085  27.473  1.00  0.00     0.020 A 
ATOM     72  C   UNL A   1      43.999  37.119  29.576  1.00  0.00     0.020 A 
ATOM     73  C   UNL A   1      43.937  37.162  28.187  1.00  0.00     0.054 A 
BRANCH  73  74
ATOM     74  S   UNL A   1      44.427  38.671  27.301  1.00  0.00     0.124 S 
ATOM     75  O   UNL A   1      43.212  39.009  26.565  1.00  0.00    -0.237 OA
ATOM     76  O   UNL A   1      44.781  39.578  28.388  1.00  0.00    -0.237 OA
ATOM     77  O   UNL A   1      45.551  38.234  26.473  1.00  0.00    -0.744 OA
ENDBRANCH  73  74
ENDBRANCH  45  68
BRANCH  57  78
ATOM     78  C   UNL A   1      41.542  30.528  33.936  1.00  0.00    -0.014 A 
ATOM     79  C   UNL A   1      42.464  30.212  34.952  1.00  0.00     0.010 A 
ATOM     80  C   UNL A   1      40.579  31.520  34.190  1.00  0.00     0.010 A 
ATOM     81  C   UNL A   1      42.393  30.843  36.204  1.00  0.00     0.020 A 
ATOM     82  C   UNL A   1      40.517  32.169  35.423  1.00  0.00     0.020 A 
ATOM     83  C   UNL A   1      41.414  31.816  36.430  1.00  0.00     0.054 A 
BRANCH  83  84
ATOM     84  S   UNL A   1      41.334  32.644  38.041  1.00  0.00     0.124 S 
ATOM     85  O   UNL A   1      41.901  33.958  37.751  1.00  0.00    -0.237 OA
ATOM     86  O   UNL A   1      39.904  32.628  38.345  1.00  0.00    -0.237 OA
ATOM     87  O   UNL A   1      42.151  31.797  38.910  1.00  0.00    -0.744 OA
ENDBRANCH  83  84
ENDBRANCH  57  78
ENDBRANCH  31  32
ENDBRANCH  24  26
ENDBRANCH  23  24
ENDBRANCH   1  23
TORSDOF 15
ENDMDL
MODEL 3
REMARK VINA RESULT:     -12.1      4.433      8.053
REMARK SMILES CC1=Nc2ncnn2[C@H](c2ccc(F)cc2)[C@@H]1C(=O)OCCOC(=O)c1ccc(-c2c3nc(c(-c4ccc(S(=O)(=O)[O-])cc4)c4ccc([nH]4)c(-c4ccc(S(=O)(=O)[O-])cc4)c4nc(c(-c5ccc(S(=O)(=O)[O-])cc5)c5ccc2[nH]5)C=C4)C=C3)cc1
REMARK SMILES IDX 22 1 21 2 20 3 18 4 19 5 17 6 1 7 2 8 3 9 4 10 9 11 5 12
REMARK SMILES IDX 8 13 6 14 7 15 10 16 11 17 16 18 12 19 15 20 13 21 14 22
REMARK SMILES IDX 23 23 24 24 25 25 26 26 27 27 85 28 28 29 84 30 29 31 30 32
REMARK SMILES IDX 31 33 78 34 32 35 83 36 77 37 79 38 33 39 82 40 76 41 75 42
REMARK SMILES IDX 34 44 64 45 45 46 63 47 46 48 49 49 62 50 80 51 47 52 48 53
REMARK SMILES IDX 61 55 81 56 50 57 35 58 36 59 44 60 37 61 43 62 38 63 39 64
REMARK SMILES IDX 40 65 41 66 42 67 65 68 66 69 74 70 67 71 73 72 68 73 69 74
REMARK SMILES IDX 70 75 71 76 72 77 51 78 52 79 60 80 53 81 59 82 54 83 55 84
REMARK SMILES IDX 56 85 57 86 58 87
REMARK H PARENT 79 43 49 54
REMARK Flexibility Score: inf
ROOT
ATOM      1  C   UNL A   1      32.710  30.169  26.628  1.00  0.00     0.275 C 
ENDROOT
BRANCH   1   2
ATOM      2  C   UNL A   1      32.340  29.659  25.239  1.00  0.00     0.274 C 
BRANCH   2   3
ATOM      3  O   UNL A   1      32.489  28.236  25.019  1.00  0.00    -0.461 OA
BRANCH   3   4
ATOM      4  C   UNL A   1      31.518  27.396  25.481  1.00  0.00     0.317 C 
ATOM      5  O   UNL A   1      30.799  27.589  26.455  1.00  0.00    -0.251 OA
BRANCH   4   6
ATOM      6  C   UNL A   1      31.523  26.101  24.727  1.00  0.00     0.173 C 
ATOM      7  C   UNL A   1      33.596  25.008  25.898  1.00  0.00     0.063 C 
ATOM      8  C   UNL A   1      32.929  25.507  24.633  1.00  0.00     0.036 C 
ATOM      9  N   UNL A   1      33.596  25.316  23.539  1.00  0.00    -0.220 NA
ATOM     10  C   UNL A   1      33.028  25.619  22.356  1.00  0.00     0.248 A 
ATOM     11  C   UNL A   1      30.834  26.273  23.347  1.00  0.00     0.161 C 
ATOM     12  N   UNL A   1      33.498  25.406  21.144  1.00  0.00    -0.198 NA
ATOM     13  N   UNL A   1      31.757  26.111  22.235  1.00  0.00    -0.221 N 
ATOM     14  C   UNL A   1      32.449  25.705  20.329  1.00  0.00     0.248 A 
ATOM     15  N   UNL A   1      31.337  26.100  20.949  1.00  0.00    -0.157 NA
BRANCH  11  16
ATOM     16  C   UNL A   1      29.887  27.461  23.087  1.00  0.00    -0.022 A 
ATOM     17  C   UNL A   1      30.399  28.615  22.465  1.00  0.00     0.009 A 
ATOM     18  C   UNL A   1      28.544  27.505  23.511  1.00  0.00     0.009 A 
ATOM     19  C   UNL A   1      29.579  29.714  22.192  1.00  0.00     0.039 A 
ATOM     20  C   UNL A   1      27.704  28.570  23.171  1.00  0.00     0.039 A 
ATOM     21  C   UNL A   1      28.230  29.666  22.512  1.00  0.00     0.123 A 
ATOM     22  F   UNL A   1      27.436  30.699  22.204  1.00  0.00    -0.207 F 
ENDBRANCH  11  16
ENDBRANCH   4   6
ENDBRANCH   3   4
ENDBRANCH   2   3
ENDBRANCH   1   2
BRANCH   1  23
ATOM     23  O   UNL A   1      34.101  30.004  26.864  1.00  0.00    -0.458 OA
BRANCH  23  24
ATOM     24  C   UNL A   1      34.612  31.032  27.571  1.00  0.00     0.338 C 
ATOM     25  O   UNL A   1      34.428  32.225  27.379  1.00  0.00    -0.246 OA
BRANCH  24  26
ATOM     26  C   UNL A   1      35.526  30.536  28.588  1.00  0.00     0.060 A 
ATOM     27  C   UNL A   1      36.188  31.523  29.321  1.00  0.00     0.016 A 
ATOM     28  C   UNL A   1      36.061  29.272  28.343  1.00  0.00     0.016 A 
ATOM     29  C   UNL A   1      37.531  31.371  29.528  1.00  0.00     0.010 A 
ATOM     30  C   UNL A   1      37.403  29.120  28.549  1.00  0.00     0.010 A 
ATOM     31  C   UNL A   1      38.133  30.207  29.046  1.00  0.00    -0.014 A 
BRANCH  31  32
ATOM     32  C   UNL A   1      39.553  30.043  29.256  1.00  0.00     0.031 A 
ATOM     33  C   UNL A   1      39.889  30.048  30.703  1.00  0.00     0.074 A 
ATOM     34  C   UNL A   1      40.353  29.711  28.226  1.00  0.00     0.049 A 
ATOM     35  N   UNL A   1      40.755  30.769  31.331  1.00  0.00    -0.248 NA
ATOM     36  C   UNL A   1      38.993  29.277  31.595  1.00  0.00     0.031 C 
ATOM     37  C   UNL A   1      39.943  29.438  26.842  1.00  0.00     0.029 A 
ATOM     38  N   UNL A   1      41.663  29.350  28.233  1.00  0.00    -0.354 N 
ATOM     39  C   UNL A   1      40.668  30.360  32.660  1.00  0.00     0.074 A 
ATOM     40  C   UNL A   1      39.427  29.650  32.794  1.00  0.00     0.031 C 
ATOM     41  C   UNL A   1      40.897  28.694  26.241  1.00  0.00     0.029 A 
ATOM     42  C   UNL A   1      42.008  28.527  27.164  1.00  0.00     0.049 A 
ATOM     43  H   UNL A   1      42.302  29.641  28.922  1.00  0.00     0.167 HD
ATOM     44  C   UNL A   1      41.768  30.321  33.456  1.00  0.00     0.031 A 
ATOM     45  C   UNL A   1      43.061  27.670  27.108  1.00  0.00     0.031 A 
ATOM     46  C   UNL A   1      42.799  31.195  32.963  1.00  0.00     0.049 A 
ATOM     47  C   UNL A   1      43.980  28.024  28.222  1.00  0.00     0.074 A 
ATOM     48  C   UNL A   1      42.857  32.546  32.678  1.00  0.00     0.029 A 
ATOM     49  N   UNL A   1      43.855  30.612  32.303  1.00  0.00    -0.354 N 
ATOM     50  N   UNL A   1      44.663  29.131  28.274  1.00  0.00    -0.248 NA
ATOM     51  C   UNL A   1      43.799  27.344  29.497  1.00  0.00     0.031 C 
ATOM     52  C   UNL A   1      43.674  32.645  31.517  1.00  0.00     0.029 A 
ATOM     53  C   UNL A   1      44.133  31.366  31.195  1.00  0.00     0.049 A 
ATOM     54  H   UNL A   1      44.330  29.796  32.581  1.00  0.00     0.167 HD
ATOM     55  C   UNL A   1      44.625  29.510  29.610  1.00  0.00     0.074 A 
ATOM     56  C   UNL A   1      44.178  28.319  30.329  1.00  0.00     0.031 C 
ATOM     57  C   UNL A   1      44.681  30.828  29.968  1.00  0.00     0.031 A 
BRANCH  44  58
ATOM     58  C   UNL A   1      42.060  29.133  34.353  1.00  0.00    -0.014 A 
ATOM     59  C   UNL A   1      42.443  27.920  33.750  1.00  0.00     0.010 A 
ATOM     60  C   UNL A   1      41.686  29.071  35.716  1.00  0.00     0.010 A 
ATOM     61  C   UNL A   1      42.331  26.703  34.433  1.00  0.00     0.020 A 
ATOM     62  C   UNL A   1      41.615  27.871  36.420  1.00  0.00     0.020 A 
ATOM     63  C   UNL A   1      41.893  26.688  35.757  1.00  0.00     0.054 A 
BRANCH  63  64
ATOM     64  S   UNL A   1      41.615  25.108  36.587  1.00  0.00     0.124 S 
ATOM     65  O   UNL A   1      41.457  24.203  35.453  1.00  0.00    -0.237 OA
ATOM     66  O   UNL A   1      42.840  24.949  37.365  1.00  0.00    -0.237 OA
ATOM     67  O   UNL A   1      40.408  25.345  37.376  1.00  0.00    -0.744 OA
ENDBRANCH  63  64
ENDBRANCH  44  58
BRANCH  45  68
ATOM     68  C   UNL A   1      43.167  26.381  26.374  1.00  0.00    -0.014 A 
ATOM     69  C   UNL A   1      44.215  26.162  25.458  1.00  0.00     0.010 A 
ATOM     70  C   UNL A   1      42.390  25.266  26.750  1.00  0.00     0.010 A 
ATOM     71  C   UNL A   1      44.510  24.870  24.989  1.00  0.00     0.020 A 
ATOM     72  C   UNL A   1      42.667  23.979  26.273  1.00  0.00     0.020 A 
ATOM     73  C   UNL A   1      43.745  23.783  25.415  1.00  0.00     0.054 A 
BRANCH  73  74
ATOM     74  S   UNL A   1      44.240  22.098  24.946  1.00  0.00     0.124 S 
ATOM     75  O   UNL A   1      43.060  21.316  25.303  1.00  0.00    -0.237 OA
ATOM     76  O   UNL A   1      44.503  22.230  23.516  1.00  0.00    -0.237 OA
ATOM     77  O   UNL A   1      45.423  21.846  25.769  1.00  0.00    -0.744 OA
ENDBRANCH  73  74
ENDBRANCH  45  68
BRANCH  57  78
ATOM     78  C   UNL A   1      45.136  31.836  28.941  1.00  0.00    -0.014 A 
ATOM     79  C   UNL A   1      46.470  32.254  28.779  1.00  0.00     0.010 A 
ATOM     80  C   UNL A   1      44.177  32.277  28.013  1.00  0.00     0.010 A 
ATOM     81  C   UNL A   1      46.823  33.128  27.738  1.00  0.00     0.020 A 
ATOM     82  C   UNL A   1      44.525  33.125  26.961  1.00  0.00     0.020 A 
ATOM     83  C   UNL A   1      45.844  33.560  26.839  1.00  0.00     0.054 A 
BRANCH  83  84
ATOM     84  S   UNL A   1      46.304  34.674  25.484  1.00  0.00     0.124 S 
ATOM     85  O   UNL A   1      45.380  34.282  24.424  1.00  0.00    -0.237 OA
ATOM     86  O   UNL A   1      46.078  35.998  26.059  1.00  0.00    -0.237 OA
ATOM     87  O   UNL A   1      47.709  34.352  25.229  1.00  0.00    -0.744 OA
ENDBRANCH  83  84
ENDBRANCH  57  78
ENDBRANCH  31  32
ENDBRANCH  24  26
ENDBRANCH  23  24
ENDBRANCH   1  23
TORSDOF 15
ENDMDL
