MODEL 1
REMARK VINA RESULT:     -11.0      0.000      0.000
REMARK SMILES Cc1sc(-c2ccco2)nc1C(=O)N[C@@H](C(=O)OCCOC(=O)c1ccc(-c2c3nc(c(-c4ccc(S(=O)(=O)[O-])cc4)c4ccc([nH]4)c(-c4ccc(S(=O)(=O)[O-])cc4)c4nc(c(-c5ccc(S(=O)(=O)[O-])cc5)c5ccc2[nH]5)C=C4)C=C3)cc1)C(C)C
REMARK SMILES IDX 19 1 18 2 16 3 17 4 15 5 14 6 12 7 13 8 11 10 1 11 2 12 3 13
REMARK SMILES IDX 4 14 10 15 5 16 6 17 9 18 7 19 8 20 84 21 85 22 86 23 20 24
REMARK SMILES IDX 21 25 22 26 23 27 24 28 25 29 83 30 26 31 82 32 27 33 28 34
REMARK SMILES IDX 29 35 76 36 30 37 81 38 75 39 77 40 31 41 80 42 74 43 73 44
REMARK SMILES IDX 32 46 62 47 43 48 61 49 44 50 47 51 60 52 78 53 45 54 46 55
REMARK SMILES IDX 59 57 79 58 48 59 33 60 34 61 42 62 35 63 41 64 36 65 37 66
REMARK SMILES IDX 38 67 39 68 40 69 63 70 64 71 72 72 65 73 71 74 66 75 67 76
REMARK SMILES IDX 68 77 69 78 70 79 49 80 50 81 58 82 51 83 57 84 52 85 53 86
REMARK SMILES IDX 54 87 55 88 56 89
REMARK H PARENT 14 9 77 45 47 56
REMARK Flexibility Score: inf
ROOT
ATOM      1  C   UNL A   1      32.937  29.015  25.702  1.00  0.00     0.274 C 
ENDROOT
BRANCH   1   2
ATOM      2  O   UNL A   1      32.927  29.533  24.353  1.00  0.00    -0.461 OA
BRANCH   2   3
ATOM      3  C   UNL A   1      33.135  28.647  23.332  1.00  0.00     0.329 C 
ATOM      4  O   UNL A   1      34.174  28.576  22.689  1.00  0.00    -0.250 OA
BRANCH   3   5
ATOM      5  C   UNL A   1      31.889  27.755  23.059  1.00  0.00     0.195 C 
BRANCH   5   6
ATOM      6  N   UNL A   1      32.076  27.107  21.770  1.00  0.00    -0.337 N 
ATOM      7  C   UNL A   1      32.714  25.932  21.452  1.00  0.00     0.271 C 
ATOM      8  O   UNL A   1      33.006  25.783  20.264  1.00  0.00    -0.267 OA
ATOM      9  H   UNL A   1      31.684  27.585  21.004  1.00  0.00     0.164 HD
BRANCH   7  10
ATOM     10  C   UNL A   1      32.939  24.845  22.432  1.00  0.00     0.142 A 
ATOM     11  C   UNL A   1      30.581  24.076  23.397  1.00  0.00     0.059 C 
ATOM     12  C   UNL A   1      32.055  24.058  23.173  1.00  0.00     0.035 A 
ATOM     13  S   UNL A   1      32.937  22.838  24.025  1.00  0.00    -0.115 S 
ATOM     14  C   UNL A   1      34.388  23.647  23.662  1.00  0.00     0.160 A 
ATOM     15  N   UNL A   1      34.280  24.630  22.803  1.00  0.00    -0.227 NA
BRANCH  14  16
ATOM     16  C   UNL A   1      35.606  23.346  24.350  1.00  0.00     0.162 A 
ATOM     17  C   UNL A   1      36.102  23.968  25.485  1.00  0.00     0.053 A 
ATOM     18  O   UNL A   1      36.446  22.316  24.013  1.00  0.00    -0.462 OA
ATOM     19  C   UNL A   1      37.276  23.275  25.864  1.00  0.00     0.043 A 
ATOM     20  C   UNL A   1      37.454  22.294  24.919  1.00  0.00     0.196 A 
ENDBRANCH  14  16
ENDBRANCH   7  10
ENDBRANCH   5   6
BRANCH   5  21
ATOM     21  C   UNL A   1      30.542  28.497  23.186  1.00  0.00     0.017 C 
ATOM     22  C   UNL A   1      30.294  29.431  21.995  1.00  0.00     0.010 C 
ATOM     23  C   UNL A   1      29.379  27.491  23.242  1.00  0.00     0.010 C 
ENDBRANCH   5  21
ENDBRANCH   3   5
ENDBRANCH   2   3
ENDBRANCH   1   2
BRANCH   1  24
ATOM     24  C   UNL A   1      32.930  30.151  26.721  1.00  0.00     0.275 C 
BRANCH  24  25
ATOM     25  O   UNL A   1      33.697  29.738  27.860  1.00  0.00    -0.458 OA
BRANCH  25  26
ATOM     26  C   UNL A   1      34.560  30.646  28.363  1.00  0.00     0.338 C 
ATOM     27  O   UNL A   1      34.298  31.761  28.798  1.00  0.00    -0.246 OA
BRANCH  26  28
ATOM     28  C   UNL A   1      35.904  30.055  28.391  1.00  0.00     0.060 A 
ATOM     29  C   UNL A   1      36.401  29.584  29.605  1.00  0.00     0.016 A 
ATOM     30  C   UNL A   1      36.721  30.071  27.264  1.00  0.00     0.016 A 
ATOM     31  C   UNL A   1      37.735  29.219  29.727  1.00  0.00     0.010 A 
ATOM     32  C   UNL A   1      38.037  29.606  27.365  1.00  0.00     0.010 A 
ATOM     33  C   UNL A   1      38.572  29.212  28.607  1.00  0.00    -0.014 A 
BRANCH  33  34
ATOM     34  C   UNL A   1      40.013  28.871  28.755  1.00  0.00     0.031 A 
ATOM     35  C   UNL A   1      40.968  29.907  29.285  1.00  0.00     0.074 A 
ATOM     36  C   UNL A   1      40.471  27.636  28.466  1.00  0.00     0.049 A 
ATOM     37  N   UNL A   1      42.276  29.902  29.284  1.00  0.00    -0.248 NA
ATOM     38  C   UNL A   1      40.373  31.113  29.886  1.00  0.00     0.031 C 
ATOM     39  C   UNL A   1      39.654  26.498  28.035  1.00  0.00     0.029 A 
ATOM     40  N   UNL A   1      41.747  27.127  28.504  1.00  0.00    -0.354 N 
ATOM     41  C   UNL A   1      42.659  31.132  29.808  1.00  0.00     0.074 A 
ATOM     42  C   UNL A   1      41.445  31.849  30.136  1.00  0.00     0.031 C 
ATOM     43  C   UNL A   1      40.439  25.419  27.891  1.00  0.00     0.029 A 
ATOM     44  C   UNL A   1      41.827  25.810  28.114  1.00  0.00     0.049 A 
ATOM     45  H   UNL A   1      42.530  27.654  28.782  1.00  0.00     0.167 HD
ATOM     46  C   UNL A   1      43.908  31.621  29.986  1.00  0.00     0.031 A 
ATOM     47  C   UNL A   1      42.895  25.017  27.902  1.00  0.00     0.031 A 
ATOM     48  C   UNL A   1      45.110  30.883  29.706  1.00  0.00     0.049 A 
ATOM     49  C   UNL A   1      44.274  25.593  28.063  1.00  0.00     0.074 A 
ATOM     50  C   UNL A   1      46.425  31.297  29.829  1.00  0.00     0.029 A 
ATOM     51  N   UNL A   1      45.142  29.568  29.270  1.00  0.00    -0.354 N 
ATOM     52  N   UNL A   1      44.623  26.796  28.452  1.00  0.00    -0.248 NA
ATOM     53  C   UNL A   1      45.402  24.714  27.727  1.00  0.00     0.031 C 
ATOM     54  C   UNL A   1      47.253  30.238  29.438  1.00  0.00     0.029 A 
ATOM     55  C   UNL A   1      46.453  29.154  29.111  1.00  0.00     0.049 A 
ATOM     56  H   UNL A   1      44.350  29.010  29.098  1.00  0.00     0.167 HD
ATOM     57  C   UNL A   1      46.012  26.819  28.405  1.00  0.00     0.074 A 
ATOM     58  C   UNL A   1      46.439  25.503  27.976  1.00  0.00     0.031 C 
ATOM     59  C   UNL A   1      46.856  27.841  28.682  1.00  0.00     0.031 A 
BRANCH  46  60
ATOM     60  C   UNL A   1      44.032  33.049  30.441  1.00  0.00    -0.014 A 
ATOM     61  C   UNL A   1      44.102  34.114  29.528  1.00  0.00     0.010 A 
ATOM     62  C   UNL A   1      44.066  33.324  31.821  1.00  0.00     0.010 A 
ATOM     63  C   UNL A   1      44.243  35.428  29.987  1.00  0.00     0.020 A 
ATOM     64  C   UNL A   1      44.184  34.636  32.284  1.00  0.00     0.020 A 
ATOM     65  C   UNL A   1      44.291  35.679  31.363  1.00  0.00     0.054 A 
BRANCH  65  66
ATOM     66  S   UNL A   1      44.465  37.391  31.937  1.00  0.00     0.124 S 
ATOM     67  O   UNL A   1      45.917  37.541  31.994  1.00  0.00    -0.237 OA
ATOM     68  O   UNL A   1      43.796  38.155  30.888  1.00  0.00    -0.237 OA
ATOM     69  O   UNL A   1      43.787  37.391  33.232  1.00  0.00    -0.744 OA
ENDBRANCH  65  66
ENDBRANCH  46  60
BRANCH  47  70
ATOM     70  C   UNL A   1      42.701  23.619  27.430  1.00  0.00    -0.014 A 
ATOM     71  C   UNL A   1      42.747  23.311  26.060  1.00  0.00     0.010 A 
ATOM     72  C   UNL A   1      42.486  22.583  28.359  1.00  0.00     0.010 A 
ATOM     73  C   UNL A   1      42.577  21.992  25.627  1.00  0.00     0.020 A 
ATOM     74  C   UNL A   1      42.345  21.260  27.932  1.00  0.00     0.020 A 
ATOM     75  C   UNL A   1      42.381  20.975  26.566  1.00  0.00     0.054 A 
BRANCH  75  76
ATOM     76  S   UNL A   1      42.236  19.258  25.994  1.00  0.00     0.124 S 
ATOM     77  O   UNL A   1      43.154  19.238  24.860  1.00  0.00    -0.237 OA
ATOM     78  O   UNL A   1      42.658  18.493  27.165  1.00  0.00    -0.237 OA
ATOM     79  O   UNL A   1      40.819  19.133  25.657  1.00  0.00    -0.744 OA
ENDBRANCH  75  76
ENDBRANCH  47  70
BRANCH  59  80
ATOM     80  C   UNL A   1      48.328  27.569  28.548  1.00  0.00    -0.014 A 
ATOM     81  C   UNL A   1      49.048  26.970  29.596  1.00  0.00     0.010 A 
ATOM     82  C   UNL A   1      48.985  27.871  27.341  1.00  0.00     0.010 A 
ATOM     83  C   UNL A   1      50.411  26.698  29.447  1.00  0.00     0.020 A 
ATOM     84  C   UNL A   1      50.341  27.583  27.183  1.00  0.00     0.020 A 
ATOM     85  C   UNL A   1      51.049  27.010  28.242  1.00  0.00     0.054 A 
BRANCH  85  86
ATOM     86  S   UNL A   1      52.808  26.608  28.052  1.00  0.00     0.124 S 
ATOM     87  O   UNL A   1      53.326  27.813  27.409  1.00  0.00    -0.237 OA
ATOM     88  O   UNL A   1      53.242  26.394  29.431  1.00  0.00    -0.237 OA
ATOM     89  O   UNL A   1      52.798  25.409  27.216  1.00  0.00    -0.744 OA
ENDBRANCH  85  86
ENDBRANCH  59  80
ENDBRANCH  33  34
ENDBRANCH  26  28
ENDBRANCH  25  26
ENDBRANCH  24  25
ENDBRANCH   1  24
TORSDOF 18
ENDMDL
MODEL 2
REMARK VINA RESULT:     -10.5      3.909      9.943
REMARK SMILES Cc1sc(-c2ccco2)nc1C(=O)N[C@@H](C(=O)OCCOC(=O)c1ccc(-c2c3nc(c(-c4ccc(S(=O)(=O)[O-])cc4)c4ccc([nH]4)c(-c4ccc(S(=O)(=O)[O-])cc4)c4nc(c(-c5ccc(S(=O)(=O)[O-])cc5)c5ccc2[nH]5)C=C4)C=C3)cc1)C(C)C
REMARK SMILES IDX 19 1 18 2 16 3 17 4 15 5 14 6 12 7 13 8 11 10 1 11 2 12 3 13
REMARK SMILES IDX 4 14 10 15 5 16 6 17 9 18 7 19 8 20 84 21 85 22 86 23 20 24
REMARK SMILES IDX 21 25 22 26 23 27 24 28 25 29 83 30 26 31 82 32 27 33 28 34
REMARK SMILES IDX 29 35 76 36 30 37 81 38 75 39 77 40 31 41 80 42 74 43 73 44
REMARK SMILES IDX 32 46 62 47 43 48 61 49 44 50 47 51 60 52 78 53 45 54 46 55
REMARK SMILES IDX 59 57 79 58 48 59 33 60 34 61 42 62 35 63 41 64 36 65 37 66
REMARK SMILES IDX 38 67 39 68 40 69 63 70 64 71 72 72 65 73 71 74 66 75 67 76
REMARK SMILES IDX 68 77 69 78 70 79 49 80 50 81 58 82 51 83 57 84 52 85 53 86
REMARK SMILES IDX 54 87 55 88 56 89
REMARK H PARENT 14 9 77 45 47 56
REMARK Flexibility Score: inf
ROOT
ATOM      1  C   UNL A   1      35.793  23.447  26.048  1.00  0.00     0.274 C 
ENDROOT
BRANCH   1   2
ATOM      2  O   UNL A   1      35.404  22.158  26.573  1.00  0.00    -0.461 OA
BRANCH   2   3
ATOM      3  C   UNL A   1      34.107  22.003  26.978  1.00  0.00     0.329 C 
ATOM      4  O   UNL A   1      33.778  21.614  28.091  1.00  0.00    -0.250 OA
BRANCH   3   5
ATOM      5  C   UNL A   1      33.090  22.354  25.851  1.00  0.00     0.195 C 
BRANCH   5   6
ATOM      6  N   UNL A   1      31.755  22.321  26.429  1.00  0.00    -0.337 N 
ATOM      7  C   UNL A   1      30.847  23.334  26.619  1.00  0.00     0.271 C 
ATOM      8  O   UNL A   1      29.935  23.098  27.415  1.00  0.00    -0.267 OA
ATOM      9  H   UNL A   1      31.454  21.434  26.731  1.00  0.00     0.164 HD
BRANCH   7  10
ATOM     10  C   UNL A   1      30.866  24.593  25.840  1.00  0.00     0.142 A 
ATOM     11  C   UNL A   1      30.410  24.012  23.283  1.00  0.00     0.059 C 
ATOM     12  C   UNL A   1      30.628  24.860  24.490  1.00  0.00     0.035 A 
ATOM     13  S   UNL A   1      30.642  26.570  24.223  1.00  0.00    -0.115 S 
ATOM     14  C   UNL A   1      31.308  26.795  25.772  1.00  0.00     0.160 A 
ATOM     15  N   UNL A   1      31.334  25.727  26.530  1.00  0.00    -0.227 NA
BRANCH  14  16
ATOM     16  C   UNL A   1      31.908  28.036  26.156  1.00  0.00     0.162 A 
ATOM     17  C   UNL A   1      31.734  28.717  27.351  1.00  0.00     0.053 A 
ATOM     18  O   UNL A   1      32.827  28.714  25.396  1.00  0.00    -0.462 OA
ATOM     19  C   UNL A   1      32.596  29.838  27.325  1.00  0.00     0.043 A 
ATOM     20  C   UNL A   1      33.220  29.803  26.102  1.00  0.00     0.196 A 
ENDBRANCH  14  16
ENDBRANCH   7  10
ENDBRANCH   5   6
BRANCH   5  21
ATOM     21  C   UNL A   1      33.234  21.489  24.581  1.00  0.00     0.017 C 
ATOM     22  C   UNL A   1      32.067  20.505  24.430  1.00  0.00     0.010 C 
ATOM     23  C   UNL A   1      33.260  22.380  23.327  1.00  0.00     0.010 C 
ENDBRANCH   5  21
ENDBRANCH   3   5
ENDBRANCH   2   3
ENDBRANCH   1   2
BRANCH   1  24
ATOM     24  C   UNL A   1      36.715  23.287  24.842  1.00  0.00     0.275 C 
BRANCH  24  25
ATOM     25  O   UNL A   1      37.918  24.027  25.095  1.00  0.00    -0.458 OA
BRANCH  25  26
ATOM     26  C   UNL A   1      38.811  23.452  25.927  1.00  0.00     0.338 C 
ATOM     27  O   UNL A   1      39.167  22.279  25.943  1.00  0.00    -0.246 OA
BRANCH  26  28
ATOM     28  C   UNL A   1      39.383  24.489  26.796  1.00  0.00     0.060 A 
ATOM     29  C   UNL A   1      39.021  24.507  28.141  1.00  0.00     0.016 A 
ATOM     30  C   UNL A   1      40.175  25.508  26.274  1.00  0.00     0.016 A 
ATOM     31  C   UNL A   1      39.361  25.585  28.948  1.00  0.00     0.010 A 
ATOM     32  C   UNL A   1      40.603  26.542  27.114  1.00  0.00     0.010 A 
ATOM     33  C   UNL A   1      40.168  26.613  28.452  1.00  0.00    -0.014 A 
BRANCH  33  34
ATOM     34  C   UNL A   1      40.484  27.791  29.306  1.00  0.00     0.031 A 
ATOM     35  C   UNL A   1      41.783  27.827  30.066  1.00  0.00     0.074 A 
ATOM     36  C   UNL A   1      39.648  28.847  29.375  1.00  0.00     0.049 A 
ATOM     37  N   UNL A   1      42.156  28.633  31.027  1.00  0.00    -0.248 NA
ATOM     38  C   UNL A   1      42.791  26.817  29.706  1.00  0.00     0.031 C 
ATOM     39  C   UNL A   1      38.400  29.002  28.622  1.00  0.00     0.029 A 
ATOM     40  N   UNL A   1      39.732  30.004  30.111  1.00  0.00    -0.354 N 
ATOM     41  C   UNL A   1      43.404  28.179  31.437  1.00  0.00     0.074 A 
ATOM     42  C   UNL A   1      43.734  27.040  30.609  1.00  0.00     0.031 C 
ATOM     43  C   UNL A   1      37.861  30.199  28.902  1.00  0.00     0.029 A 
ATOM     44  C   UNL A   1      38.663  30.851  29.931  1.00  0.00     0.049 A 
ATOM     45  H   UNL A   1      40.485  30.208  30.711  1.00  0.00     0.167 HD
ATOM     46  C   UNL A   1      44.194  28.661  32.426  1.00  0.00     0.031 A 
ATOM     47  C   UNL A   1      38.330  31.995  30.560  1.00  0.00     0.031 A 
ATOM     48  C   UNL A   1      43.882  29.824  33.211  1.00  0.00     0.049 A 
ATOM     49  C   UNL A   1      39.198  32.490  31.683  1.00  0.00     0.074 A 
ATOM     50  C   UNL A   1      44.605  30.382  34.252  1.00  0.00     0.029 A 
ATOM     51  N   UNL A   1      42.766  30.625  33.024  1.00  0.00    -0.354 N 
ATOM     52  N   UNL A   1      40.320  31.987  32.138  1.00  0.00    -0.248 NA
ATOM     53  C   UNL A   1      38.737  33.689  32.397  1.00  0.00     0.031 C 
ATOM     54  C   UNL A   1      43.907  31.504  34.714  1.00  0.00     0.029 A 
ATOM     55  C   UNL A   1      42.774  31.667  33.933  1.00  0.00     0.049 A 
ATOM     56  H   UNL A   1      42.071  30.474  32.344  1.00  0.00     0.167 HD
ATOM     57  C   UNL A   1      40.699  32.806  33.194  1.00  0.00     0.074 A 
ATOM     58  C   UNL A   1      39.701  33.852  33.293  1.00  0.00     0.031 C 
ATOM     59  C   UNL A   1      41.771  32.696  34.015  1.00  0.00     0.031 A 
BRANCH  46  60
ATOM     60  C   UNL A   1      45.438  27.884  32.756  1.00  0.00    -0.014 A 
ATOM     61  C   UNL A   1      46.690  28.228  32.220  1.00  0.00     0.010 A 
ATOM     62  C   UNL A   1      45.345  26.790  33.637  1.00  0.00     0.010 A 
ATOM     63  C   UNL A   1      47.822  27.468  32.530  1.00  0.00     0.020 A 
ATOM     64  C   UNL A   1      46.477  26.041  33.967  1.00  0.00     0.020 A 
ATOM     65  C   UNL A   1      47.706  26.374  33.395  1.00  0.00     0.054 A 
BRANCH  65  66
ATOM     66  S   UNL A   1      49.188  25.406  33.791  1.00  0.00     0.124 S 
ATOM     67  O   UNL A   1      50.103  26.440  34.266  1.00  0.00    -0.237 OA
ATOM     68  O   UNL A   1      48.707  24.477  34.809  1.00  0.00    -0.237 OA
ATOM     69  O   UNL A   1      49.550  24.792  32.515  1.00  0.00    -0.744 OA
ENDBRANCH  65  66
ENDBRANCH  46  60
BRANCH  47  70
ATOM     70  C   UNL A   1      37.072  32.703  30.197  1.00  0.00    -0.014 A 
ATOM     71  C   UNL A   1      35.912  32.549  30.975  1.00  0.00     0.010 A 
ATOM     72  C   UNL A   1      37.036  33.553  29.075  1.00  0.00     0.010 A 
ATOM     73  C   UNL A   1      34.738  33.229  30.635  1.00  0.00     0.020 A 
ATOM     74  C   UNL A   1      35.875  34.256  28.750  1.00  0.00     0.020 A 
ATOM     75  C   UNL A   1      34.728  34.081  29.527  1.00  0.00     0.054 A 
BRANCH  75  76
ATOM     76  S   UNL A   1      33.219  35.013  29.141  1.00  0.00     0.124 S 
ATOM     77  O   UNL A   1      32.530  35.020  30.427  1.00  0.00    -0.237 OA
ATOM     78  O   UNL A   1      33.743  36.302  28.695  1.00  0.00    -0.237 OA
ATOM     79  O   UNL A   1      32.587  34.213  28.093  1.00  0.00    -0.744 OA
ENDBRANCH  75  76
ENDBRANCH  47  70
BRANCH  59  80
ATOM     80  C   UNL A   1      41.930  33.746  35.078  1.00  0.00    -0.014 A 
ATOM     81  C   UNL A   1      41.359  33.576  36.351  1.00  0.00     0.010 A 
ATOM     82  C   UNL A   1      42.703  34.891  34.815  1.00  0.00     0.010 A 
ATOM     83  C   UNL A   1      41.538  34.548  37.338  1.00  0.00     0.020 A 
ATOM     84  C   UNL A   1      42.901  35.855  35.805  1.00  0.00     0.020 A 
ATOM     85  C   UNL A   1      42.306  35.684  37.058  1.00  0.00     0.054 A 
BRANCH  85  86
ATOM     86  S   UNL A   1      42.565  36.913  38.367  1.00  0.00     0.124 S 
ATOM     87  O   UNL A   1      43.402  37.901  37.692  1.00  0.00    -0.237 OA
ATOM     88  O   UNL A   1      41.204  37.346  38.677  1.00  0.00    -0.237 OA
ATOM     89  O   UNL A   1      43.226  36.153  39.425  1.00  0.00    -0.744 OA
ENDBRANCH  85  86
ENDBRANCH  59  80
ENDBRANCH  33  34
ENDBRANCH  26  28
ENDBRANCH  25  26
ENDBRANCH  24  25
ENDBRANCH   1  24
TORSDOF 18
ENDMDL
MODEL 3
REMARK VINA RESULT:     -10.4      1.904      2.608
REMARK SMILES Cc1sc(-c2ccco2)nc1C(=O)N[C@@H](C(=O)OCCOC(=O)c1ccc(-c2c3nc(c(-c4ccc(S(=O)(=O)[O-])cc4)c4ccc([nH]4)c(-c4ccc(S(=O)(=O)[O-])cc4)c4nc(c(-c5ccc(S(=O)(=O)[O-])cc5)c5ccc2[nH]5)C=C4)C=C3)cc1)C(C)C
REMARK SMILES IDX 19 1 18 2 16 3 17 4 15 5 14 6 12 7 13 8 11 10 1 11 2 12 3 13
REMARK SMILES IDX 4 14 10 15 5 16 6 17 9 18 7 19 8 20 84 21 85 22 86 23 20 24
REMARK SMILES IDX 21 25 22 26 23 27 24 28 25 29 83 30 26 31 82 32 27 33 28 34
REMARK SMILES IDX 29 35 76 36 30 37 81 38 75 39 77 40 31 41 80 42 74 43 73 44
REMARK SMILES IDX 32 46 62 47 43 48 61 49 44 50 47 51 60 52 78 53 45 54 46 55
REMARK SMILES IDX 59 57 79 58 48 59 33 60 34 61 42 62 35 63 41 64 36 65 37 66
REMARK SMILES IDX 38 67 39 68 40 69 63 70 64 71 72 72 65 73 71 74 66 75 67 76
REMARK SMILES IDX 68 77 69 78 70 79 49 80 50 81 58 82 51 83 57 84 52 85 53 86
REMARK SMILES IDX 54 87 55 88 56 89
REMARK H PARENT 14 9 77 45 47 56
REMARK Flexibility Score: inf
ROOT
ATOM      1  C   UNL A   1      34.392  28.605  26.054  1.00  0.00     0.274 C 
ENDROOT
BRANCH   1   2
ATOM      2  O   UNL A   1      33.328  27.656  25.819  1.00  0.00    -0.461 OA
BRANCH   2   3
ATOM      3  C   UNL A   1      33.364  26.940  24.654  1.00  0.00     0.329 C 
ATOM      4  O   UNL A   1      33.855  27.351  23.611  1.00  0.00    -0.250 OA
BRANCH   3   5
ATOM      5  C   UNL A   1      32.683  25.547  24.795  1.00  0.00     0.195 C 
BRANCH   5   6
ATOM      6  N   UNL A   1      32.602  24.952  23.470  1.00  0.00    -0.337 N 
ATOM      7  C   UNL A   1      33.329  23.928  22.912  1.00  0.00     0.271 C 
ATOM      8  O   UNL A   1      33.281  23.843  21.682  1.00  0.00    -0.267 OA
ATOM      9  H   UNL A   1      31.919  25.345  22.879  1.00  0.00     0.164 HD
BRANCH   7  10
ATOM     10  C   UNL A   1      34.033  22.905  23.717  1.00  0.00     0.142 A 
ATOM     11  C   UNL A   1      32.260  21.087  24.511  1.00  0.00     0.059 C 
ATOM     12  C   UNL A   1      33.595  21.721  24.313  1.00  0.00     0.035 A 
ATOM     13  S   UNL A   1      34.946  20.873  24.984  1.00  0.00    -0.115 S 
ATOM     14  C   UNL A   1      35.907  22.260  24.775  1.00  0.00     0.160 A 
ATOM     15  N   UNL A   1      35.358  23.221  24.075  1.00  0.00    -0.227 NA
BRANCH  14  16
ATOM     16  C   UNL A   1      37.171  22.400  25.430  1.00  0.00     0.162 A 
ATOM     17  C   UNL A   1      38.194  21.465  25.486  1.00  0.00     0.053 A 
ATOM     18  O   UNL A   1      37.591  23.546  26.057  1.00  0.00    -0.462 OA
ATOM     19  C   UNL A   1      39.283  22.075  26.152  1.00  0.00     0.043 A 
ATOM     20  C   UNL A   1      38.855  23.332  26.501  1.00  0.00     0.196 A 
ENDBRANCH  14  16
ENDBRANCH   7  10
ENDBRANCH   5   6
BRANCH   5  21
ATOM     21  C   UNL A   1      31.332  25.578  25.540  1.00  0.00     0.017 C 
ATOM     22  C   UNL A   1      30.256  26.315  24.733  1.00  0.00     0.010 C 
ATOM     23  C   UNL A   1      30.827  24.146  25.796  1.00  0.00     0.010 C 
ENDBRANCH   5  21
ENDBRANCH   3   5
ENDBRANCH   2   3
ENDBRANCH   1   2
BRANCH   1  24
ATOM     24  C   UNL A   1      34.195  29.322  27.387  1.00  0.00     0.275 C 
BRANCH  24  25
ATOM     25  O   UNL A   1      35.335  29.052  28.215  1.00  0.00    -0.458 OA
BRANCH  25  26
ATOM     26  C   UNL A   1      35.943  30.123  28.765  1.00  0.00     0.338 C 
ATOM     27  O   UNL A   1      35.412  31.082  29.315  1.00  0.00    -0.246 OA
BRANCH  26  28
ATOM     28  C   UNL A   1      37.398  29.935  28.683  1.00  0.00     0.060 A 
ATOM     29  C   UNL A   1      37.981  29.781  27.427  1.00  0.00     0.016 A 
ATOM     30  C   UNL A   1      38.170  29.791  29.832  1.00  0.00     0.016 A 
ATOM     31  C   UNL A   1      39.308  29.388  27.310  1.00  0.00     0.010 A 
ATOM     32  C   UNL A   1      39.533  29.496  29.709  1.00  0.00     0.010 A 
ATOM     33  C   UNL A   1      40.109  29.252  28.447  1.00  0.00    -0.014 A 
BRANCH  33  34
ATOM     34  C   UNL A   1      41.514  28.779  28.318  1.00  0.00     0.031 A 
ATOM     35  C   UNL A   1      42.645  29.750  28.531  1.00  0.00     0.074 A 
ATOM     36  C   UNL A   1      41.794  27.486  28.057  1.00  0.00     0.049 A 
ATOM     37  N   UNL A   1      43.916  29.612  28.252  1.00  0.00    -0.248 NA
ATOM     38  C   UNL A   1      42.298  31.051  29.126  1.00  0.00     0.031 C 
ATOM     39  C   UNL A   1      40.810  26.407  27.922  1.00  0.00     0.029 A 
ATOM     40  N   UNL A   1      43.000  26.854  27.872  1.00  0.00    -0.354 N 
ATOM     41  C   UNL A   1      44.505  30.833  28.563  1.00  0.00     0.074 A 
ATOM     42  C   UNL A   1      43.457  31.692  29.071  1.00  0.00     0.031 C 
ATOM     43  C   UNL A   1      41.453  25.246  27.718  1.00  0.00     0.029 A 
ATOM     44  C   UNL A   1      42.883  25.510  27.602  1.00  0.00     0.049 A 
ATOM     45  H   UNL A   1      43.866  27.319  27.926  1.00  0.00     0.167 HD
ATOM     46  C   UNL A   1      45.798  31.205  28.423  1.00  0.00     0.031 A 
ATOM     47  C   UNL A   1      43.810  24.599  27.246  1.00  0.00     0.031 A 
ATOM     48  C   UNL A   1      46.844  30.330  27.967  1.00  0.00     0.049 A 
ATOM     49  C   UNL A   1      45.233  25.042  27.055  1.00  0.00     0.074 A 
ATOM     50  C   UNL A   1      48.183  30.616  27.768  1.00  0.00     0.029 A 
ATOM     51  N   UNL A   1      46.671  28.989  27.662  1.00  0.00    -0.354 N 
ATOM     52  N   UNL A   1      45.757  26.230  27.243  1.00  0.00    -0.248 NA
ATOM     53  C   UNL A   1      46.183  24.031  26.572  1.00  0.00     0.031 C 
ATOM     54  C   UNL A   1      48.814  29.453  27.313  1.00  0.00     0.029 A 
ATOM     55  C   UNL A   1      47.876  28.434  27.269  1.00  0.00     0.049 A 
ATOM     56  H   UNL A   1      45.816  28.503  27.717  1.00  0.00     0.167 HD
ATOM     57  C   UNL A   1      47.098  26.108  26.900  1.00  0.00     0.074 A 
ATOM     58  C   UNL A   1      47.310  24.727  26.518  1.00  0.00     0.031 C 
ATOM     59  C   UNL A   1      48.064  27.058  26.891  1.00  0.00     0.031 A 
BRANCH  46  60
ATOM     60  C   UNL A   1      46.137  32.643  28.703  1.00  0.00    -0.014 A 
ATOM     61  C   UNL A   1      46.562  33.070  29.972  1.00  0.00     0.010 A 
ATOM     62  C   UNL A   1      46.038  33.583  27.660  1.00  0.00     0.010 A 
ATOM     63  C   UNL A   1      46.845  34.420  30.204  1.00  0.00     0.020 A 
ATOM     64  C   UNL A   1      46.342  34.928  27.880  1.00  0.00     0.020 A 
ATOM     65  C   UNL A   1      46.725  35.341  29.157  1.00  0.00     0.054 A 
BRANCH  65  66
ATOM     66  S   UNL A   1      47.105  37.086  29.476  1.00  0.00     0.124 S 
ATOM     67  O   UNL A   1      47.127  37.640  28.125  1.00  0.00    -0.237 OA
ATOM     68  O   UNL A   1      45.986  37.514  30.312  1.00  0.00    -0.237 OA
ATOM     69  O   UNL A   1      48.400  37.040  30.151  1.00  0.00    -0.744 OA
ENDBRANCH  65  66
ENDBRANCH  46  60
BRANCH  47  70
ATOM     70  C   UNL A   1      43.401  23.196  26.963  1.00  0.00    -0.014 A 
ATOM     71  C   UNL A   1      43.447  22.686  25.654  1.00  0.00     0.010 A 
ATOM     72  C   UNL A   1      42.980  22.356  28.011  1.00  0.00     0.010 A 
ATOM     73  C   UNL A   1      43.075  21.362  25.400  1.00  0.00     0.020 A 
ATOM     74  C   UNL A   1      42.636  21.026  27.765  1.00  0.00     0.020 A 
ATOM     75  C   UNL A   1      42.675  20.539  26.457  1.00  0.00     0.054 A 
BRANCH  75  76
ATOM     76  S   UNL A   1      42.266  18.803  26.122  1.00  0.00     0.124 S 
ATOM     77  O   UNL A   1      40.857  18.890  25.752  1.00  0.00    -0.237 OA
ATOM     78  O   UNL A   1      43.185  18.459  25.040  1.00  0.00    -0.237 OA
ATOM     79  O   UNL A   1      42.541  18.139  27.395  1.00  0.00    -0.744 OA
ENDBRANCH  75  76
ENDBRANCH  47  70
BRANCH  59  80
ATOM     80  C   UNL A   1      49.442  26.629  26.475  1.00  0.00    -0.014 A 
ATOM     81  C   UNL A   1      50.317  26.023  27.394  1.00  0.00     0.010 A 
ATOM     82  C   UNL A   1      49.846  26.788  25.137  1.00  0.00     0.010 A 
ATOM     83  C   UNL A   1      51.586  25.604  26.985  1.00  0.00     0.020 A 
ATOM     84  C   UNL A   1      51.106  26.353  24.722  1.00  0.00     0.020 A 
ATOM     85  C   UNL A   1      51.974  25.776  25.652  1.00  0.00     0.054 A 
BRANCH  85  86
ATOM     86  S   UNL A   1      53.608  25.185  25.131  1.00  0.00     0.124 S 
ATOM     87  O   UNL A   1      54.496  25.928  26.021  1.00  0.00    -0.237 OA
ATOM     88  O   UNL A   1      53.527  23.747  25.380  1.00  0.00    -0.237 OA
ATOM     89  O   UNL A   1      53.677  25.562  23.721  1.00  0.00    -0.744 OA
ENDBRANCH  85  86
ENDBRANCH  59  80
ENDBRANCH  33  34
ENDBRANCH  26  28
ENDBRANCH  25  26
ENDBRANCH  24  25
ENDBRANCH   1  24
TORSDOF 18
ENDMDL
