MODEL 1
REMARK VINA RESULT:      -9.2      0.000      0.000
REMARK SMILES CCCCCCNC(=O)Oc1cccc(-c2ccc([C@@H](C)C(=O)OCCOC(=O)c3ccc(-c4c5nc(c(-c6ccc(S(=O)(=O)[O-])cc6)c6ccc([nH]6)c(-c6ccc(S(=O)(=O)[O-])cc6)c6nc(c(-c7ccc(S(=O)(=O)[O-])cc7)c7ccc4[nH]7)C=C6)C=C5)cc3)cc2O)c1
REMARK SMILES IDX 20 1 21 2 19 3 16 4 17 5 91 6 18 7 90 8 15 9 11 10 12 11
REMARK SMILES IDX 93 12 13 13 14 14 10 15 8 16 7 17 9 19 6 20 5 21 4 22 3 23
REMARK SMILES IDX 2 24 1 25 92 26 22 28 23 29 24 30 25 31 26 32 27 33 28 34
REMARK SMILES IDX 29 35 30 36 31 37 89 38 32 39 88 40 33 41 34 42 35 43 82 44
REMARK SMILES IDX 36 45 87 46 81 47 83 48 37 49 86 50 80 51 79 52 38 54 68 55
REMARK SMILES IDX 49 56 67 57 50 58 53 59 66 60 84 61 51 62 52 63 65 65 85 66
REMARK SMILES IDX 54 67 39 68 40 69 48 70 41 71 47 72 42 73 43 74 44 75 45 76
REMARK SMILES IDX 46 77 69 78 70 79 78 80 71 81 77 82 72 83 73 84 74 85 75 86
REMARK SMILES IDX 76 87 55 88 56 89 64 90 57 91 63 92 58 93 59 94 60 95 61 96
REMARK SMILES IDX 62 97
REMARK H PARENT 7 18 92 27 83 53 53 64
REMARK Flexibility Score: inf
ROOT
ATOM      1  C   UNL A   1      47.151  42.938  25.010  1.00  0.00     0.126 C 
ATOM      2  C   UNL A   1      47.614  44.042  25.958  1.00  0.00     0.025 C 
ENDROOT
BRANCH   1   3
ATOM      3  C   UNL A   1      46.697  43.485  23.666  1.00  0.00    -0.030 A 
ATOM      4  C   UNL A   1      45.880  44.453  21.109  1.00  0.00     0.024 A 
ATOM      5  C   UNL A   1      45.899  45.289  22.240  1.00  0.00     0.013 A 
ATOM      6  C   UNL A   1      46.284  43.122  21.290  1.00  0.00     0.123 A 
ATOM      7  C   UNL A   1      46.308  44.819  23.494  1.00  0.00     0.005 A 
ATOM      8  C   UNL A   1      46.682  42.644  22.542  1.00  0.00     0.051 A 
BRANCH   4   9
ATOM      9  C   UNL A   1      45.479  45.008  19.806  1.00  0.00    -0.011 A 
ATOM     10  C   UNL A   1      43.819  45.947  18.307  1.00  0.00     0.133 A 
ATOM     11  C   UNL A   1      44.748  46.005  17.270  1.00  0.00     0.047 A 
ATOM     12  C   UNL A   1      44.168  45.454  19.566  1.00  0.00     0.056 A 
ATOM     13  C   UNL A   1      46.054  45.584  17.500  1.00  0.00     0.004 A 
ATOM     14  C   UNL A   1      46.413  45.087  18.755  1.00  0.00     0.009 A 
BRANCH  10  15
ATOM     15  O   UNL A   1      42.493  46.276  17.988  1.00  0.00    -0.410 OA
BRANCH  15  16
ATOM     16  C   UNL A   1      41.829  45.479  17.069  1.00  0.00     0.412 C 
ATOM     17  N   UNL A   1      41.173  44.426  17.647  1.00  0.00    -0.321 N 
ATOM     18  H   UNL A   1      40.662  43.841  17.042  1.00  0.00     0.167 HD
ATOM     19  O   UNL A   1      41.818  45.638  15.854  1.00  0.00    -0.224 OA
BRANCH  17  20
ATOM     20  C   UNL A   1      41.149  44.078  19.055  1.00  0.00     0.119 C 
BRANCH  20  21
ATOM     21  C   UNL A   1      41.847  42.749  19.342  1.00  0.00     0.021 C 
BRANCH  21  22
ATOM     22  C   UNL A   1      42.632  42.698  20.657  1.00  0.00     0.002 C 
BRANCH  22  23
ATOM     23  C   UNL A   1      42.010  43.458  21.835  1.00  0.00    -0.000 C 
BRANCH  23  24
ATOM     24  C   UNL A   1      41.568  42.594  23.019  1.00  0.00    -0.003 C 
ATOM     25  C   UNL A   1      42.677  42.341  24.028  1.00  0.00     0.004 C 
ENDBRANCH  23  24
ENDBRANCH  22  23
ENDBRANCH  21  22
ENDBRANCH  20  21
ENDBRANCH  17  20
ENDBRANCH  15  16
ENDBRANCH  10  15
ENDBRANCH   4   9
BRANCH   6  26
ATOM     26  O   UNL A   1      46.359  42.212  20.268  1.00  0.00    -0.507 OA
ATOM     27  H   UNL A   1      45.811  42.309  19.513  1.00  0.00     0.293 HD
ENDBRANCH   6  26
ENDBRANCH   1   3
BRANCH   1  28
ATOM     28  C   UNL A   1      46.172  42.017  25.731  1.00  0.00     0.313 C 
ATOM     29  O   UNL A   1      45.233  42.452  26.391  1.00  0.00    -0.252 OA
BRANCH  28  30
ATOM     30  O   UNL A   1      46.403  40.694  25.518  1.00  0.00    -0.462 OA
BRANCH  30  31
ATOM     31  C   UNL A   1      47.452  40.086  26.295  1.00  0.00     0.274 C 
BRANCH  31  32
ATOM     32  C   UNL A   1      46.894  39.063  27.287  1.00  0.00     0.275 C 
BRANCH  32  33
ATOM     33  O   UNL A   1      47.712  37.880  27.337  1.00  0.00    -0.458 OA
BRANCH  33  34
ATOM     34  C   UNL A   1      47.779  37.288  28.552  1.00  0.00     0.338 C 
ATOM     35  O   UNL A   1      47.927  37.834  29.630  1.00  0.00    -0.246 OA
BRANCH  34  36
ATOM     36  C   UNL A   1      47.521  35.847  28.414  1.00  0.00     0.060 A 
ATOM     37  C   UNL A   1      47.079  35.377  27.176  1.00  0.00     0.016 A 
ATOM     38  C   UNL A   1      47.621  34.985  29.508  1.00  0.00     0.016 A 
ATOM     39  C   UNL A   1      46.709  34.045  27.026  1.00  0.00     0.010 A 
ATOM     40  C   UNL A   1      47.256  33.643  29.354  1.00  0.00     0.010 A 
ATOM     41  C   UNL A   1      46.779  33.172  28.118  1.00  0.00    -0.014 A 
BRANCH  41  42
ATOM     42  C   UNL A   1      46.289  31.780  27.968  1.00  0.00     0.031 A 
ATOM     43  C   UNL A   1      47.222  30.705  27.491  1.00  0.00     0.074 A 
ATOM     44  C   UNL A   1      45.018  31.479  28.291  1.00  0.00     0.049 A 
ATOM     45  N   UNL A   1      46.983  29.437  27.279  1.00  0.00    -0.248 NA
ATOM     46  C   UNL A   1      48.609  31.112  27.212  1.00  0.00     0.031 C 
ATOM     47  C   UNL A   1      44.026  32.433  28.790  1.00  0.00     0.029 A 
ATOM     48  N   UNL A   1      44.345  30.285  28.246  1.00  0.00    -0.354 N 
ATOM     49  C   UNL A   1      48.179  28.896  26.823  1.00  0.00     0.074 A 
ATOM     50  C   UNL A   1      49.138  29.980  26.770  1.00  0.00     0.031 C 
ATOM     51  C   UNL A   1      42.869  31.785  29.005  1.00  0.00     0.029 A 
ATOM     52  C   UNL A   1      43.029  30.382  28.627  1.00  0.00     0.049 A 
ATOM     53  H   UNL A   1      44.765  29.440  27.967  1.00  0.00     0.167 HD
ATOM     54  C   UNL A   1      48.454  27.614  26.482  1.00  0.00     0.031 A 
ATOM     55  C   UNL A   1      42.055  29.453  28.653  1.00  0.00     0.031 A 
ATOM     56  C   UNL A   1      47.497  26.540  26.533  1.00  0.00     0.049 A 
ATOM     57  C   UNL A   1      42.374  28.041  28.247  1.00  0.00     0.074 A 
ATOM     58  C   UNL A   1      47.682  25.204  26.223  1.00  0.00     0.029 A 
ATOM     59  N   UNL A   1      46.172  26.681  26.917  1.00  0.00    -0.354 N 
ATOM     60  N   UNL A   1      43.516  27.542  27.835  1.00  0.00    -0.248 NA
ATOM     61  C   UNL A   1      41.277  27.066  28.316  1.00  0.00     0.031 C 
ATOM     62  C   UNL A   1      46.457  24.545  26.379  1.00  0.00     0.029 A 
ATOM     63  C   UNL A   1      45.520  25.461  26.831  1.00  0.00     0.049 A 
ATOM     64  H   UNL A   1      45.754  27.525  27.207  1.00  0.00     0.167 HD
ATOM     65  C   UNL A   1      43.278  26.191  27.607  1.00  0.00     0.074 A 
ATOM     66  C   UNL A   1      41.889  25.949  27.942  1.00  0.00     0.031 C 
ATOM     67  C   UNL A   1      44.134  25.240  27.159  1.00  0.00     0.031 A 
BRANCH  54  68
ATOM     68  C   UNL A   1      49.844  27.323  25.983  1.00  0.00    -0.014 A 
ATOM     69  C   UNL A   1      50.109  27.163  24.611  1.00  0.00     0.010 A 
ATOM     70  C   UNL A   1      50.901  27.199  26.903  1.00  0.00     0.010 A 
ATOM     71  C   UNL A   1      51.393  26.824  24.173  1.00  0.00     0.020 A 
ATOM     72  C   UNL A   1      52.191  26.884  26.468  1.00  0.00     0.020 A 
ATOM     73  C   UNL A   1      52.423  26.673  25.107  1.00  0.00     0.054 A 
BRANCH  73  74
ATOM     74  S   UNL A   1      54.075  26.208  24.519  1.00  0.00     0.124 S 
ATOM     75  O   UNL A   1      54.009  24.749  24.558  1.00  0.00    -0.237 OA
ATOM     76  O   UNL A   1      54.122  26.797  23.183  1.00  0.00    -0.237 OA
ATOM     77  O   UNL A   1      54.975  26.817  25.496  1.00  0.00    -0.744 OA
ENDBRANCH  73  74
ENDBRANCH  54  68
BRANCH  55  78
ATOM     78  C   UNL A   1      40.683  29.849  29.064  1.00  0.00    -0.014 A 
ATOM     79  C   UNL A   1      39.606  29.751  28.167  1.00  0.00     0.010 A 
ATOM     80  C   UNL A   1      40.440  30.278  30.383  1.00  0.00     0.010 A 
ATOM     81  C   UNL A   1      38.309  30.070  28.582  1.00  0.00     0.020 A 
ATOM     82  C   UNL A   1      39.144  30.576  30.807  1.00  0.00     0.020 A 
ATOM     83  C   UNL A   1      38.086  30.474  29.903  1.00  0.00     0.054 A 
BRANCH  83  84
ATOM     84  S   UNL A   1      36.385  30.797  30.449  1.00  0.00     0.124 S 
ATOM     85  O   UNL A   1      36.092  29.611  31.248  1.00  0.00    -0.237 OA
ATOM     86  O   UNL A   1      36.523  32.045  31.196  1.00  0.00    -0.237 OA
ATOM     87  O   UNL A   1      35.641  30.911  29.197  1.00  0.00    -0.744 OA
ENDBRANCH  83  84
ENDBRANCH  55  78
BRANCH  67  88
ATOM     88  C   UNL A   1      43.596  23.841  27.018  1.00  0.00    -0.014 A 
ATOM     89  C   UNL A   1      43.316  23.054  28.149  1.00  0.00     0.010 A 
ATOM     90  C   UNL A   1      43.319  23.328  25.738  1.00  0.00     0.010 A 
ATOM     91  C   UNL A   1      42.793  21.767  28.002  1.00  0.00     0.020 A 
ATOM     92  C   UNL A   1      42.774  22.050  25.588  1.00  0.00     0.020 A 
ATOM     93  C   UNL A   1      42.527  21.272  26.722  1.00  0.00     0.054 A 
BRANCH  93  94
ATOM     94  S   UNL A   1      41.805  19.615  26.553  1.00  0.00     0.124 S 
ATOM     95  O   UNL A   1      42.309  18.942  27.748  1.00  0.00    -0.237 OA
ATOM     96  O   UNL A   1      40.370  19.887  26.544  1.00  0.00    -0.237 OA
ATOM     97  O   UNL A   1      42.348  19.128  25.288  1.00  0.00    -0.744 OA
ENDBRANCH  93  94
ENDBRANCH  67  88
ENDBRANCH  41  42
ENDBRANCH  34  36
ENDBRANCH  33  34
ENDBRANCH  32  33
ENDBRANCH  31  32
ENDBRANCH  30  31
ENDBRANCH  28  30
ENDBRANCH   1  28
TORSDOF 24
ENDMDL
MODEL 2
REMARK VINA RESULT:      -8.8      9.567     21.165
REMARK SMILES CCCCCCNC(=O)Oc1cccc(-c2ccc([C@@H](C)C(=O)OCCOC(=O)c3ccc(-c4c5nc(c(-c6ccc(S(=O)(=O)[O-])cc6)c6ccc([nH]6)c(-c6ccc(S(=O)(=O)[O-])cc6)c6nc(c(-c7ccc(S(=O)(=O)[O-])cc7)c7ccc4[nH]7)C=C6)C=C5)cc3)cc2O)c1
REMARK SMILES IDX 20 1 21 2 19 3 16 4 17 5 91 6 18 7 90 8 15 9 11 10 12 11
REMARK SMILES IDX 93 12 13 13 14 14 10 15 8 16 7 17 9 19 6 20 5 21 4 22 3 23
REMARK SMILES IDX 2 24 1 25 92 26 22 28 23 29 24 30 25 31 26 32 27 33 28 34
REMARK SMILES IDX 29 35 30 36 31 37 89 38 32 39 88 40 33 41 34 42 35 43 82 44
REMARK SMILES IDX 36 45 87 46 81 47 83 48 37 49 86 50 80 51 79 52 38 54 68 55
REMARK SMILES IDX 49 56 67 57 50 58 53 59 66 60 84 61 51 62 52 63 65 65 85 66
REMARK SMILES IDX 54 67 39 68 40 69 48 70 41 71 47 72 42 73 43 74 44 75 45 76
REMARK SMILES IDX 46 77 69 78 70 79 78 80 71 81 77 82 72 83 73 84 74 85 75 86
REMARK SMILES IDX 76 87 55 88 56 89 64 90 57 91 63 92 58 93 59 94 60 95 61 96
REMARK SMILES IDX 62 97
REMARK H PARENT 7 18 92 27 83 53 53 64
REMARK Flexibility Score: inf
ROOT
ATOM      1  C   UNL A   1      47.946  19.619  40.259  1.00  0.00     0.126 C 
ATOM      2  C   UNL A   1      49.069  19.449  41.281  1.00  0.00     0.025 C 
ENDROOT
BRANCH   1   3
ATOM      3  C   UNL A   1      46.812  18.629  40.479  1.00  0.00    -0.030 A 
ATOM      4  C   UNL A   1      44.656  16.820  40.943  1.00  0.00     0.024 A 
ATOM      5  C   UNL A   1      45.855  16.395  40.345  1.00  0.00     0.013 A 
ATOM      6  C   UNL A   1      44.565  18.171  41.307  1.00  0.00     0.123 A 
ATOM      7  C   UNL A   1      46.918  17.279  40.124  1.00  0.00     0.005 A 
ATOM      8  C   UNL A   1      45.619  19.060  41.079  1.00  0.00     0.051 A 
BRANCH   4   9
ATOM      9  C   UNL A   1      43.584  15.841  41.189  1.00  0.00    -0.011 A 
ATOM     10  C   UNL A   1      42.488  14.181  42.578  1.00  0.00     0.133 A 
ATOM     11  C   UNL A   1      41.545  13.930  41.584  1.00  0.00     0.047 A 
ATOM     12  C   UNL A   1      43.504  15.122  42.394  1.00  0.00     0.056 A 
ATOM     13  C   UNL A   1      41.602  14.649  40.394  1.00  0.00     0.004 A 
ATOM     14  C   UNL A   1      42.615  15.591  40.198  1.00  0.00     0.009 A 
BRANCH  10  15
ATOM     15  O   UNL A   1      42.452  13.350  43.709  1.00  0.00    -0.410 OA
BRANCH  15  16
ATOM     16  C   UNL A   1      42.899  13.872  44.913  1.00  0.00     0.412 C 
ATOM     17  N   UNL A   1      44.116  13.375  45.294  1.00  0.00    -0.321 N 
ATOM     18  H   UNL A   1      44.494  13.731  46.130  1.00  0.00     0.167 HD
ATOM     19  O   UNL A   1      42.297  14.674  45.616  1.00  0.00    -0.224 OA
BRANCH  17  20
ATOM     20  C   UNL A   1      44.910  12.380  44.599  1.00  0.00     0.119 C 
BRANCH  20  21
ATOM     21  C   UNL A   1      46.399  12.723  44.589  1.00  0.00     0.021 C 
BRANCH  21  22
ATOM     22  C   UNL A   1      46.729  14.193  44.870  1.00  0.00     0.002 C 
BRANCH  22  23
ATOM     23  C   UNL A   1      46.754  15.117  43.648  1.00  0.00    -0.000 C 
BRANCH  23  24
ATOM     24  C   UNL A   1      47.240  16.545  43.908  1.00  0.00    -0.003 C 
ATOM     25  C   UNL A   1      46.145  17.473  44.411  1.00  0.00     0.004 C 
ENDBRANCH  23  24
ENDBRANCH  22  23
ENDBRANCH  21  22
ENDBRANCH  20  21
ENDBRANCH  17  20
ENDBRANCH  15  16
ENDBRANCH  10  15
ENDBRANCH   4   9
BRANCH   6  26
ATOM     26  O   UNL A   1      43.475  18.709  41.941  1.00  0.00    -0.507 OA
ATOM     27  H   UNL A   1      42.635  18.301  41.856  1.00  0.00     0.293 HD
ENDBRANCH   6  26
ENDBRANCH   1   3
BRANCH   1  28
ATOM     28  C   UNL A   1      48.533  19.672  38.852  1.00  0.00     0.313 C 
ATOM     29  O   UNL A   1      49.651  19.238  38.596  1.00  0.00    -0.252 OA
BRANCH  28  30
ATOM     30  O   UNL A   1      47.683  20.179  37.921  1.00  0.00    -0.462 OA
BRANCH  30  31
ATOM     31  C   UNL A   1      48.200  20.330  36.585  1.00  0.00     0.274 C 
BRANCH  31  32
ATOM     32  C   UNL A   1      47.084  20.262  35.540  1.00  0.00     0.275 C 
BRANCH  32  33
ATOM     33  O   UNL A   1      46.851  21.548  34.938  1.00  0.00    -0.458 OA
BRANCH  33  34
ATOM     34  C   UNL A   1      45.547  21.897  34.834  1.00  0.00     0.338 C 
ATOM     35  O   UNL A   1      44.594  21.350  35.360  1.00  0.00    -0.246 OA
BRANCH  34  36
ATOM     36  C   UNL A   1      45.429  23.145  34.067  1.00  0.00     0.060 A 
ATOM     37  C   UNL A   1      46.172  24.248  34.493  1.00  0.00     0.016 A 
ATOM     38  C   UNL A   1      44.533  23.260  33.003  1.00  0.00     0.016 A 
ATOM     39  C   UNL A   1      46.007  25.483  33.875  1.00  0.00     0.010 A 
ATOM     40  C   UNL A   1      44.373  24.501  32.377  1.00  0.00     0.010 A 
ATOM     41  C   UNL A   1      45.094  25.623  32.823  1.00  0.00    -0.014 A 
BRANCH  41  42
ATOM     42  C   UNL A   1      44.858  26.966  32.240  1.00  0.00     0.031 A 
ATOM     43  C   UNL A   1      45.634  27.403  31.031  1.00  0.00     0.074 A 
ATOM     44  C   UNL A   1      43.927  27.774  32.776  1.00  0.00     0.049 A 
ATOM     45  N   UNL A   1      45.586  28.540  30.386  1.00  0.00    -0.248 NA
ATOM     46  C   UNL A   1      46.593  26.435  30.477  1.00  0.00     0.031 C 
ATOM     47  C   UNL A   1      43.093  27.449  33.935  1.00  0.00     0.029 A 
ATOM     48  N   UNL A   1      43.528  29.037  32.418  1.00  0.00    -0.354 N 
ATOM     49  C   UNL A   1      46.520  28.435  29.362  1.00  0.00     0.074 A 
ATOM     50  C   UNL A   1      47.134  27.129  29.486  1.00  0.00     0.031 C 
ATOM     51  C   UNL A   1      42.280  28.487  34.191  1.00  0.00     0.029 A 
ATOM     52  C   UNL A   1      42.559  29.560  33.239  1.00  0.00     0.049 A 
ATOM     53  H   UNL A   1      43.900  29.521  31.646  1.00  0.00     0.167 HD
ATOM     54  C   UNL A   1      46.835  29.341  28.405  1.00  0.00     0.031 A 
ATOM     55  C   UNL A   1      41.975  30.773  33.239  1.00  0.00     0.031 A 
ATOM     56  C   UNL A   1      46.224  30.638  28.288  1.00  0.00     0.049 A 
ATOM     57  C   UNL A   1      42.356  31.774  32.185  1.00  0.00     0.074 A 
ATOM     58  C   UNL A   1      46.464  31.623  27.344  1.00  0.00     0.029 A 
ATOM     59  N   UNL A   1      45.253  31.135  29.145  1.00  0.00    -0.354 N 
ATOM     60  N   UNL A   1      43.229  31.652  31.213  1.00  0.00    -0.248 NA
ATOM     61  C   UNL A   1      41.670  33.073  32.222  1.00  0.00     0.031 C 
ATOM     62  C   UNL A   1      45.667  32.730  27.656  1.00  0.00     0.029 A 
ATOM     63  C   UNL A   1      44.898  32.420  28.767  1.00  0.00     0.049 A 
ATOM     64  H   UNL A   1      44.872  30.647  29.911  1.00  0.00     0.167 HD
ATOM     65  C   UNL A   1      43.189  32.854  30.514  1.00  0.00     0.074 A 
ATOM     66  C   UNL A   1      42.194  33.682  31.166  1.00  0.00     0.031 C 
ATOM     67  C   UNL A   1      43.912  33.235  29.432  1.00  0.00     0.031 A 
BRANCH  54  68
ATOM     68  C   UNL A   1      47.924  28.962  27.438  1.00  0.00    -0.014 A 
ATOM     69  C   UNL A   1      47.636  28.278  26.243  1.00  0.00     0.010 A 
ATOM     70  C   UNL A   1      49.261  29.287  27.735  1.00  0.00     0.010 A 
ATOM     71  C   UNL A   1      48.669  27.873  25.393  1.00  0.00     0.020 A 
ATOM     72  C   UNL A   1      50.295  28.906  26.875  1.00  0.00     0.020 A 
ATOM     73  C   UNL A   1      49.993  28.178  25.722  1.00  0.00     0.054 A 
BRANCH  73  74
ATOM     74  S   UNL A   1      51.320  27.620  24.617  1.00  0.00     0.124 S 
ATOM     75  O   UNL A   1      50.566  27.037  23.511  1.00  0.00    -0.237 OA
ATOM     76  O   UNL A   1      52.028  28.860  24.308  1.00  0.00    -0.237 OA
ATOM     77  O   UNL A   1      52.071  26.665  25.430  1.00  0.00    -0.744 OA
ENDBRANCH  73  74
ENDBRANCH  54  68
BRANCH  55  78
ATOM     78  C   UNL A   1      40.980  31.101  34.294  1.00  0.00    -0.014 A 
ATOM     79  C   UNL A   1      41.377  31.715  35.494  1.00  0.00     0.010 A 
ATOM     80  C   UNL A   1      39.613  30.846  34.074  1.00  0.00     0.010 A 
ATOM     81  C   UNL A   1      40.426  32.072  36.454  1.00  0.00     0.020 A 
ATOM     82  C   UNL A   1      38.657  31.223  35.020  1.00  0.00     0.020 A 
ATOM     83  C   UNL A   1      39.070  31.830  36.207  1.00  0.00     0.054 A 
BRANCH  83  84
ATOM     84  S   UNL A   1      37.842  32.382  37.424  1.00  0.00     0.124 S 
ATOM     85  O   UNL A   1      38.646  33.216  38.312  1.00  0.00    -0.237 OA
ATOM     86  O   UNL A   1      36.871  33.095  36.595  1.00  0.00    -0.237 OA
ATOM     87  O   UNL A   1      37.353  31.135  38.005  1.00  0.00    -0.744 OA
ENDBRANCH  83  84
ENDBRANCH  55  78
BRANCH  67  88
ATOM     88  C   UNL A   1      43.644  34.606  28.873  1.00  0.00    -0.014 A 
ATOM     89  C   UNL A   1      42.937  34.773  27.669  1.00  0.00     0.010 A 
ATOM     90  C   UNL A   1      44.060  35.743  29.590  1.00  0.00     0.010 A 
ATOM     91  C   UNL A   1      42.675  36.054  27.178  1.00  0.00     0.020 A 
ATOM     92  C   UNL A   1      43.779  37.026  29.112  1.00  0.00     0.020 A 
ATOM     93  C   UNL A   1      43.099  37.173  27.901  1.00  0.00     0.054 A 
BRANCH  93  94
ATOM     94  S   UNL A   1      42.709  38.828  27.268  1.00  0.00     0.124 S 
ATOM     95  O   UNL A   1      41.506  38.575  26.478  1.00  0.00    -0.237 OA
ATOM     96  O   UNL A   1      42.506  39.603  28.490  1.00  0.00    -0.237 OA
ATOM     97  O   UNL A   1      43.895  39.193  26.497  1.00  0.00    -0.744 OA
ENDBRANCH  93  94
ENDBRANCH  67  88
ENDBRANCH  41  42
ENDBRANCH  34  36
ENDBRANCH  33  34
ENDBRANCH  32  33
ENDBRANCH  31  32
ENDBRANCH  30  31
ENDBRANCH  28  30
ENDBRANCH   1  28
TORSDOF 24
ENDMDL
MODEL 3
REMARK VINA RESULT:      -8.8      1.450      8.182
REMARK SMILES CCCCCCNC(=O)Oc1cccc(-c2ccc([C@@H](C)C(=O)OCCOC(=O)c3ccc(-c4c5nc(c(-c6ccc(S(=O)(=O)[O-])cc6)c6ccc([nH]6)c(-c6ccc(S(=O)(=O)[O-])cc6)c6nc(c(-c7ccc(S(=O)(=O)[O-])cc7)c7ccc4[nH]7)C=C6)C=C5)cc3)cc2O)c1
REMARK SMILES IDX 20 1 21 2 19 3 16 4 17 5 91 6 18 7 90 8 15 9 11 10 12 11
REMARK SMILES IDX 93 12 13 13 14 14 10 15 8 16 7 17 9 19 6 20 5 21 4 22 3 23
REMARK SMILES IDX 2 24 1 25 92 26 22 28 23 29 24 30 25 31 26 32 27 33 28 34
REMARK SMILES IDX 29 35 30 36 31 37 89 38 32 39 88 40 33 41 34 42 35 43 82 44
REMARK SMILES IDX 36 45 87 46 81 47 83 48 37 49 86 50 80 51 79 52 38 54 68 55
REMARK SMILES IDX 49 56 67 57 50 58 53 59 66 60 84 61 51 62 52 63 65 65 85 66
REMARK SMILES IDX 54 67 39 68 40 69 48 70 41 71 47 72 42 73 43 74 44 75 45 76
REMARK SMILES IDX 46 77 69 78 70 79 78 80 71 81 77 82 72 83 73 84 74 85 75 86
REMARK SMILES IDX 76 87 55 88 56 89 64 90 57 91 63 92 58 93 59 94 60 95 61 96
REMARK SMILES IDX 62 97
REMARK H PARENT 7 18 92 27 83 53 53 64
REMARK Flexibility Score: inf
ROOT
ATOM      1  C   UNL A   1      46.667  43.354  26.046  1.00  0.00     0.126 C 
ATOM      2  C   UNL A   1      47.199  44.709  26.506  1.00  0.00     0.025 C 
ENDROOT
BRANCH   1   3
ATOM      3  C   UNL A   1      45.850  43.458  24.767  1.00  0.00    -0.030 A 
ATOM      4  C   UNL A   1      44.370  43.615  22.333  1.00  0.00     0.024 A 
ATOM      5  C   UNL A   1      44.154  44.524  23.384  1.00  0.00     0.013 A 
ATOM      6  C   UNL A   1      45.348  42.629  22.530  1.00  0.00     0.123 A 
ATOM      7  C   UNL A   1      44.885  44.455  24.576  1.00  0.00     0.005 A 
ATOM      8  C   UNL A   1      46.072  42.548  23.723  1.00  0.00     0.051 A 
BRANCH   4   9
ATOM      9  C   UNL A   1      43.602  43.756  21.085  1.00  0.00    -0.011 A 
ATOM     10  C   UNL A   1      43.290  44.685  18.866  1.00  0.00     0.133 A 
ATOM     11  C   UNL A   1      42.060  44.042  18.739  1.00  0.00     0.047 A 
ATOM     12  C   UNL A   1      44.061  44.554  20.023  1.00  0.00     0.056 A 
ATOM     13  C   UNL A   1      41.604  43.234  19.776  1.00  0.00     0.004 A 
ATOM     14  C   UNL A   1      42.366  43.098  20.938  1.00  0.00     0.009 A 
BRANCH  10  15
ATOM     15  O   UNL A   1      43.648  45.575  17.841  1.00  0.00    -0.410 OA
BRANCH  15  16
ATOM     16  C   UNL A   1      43.091  46.844  17.859  1.00  0.00     0.412 C 
ATOM     17  N   UNL A   1      43.971  47.809  18.270  1.00  0.00    -0.321 N 
ATOM     18  H   UNL A   1      43.636  48.735  18.276  1.00  0.00     0.167 HD
ATOM     19  O   UNL A   1      41.934  47.126  17.574  1.00  0.00    -0.224 OA
BRANCH  17  20
ATOM     20  C   UNL A   1      45.344  47.616  18.696  1.00  0.00     0.119 C 
BRANCH  20  21
ATOM     21  C   UNL A   1      46.231  48.818  18.374  1.00  0.00     0.021 C 
BRANCH  21  22
ATOM     22  C   UNL A   1      46.928  49.453  19.583  1.00  0.00     0.002 C 
BRANCH  22  23
ATOM     23  C   UNL A   1      47.452  48.476  20.641  1.00  0.00    -0.000 C 
BRANCH  23  24
ATOM     24  C   UNL A   1      48.831  48.805  21.219  1.00  0.00    -0.003 C 
ATOM     25  C   UNL A   1      49.288  47.822  22.285  1.00  0.00     0.004 C 
ENDBRANCH  23  24
ENDBRANCH  22  23
ENDBRANCH  21  22
ENDBRANCH  20  21
ENDBRANCH  17  20
ENDBRANCH  15  16
ENDBRANCH  10  15
ENDBRANCH   4   9
BRANCH   6  26
ATOM     26  O   UNL A   1      45.694  41.709  21.575  1.00  0.00    -0.507 OA
ATOM     27  H   UNL A   1      45.473  40.806  21.692  1.00  0.00     0.293 HD
ENDBRANCH   6  26
ENDBRANCH   1   3
BRANCH   1  28
ATOM     28  C   UNL A   1      46.000  42.637  27.217  1.00  0.00     0.313 C 
ATOM     29  O   UNL A   1      45.713  43.219  28.258  1.00  0.00    -0.252 OA
BRANCH  28  30
ATOM     30  O   UNL A   1      45.705  41.334  26.968  1.00  0.00    -0.462 OA
BRANCH  30  31
ATOM     31  C   UNL A   1      46.786  40.390  27.094  1.00  0.00     0.274 C 
BRANCH  31  32
ATOM     32  C   UNL A   1      46.438  39.267  28.074  1.00  0.00     0.275 C 
BRANCH  32  33
ATOM     33  O   UNL A   1      47.190  38.073  27.792  1.00  0.00    -0.458 OA
BRANCH  33  34
ATOM     34  C   UNL A   1      47.570  37.371  28.885  1.00  0.00     0.338 C 
ATOM     35  O   UNL A   1      47.972  37.818  29.944  1.00  0.00    -0.246 OA
BRANCH  34  36
ATOM     36  C   UNL A   1      47.314  35.940  28.667  1.00  0.00     0.060 A 
ATOM     37  C   UNL A   1      46.685  35.561  27.479  1.00  0.00     0.016 A 
ATOM     38  C   UNL A   1      47.601  34.994  29.652  1.00  0.00     0.016 A 
ATOM     39  C   UNL A   1      46.315  34.236  27.276  1.00  0.00     0.010 A 
ATOM     40  C   UNL A   1      47.235  33.660  29.444  1.00  0.00     0.010 A 
ATOM     41  C   UNL A   1      46.572  33.278  28.264  1.00  0.00    -0.014 A 
BRANCH  41  42
ATOM     42  C   UNL A   1      46.084  31.891  28.075  1.00  0.00     0.031 A 
ATOM     43  C   UNL A   1      44.705  31.514  28.535  1.00  0.00     0.074 A 
ATOM     44  C   UNL A   1      46.865  30.984  27.462  1.00  0.00     0.049 A 
ATOM     45  N   UNL A   1      44.103  30.354  28.477  1.00  0.00    -0.248 NA
ATOM     46  C   UNL A   1      43.898  32.582  29.146  1.00  0.00     0.031 C 
ATOM     47  C   UNL A   1      48.212  31.239  26.949  1.00  0.00     0.029 A 
ATOM     48  N   UNL A   1      46.638  29.663  27.171  1.00  0.00    -0.354 N 
ATOM     49  C   UNL A   1      42.856  30.544  29.059  1.00  0.00     0.074 A 
ATOM     50  C   UNL A   1      42.796  31.928  29.483  1.00  0.00     0.031 C 
ATOM     51  C   UNL A   1      48.692  30.109  26.405  1.00  0.00     0.029 A 
ATOM     52  C   UNL A   1      47.703  29.045  26.561  1.00  0.00     0.049 A 
ATOM     53  H   UNL A   1      45.794  29.202  27.378  1.00  0.00     0.167 HD
ATOM     54  C   UNL A   1      41.851  29.650  29.223  1.00  0.00     0.031 A 
ATOM     55  C   UNL A   1      47.873  27.763  26.186  1.00  0.00     0.031 A 
ATOM     56  C   UNL A   1      41.916  28.275  28.803  1.00  0.00     0.049 A 
ATOM     57  C   UNL A   1      46.756  26.780  26.399  1.00  0.00     0.074 A 
ATOM     58  C   UNL A   1      40.946  27.293  28.910  1.00  0.00     0.029 A 
ATOM     59  N   UNL A   1      43.016  27.685  28.197  1.00  0.00    -0.354 N 
ATOM     60  N   UNL A   1      45.575  26.980  26.936  1.00  0.00    -0.248 NA
ATOM     61  C   UNL A   1      46.990  25.400  25.951  1.00  0.00     0.031 C 
ATOM     62  C   UNL A   1      41.475  26.100  28.407  1.00  0.00     0.029 A 
ATOM     63  C   UNL A   1      42.757  26.347  27.943  1.00  0.00     0.049 A 
ATOM     64  H   UNL A   1      43.857  28.149  27.978  1.00  0.00     0.167 HD
ATOM     65  C   UNL A   1      44.920  25.755  26.879  1.00  0.00     0.074 A 
ATOM     66  C   UNL A   1      45.830  24.825  26.242  1.00  0.00     0.031 C 
ATOM     67  C   UNL A   1      43.678  25.432  27.317  1.00  0.00     0.031 A 
BRANCH  54  68
ATOM     68  C   UNL A   1      40.613  30.135  29.928  1.00  0.00    -0.014 A 
ATOM     69  C   UNL A   1      39.473  30.538  29.209  1.00  0.00     0.010 A 
ATOM     70  C   UNL A   1      40.594  30.199  31.333  1.00  0.00     0.010 A 
ATOM     71  C   UNL A   1      38.359  31.052  29.880  1.00  0.00     0.020 A 
ATOM     72  C   UNL A   1      39.473  30.690  32.009  1.00  0.00     0.020 A 
ATOM     73  C   UNL A   1      38.372  31.137  31.275  1.00  0.00     0.054 A 
BRANCH  73  74
ATOM     74  S   UNL A   1      36.925  31.831  32.123  1.00  0.00     0.124 S 
ATOM     75  O   UNL A   1      35.823  31.201  31.401  1.00  0.00    -0.237 OA
ATOM     76  O   UNL A   1      37.110  31.383  33.500  1.00  0.00    -0.237 OA
ATOM     77  O   UNL A   1      37.062  33.272  31.918  1.00  0.00    -0.744 OA
ENDBRANCH  73  74
ENDBRANCH  54  68
BRANCH  55  78
ATOM     78  C   UNL A   1      49.168  27.345  25.588  1.00  0.00    -0.014 A 
ATOM     79  C   UNL A   1      49.378  27.415  24.201  1.00  0.00     0.010 A 
ATOM     80  C   UNL A   1      50.222  26.924  26.421  1.00  0.00     0.010 A 
ATOM     81  C   UNL A   1      50.620  27.075  23.656  1.00  0.00     0.020 A 
ATOM     82  C   UNL A   1      51.471  26.606  25.883  1.00  0.00     0.020 A 
ATOM     83  C   UNL A   1      51.661  26.679  24.502  1.00  0.00     0.054 A 
BRANCH  83  84
ATOM     84  S   UNL A   1      53.292  26.329  23.786  1.00  0.00     0.124 S 
ATOM     85  O   UNL A   1      54.045  27.527  24.145  1.00  0.00    -0.237 OA
ATOM     86  O   UNL A   1      53.686  25.104  24.478  1.00  0.00    -0.237 OA
ATOM     87  O   UNL A   1      53.011  26.167  22.362  1.00  0.00    -0.744 OA
ENDBRANCH  83  84
ENDBRANCH  55  78
BRANCH  67  88
ATOM     88  C   UNL A   1      43.222  24.013  27.108  1.00  0.00    -0.014 A 
ATOM     89  C   UNL A   1      43.288  23.070  28.149  1.00  0.00     0.010 A 
ATOM     90  C   UNL A   1      42.674  23.633  25.870  1.00  0.00     0.010 A 
ATOM     91  C   UNL A   1      42.838  21.763  27.946  1.00  0.00     0.020 A 
ATOM     92  C   UNL A   1      42.201  22.333  25.671  1.00  0.00     0.020 A 
ATOM     93  C   UNL A   1      42.299  21.402  26.707  1.00  0.00     0.054 A 
BRANCH  93  94
ATOM     94  S   UNL A   1      41.677  19.712  26.479  1.00  0.00     0.124 S 
ATOM     95  O   UNL A   1      42.035  19.083  27.748  1.00  0.00    -0.237 OA
ATOM     96  O   UNL A   1      40.247  19.920  26.262  1.00  0.00    -0.237 OA
ATOM     97  O   UNL A   1      42.413  19.228  25.313  1.00  0.00    -0.744 OA
ENDBRANCH  93  94
ENDBRANCH  67  88
ENDBRANCH  41  42
ENDBRANCH  34  36
ENDBRANCH  33  34
ENDBRANCH  32  33
ENDBRANCH  31  32
ENDBRANCH  30  31
ENDBRANCH  28  30
ENDBRANCH   1  28
TORSDOF 24
ENDMDL
