MODEL 1
REMARK VINA RESULT:     -10.2      0.000      0.000
REMARK SMILES CC(C)C[C@@H](C(=O)OCCOC(=O)c1ccc(-c2c3nc(c(-c4ccc(S(=O)(=O)[O-])cc4)c4ccc([nH]4)c(-c4ccc(S(=O)(=O)[O-])cc4)c4nc(c(-c5ccc(S(=O)(=O)[O-])cc5)c5ccc2[nH]5)C=C4)C=C3)cc1)[C@@H]1CCC[C@@H](C)C1
REMARK SMILES IDX 10 1 9 2 8 3 6 4 7 5 5 6 4 7 2 8 1 9 3 10 74 11 75 12 80 13
REMARK SMILES IDX 76 14 78 15 77 16 79 17 11 18 12 19 13 20 14 21 15 22 73 23
REMARK SMILES IDX 16 24 72 25 17 26 18 27 19 28 66 29 20 30 71 31 65 32 67 33
REMARK SMILES IDX 21 34 70 35 64 36 63 37 22 39 52 40 33 41 51 42 34 43 37 44
REMARK SMILES IDX 50 45 68 46 35 47 36 48 49 50 69 51 38 52 23 53 24 54 32 55
REMARK SMILES IDX 25 56 31 57 26 58 27 59 28 60 29 61 30 62 53 63 54 64 62 65
REMARK SMILES IDX 55 66 61 67 56 68 57 69 58 70 59 71 60 72 39 73 40 74 48 75
REMARK SMILES IDX 41 76 47 77 42 78 43 79 44 80 45 81 46 82
REMARK H PARENT 67 38 37 49
REMARK Flexibility Score: inf
ROOT
ATOM      1  C   UNL A   1      34.224  31.037  27.925  1.00  0.00     0.275 C 
ENDROOT
BRANCH   1   2
ATOM      2  C   UNL A   1      33.044  30.260  27.328  1.00  0.00     0.274 C 
BRANCH   2   3
ATOM      3  O   UNL A   1      33.232  29.917  25.935  1.00  0.00    -0.462 OA
BRANCH   3   4
ATOM      4  C   UNL A   1      32.149  29.370  25.337  1.00  0.00     0.309 C 
ATOM      5  O   UNL A   1      31.125  30.001  25.081  1.00  0.00    -0.252 OA
BRANCH   4   6
ATOM      6  C   UNL A   1      32.232  27.876  25.051  1.00  0.00     0.102 C 
BRANCH   6   7
ATOM      7  C   UNL A   1      31.421  27.092  26.124  1.00  0.00     0.018 C 
BRANCH   7   8
ATOM      8  C   UNL A   1      30.285  26.140  25.706  1.00  0.00    -0.017 C 
ATOM      9  C   UNL A   1      30.046  26.080  24.198  1.00  0.00     0.007 C 
ATOM     10  C   UNL A   1      30.607  24.724  26.207  1.00  0.00     0.007 C 
ENDBRANCH   7   8
ENDBRANCH   6   7
BRANCH   6  11
ATOM     11  C   UNL A   1      33.526  27.168  24.542  1.00  0.00     0.003 C 
ATOM     12  C   UNL A   1      33.628  26.754  23.064  1.00  0.00     0.004 C 
ATOM     13  C   UNL A   1      34.090  26.117  25.533  1.00  0.00     0.007 C 
ATOM     14  C   UNL A   1      33.551  25.264  22.759  1.00  0.00     0.001 C 
ATOM     15  C   UNL A   1      34.017  24.649  25.100  1.00  0.00    -0.014 C 
ATOM     16  C   UNL A   1      34.470  24.458  23.662  1.00  0.00     0.003 C 
ATOM     17  C   UNL A   1      34.787  23.761  26.075  1.00  0.00     0.007 C 
ENDBRANCH   6  11
ENDBRANCH   4   6
ENDBRANCH   3   4
ENDBRANCH   2   3
ENDBRANCH   1   2
BRANCH   1  18
ATOM     18  O   UNL A   1      35.475  30.334  27.780  1.00  0.00    -0.458 OA
BRANCH  18  19
ATOM     19  C   UNL A   1      36.222  30.346  28.897  1.00  0.00     0.338 C 
ATOM     20  O   UNL A   1      35.890  30.785  29.992  1.00  0.00    -0.246 OA
BRANCH  19  21
ATOM     21  C   UNL A   1      37.550  29.778  28.749  1.00  0.00     0.060 A 
ATOM     22  C   UNL A   1      38.368  29.701  29.881  1.00  0.00     0.016 A 
ATOM     23  C   UNL A   1      38.070  29.623  27.463  1.00  0.00     0.016 A 
ATOM     24  C   UNL A   1      39.728  29.466  29.725  1.00  0.00     0.010 A 
ATOM     25  C   UNL A   1      39.430  29.365  27.311  1.00  0.00     0.010 A 
ATOM     26  C   UNL A   1      40.261  29.289  28.440  1.00  0.00    -0.014 A 
BRANCH  26  27
ATOM     27  C   UNL A   1      41.674  28.897  28.281  1.00  0.00     0.031 A 
ATOM     28  C   UNL A   1      42.777  29.906  28.354  1.00  0.00     0.074 A 
ATOM     29  C   UNL A   1      41.924  27.598  28.039  1.00  0.00     0.049 A 
ATOM     30  N   UNL A   1      44.052  29.738  28.118  1.00  0.00    -0.248 NA
ATOM     31  C   UNL A   1      42.407  31.276  28.739  1.00  0.00     0.031 C 
ATOM     32  C   UNL A   1      40.904  26.545  27.983  1.00  0.00     0.029 A 
ATOM     33  N   UNL A   1      43.097  26.944  27.787  1.00  0.00    -0.354 N 
ATOM     34  C   UNL A   1      44.639  30.983  28.307  1.00  0.00     0.074 A 
ATOM     35  C   UNL A   1      43.579  31.897  28.679  1.00  0.00     0.031 C 
ATOM     36  C   UNL A   1      41.500  25.374  27.717  1.00  0.00     0.029 A 
ATOM     37  C   UNL A   1      42.926  25.607  27.528  1.00  0.00     0.049 A 
ATOM     38  H   UNL A   1      43.976  27.387  27.792  1.00  0.00     0.167 HD
ATOM     39  C   UNL A   1      45.944  31.322  28.167  1.00  0.00     0.031 A 
ATOM     40  C   UNL A   1      43.815  24.676  27.142  1.00  0.00     0.031 A 
ATOM     41  C   UNL A   1      46.974  30.395  27.776  1.00  0.00     0.049 A 
ATOM     42  C   UNL A   1      45.242  25.088  26.952  1.00  0.00     0.074 A 
ATOM     43  C   UNL A   1      48.325  30.630  27.589  1.00  0.00     0.029 A 
ATOM     44  N   UNL A   1      46.764  29.049  27.507  1.00  0.00    -0.354 N 
ATOM     45  N   UNL A   1      45.780  26.275  27.112  1.00  0.00    -0.248 NA
ATOM     46  C   UNL A   1      46.179  24.045  26.523  1.00  0.00     0.031 C 
ATOM     47  C   UNL A   1      48.924  29.433  27.175  1.00  0.00     0.029 A 
ATOM     48  C   UNL A   1      47.953  28.444  27.141  1.00  0.00     0.049 A 
ATOM     49  H   UNL A   1      45.894  28.591  27.567  1.00  0.00     0.167 HD
ATOM     50  C   UNL A   1      47.123  26.122  26.805  1.00  0.00     0.074 A 
ATOM     51  C   UNL A   1      47.318  24.724  26.468  1.00  0.00     0.031 C 
ATOM     52  C   UNL A   1      48.108  27.053  26.796  1.00  0.00     0.031 A 
BRANCH  39  53
ATOM     53  C   UNL A   1      46.316  32.763  28.393  1.00  0.00    -0.014 A 
ATOM     54  C   UNL A   1      46.725  33.221  29.657  1.00  0.00     0.010 A 
ATOM     55  C   UNL A   1      46.286  33.667  27.315  1.00  0.00     0.010 A 
ATOM     56  C   UNL A   1      47.063  34.566  29.849  1.00  0.00     0.020 A 
ATOM     57  C   UNL A   1      46.638  35.008  27.498  1.00  0.00     0.020 A 
ATOM     58  C   UNL A   1      47.008  35.453  28.768  1.00  0.00     0.054 A 
BRANCH  58  59
ATOM     59  S   UNL A   1      47.455  37.192  29.035  1.00  0.00     0.124 S 
ATOM     60  O   UNL A   1      46.730  37.504  30.264  1.00  0.00    -0.237 OA
ATOM     61  O   UNL A   1      48.909  37.139  29.161  1.00  0.00    -0.237 OA
ATOM     62  O   UNL A   1      46.963  37.863  27.835  1.00  0.00    -0.744 OA
ENDBRANCH  58  59
ENDBRANCH  39  53
BRANCH  40  63
ATOM     63  C   UNL A   1      43.350  23.291  26.886  1.00  0.00    -0.014 A 
ATOM     64  C   UNL A   1      43.329  22.777  25.580  1.00  0.00     0.010 A 
ATOM     65  C   UNL A   1      43.009  22.451  27.963  1.00  0.00     0.010 A 
ATOM     66  C   UNL A   1      42.978  21.442  25.354  1.00  0.00     0.020 A 
ATOM     67  C   UNL A   1      42.680  21.112  27.743  1.00  0.00     0.020 A 
ATOM     68  C   UNL A   1      42.660  20.618  26.437  1.00  0.00     0.054 A 
BRANCH  68  69
ATOM     69  S   UNL A   1      42.294  18.866  26.137  1.00  0.00     0.124 S 
ATOM     70  O   UNL A   1      43.282  18.521  25.119  1.00  0.00    -0.237 OA
ATOM     71  O   UNL A   1      42.504  18.264  27.452  1.00  0.00    -0.237 OA
ATOM     72  O   UNL A   1      40.904  18.883  25.685  1.00  0.00    -0.744 OA
ENDBRANCH  68  69
ENDBRANCH  40  63
BRANCH  52  73
ATOM     73  C   UNL A   1      49.478  26.572  26.417  1.00  0.00    -0.014 A 
ATOM     74  C   UNL A   1      49.987  26.802  25.128  1.00  0.00     0.010 A 
ATOM     75  C   UNL A   1      50.266  25.899  27.367  1.00  0.00     0.010 A 
ATOM     76  C   UNL A   1      51.257  26.336  24.783  1.00  0.00     0.020 A 
ATOM     77  C   UNL A   1      51.544  25.448  27.029  1.00  0.00     0.020 A 
ATOM     78  C   UNL A   1      52.024  25.656  25.734  1.00  0.00     0.054 A 
BRANCH  78  79
ATOM     79  S   UNL A   1      53.684  25.083  25.278  1.00  0.00     0.124 S 
ATOM     80  O   UNL A   1      53.552  23.636  25.420  1.00  0.00    -0.237 OA
ATOM     81  O   UNL A   1      53.832  25.570  23.909  1.00  0.00    -0.237 OA
ATOM     82  O   UNL A   1      54.551  25.731  26.258  1.00  0.00    -0.744 OA
ENDBRANCH  78  79
ENDBRANCH  52  73
ENDBRANCH  26  27
ENDBRANCH  19  21
ENDBRANCH  18  19
ENDBRANCH   1  18
TORSDOF 17
ENDMDL
MODEL 2
REMARK VINA RESULT:      -9.9      4.758     11.538
REMARK SMILES CC(C)C[C@@H](C(=O)OCCOC(=O)c1ccc(-c2c3nc(c(-c4ccc(S(=O)(=O)[O-])cc4)c4ccc([nH]4)c(-c4ccc(S(=O)(=O)[O-])cc4)c4nc(c(-c5ccc(S(=O)(=O)[O-])cc5)c5ccc2[nH]5)C=C4)C=C3)cc1)[C@@H]1CCC[C@@H](C)C1
REMARK SMILES IDX 10 1 9 2 8 3 6 4 7 5 5 6 4 7 2 8 1 9 3 10 74 11 75 12 80 13
REMARK SMILES IDX 76 14 78 15 77 16 79 17 11 18 12 19 13 20 14 21 15 22 73 23
REMARK SMILES IDX 16 24 72 25 17 26 18 27 19 28 66 29 20 30 71 31 65 32 67 33
REMARK SMILES IDX 21 34 70 35 64 36 63 37 22 39 52 40 33 41 51 42 34 43 37 44
REMARK SMILES IDX 50 45 68 46 35 47 36 48 49 50 69 51 38 52 23 53 24 54 32 55
REMARK SMILES IDX 25 56 31 57 26 58 27 59 28 60 29 61 30 62 53 63 54 64 62 65
REMARK SMILES IDX 55 66 61 67 56 68 57 69 58 70 59 71 60 72 39 73 40 74 48 75
REMARK SMILES IDX 41 76 47 77 42 78 43 79 44 80 45 81 46 82
REMARK H PARENT 67 38 37 49
REMARK Flexibility Score: inf
ROOT
ATOM      1  C   UNL A   1      39.581  20.980  26.246  1.00  0.00     0.275 C 
ENDROOT
BRANCH   1   2
ATOM      2  C   UNL A   1      40.784  20.038  26.115  1.00  0.00     0.274 C 
BRANCH   2   3
ATOM      3  O   UNL A   1      41.984  20.554  26.739  1.00  0.00    -0.462 OA
BRANCH   3   4
ATOM      4  C   UNL A   1      42.980  20.861  25.878  1.00  0.00     0.309 C 
ATOM      5  O   UNL A   1      43.283  20.161  24.913  1.00  0.00    -0.252 OA
BRANCH   4   6
ATOM      6  C   UNL A   1      43.779  22.115  26.207  1.00  0.00     0.102 C 
BRANCH   6   7
ATOM      7  C   UNL A   1      43.183  22.798  27.473  1.00  0.00     0.018 C 
BRANCH   7   8
ATOM      8  C   UNL A   1      43.980  22.839  28.790  1.00  0.00    -0.017 C 
ATOM      9  C   UNL A   1      45.229  23.717  28.734  1.00  0.00     0.007 C 
ATOM     10  C   UNL A   1      43.068  23.354  29.913  1.00  0.00     0.007 C 
ENDBRANCH   7   8
ENDBRANCH   6   7
BRANCH   6  11
ATOM     11  C   UNL A   1      44.338  23.089  25.124  1.00  0.00     0.003 C 
ATOM     12  C   UNL A   1      45.844  23.089  24.814  1.00  0.00     0.004 C 
ATOM     13  C   UNL A   1      43.703  24.503  25.173  1.00  0.00     0.007 C 
ATOM     14  C   UNL A   1      46.645  24.294  25.286  1.00  0.00     0.001 C 
ATOM     15  C   UNL A   1      44.616  25.656  25.604  1.00  0.00    -0.014 C 
ATOM     16  C   UNL A   1      45.967  25.602  24.910  1.00  0.00     0.003 C 
ATOM     17  C   UNL A   1      43.916  27.000  25.409  1.00  0.00     0.007 C 
ENDBRANCH   6  11
ENDBRANCH   4   6
ENDBRANCH   3   4
ENDBRANCH   2   3
ENDBRANCH   1   2
BRANCH   1  18
ATOM     18  O   UNL A   1      39.950  22.366  26.103  1.00  0.00    -0.458 OA
BRANCH  18  19
ATOM     19  C   UNL A   1      38.916  23.210  26.259  1.00  0.00     0.338 C 
ATOM     20  O   UNL A   1      37.748  22.995  25.956  1.00  0.00    -0.246 OA
BRANCH  19  21
ATOM     21  C   UNL A   1      39.257  24.494  26.844  1.00  0.00     0.060 A 
ATOM     22  C   UNL A   1      40.100  25.347  26.124  1.00  0.00     0.016 A 
ATOM     23  C   UNL A   1      38.999  24.700  28.200  1.00  0.00     0.016 A 
ATOM     24  C   UNL A   1      40.695  26.422  26.770  1.00  0.00     0.010 A 
ATOM     25  C   UNL A   1      39.579  25.792  28.840  1.00  0.00     0.010 A 
ATOM     26  C   UNL A   1      40.430  26.652  28.128  1.00  0.00    -0.014 A 
BRANCH  26  27
ATOM     27  C   UNL A   1      40.944  27.873  28.778  1.00  0.00     0.031 A 
ATOM     28  C   UNL A   1      42.343  27.946  29.305  1.00  0.00     0.074 A 
ATOM     29  C   UNL A   1      40.091  28.904  28.902  1.00  0.00     0.049 A 
ATOM     30  N   UNL A   1      42.902  28.899  30.003  1.00  0.00    -0.248 NA
ATOM     31  C   UNL A   1      43.229  26.809  29.014  1.00  0.00     0.031 C 
ATOM     32  C   UNL A   1      38.717  28.922  28.387  1.00  0.00     0.029 A 
ATOM     33  N   UNL A   1      40.241  30.123  29.502  1.00  0.00    -0.354 N 
ATOM     34  C   UNL A   1      44.200  28.474  30.253  1.00  0.00     0.074 A 
ATOM     35  C   UNL A   1      44.346  27.175  29.630  1.00  0.00     0.031 C 
ATOM     36  C   UNL A   1      38.153  30.099  28.691  1.00  0.00     0.029 A 
ATOM     37  C   UNL A   1      39.101  30.887  29.467  1.00  0.00     0.049 A 
ATOM     38  H   UNL A   1      41.082  30.423  29.915  1.00  0.00     0.167 HD
ATOM     39  C   UNL A   1      45.170  29.113  30.953  1.00  0.00     0.031 A 
ATOM     40  C   UNL A   1      38.836  32.077  30.032  1.00  0.00     0.031 A 
ATOM     41  C   UNL A   1      44.990  30.398  31.579  1.00  0.00     0.049 A 
ATOM     42  C   UNL A   1      39.911  32.740  30.837  1.00  0.00     0.074 A 
ATOM     43  C   UNL A   1      45.896  31.132  32.324  1.00  0.00     0.029 A 
ATOM     44  N   UNL A   1      43.816  31.139  31.537  1.00  0.00    -0.354 N 
ATOM     45  N   UNL A   1      41.127  32.316  31.085  1.00  0.00    -0.248 NA
ATOM     46  C   UNL A   1      39.578  34.034  31.443  1.00  0.00     0.031 C 
ATOM     47  C   UNL A   1      45.258  32.302  32.759  1.00  0.00     0.029 A 
ATOM     48  C   UNL A   1      43.968  32.313  32.253  1.00  0.00     0.049 A 
ATOM     49  H   UNL A   1      42.995  30.867  31.066  1.00  0.00     0.167 HD
ATOM     50  C   UNL A   1      41.711  33.293  31.877  1.00  0.00     0.074 A 
ATOM     51  C   UNL A   1      40.718  34.338  32.050  1.00  0.00     0.031 C 
ATOM     52  C   UNL A   1      42.953  33.324  32.418  1.00  0.00     0.031 A 
BRANCH  39  53
ATOM     53  C   UNL A   1      46.491  28.410  31.113  1.00  0.00    -0.014 A 
ATOM     54  C   UNL A   1      46.719  27.520  32.177  1.00  0.00     0.010 A 
ATOM     55  C   UNL A   1      47.510  28.619  30.166  1.00  0.00     0.010 A 
ATOM     56  C   UNL A   1      47.956  26.879  32.312  1.00  0.00     0.020 A 
ATOM     57  C   UNL A   1      48.742  27.968  30.288  1.00  0.00     0.020 A 
ATOM     58  C   UNL A   1      48.963  27.115  31.371  1.00  0.00     0.054 A 
BRANCH  58  59
ATOM     59  S   UNL A   1      50.559  26.269  31.559  1.00  0.00     0.124 S 
ATOM     60  O   UNL A   1      51.418  27.049  30.670  1.00  0.00    -0.237 OA
ATOM     61  O   UNL A   1      50.837  26.413  32.986  1.00  0.00    -0.237 OA
ATOM     62  O   UNL A   1      50.281  24.905  31.118  1.00  0.00    -0.744 OA
ENDBRANCH  58  59
ENDBRANCH  39  53
BRANCH  40  63
ATOM     63  C   UNL A   1      37.487  32.672  29.870  1.00  0.00    -0.014 A 
ATOM     64  C   UNL A   1      36.504  32.486  30.855  1.00  0.00     0.010 A 
ATOM     65  C   UNL A   1      37.210  33.503  28.768  1.00  0.00     0.010 A 
ATOM     66  C   UNL A   1      35.264  33.124  30.742  1.00  0.00     0.020 A 
ATOM     67  C   UNL A   1      35.982  34.159  28.664  1.00  0.00     0.020 A 
ATOM     68  C   UNL A   1      35.013  33.960  29.650  1.00  0.00     0.054 A 
BRANCH  68  69
ATOM     69  S   UNL A   1      33.435  34.852  29.564  1.00  0.00     0.124 S 
ATOM     70  O   UNL A   1      33.839  36.124  28.974  1.00  0.00    -0.237 OA
ATOM     71  O   UNL A   1      32.623  33.987  28.710  1.00  0.00    -0.237 OA
ATOM     72  O   UNL A   1      33.005  34.913  30.960  1.00  0.00    -0.744 OA
ENDBRANCH  68  69
ENDBRANCH  40  63
BRANCH  52  73
ATOM     73  C   UNL A   1      43.295  34.534  33.237  1.00  0.00    -0.014 A 
ATOM     74  C   UNL A   1      43.198  34.502  34.638  1.00  0.00     0.010 A 
ATOM     75  C   UNL A   1      43.732  35.706  32.596  1.00  0.00     0.010 A 
ATOM     76  C   UNL A   1      43.504  35.639  35.388  1.00  0.00     0.020 A 
ATOM     77  C   UNL A   1      44.055  36.839  33.345  1.00  0.00     0.020 A 
ATOM     78  C   UNL A   1      43.925  36.802  34.736  1.00  0.00     0.054 A 
BRANCH  78  79
ATOM     79  S   UNL A   1      44.346  38.262  35.727  1.00  0.00     0.124 S 
ATOM     80  O   UNL A   1      43.884  39.351  34.871  1.00  0.00    -0.237 OA
ATOM     81  O   UNL A   1      43.579  38.057  36.952  1.00  0.00    -0.237 OA
ATOM     82  O   UNL A   1      45.795  38.162  35.884  1.00  0.00    -0.744 OA
ENDBRANCH  78  79
ENDBRANCH  52  73
ENDBRANCH  26  27
ENDBRANCH  19  21
ENDBRANCH  18  19
ENDBRANCH   1  18
TORSDOF 17
ENDMDL
MODEL 3
REMARK VINA RESULT:      -9.8      3.246      4.350
REMARK SMILES CC(C)C[C@@H](C(=O)OCCOC(=O)c1ccc(-c2c3nc(c(-c4ccc(S(=O)(=O)[O-])cc4)c4ccc([nH]4)c(-c4ccc(S(=O)(=O)[O-])cc4)c4nc(c(-c5ccc(S(=O)(=O)[O-])cc5)c5ccc2[nH]5)C=C4)C=C3)cc1)[C@@H]1CCC[C@@H](C)C1
REMARK SMILES IDX 10 1 9 2 8 3 6 4 7 5 5 6 4 7 2 8 1 9 3 10 74 11 75 12 80 13
REMARK SMILES IDX 76 14 78 15 77 16 79 17 11 18 12 19 13 20 14 21 15 22 73 23
REMARK SMILES IDX 16 24 72 25 17 26 18 27 19 28 66 29 20 30 71 31 65 32 67 33
REMARK SMILES IDX 21 34 70 35 64 36 63 37 22 39 52 40 33 41 51 42 34 43 37 44
REMARK SMILES IDX 50 45 68 46 35 47 36 48 49 50 69 51 38 52 23 53 24 54 32 55
REMARK SMILES IDX 25 56 31 57 26 58 27 59 28 60 29 61 30 62 53 63 54 64 62 65
REMARK SMILES IDX 55 66 61 67 56 68 57 69 58 70 59 71 60 72 39 73 40 74 48 75
REMARK SMILES IDX 41 76 47 77 42 78 43 79 44 80 45 81 46 82
REMARK H PARENT 67 38 37 49
REMARK Flexibility Score: inf
ROOT
ATOM      1  C   UNL A   1      33.243  29.269  26.257  1.00  0.00     0.275 C 
ENDROOT
BRANCH   1   2
ATOM      2  C   UNL A   1      33.580  28.191  25.220  1.00  0.00     0.274 C 
BRANCH   2   3
ATOM      3  O   UNL A   1      33.994  26.937  25.812  1.00  0.00    -0.462 OA
BRANCH   3   4
ATOM      4  C   UNL A   1      33.085  25.940  25.716  1.00  0.00     0.309 C 
ATOM      5  O   UNL A   1      31.869  26.128  25.717  1.00  0.00    -0.252 OA
BRANCH   4   6
ATOM      6  C   UNL A   1      33.651  24.527  25.674  1.00  0.00     0.102 C 
BRANCH   6   7
ATOM      7  C   UNL A   1      34.856  24.475  24.690  1.00  0.00     0.018 C 
BRANCH   7   8
ATOM      8  C   UNL A   1      35.887  23.333  24.772  1.00  0.00    -0.017 C 
ATOM      9  C   UNL A   1      36.451  22.905  23.418  1.00  0.00     0.007 C 
ATOM     10  C   UNL A   1      37.052  23.773  25.671  1.00  0.00     0.007 C 
ENDBRANCH   7   8
ENDBRANCH   6   7
BRANCH   6  11
ATOM     11  C   UNL A   1      32.766  23.243  25.715  1.00  0.00     0.003 C 
ATOM     12  C   UNL A   1      33.163  22.082  26.642  1.00  0.00     0.004 C 
ATOM     13  C   UNL A   1      32.261  22.793  24.320  1.00  0.00     0.007 C 
ATOM     14  C   UNL A   1      33.704  20.823  25.978  1.00  0.00     0.001 C 
ATOM     15  C   UNL A   1      32.826  21.478  23.771  1.00  0.00    -0.014 C 
ATOM     16  C   UNL A   1      32.827  20.378  24.819  1.00  0.00     0.003 C 
ATOM     17  C   UNL A   1      32.090  21.066  22.497  1.00  0.00     0.007 C 
ENDBRANCH   6  11
ENDBRANCH   4   6
ENDBRANCH   3   4
ENDBRANCH   2   3
ENDBRANCH   1   2
BRANCH   1  18
ATOM     18  O   UNL A   1      33.990  29.107  27.480  1.00  0.00    -0.458 OA
BRANCH  18  19
ATOM     19  C   UNL A   1      34.577  30.242  27.898  1.00  0.00     0.338 C 
ATOM     20  O   UNL A   1      34.074  31.360  27.913  1.00  0.00    -0.246 OA
BRANCH  19  21
ATOM     21  C   UNL A   1      35.942  30.087  28.365  1.00  0.00     0.060 A 
ATOM     22  C   UNL A   1      36.970  30.077  27.418  1.00  0.00     0.016 A 
ATOM     23  C   UNL A   1      36.153  29.650  29.674  1.00  0.00     0.016 A 
ATOM     24  C   UNL A   1      38.230  29.621  27.784  1.00  0.00     0.010 A 
ATOM     25  C   UNL A   1      37.424  29.215  30.044  1.00  0.00     0.010 A 
ATOM     26  C   UNL A   1      38.462  29.197  29.100  1.00  0.00    -0.014 A 
BRANCH  26  27
ATOM     27  C   UNL A   1      39.832  28.851  29.527  1.00  0.00     0.031 A 
ATOM     28  C   UNL A   1      40.679  29.818  30.292  1.00  0.00     0.074 A 
ATOM     29  C   UNL A   1      40.294  27.639  29.171  1.00  0.00     0.049 A 
ATOM     30  N   UNL A   1      41.935  29.709  30.633  1.00  0.00    -0.248 NA
ATOM     31  C   UNL A   1      40.038  31.067  30.730  1.00  0.00     0.031 C 
ATOM     32  C   UNL A   1      39.519  26.625  28.449  1.00  0.00     0.029 A 
ATOM     33  N   UNL A   1      41.518  27.059  29.356  1.00  0.00    -0.354 N 
ATOM     34  C   UNL A   1      42.247  30.880  31.312  1.00  0.00     0.074 A 
ATOM     35  C   UNL A   1      41.044  31.687  31.335  1.00  0.00     0.031 C 
ATOM     36  C   UNL A   1      40.287  25.544  28.256  1.00  0.00     0.029 A 
ATOM     37  C   UNL A   1      41.617  25.814  28.787  1.00  0.00     0.049 A 
ATOM     38  H   UNL A   1      42.253  27.491  29.848  1.00  0.00     0.167 HD
ATOM     39  C   UNL A   1      43.436  31.244  31.852  1.00  0.00     0.031 A 
ATOM     40  C   UNL A   1      42.676  24.994  28.671  1.00  0.00     0.031 A 
ATOM     41  C   UNL A   1      44.622  30.428  31.796  1.00  0.00     0.049 A 
ATOM     42  C   UNL A   1      43.988  25.439  29.237  1.00  0.00     0.074 A 
ATOM     43  C   UNL A   1      45.884  30.700  32.295  1.00  0.00     0.029 A 
ATOM     44  N   UNL A   1      44.692  29.176  31.198  1.00  0.00    -0.354 N 
ATOM     45  N   UNL A   1      44.274  26.560  29.856  1.00  0.00    -0.248 NA
ATOM     46  C   UNL A   1      45.120  24.519  29.082  1.00  0.00     0.031 C 
ATOM     47  C   UNL A   1      46.724  29.627  31.970  1.00  0.00     0.029 A 
ATOM     48  C   UNL A   1      45.975  28.670  31.301  1.00  0.00     0.049 A 
ATOM     49  H   UNL A   1      43.937  28.716  30.765  1.00  0.00     0.167 HD
ATOM     50  C   UNL A   1      45.623  26.481  30.170  1.00  0.00     0.074 A 
ATOM     51  C   UNL A   1      46.089  25.194  29.688  1.00  0.00     0.031 C 
ATOM     52  C   UNL A   1      46.409  27.391  30.796  1.00  0.00     0.031 A 
BRANCH  39  53
ATOM     53  C   UNL A   1      43.520  32.597  32.503  1.00  0.00    -0.014 A 
ATOM     54  C   UNL A   1      43.910  33.735  31.775  1.00  0.00     0.010 A 
ATOM     55  C   UNL A   1      43.174  32.739  33.860  1.00  0.00     0.010 A 
ATOM     56  C   UNL A   1      43.986  34.985  32.401  1.00  0.00     0.020 A 
ATOM     57  C   UNL A   1      43.233  33.989  34.484  1.00  0.00     0.020 A 
ATOM     58  C   UNL A   1      43.656  35.101  33.755  1.00  0.00     0.054 A 
BRANCH  58  59
ATOM     59  S   UNL A   1      43.755  36.732  34.547  1.00  0.00     0.124 S 
ATOM     60  O   UNL A   1      43.309  36.433  35.906  1.00  0.00    -0.237 OA
ATOM     61  O   UNL A   1      45.169  37.074  34.412  1.00  0.00    -0.237 OA
ATOM     62  O   UNL A   1      42.842  37.555  33.759  1.00  0.00    -0.744 OA
ENDBRANCH  58  59
ENDBRANCH  39  53
BRANCH  40  63
ATOM     63  C   UNL A   1      42.517  23.701  27.962  1.00  0.00    -0.014 A 
ATOM     64  C   UNL A   1      42.799  23.602  26.590  1.00  0.00     0.010 A 
ATOM     65  C   UNL A   1      42.166  22.541  28.679  1.00  0.00     0.010 A 
ATOM     66  C   UNL A   1      42.737  22.362  25.946  1.00  0.00     0.020 A 
ATOM     67  C   UNL A   1      42.124  21.298  28.044  1.00  0.00     0.020 A 
ATOM     68  C   UNL A   1      42.404  21.218  26.678  1.00  0.00     0.054 A 
BRANCH  68  69
ATOM     69  S   UNL A   1      42.416  19.604  25.849  1.00  0.00     0.124 S 
ATOM     70  O   UNL A   1      41.038  19.494  25.381  1.00  0.00    -0.237 OA
ATOM     71  O   UNL A   1      43.424  19.785  24.807  1.00  0.00    -0.237 OA
ATOM     72  O   UNL A   1      42.794  18.679  26.915  1.00  0.00    -0.744 OA
ENDBRANCH  68  69
ENDBRANCH  40  63
BRANCH  52  73
ATOM     73  C   UNL A   1      47.846  27.008  30.994  1.00  0.00    -0.014 A 
ATOM     74  C   UNL A   1      48.270  26.410  32.193  1.00  0.00     0.010 A 
ATOM     75  C   UNL A   1      48.774  27.234  29.963  1.00  0.00     0.010 A 
ATOM     76  C   UNL A   1      49.612  26.072  32.371  1.00  0.00     0.020 A 
ATOM     77  C   UNL A   1      50.114  26.880  30.132  1.00  0.00     0.020 A 
ATOM     78  C   UNL A   1      50.527  26.315  31.342  1.00  0.00     0.054 A 
BRANCH  78  79
ATOM     79  S   UNL A   1      52.262  25.842  31.578  1.00  0.00     0.124 S 
ATOM     80  O   UNL A   1      52.148  24.420  31.885  1.00  0.00    -0.237 OA
ATOM     81  O   UNL A   1      52.865  26.161  30.286  1.00  0.00    -0.237 OA
ATOM     82  O   UNL A   1      52.699  26.688  32.686  1.00  0.00    -0.744 OA
ENDBRANCH  78  79
ENDBRANCH  52  73
ENDBRANCH  26  27
ENDBRANCH  19  21
ENDBRANCH  18  19
ENDBRANCH   1  18
TORSDOF 17
ENDMDL
