MODEL 1
REMARK VINA RESULT:     -11.4      0.000      0.000
REMARK SMILES Cc1ccc2nc(CC3(CC(=O)OCCOC(=O)c4ccc(-c5c6nc(c(-c7ccc(S(=O)(=O)[O-])cc7)c7ccc([nH]7)c(-c7ccc(S(=O)(=O)[O-])cc7)c7nc(c(-c8ccc(S(=O)(=O)[O-])cc8)c8ccc5[nH]8)C=C7)C=C6)cc4)CCCCC3)sc2c1
REMARK SMILES IDX 14 1 13 2 11 3 12 4 10 5 9 6 79 7 83 8 80 9 82 10 81 11 8 12
REMARK SMILES IDX 7 13 1 14 2 15 3 16 86 17 4 18 85 19 5 20 84 21 6 22 15 23
REMARK SMILES IDX 16 24 17 25 18 26 19 27 20 28 78 29 21 30 77 31 22 32 23 33
REMARK SMILES IDX 24 34 71 35 25 36 76 37 70 38 72 39 26 40 75 41 69 42 68 43
REMARK SMILES IDX 27 45 57 46 38 47 56 48 39 49 42 50 55 51 73 52 40 53 41 54
REMARK SMILES IDX 54 56 74 57 43 58 28 59 29 60 37 61 30 62 36 63 31 64 32 65
REMARK SMILES IDX 33 66 34 67 35 68 58 69 59 70 67 71 60 72 66 73 61 74 62 75
REMARK SMILES IDX 63 76 64 77 65 78 44 79 45 80 53 81 46 82 52 83 47 84 48 85
REMARK SMILES IDX 49 86 50 87 51 88
REMARK H PARENT 72 44 42 55
REMARK Flexibility Score: inf
ROOT
ATOM      1  C   UNL A   1      37.940  23.032  25.776  1.00  0.00     0.274 C 
ENDROOT
BRANCH   1   2
ATOM      2  O   UNL A   1      37.200  22.033  25.048  1.00  0.00    -0.462 OA
BRANCH   2   3
ATOM      3  C   UNL A   1      36.499  22.478  23.982  1.00  0.00     0.306 C 
ATOM      4  O   UNL A   1      36.995  23.032  23.006  1.00  0.00    -0.252 OA
BRANCH   3   5
ATOM      5  C   UNL A   1      35.003  22.248  24.069  1.00  0.00     0.130 C 
BRANCH   5   6
ATOM      6  C   UNL A   1      34.004  23.411  24.371  1.00  0.00    -0.013 C 
ATOM      7  C   UNL A   1      34.415  24.025  25.747  1.00  0.00     0.008 C 
ATOM      8  C   UNL A   1      32.545  22.903  24.517  1.00  0.00     0.008 C 
ATOM      9  C   UNL A   1      34.225  23.071  26.933  1.00  0.00     0.001 C 
ATOM     10  C   UNL A   1      32.376  21.888  25.645  1.00  0.00     0.001 C 
ATOM     11  C   UNL A   1      32.820  22.473  26.982  1.00  0.00     0.000 C 
BRANCH   6  12
ATOM     12  C   UNL A   1      34.151  24.495  23.251  1.00  0.00     0.075 C 
BRANCH  12  13
ATOM     13  C   UNL A   1      33.190  25.653  23.347  1.00  0.00     0.094 A 
ATOM     14  C   UNL A   1      29.027  30.234  23.172  1.00  0.00     0.044 C 
ATOM     15  C   UNL A   1      30.158  29.296  23.486  1.00  0.00    -0.050 A 
ATOM     16  C   UNL A   1      31.014  29.551  24.560  1.00  0.00     0.006 A 
ATOM     17  C   UNL A   1      30.340  28.144  22.700  1.00  0.00     0.024 A 
ATOM     18  C   UNL A   1      32.060  28.674  24.865  1.00  0.00     0.030 A 
ATOM     19  C   UNL A   1      31.402  27.274  23.013  1.00  0.00     0.055 A 
ATOM     20  C   UNL A   1      32.261  27.521  24.083  1.00  0.00     0.082 A 
ATOM     21  S   UNL A   1      31.887  25.814  22.237  1.00  0.00    -0.119 S 
ATOM     22  N   UNL A   1      33.258  26.581  24.276  1.00  0.00    -0.241 NA
ENDBRANCH  12  13
ENDBRANCH   6  12
ENDBRANCH   5   6
ENDBRANCH   3   5
ENDBRANCH   2   3
ENDBRANCH   1   2
BRANCH   1  23
ATOM     23  C   UNL A   1      39.184  22.415  26.406  1.00  0.00     0.275 C 
BRANCH  23  24
ATOM     24  O   UNL A   1      39.691  23.293  27.426  1.00  0.00    -0.458 OA
BRANCH  24  25
ATOM     25  C   UNL A   1      40.651  24.157  27.029  1.00  0.00     0.338 C 
ATOM     26  O   UNL A   1      41.437  24.021  26.108  1.00  0.00    -0.246 OA
BRANCH  25  27
ATOM     27  C   UNL A   1      40.640  25.341  27.904  1.00  0.00     0.060 A 
ATOM     28  C   UNL A   1      41.765  26.162  28.006  1.00  0.00     0.016 A 
ATOM     29  C   UNL A   1      39.516  25.579  28.694  1.00  0.00     0.016 A 
ATOM     30  C   UNL A   1      41.786  27.203  28.933  1.00  0.00     0.010 A 
ATOM     31  C   UNL A   1      39.514  26.662  29.573  1.00  0.00     0.010 A 
ATOM     32  C   UNL A   1      40.654  27.471  29.716  1.00  0.00    -0.014 A 
BRANCH  32  33
ATOM     33  C   UNL A   1      40.641  28.592  30.690  1.00  0.00     0.031 A 
ATOM     34  C   UNL A   1      41.597  28.589  31.852  1.00  0.00     0.074 A 
ATOM     35  C   UNL A   1      39.738  29.583  30.561  1.00  0.00     0.049 A 
ATOM     36  N   UNL A   1      41.617  29.363  32.906  1.00  0.00    -0.248 NA
ATOM     37  C   UNL A   1      42.663  27.574  31.830  1.00  0.00     0.031 C 
ATOM     38  C   UNL A   1      38.777  29.717  29.465  1.00  0.00     0.029 A 
ATOM     39  N   UNL A   1      39.471  30.657  31.372  1.00  0.00    -0.354 N 
ATOM     40  C   UNL A   1      42.665  28.904  33.695  1.00  0.00     0.074 A 
ATOM     41  C   UNL A   1      43.258  27.782  32.997  1.00  0.00     0.031 C 
ATOM     42  C   UNL A   1      38.029  30.812  29.670  1.00  0.00     0.029 A 
ATOM     43  C   UNL A   1      38.410  31.417  30.941  1.00  0.00     0.049 A 
ATOM     44  H   UNL A   1      39.989  30.863  32.183  1.00  0.00     0.167 HD
ATOM     45  C   UNL A   1      43.089  29.369  34.893  1.00  0.00     0.031 A 
ATOM     46  C   UNL A   1      37.784  32.458  31.521  1.00  0.00     0.031 A 
ATOM     47  C   UNL A   1      42.504  30.494  35.576  1.00  0.00     0.049 A 
ATOM     48  C   UNL A   1      38.250  32.937  32.866  1.00  0.00     0.074 A 
ATOM     49  C   UNL A   1      42.871  31.053  36.788  1.00  0.00     0.029 A 
ATOM     50  N   UNL A   1      41.431  31.234  35.104  1.00  0.00    -0.354 N 
ATOM     51  N   UNL A   1      39.227  32.478  33.609  1.00  0.00    -0.248 NA
ATOM     52  C   UNL A   1      37.522  34.071  33.453  1.00  0.00     0.031 C 
ATOM     53  C   UNL A   1      41.996  32.110  37.065  1.00  0.00     0.029 A 
ATOM     54  C   UNL A   1      41.113  32.235  36.004  1.00  0.00     0.049 A 
ATOM     55  H   UNL A   1      40.964  31.071  34.252  1.00  0.00     0.167 HD
ATOM     56  C   UNL A   1      39.240  33.272  34.749  1.00  0.00     0.074 A 
ATOM     57  C   UNL A   1      38.184  34.251  34.590  1.00  0.00     0.031 C 
ATOM     58  C   UNL A   1      40.054  33.197  35.830  1.00  0.00     0.031 A 
BRANCH  45  59
ATOM     59  C   UNL A   1      44.219  28.635  35.564  1.00  0.00    -0.014 A 
ATOM     60  C   UNL A   1      45.558  29.004  35.352  1.00  0.00     0.010 A 
ATOM     61  C   UNL A   1      43.931  27.575  36.444  1.00  0.00     0.010 A 
ATOM     62  C   UNL A   1      46.592  28.302  35.979  1.00  0.00     0.020 A 
ATOM     63  C   UNL A   1      44.960  26.884  37.090  1.00  0.00     0.020 A 
ATOM     64  C   UNL A   1      46.286  27.241  36.838  1.00  0.00     0.054 A 
BRANCH  64  65
ATOM     65  S   UNL A   1      47.644  26.352  37.650  1.00  0.00     0.124 S 
ATOM     66  O   UNL A   1      48.763  27.271  37.455  1.00  0.00    -0.237 OA
ATOM     67  O   UNL A   1      47.171  26.224  39.026  1.00  0.00    -0.237 OA
ATOM     68  O   UNL A   1      47.730  25.098  36.907  1.00  0.00    -0.744 OA
ENDBRANCH  64  65
ENDBRANCH  45  59
BRANCH  46  69
ATOM     69  C   UNL A   1      36.621  33.086  30.841  1.00  0.00    -0.014 A 
ATOM     70  C   UNL A   1      35.346  33.047  31.430  1.00  0.00     0.010 A 
ATOM     71  C   UNL A   1      36.794  33.767  29.622  1.00  0.00     0.010 A 
ATOM     72  C   UNL A   1      34.262  33.677  30.810  1.00  0.00     0.020 A 
ATOM     73  C   UNL A   1      35.719  34.418  29.012  1.00  0.00     0.020 A 
ATOM     74  C   UNL A   1      34.457  34.362  29.607  1.00  0.00     0.054 A 
BRANCH  74  75
ATOM     75  S   UNL A   1      33.058  35.244  28.860  1.00  0.00     0.124 S 
ATOM     76  O   UNL A   1      32.184  35.453  30.010  1.00  0.00    -0.237 OA
ATOM     77  O   UNL A   1      33.689  36.444  28.317  1.00  0.00    -0.237 OA
ATOM     78  O   UNL A   1      32.562  34.304  27.857  1.00  0.00    -0.744 OA
ENDBRANCH  74  75
ENDBRANCH  46  69
BRANCH  58  79
ATOM     79  C   UNL A   1      39.848  34.217  36.913  1.00  0.00    -0.014 A 
ATOM     80  C   UNL A   1      39.114  33.906  38.071  1.00  0.00     0.010 A 
ATOM     81  C   UNL A   1      40.432  35.491  36.788  1.00  0.00     0.010 A 
ATOM     82  C   UNL A   1      38.944  34.864  39.075  1.00  0.00     0.020 A 
ATOM     83  C   UNL A   1      40.280  36.443  37.798  1.00  0.00     0.020 A 
ATOM     84  C   UNL A   1      39.524  36.128  38.929  1.00  0.00     0.054 A 
BRANCH  84  85
ATOM     85  S   UNL A   1      39.324  37.345  40.260  1.00  0.00     0.124 S 
ATOM     86  O   UNL A   1      38.593  36.577  41.264  1.00  0.00    -0.237 OA
ATOM     87  O   UNL A   1      40.704  37.677  40.606  1.00  0.00    -0.237 OA
ATOM     88  O   UNL A   1      38.570  38.425  39.629  1.00  0.00    -0.744 OA
ENDBRANCH  84  85
ENDBRANCH  58  79
ENDBRANCH  32  33
ENDBRANCH  25  27
ENDBRANCH  24  25
ENDBRANCH  23  24
ENDBRANCH   1  23
TORSDOF 17
ENDMDL
MODEL 2
REMARK VINA RESULT:     -11.2      6.145     10.551
REMARK SMILES Cc1ccc2nc(CC3(CC(=O)OCCOC(=O)c4ccc(-c5c6nc(c(-c7ccc(S(=O)(=O)[O-])cc7)c7ccc([nH]7)c(-c7ccc(S(=O)(=O)[O-])cc7)c7nc(c(-c8ccc(S(=O)(=O)[O-])cc8)c8ccc5[nH]8)C=C7)C=C6)cc4)CCCCC3)sc2c1
REMARK SMILES IDX 14 1 13 2 11 3 12 4 10 5 9 6 79 7 83 8 80 9 82 10 81 11 8 12
REMARK SMILES IDX 7 13 1 14 2 15 3 16 86 17 4 18 85 19 5 20 84 21 6 22 15 23
REMARK SMILES IDX 16 24 17 25 18 26 19 27 20 28 78 29 21 30 77 31 22 32 23 33
REMARK SMILES IDX 24 34 71 35 25 36 76 37 70 38 72 39 26 40 75 41 69 42 68 43
REMARK SMILES IDX 27 45 57 46 38 47 56 48 39 49 42 50 55 51 73 52 40 53 41 54
REMARK SMILES IDX 54 56 74 57 43 58 28 59 29 60 37 61 30 62 36 63 31 64 32 65
REMARK SMILES IDX 33 66 34 67 35 68 58 69 59 70 67 71 60 72 66 73 61 74 62 75
REMARK SMILES IDX 63 76 64 77 65 78 44 79 45 80 53 81 46 82 52 83 47 84 48 85
REMARK SMILES IDX 49 86 50 87 51 88
REMARK H PARENT 72 44 42 55
REMARK Flexibility Score: inf
ROOT
ATOM      1  C   UNL A   1      38.134  21.251  25.317  1.00  0.00     0.274 C 
ENDROOT
BRANCH   1   2
ATOM      2  O   UNL A   1      37.502  22.492  24.947  1.00  0.00    -0.462 OA
BRANCH   2   3
ATOM      3  C   UNL A   1      36.572  22.411  23.969  1.00  0.00     0.306 C 
ATOM      4  O   UNL A   1      36.670  22.948  22.870  1.00  0.00    -0.252 OA
BRANCH   3   5
ATOM      5  C   UNL A   1      35.348  21.591  24.327  1.00  0.00     0.130 C 
BRANCH   5   6
ATOM      6  C   UNL A   1      33.943  22.245  24.525  1.00  0.00    -0.013 C 
ATOM      7  C   UNL A   1      34.158  23.560  25.342  1.00  0.00     0.008 C 
ATOM      8  C   UNL A   1      32.992  21.345  25.358  1.00  0.00     0.008 C 
ATOM      9  C   UNL A   1      34.651  23.327  26.775  1.00  0.00     0.001 C 
ATOM     10  C   UNL A   1      33.527  21.044  26.756  1.00  0.00     0.001 C 
ATOM     11  C   UNL A   1      33.780  22.330  27.536  1.00  0.00     0.000 C 
BRANCH   6  12
ATOM     12  C   UNL A   1      33.355  22.596  23.117  1.00  0.00     0.075 C 
BRANCH  12  13
ATOM     13  C   UNL A   1      32.515  23.846  23.064  1.00  0.00     0.094 A 
ATOM     14  C   UNL A   1      29.582  29.284  22.643  1.00  0.00     0.044 C 
ATOM     15  C   UNL A   1      30.008  27.869  22.912  1.00  0.00    -0.050 A 
ATOM     16  C   UNL A   1      29.168  26.995  23.605  1.00  0.00     0.006 A 
ATOM     17  C   UNL A   1      31.257  27.421  22.445  1.00  0.00     0.024 A 
ATOM     18  C   UNL A   1      29.555  25.672  23.847  1.00  0.00     0.030 A 
ATOM     19  C   UNL A   1      31.637  26.091  22.703  1.00  0.00     0.055 A 
ATOM     20  C   UNL A   1      30.805  25.211  23.393  1.00  0.00     0.082 A 
ATOM     21  S   UNL A   1      33.090  25.265  22.281  1.00  0.00    -0.119 S 
ATOM     22  N   UNL A   1      31.305  23.934  23.572  1.00  0.00    -0.241 NA
ENDBRANCH  12  13
ENDBRANCH   6  12
ENDBRANCH   5   6
ENDBRANCH   3   5
ENDBRANCH   2   3
ENDBRANCH   1   2
BRANCH   1  23
ATOM     23  C   UNL A   1      39.403  21.523  26.118  1.00  0.00     0.275 C 
BRANCH  23  24
ATOM     24  O   UNL A   1      40.044  20.277  26.438  1.00  0.00    -0.458 OA
BRANCH  24  25
ATOM     25  C   UNL A   1      41.343  20.179  26.079  1.00  0.00     0.338 C 
ATOM     26  O   UNL A   1      41.890  19.244  25.520  1.00  0.00    -0.246 OA
BRANCH  25  27
ATOM     27  C   UNL A   1      42.059  21.400  26.481  1.00  0.00     0.060 A 
ATOM     28  C   UNL A   1      42.351  21.646  27.825  1.00  0.00     0.016 A 
ATOM     29  C   UNL A   1      42.367  22.349  25.507  1.00  0.00     0.016 A 
ATOM     30  C   UNL A   1      42.913  22.863  28.205  1.00  0.00     0.010 A 
ATOM     31  C   UNL A   1      42.991  23.539  25.880  1.00  0.00     0.010 A 
ATOM     32  C   UNL A   1      43.251  23.816  27.233  1.00  0.00    -0.014 A 
BRANCH  32  33
ATOM     33  C   UNL A   1      43.877  25.109  27.610  1.00  0.00     0.031 A 
ATOM     34  C   UNL A   1      43.023  26.239  28.115  1.00  0.00     0.074 A 
ATOM     35  C   UNL A   1      45.203  25.284  27.450  1.00  0.00     0.049 A 
ATOM     36  N   UNL A   1      43.343  27.492  28.311  1.00  0.00    -0.248 NA
ATOM     37  C   UNL A   1      41.621  25.921  28.428  1.00  0.00     0.031 C 
ATOM     38  C   UNL A   1      46.146  24.259  26.998  1.00  0.00     0.029 A 
ATOM     39  N   UNL A   1      45.984  26.398  27.633  1.00  0.00    -0.354 N 
ATOM     40  C   UNL A   1      42.177  28.122  28.727  1.00  0.00     0.074 A 
ATOM     41  C   UNL A   1      41.139  27.112  28.755  1.00  0.00     0.031 C 
ATOM     42  C   UNL A   1      47.377  24.790  26.942  1.00  0.00     0.029 A 
ATOM     43  C   UNL A   1      47.301  26.204  27.289  1.00  0.00     0.049 A 
ATOM     44  H   UNL A   1      45.636  27.251  27.978  1.00  0.00     0.167 HD
ATOM     45  C   UNL A   1      41.986  29.424  29.049  1.00  0.00     0.031 A 
ATOM     46  C   UNL A   1      48.325  27.075  27.217  1.00  0.00     0.031 A 
ATOM     47  C   UNL A   1      43.025  30.420  29.032  1.00  0.00     0.049 A 
ATOM     48  C   UNL A   1      48.084  28.520  27.546  1.00  0.00     0.074 A 
ATOM     49  C   UNL A   1      42.937  31.763  29.356  1.00  0.00     0.029 A 
ATOM     50  N   UNL A   1      44.344  30.181  28.676  1.00  0.00    -0.354 N 
ATOM     51  N   UNL A   1      46.970  29.104  27.915  1.00  0.00    -0.248 NA
ATOM     52  C   UNL A   1      49.237  29.424  27.441  1.00  0.00     0.031 C 
ATOM     53  C   UNL A   1      44.195  32.344  29.161  1.00  0.00     0.029 A 
ATOM     54  C   UNL A   1      45.076  31.352  28.758  1.00  0.00     0.049 A 
ATOM     55  H   UNL A   1      44.705  29.306  28.405  1.00  0.00     0.167 HD
ATOM     56  C   UNL A   1      47.289  30.444  28.097  1.00  0.00     0.074 A 
ATOM     57  C   UNL A   1      48.703  30.581  27.813  1.00  0.00     0.031 C 
ATOM     58  C   UNL A   1      46.482  31.469  28.466  1.00  0.00     0.031 A 
BRANCH  45  59
ATOM     59  C   UNL A   1      40.589  29.853  29.408  1.00  0.00    -0.014 A 
ATOM     60  C   UNL A   1      39.589  29.982  28.429  1.00  0.00     0.010 A 
ATOM     61  C   UNL A   1      40.267  30.105  30.754  1.00  0.00     0.010 A 
ATOM     62  C   UNL A   1      38.300  30.390  28.786  1.00  0.00     0.020 A 
ATOM     63  C   UNL A   1      38.974  30.494  31.118  1.00  0.00     0.020 A 
ATOM     64  C   UNL A   1      38.004  30.652  30.128  1.00  0.00     0.054 A 
BRANCH  64  65
ATOM     65  S   UNL A   1      36.321  31.169  30.568  1.00  0.00     0.124 S 
ATOM     66  O   UNL A   1      36.542  32.528  31.054  1.00  0.00    -0.237 OA
ATOM     67  O   UNL A   1      35.607  31.067  29.298  1.00  0.00    -0.237 OA
ATOM     68  O   UNL A   1      35.916  30.201  31.584  1.00  0.00    -0.744 OA
ENDBRANCH  64  65
ENDBRANCH  45  59
BRANCH  46  69
ATOM     69  C   UNL A   1      49.662  26.599  26.774  1.00  0.00    -0.014 A 
ATOM     70  C   UNL A   1      50.636  26.232  27.719  1.00  0.00     0.010 A 
ATOM     71  C   UNL A   1      49.951  26.469  25.403  1.00  0.00     0.010 A 
ATOM     72  C   UNL A   1      51.877  25.742  27.299  1.00  0.00     0.020 A 
ATOM     73  C   UNL A   1      51.181  25.957  24.981  1.00  0.00     0.020 A 
ATOM     74  C   UNL A   1      52.140  25.604  25.933  1.00  0.00     0.054 A 
BRANCH  74  75
ATOM     75  S   UNL A   1      53.723  24.890  25.409  1.00  0.00     0.124 S 
ATOM     76  O   UNL A   1      54.521  24.997  26.627  1.00  0.00    -0.237 OA
ATOM     77  O   UNL A   1      53.348  23.534  25.014  1.00  0.00    -0.237 OA
ATOM     78  O   UNL A   1      54.138  25.757  24.308  1.00  0.00    -0.744 OA
ENDBRANCH  74  75
ENDBRANCH  46  69
BRANCH  58  79
ATOM     79  C   UNL A   1      47.118  32.823  28.607  1.00  0.00    -0.014 A 
ATOM     80  C   UNL A   1      47.147  33.725  27.530  1.00  0.00     0.010 A 
ATOM     81  C   UNL A   1      47.658  33.211  29.847  1.00  0.00     0.010 A 
ATOM     82  C   UNL A   1      47.730  34.986  27.683  1.00  0.00     0.020 A 
ATOM     83  C   UNL A   1      48.224  34.477  30.009  1.00  0.00     0.020 A 
ATOM     84  C   UNL A   1      48.270  35.351  28.922  1.00  0.00     0.054 A 
BRANCH  84  85
ATOM     85  S   UNL A   1      48.989  37.006  29.111  1.00  0.00     0.124 S 
ATOM     86  O   UNL A   1      48.841  37.238  30.546  1.00  0.00    -0.237 OA
ATOM     87  O   UNL A   1      50.360  36.820  28.644  1.00  0.00    -0.237 OA
ATOM     88  O   UNL A   1      48.154  37.845  28.255  1.00  0.00    -0.744 OA
ENDBRANCH  84  85
ENDBRANCH  58  79
ENDBRANCH  32  33
ENDBRANCH  25  27
ENDBRANCH  24  25
ENDBRANCH  23  24
ENDBRANCH   1  23
TORSDOF 17
ENDMDL
MODEL 3
REMARK VINA RESULT:     -11.0      2.242      3.066
REMARK SMILES Cc1ccc2nc(CC3(CC(=O)OCCOC(=O)c4ccc(-c5c6nc(c(-c7ccc(S(=O)(=O)[O-])cc7)c7ccc([nH]7)c(-c7ccc(S(=O)(=O)[O-])cc7)c7nc(c(-c8ccc(S(=O)(=O)[O-])cc8)c8ccc5[nH]8)C=C7)C=C6)cc4)CCCCC3)sc2c1
REMARK SMILES IDX 14 1 13 2 11 3 12 4 10 5 9 6 79 7 83 8 80 9 82 10 81 11 8 12
REMARK SMILES IDX 7 13 1 14 2 15 3 16 86 17 4 18 85 19 5 20 84 21 6 22 15 23
REMARK SMILES IDX 16 24 17 25 18 26 19 27 20 28 78 29 21 30 77 31 22 32 23 33
REMARK SMILES IDX 24 34 71 35 25 36 76 37 70 38 72 39 26 40 75 41 69 42 68 43
REMARK SMILES IDX 27 45 57 46 38 47 56 48 39 49 42 50 55 51 73 52 40 53 41 54
REMARK SMILES IDX 54 56 74 57 43 58 28 59 29 60 37 61 30 62 36 63 31 64 32 65
REMARK SMILES IDX 33 66 34 67 35 68 58 69 59 70 67 71 60 72 66 73 61 74 62 75
REMARK SMILES IDX 63 76 64 77 65 78 44 79 45 80 53 81 46 82 52 83 47 84 48 85
REMARK SMILES IDX 49 86 50 87 51 88
REMARK H PARENT 72 44 42 55
REMARK Flexibility Score: inf
ROOT
ATOM      1  C   UNL A   1      36.786  23.046  23.474  1.00  0.00     0.274 C 
ENDROOT
BRANCH   1   2
ATOM      2  O   UNL A   1      35.352  22.942  23.373  1.00  0.00    -0.462 OA
BRANCH   2   3
ATOM      3  C   UNL A   1      34.642  23.793  24.146  1.00  0.00     0.306 C 
ATOM      4  O   UNL A   1      35.100  24.803  24.670  1.00  0.00    -0.252 OA
BRANCH   3   5
ATOM      5  C   UNL A   1      33.189  23.407  24.341  1.00  0.00     0.130 C 
BRANCH   5   6
ATOM      6  C   UNL A   1      32.632  22.955  25.729  1.00  0.00    -0.013 C 
ATOM      7  C   UNL A   1      33.798  22.237  26.481  1.00  0.00     0.008 C 
ATOM      8  C   UNL A   1      31.480  21.925  25.589  1.00  0.00     0.008 C 
ATOM      9  C   UNL A   1      34.241  20.923  25.826  1.00  0.00     0.001 C 
ATOM     10  C   UNL A   1      31.903  20.652  24.860  1.00  0.00     0.001 C 
ATOM     11  C   UNL A   1      33.071  19.976  25.568  1.00  0.00     0.000 C 
BRANCH   6  12
ATOM     12  C   UNL A   1      32.202  24.229  26.531  1.00  0.00     0.075 C 
BRANCH  12  13
ATOM     13  C   UNL A   1      31.537  25.308  25.715  1.00  0.00     0.094 A 
ATOM     14  C   UNL A   1      29.277  30.124  22.545  1.00  0.00     0.044 C 
ATOM     15  C   UNL A   1      29.521  28.815  23.240  1.00  0.00    -0.050 A 
ATOM     16  C   UNL A   1      28.539  27.822  23.245  1.00  0.00     0.006 A 
ATOM     17  C   UNL A   1      30.755  28.586  23.873  1.00  0.00     0.024 A 
ATOM     18  C   UNL A   1      28.765  26.596  23.879  1.00  0.00     0.030 A 
ATOM     19  C   UNL A   1      30.967  27.351  24.515  1.00  0.00     0.055 A 
ATOM     20  C   UNL A   1      29.993  26.354  24.524  1.00  0.00     0.082 A 
ATOM     21  S   UNL A   1      32.347  26.788  25.380  1.00  0.00    -0.119 S 
ATOM     22  N   UNL A   1      30.337  25.191  25.190  1.00  0.00    -0.241 NA
ENDBRANCH  12  13
ENDBRANCH   6  12
ENDBRANCH   5   6
ENDBRANCH   3   5
ENDBRANCH   2   3
ENDBRANCH   1   2
BRANCH   1  23
ATOM     23  C   UNL A   1      37.301  22.168  24.609  1.00  0.00     0.275 C 
BRANCH  23  24
ATOM     24  O   UNL A   1      37.700  22.997  25.713  1.00  0.00    -0.458 OA
BRANCH  24  25
ATOM     25  C   UNL A   1      39.020  22.989  26.004  1.00  0.00     0.338 C 
ATOM     26  O   UNL A   1      39.834  22.125  25.731  1.00  0.00    -0.246 OA
BRANCH  25  27
ATOM     27  C   UNL A   1      39.368  24.212  26.746  1.00  0.00     0.060 A 
ATOM     28  C   UNL A   1      40.226  25.163  26.189  1.00  0.00     0.016 A 
ATOM     29  C   UNL A   1      38.894  24.363  28.048  1.00  0.00     0.016 A 
ATOM     30  C   UNL A   1      40.648  26.251  26.952  1.00  0.00     0.010 A 
ATOM     31  C   UNL A   1      39.264  25.488  28.787  1.00  0.00     0.010 A 
ATOM     32  C   UNL A   1      40.159  26.431  28.254  1.00  0.00    -0.014 A 
BRANCH  32  33
ATOM     33  C   UNL A   1      40.572  27.597  29.075  1.00  0.00     0.031 A 
ATOM     34  C   UNL A   1      41.864  27.555  29.845  1.00  0.00     0.074 A 
ATOM     35  C   UNL A   1      39.764  28.670  29.171  1.00  0.00     0.049 A 
ATOM     36  N   UNL A   1      42.306  28.377  30.761  1.00  0.00    -0.248 NA
ATOM     37  C   UNL A   1      42.772  26.433  29.555  1.00  0.00     0.031 C 
ATOM     38  C   UNL A   1      38.500  28.846  28.453  1.00  0.00     0.029 A 
ATOM     39  N   UNL A   1      39.878  29.808  29.930  1.00  0.00    -0.354 N 
ATOM     40  C   UNL A   1      43.520  27.852  31.189  1.00  0.00     0.074 A 
ATOM     41  C   UNL A   1      43.745  26.638  30.432  1.00  0.00     0.031 C 
ATOM     42  C   UNL A   1      37.958  30.023  28.803  1.00  0.00     0.029 A 
ATOM     43  C   UNL A   1      38.800  30.652  29.815  1.00  0.00     0.049 A 
ATOM     44  H   UNL A   1      40.657  30.001  30.499  1.00  0.00     0.167 HD
ATOM     45  C   UNL A   1      44.364  28.333  32.132  1.00  0.00     0.031 A 
ATOM     46  C   UNL A   1      38.497  31.783  30.479  1.00  0.00     0.031 A 
ATOM     47  C   UNL A   1      44.142  29.548  32.871  1.00  0.00     0.049 A 
ATOM     48  C   UNL A   1      39.431  32.281  31.544  1.00  0.00     0.074 A 
ATOM     49  C   UNL A   1      44.945  30.129  33.837  1.00  0.00     0.029 A 
ATOM     50  N   UNL A   1      43.035  30.372  32.724  1.00  0.00    -0.354 N 
ATOM     51  N   UNL A   1      40.563  31.761  31.953  1.00  0.00    -0.248 NA
ATOM     52  C   UNL A   1      39.044  33.515  32.241  1.00  0.00     0.031 C 
ATOM     53  C   UNL A   1      44.307  31.286  34.299  1.00  0.00     0.029 A 
ATOM     54  C   UNL A   1      43.128  31.447  33.589  1.00  0.00     0.049 A 
ATOM     55  H   UNL A   1      42.294  30.214  32.095  1.00  0.00     0.167 HD
ATOM     56  C   UNL A   1      41.030  32.609  32.950  1.00  0.00     0.074 A 
ATOM     57  C   UNL A   1      40.066  33.684  33.070  1.00  0.00     0.031 C 
ATOM     58  C   UNL A   1      42.155  32.505  33.698  1.00  0.00     0.031 A 
BRANCH  45  59
ATOM     59  C   UNL A   1      45.591  27.521  32.445  1.00  0.00    -0.014 A 
ATOM     60  C   UNL A   1      45.575  26.525  33.437  1.00  0.00     0.010 A 
ATOM     61  C   UNL A   1      46.773  27.740  31.714  1.00  0.00     0.010 A 
ATOM     62  C   UNL A   1      46.730  25.787  33.717  1.00  0.00     0.020 A 
ATOM     63  C   UNL A   1      47.924  26.991  31.975  1.00  0.00     0.020 A 
ATOM     64  C   UNL A   1      47.900  26.031  32.989  1.00  0.00     0.054 A 
BRANCH  64  65
ATOM     65  S   UNL A   1      49.382  25.054  33.362  1.00  0.00     0.124 S 
ATOM     66  O   UNL A   1      50.122  25.954  34.242  1.00  0.00    -0.237 OA
ATOM     67  O   UNL A   1      48.833  23.862  34.003  1.00  0.00    -0.237 OA
ATOM     68  O   UNL A   1      49.986  24.827  32.051  1.00  0.00    -0.744 OA
ENDBRANCH  64  65
ENDBRANCH  45  59
BRANCH  46  69
ATOM     69  C   UNL A   1      37.226  32.493  30.177  1.00  0.00    -0.014 A 
ATOM     70  C   UNL A   1      36.068  32.232  30.929  1.00  0.00     0.010 A 
ATOM     71  C   UNL A   1      37.182  33.468  29.164  1.00  0.00     0.010 A 
ATOM     72  C   UNL A   1      34.886  32.935  30.672  1.00  0.00     0.020 A 
ATOM     73  C   UNL A   1      36.010  34.189  28.920  1.00  0.00     0.020 A 
ATOM     74  C   UNL A   1      34.867  33.912  29.672  1.00  0.00     0.054 A 
BRANCH  74  75
ATOM     75  S   UNL A   1      33.349  34.871  29.409  1.00  0.00     0.124 S 
ATOM     76  O   UNL A   1      32.579  33.986  28.539  1.00  0.00    -0.237 OA
ATOM     77  O   UNL A   1      32.832  35.032  30.766  1.00  0.00    -0.237 OA
ATOM     78  O   UNL A   1      33.830  36.101  28.785  1.00  0.00    -0.744 OA
ENDBRANCH  74  75
ENDBRANCH  46  69
BRANCH  58  79
ATOM     79  C   UNL A   1      42.416  33.598  34.695  1.00  0.00    -0.014 A 
ATOM     80  C   UNL A   1      42.875  34.861  34.283  1.00  0.00     0.010 A 
ATOM     81  C   UNL A   1      42.158  33.369  36.060  1.00  0.00     0.010 A 
ATOM     82  C   UNL A   1      43.099  35.870  35.223  1.00  0.00     0.020 A 
ATOM     83  C   UNL A   1      42.362  34.382  36.999  1.00  0.00     0.020 A 
ATOM     84  C   UNL A   1      42.846  35.622  36.576  1.00  0.00     0.054 A 
BRANCH  84  85
ATOM     85  S   UNL A   1      43.107  36.956  37.777  1.00  0.00     0.124 S 
ATOM     86  O   UNL A   1      43.877  37.921  36.996  1.00  0.00    -0.237 OA
ATOM     87  O   UNL A   1      41.744  37.365  38.110  1.00  0.00    -0.237 OA
ATOM     88  O   UNL A   1      43.838  36.306  38.862  1.00  0.00    -0.744 OA
ENDBRANCH  84  85
ENDBRANCH  58  79
ENDBRANCH  32  33
ENDBRANCH  25  27
ENDBRANCH  24  25
ENDBRANCH  23  24
ENDBRANCH   1  23
TORSDOF 17
ENDMDL
