MODEL 1
REMARK VINA RESULT:     -10.5      0.000      0.000
REMARK SMILES Cc1cc(SCC(=O)OCCOC(=O)c2ccc(-c3c4nc(c(-c5ccc(S(=O)(=O)[O-])cc5)c5ccc([nH]5)c(-c5ccc(S(=O)(=O)[O-])cc5)c5nc(c(-c6ccc(S(=O)(=O)[O-])cc6)c6ccc3[nH]6)C=C5)C=C4)cc2)c2cc(I)ccc2n1
REMARK SMILES IDX 11 1 10 2 9 3 7 4 8 5 6 6 5 7 4 8 1 9 2 10 3 11 82 12 81 13
REMARK SMILES IDX 75 14 80 15 76 16 79 17 77 18 78 19 12 20 13 21 14 22 15 23
REMARK SMILES IDX 16 24 74 25 17 26 73 27 18 28 19 29 20 30 67 31 21 32 72 33
REMARK SMILES IDX 66 34 68 35 22 36 71 37 65 38 64 39 23 41 53 42 34 43 52 44
REMARK SMILES IDX 35 45 38 46 51 47 69 48 36 49 37 50 50 52 70 53 39 54 24 55
REMARK SMILES IDX 25 56 33 57 26 58 32 59 27 60 28 61 29 62 30 63 31 64 54 65
REMARK SMILES IDX 55 66 63 67 56 68 62 69 57 70 58 71 59 72 60 73 61 74 40 75
REMARK SMILES IDX 41 76 49 77 42 78 48 79 43 80 44 81 45 82 46 83 47 84
REMARK H PARENT 68 40 38 51
REMARK Flexibility Score: inf
ROOT
ATOM      1  C   UNL A   1      39.429  19.821  25.742  1.00  0.00     0.275 C 
ENDROOT
BRANCH   1   2
ATOM      2  C   UNL A   1      38.732  21.175  25.634  1.00  0.00     0.274 C 
BRANCH   2   3
ATOM      3  O   UNL A   1      37.691  21.167  24.636  1.00  0.00    -0.461 OA
BRANCH   3   4
ATOM      4  C   UNL A   1      37.136  22.369  24.340  1.00  0.00     0.316 C 
ATOM      5  O   UNL A   1      36.848  22.730  23.201  1.00  0.00    -0.251 OA
BRANCH   4   6
ATOM      6  C   UNL A   1      36.895  23.282  25.524  1.00  0.00     0.197 C 
BRANCH   6   7
ATOM      7  S   UNL A   1      35.183  23.380  26.125  1.00  0.00    -0.114 SA
BRANCH   7   8
ATOM      8  C   UNL A   1      34.134  23.590  24.663  1.00  0.00     0.019 A 
ATOM      9  C   UNL A   1      33.022  26.197  22.144  1.00  0.00     0.067 C 
ATOM     10  C   UNL A   1      33.195  24.897  22.873  1.00  0.00     0.039 A 
ATOM     11  C   UNL A   1      33.974  24.817  24.021  1.00  0.00     0.039 A 
ATOM     12  N   UNL A   1      32.595  23.820  22.332  1.00  0.00    -0.253 NA
ATOM     13  C   UNL A   1      32.731  22.637  22.934  1.00  0.00     0.072 A 
ATOM     14  C   UNL A   1      33.472  22.449  24.122  1.00  0.00     0.015 A 
ATOM     15  C   UNL A   1      32.100  21.553  22.340  1.00  0.00     0.030 A 
ATOM     16  C   UNL A   1      33.501  21.144  24.685  1.00  0.00     0.026 A 
ATOM     17  C   UNL A   1      32.149  20.274  22.893  1.00  0.00     0.017 A 
ATOM     18  C   UNL A   1      32.843  20.075  24.076  1.00  0.00     0.014 A 
ATOM     19  I   UNL A   1      32.897  18.191  24.946  1.00  0.00    -0.044 I 
ENDBRANCH   7   8
ENDBRANCH   6   7
ENDBRANCH   4   6
ENDBRANCH   3   4
ENDBRANCH   2   3
ENDBRANCH   1   2
BRANCH   1  20
ATOM     20  O   UNL A   1      40.514  19.881  26.684  1.00  0.00    -0.458 OA
BRANCH  20  21
ATOM     21  C   UNL A   1      41.742  19.931  26.124  1.00  0.00     0.338 C 
ATOM     22  O   UNL A   1      42.253  19.109  25.385  1.00  0.00    -0.246 OA
BRANCH  21  23
ATOM     23  C   UNL A   1      42.426  21.175  26.500  1.00  0.00     0.060 A 
ATOM     24  C   UNL A   1      42.647  22.147  25.526  1.00  0.00     0.016 A 
ATOM     25  C   UNL A   1      42.683  21.446  27.847  1.00  0.00     0.016 A 
ATOM     26  C   UNL A   1      43.150  23.391  25.904  1.00  0.00     0.010 A 
ATOM     27  C   UNL A   1      43.123  22.712  28.230  1.00  0.00     0.010 A 
ATOM     28  C   UNL A   1      43.380  23.688  27.259  1.00  0.00    -0.014 A 
BRANCH  28  29
ATOM     29  C   UNL A   1      43.929  25.009  27.642  1.00  0.00     0.031 A 
ATOM     30  C   UNL A   1      45.387  25.302  27.427  1.00  0.00     0.074 A 
ATOM     31  C   UNL A   1      43.117  25.956  28.150  1.00  0.00     0.049 A 
ATOM     32  N   UNL A   1      46.008  26.450  27.497  1.00  0.00    -0.248 NA
ATOM     33  C   UNL A   1      46.261  24.165  27.093  1.00  0.00     0.031 C 
ATOM     34  C   UNL A   1      41.702  25.770  28.480  1.00  0.00     0.029 A 
ATOM     35  N   UNL A   1      43.362  27.271  28.463  1.00  0.00    -0.354 N 
ATOM     36  C   UNL A   1      47.331  26.181  27.170  1.00  0.00     0.074 A 
ATOM     37  C   UNL A   1      47.444  24.753  26.985  1.00  0.00     0.031 C 
ATOM     38  C   UNL A   1      41.199  26.935  28.925  1.00  0.00     0.029 A 
ATOM     39  C   UNL A   1      42.248  27.951  28.894  1.00  0.00     0.049 A 
ATOM     40  H   UNL A   1      44.251  27.686  28.386  1.00  0.00     0.167 HD
ATOM     41  C   UNL A   1      48.348  27.053  26.992  1.00  0.00     0.031 A 
ATOM     42  C   UNL A   1      42.077  29.256  29.187  1.00  0.00     0.031 A 
ATOM     43  C   UNL A   1      48.237  28.471  27.193  1.00  0.00     0.049 A 
ATOM     44  C   UNL A   1      43.215  30.215  28.961  1.00  0.00     0.074 A 
ATOM     45  C   UNL A   1      49.209  29.441  27.029  1.00  0.00     0.029 A 
ATOM     46  N   UNL A   1      47.081  29.120  27.596  1.00  0.00    -0.354 N 
ATOM     47  N   UNL A   1      44.434  29.959  28.549  1.00  0.00    -0.248 NA
ATOM     48  C   UNL A   1      42.946  31.643  29.192  1.00  0.00     0.031 C 
ATOM     49  C   UNL A   1      48.647  30.677  27.358  1.00  0.00     0.029 A 
ATOM     50  C   UNL A   1      47.314  30.480  27.682  1.00  0.00     0.049 A 
ATOM     51  H   UNL A   1      46.222  28.680  27.790  1.00  0.00     0.167 HD
ATOM     52  C   UNL A   1      45.062  31.194  28.433  1.00  0.00     0.074 A 
ATOM     53  C   UNL A   1      44.093  32.197  28.818  1.00  0.00     0.031 C 
ATOM     54  C   UNL A   1      46.329  31.468  28.037  1.00  0.00     0.031 A 
BRANCH  41  55
ATOM     55  C   UNL A   1      49.657  26.507  26.496  1.00  0.00    -0.014 A 
ATOM     56  C   UNL A   1      50.621  26.031  27.398  1.00  0.00     0.010 A 
ATOM     57  C   UNL A   1      49.960  26.556  25.123  1.00  0.00     0.010 A 
ATOM     58  C   UNL A   1      51.879  25.629  26.938  1.00  0.00     0.020 A 
ATOM     59  C   UNL A   1      51.208  26.137  24.657  1.00  0.00     0.020 A 
ATOM     60  C   UNL A   1      52.166  25.694  25.571  1.00  0.00     0.054 A 
BRANCH  60  61
ATOM     61  S   UNL A   1      53.804  25.179  24.989  1.00  0.00     0.124 S 
ATOM     62  O   UNL A   1      53.648  23.733  24.870  1.00  0.00    -0.237 OA
ATOM     63  O   UNL A   1      53.941  25.906  23.730  1.00  0.00    -0.237 OA
ATOM     64  O   UNL A   1      54.700  25.627  26.055  1.00  0.00    -0.744 OA
ENDBRANCH  60  61
ENDBRANCH  41  55
BRANCH  42  65
ATOM     65  C   UNL A   1      40.744  29.740  29.634  1.00  0.00    -0.014 A 
ATOM     66  C   UNL A   1      40.533  30.098  30.976  1.00  0.00     0.010 A 
ATOM     67  C   UNL A   1      39.668  29.807  28.730  1.00  0.00     0.010 A 
ATOM     68  C   UNL A   1      39.268  30.503  31.413  1.00  0.00     0.020 A 
ATOM     69  C   UNL A   1      38.406  30.230  29.158  1.00  0.00     0.020 A 
ATOM     70  C   UNL A   1      38.210  30.558  30.501  1.00  0.00     0.054 A 
BRANCH  70  71
ATOM     71  S   UNL A   1      36.574  31.090  31.081  1.00  0.00     0.124 S 
ATOM     72  O   UNL A   1      36.903  32.296  31.836  1.00  0.00    -0.237 OA
ATOM     73  O   UNL A   1      35.843  31.307  29.835  1.00  0.00    -0.237 OA
ATOM     74  O   UNL A   1      36.113  29.956  31.879  1.00  0.00    -0.744 OA
ENDBRANCH  70  71
ENDBRANCH  42  65
BRANCH  54  75
ATOM     75  C   UNL A   1      46.756  32.907  27.951  1.00  0.00    -0.014 A 
ATOM     76  C   UNL A   1      46.624  33.592  26.727  1.00  0.00     0.010 A 
ATOM     77  C   UNL A   1      47.424  33.529  29.019  1.00  0.00     0.010 A 
ATOM     78  C   UNL A   1      47.178  34.862  26.564  1.00  0.00     0.020 A 
ATOM     79  C   UNL A   1      47.962  34.808  28.865  1.00  0.00     0.020 A 
ATOM     80  C   UNL A   1      47.859  35.455  27.629  1.00  0.00     0.054 A 
BRANCH  80  81
ATOM     81  S   UNL A   1      48.614  37.089  27.395  1.00  0.00     0.124 S 
ATOM     82  O   UNL A   1      47.458  37.915  27.062  1.00  0.00    -0.237 OA
ATOM     83  O   UNL A   1      49.224  37.356  28.695  1.00  0.00    -0.237 OA
ATOM     84  O   UNL A   1      49.562  36.870  26.305  1.00  0.00    -0.744 OA
ENDBRANCH  80  81
ENDBRANCH  54  75
ENDBRANCH  28  29
ENDBRANCH  21  23
ENDBRANCH  20  21
ENDBRANCH   1  20
TORSDOF 16
ENDMDL
MODEL 2
REMARK VINA RESULT:     -10.2      1.745      2.416
REMARK SMILES Cc1cc(SCC(=O)OCCOC(=O)c2ccc(-c3c4nc(c(-c5ccc(S(=O)(=O)[O-])cc5)c5ccc([nH]5)c(-c5ccc(S(=O)(=O)[O-])cc5)c5nc(c(-c6ccc(S(=O)(=O)[O-])cc6)c6ccc3[nH]6)C=C5)C=C4)cc2)c2cc(I)ccc2n1
REMARK SMILES IDX 11 1 10 2 9 3 7 4 8 5 6 6 5 7 4 8 1 9 2 10 3 11 82 12 81 13
REMARK SMILES IDX 75 14 80 15 76 16 79 17 77 18 78 19 12 20 13 21 14 22 15 23
REMARK SMILES IDX 16 24 74 25 17 26 73 27 18 28 19 29 20 30 67 31 21 32 72 33
REMARK SMILES IDX 66 34 68 35 22 36 71 37 65 38 64 39 23 41 53 42 34 43 52 44
REMARK SMILES IDX 35 45 38 46 51 47 69 48 36 49 37 50 50 52 70 53 39 54 24 55
REMARK SMILES IDX 25 56 33 57 26 58 32 59 27 60 28 61 29 62 30 63 31 64 54 65
REMARK SMILES IDX 55 66 63 67 56 68 62 69 57 70 58 71 59 72 60 73 61 74 40 75
REMARK SMILES IDX 41 76 49 77 42 78 48 79 43 80 44 81 45 82 46 83 47 84
REMARK H PARENT 68 40 38 51
REMARK Flexibility Score: inf
ROOT
ATOM      1  C   UNL A   1      39.191  20.128  25.605  1.00  0.00     0.275 C 
ENDROOT
BRANCH   1   2
ATOM      2  C   UNL A   1      38.458  21.463  25.714  1.00  0.00     0.274 C 
BRANCH   2   3
ATOM      3  O   UNL A   1      37.026  21.295  25.680  1.00  0.00    -0.461 OA
BRANCH   3   4
ATOM      4  C   UNL A   1      36.368  21.962  24.699  1.00  0.00     0.316 C 
ATOM      5  O   UNL A   1      36.878  22.283  23.627  1.00  0.00    -0.251 OA
BRANCH   4   6
ATOM      6  C   UNL A   1      34.929  22.318  25.007  1.00  0.00     0.197 C 
BRANCH   6   7
ATOM      7  S   UNL A   1      34.669  23.794  26.033  1.00  0.00    -0.114 SA
BRANCH   7   8
ATOM      8  C   UNL A   1      32.883  24.095  26.060  1.00  0.00     0.019 A 
ATOM      9  C   UNL A   1      29.640  22.662  27.407  1.00  0.00     0.067 C 
ATOM     10  C   UNL A   1      30.631  23.553  26.718  1.00  0.00     0.039 A 
ATOM     11  C   UNL A   1      31.983  23.236  26.690  1.00  0.00     0.039 A 
ATOM     12  N   UNL A   1      30.145  24.685  26.173  1.00  0.00    -0.253 NA
ATOM     13  C   UNL A   1      30.988  25.519  25.561  1.00  0.00     0.072 A 
ATOM     14  C   UNL A   1      32.375  25.278  25.446  1.00  0.00     0.015 A 
ATOM     15  C   UNL A   1      30.445  26.675  25.019  1.00  0.00     0.030 A 
ATOM     16  C   UNL A   1      33.155  26.227  24.731  1.00  0.00     0.026 A 
ATOM     17  C   UNL A   1      31.223  27.606  24.332  1.00  0.00     0.017 A 
ATOM     18  C   UNL A   1      32.580  27.372  24.180  1.00  0.00     0.014 A 
ATOM     19  I   UNL A   1      33.756  28.719  23.126  1.00  0.00    -0.044 I 
ENDBRANCH   7   8
ENDBRANCH   6   7
ENDBRANCH   4   6
ENDBRANCH   3   4
ENDBRANCH   2   3
ENDBRANCH   1   2
BRANCH   1  20
ATOM     20  O   UNL A   1      40.240  20.042  26.585  1.00  0.00    -0.458 OA
BRANCH  20  21
ATOM     21  C   UNL A   1      41.490  20.053  26.074  1.00  0.00     0.338 C 
ATOM     22  O   UNL A   1      42.006  19.210  25.362  1.00  0.00    -0.246 OA
BRANCH  21  23
ATOM     23  C   UNL A   1      42.193  21.280  26.468  1.00  0.00     0.060 A 
ATOM     24  C   UNL A   1      42.402  22.276  25.514  1.00  0.00     0.016 A 
ATOM     25  C   UNL A   1      42.482  21.513  27.815  1.00  0.00     0.016 A 
ATOM     26  C   UNL A   1      42.925  23.505  25.915  1.00  0.00     0.010 A 
ATOM     27  C   UNL A   1      42.942  22.764  28.221  1.00  0.00     0.010 A 
ATOM     28  C   UNL A   1      43.188  23.763  27.271  1.00  0.00    -0.014 A 
BRANCH  28  29
ATOM     29  C   UNL A   1      43.758  25.069  27.677  1.00  0.00     0.031 A 
ATOM     30  C   UNL A   1      45.222  25.338  27.478  1.00  0.00     0.074 A 
ATOM     31  C   UNL A   1      42.958  26.024  28.191  1.00  0.00     0.049 A 
ATOM     32  N   UNL A   1      45.863  26.473  27.570  1.00  0.00    -0.248 NA
ATOM     33  C   UNL A   1      46.078  24.189  27.137  1.00  0.00     0.031 C 
ATOM     34  C   UNL A   1      41.538  25.859  28.506  1.00  0.00     0.029 A 
ATOM     35  N   UNL A   1      43.225  27.329  28.524  1.00  0.00    -0.354 N 
ATOM     36  C   UNL A   1      47.184  26.184  27.250  1.00  0.00     0.074 A 
ATOM     37  C   UNL A   1      47.273  24.757  27.046  1.00  0.00     0.031 C 
ATOM     38  C   UNL A   1      41.052  27.027  28.963  1.00  0.00     0.029 A 
ATOM     39  C   UNL A   1      42.119  28.025  28.954  1.00  0.00     0.049 A 
ATOM     40  H   UNL A   1      44.122  27.729  28.460  1.00  0.00     0.167 HD
ATOM     41  C   UNL A   1      48.219  27.040  27.092  1.00  0.00     0.031 A 
ATOM     42  C   UNL A   1      41.971  29.328  29.264  1.00  0.00     0.031 A 
ATOM     43  C   UNL A   1      48.132  28.456  27.312  1.00  0.00     0.049 A 
ATOM     44  C   UNL A   1      43.128  30.269  29.060  1.00  0.00     0.074 A 
ATOM     45  C   UNL A   1      49.123  29.410  27.170  1.00  0.00     0.029 A 
ATOM     46  N   UNL A   1      46.985  29.121  27.714  1.00  0.00    -0.354 N 
ATOM     47  N   UNL A   1      44.346  29.996  28.656  1.00  0.00    -0.248 NA
ATOM     48  C   UNL A   1      42.883  31.698  29.308  1.00  0.00     0.031 C 
ATOM     49  C   UNL A   1      48.581  30.652  27.510  1.00  0.00     0.029 A 
ATOM     50  C   UNL A   1      47.242  30.475  27.820  1.00  0.00     0.049 A 
ATOM     51  H   UNL A   1      46.116  28.694  27.894  1.00  0.00     0.167 HD
ATOM     52  C   UNL A   1      44.997  31.221  28.561  1.00  0.00     0.074 A 
ATOM     53  C   UNL A   1      44.043  32.237  28.952  1.00  0.00     0.031 C 
ATOM     54  C   UNL A   1      46.272  31.476  28.180  1.00  0.00     0.031 A 
BRANCH  41  55
ATOM     55  C   UNL A   1      49.522  26.476  26.601  1.00  0.00    -0.014 A 
ATOM     56  C   UNL A   1      50.437  25.901  27.497  1.00  0.00     0.010 A 
ATOM     57  C   UNL A   1      49.872  26.605  25.245  1.00  0.00     0.010 A 
ATOM     58  C   UNL A   1      51.692  25.481  27.049  1.00  0.00     0.020 A 
ATOM     59  C   UNL A   1      51.118  26.169  24.789  1.00  0.00     0.020 A 
ATOM     60  C   UNL A   1      52.027  25.627  25.699  1.00  0.00     0.054 A 
BRANCH  60  61
ATOM     61  S   UNL A   1      53.664  25.087  25.134  1.00  0.00     0.124 S 
ATOM     62  O   UNL A   1      53.691  25.577  23.760  1.00  0.00    -0.237 OA
ATOM     63  O   UNL A   1      54.564  25.763  26.064  1.00  0.00    -0.237 OA
ATOM     64  O   UNL A   1      53.612  23.632  25.281  1.00  0.00    -0.744 OA
ENDBRANCH  60  61
ENDBRANCH  41  55
BRANCH  42  65
ATOM     65  C   UNL A   1      40.642  29.830  29.706  1.00  0.00    -0.014 A 
ATOM     66  C   UNL A   1      40.401  30.095  31.065  1.00  0.00     0.010 A 
ATOM     67  C   UNL A   1      39.601  30.009  28.777  1.00  0.00     0.010 A 
ATOM     68  C   UNL A   1      39.138  30.516  31.492  1.00  0.00     0.020 A 
ATOM     69  C   UNL A   1      38.342  30.450  29.198  1.00  0.00     0.020 A 
ATOM     70  C   UNL A   1      38.114  30.683  30.556  1.00  0.00     0.054 A 
BRANCH  70  71
ATOM     71  S   UNL A   1      36.481  31.236  31.125  1.00  0.00     0.124 S 
ATOM     72  O   UNL A   1      36.829  32.376  31.967  1.00  0.00    -0.237 OA
ATOM     73  O   UNL A   1      35.796  31.561  29.876  1.00  0.00    -0.237 OA
ATOM     74  O   UNL A   1      35.957  30.069  31.832  1.00  0.00    -0.744 OA
ENDBRANCH  70  71
ENDBRANCH  42  65
BRANCH  54  75
ATOM     75  C   UNL A   1      46.727  32.908  28.117  1.00  0.00    -0.014 A 
ATOM     76  C   UNL A   1      46.641  33.604  26.896  1.00  0.00     0.010 A 
ATOM     77  C   UNL A   1      47.374  33.510  29.209  1.00  0.00     0.010 A 
ATOM     78  C   UNL A   1      47.222  34.866  26.758  1.00  0.00     0.020 A 
ATOM     79  C   UNL A   1      47.939  34.781  29.079  1.00  0.00     0.020 A 
ATOM     80  C   UNL A   1      47.882  35.439  27.847  1.00  0.00     0.054 A 
BRANCH  80  81
ATOM     81  S   UNL A   1      48.671  37.061  27.646  1.00  0.00     0.124 S 
ATOM     82  O   UNL A   1      49.655  37.057  28.724  1.00  0.00    -0.237 OA
ATOM     83  O   UNL A   1      49.220  36.992  26.294  1.00  0.00    -0.237 OA
ATOM     84  O   UNL A   1      47.564  37.998  27.812  1.00  0.00    -0.744 OA
ENDBRANCH  80  81
ENDBRANCH  54  75
ENDBRANCH  28  29
ENDBRANCH  21  23
ENDBRANCH  20  21
ENDBRANCH   1  20
TORSDOF 16
ENDMDL
MODEL 3
REMARK VINA RESULT:     -10.2      1.658      2.327
REMARK SMILES Cc1cc(SCC(=O)OCCOC(=O)c2ccc(-c3c4nc(c(-c5ccc(S(=O)(=O)[O-])cc5)c5ccc([nH]5)c(-c5ccc(S(=O)(=O)[O-])cc5)c5nc(c(-c6ccc(S(=O)(=O)[O-])cc6)c6ccc3[nH]6)C=C5)C=C4)cc2)c2cc(I)ccc2n1
REMARK SMILES IDX 11 1 10 2 9 3 7 4 8 5 6 6 5 7 4 8 1 9 2 10 3 11 82 12 81 13
REMARK SMILES IDX 75 14 80 15 76 16 79 17 77 18 78 19 12 20 13 21 14 22 15 23
REMARK SMILES IDX 16 24 74 25 17 26 73 27 18 28 19 29 20 30 67 31 21 32 72 33
REMARK SMILES IDX 66 34 68 35 22 36 71 37 65 38 64 39 23 41 53 42 34 43 52 44
REMARK SMILES IDX 35 45 38 46 51 47 69 48 36 49 37 50 50 52 70 53 39 54 24 55
REMARK SMILES IDX 25 56 33 57 26 58 32 59 27 60 28 61 29 62 30 63 31 64 54 65
REMARK SMILES IDX 55 66 63 67 56 68 62 69 57 70 58 71 59 72 60 73 61 74 40 75
REMARK SMILES IDX 41 76 49 77 42 78 48 79 43 80 44 81 45 82 46 83 47 84
REMARK H PARENT 68 40 38 51
REMARK Flexibility Score: inf
ROOT
ATOM      1  C   UNL A   1      42.440  19.006  26.165  1.00  0.00     0.275 C 
ENDROOT
BRANCH   1   2
ATOM      2  C   UNL A   1      41.576  19.853  27.096  1.00  0.00     0.274 C 
BRANCH   2   3
ATOM      3  O   UNL A   1      40.359  20.287  26.456  1.00  0.00    -0.461 OA
BRANCH   3   4
ATOM      4  C   UNL A   1      40.227  21.624  26.265  1.00  0.00     0.316 C 
ATOM      5  O   UNL A   1      41.168  22.415  26.276  1.00  0.00    -0.251 OA
BRANCH   4   6
ATOM      6  C   UNL A   1      38.811  22.112  26.044  1.00  0.00     0.197 C 
BRANCH   6   7
ATOM      7  S   UNL A   1      37.717  21.003  25.109  1.00  0.00    -0.114 SA
BRANCH   7   8
ATOM      8  C   UNL A   1      36.069  21.756  25.142  1.00  0.00     0.019 A 
ATOM      9  C   UNL A   1      34.333  25.106  25.525  1.00  0.00     0.067 C 
ATOM     10  C   UNL A   1      34.581  23.641  25.320  1.00  0.00     0.039 A 
ATOM     11  C   UNL A   1      35.868  23.119  25.358  1.00  0.00     0.039 A 
ATOM     12  N   UNL A   1      33.503  22.879  25.055  1.00  0.00    -0.253 NA
ATOM     13  C   UNL A   1      33.672  21.571  24.849  1.00  0.00     0.072 A 
ATOM     14  C   UNL A   1      34.931  20.933  24.899  1.00  0.00     0.015 A 
ATOM     15  C   UNL A   1      32.534  20.826  24.575  1.00  0.00     0.030 A 
ATOM     16  C   UNL A   1      34.967  19.525  24.704  1.00  0.00     0.026 A 
ATOM     17  C   UNL A   1      32.584  19.448  24.370  1.00  0.00     0.017 A 
ATOM     18  C   UNL A   1      33.806  18.797  24.448  1.00  0.00     0.014 A 
ATOM     19  I   UNL A   1      33.906  16.740  24.190  1.00  0.00    -0.044 I 
ENDBRANCH   7   8
ENDBRANCH   6   7
ENDBRANCH   4   6
ENDBRANCH   3   4
ENDBRANCH   2   3
ENDBRANCH   1   2
BRANCH   1  20
ATOM     20  O   UNL A   1      42.670  19.692  24.922  1.00  0.00    -0.458 OA
BRANCH  20  21
ATOM     21  C   UNL A   1      43.971  19.893  24.622  1.00  0.00     0.338 C 
ATOM     22  O   UNL A   1      44.719  19.138  24.027  1.00  0.00    -0.246 OA
BRANCH  21  23
ATOM     23  C   UNL A   1      44.406  21.214  25.093  1.00  0.00     0.060 A 
ATOM     24  C   UNL A   1      44.118  22.337  24.318  1.00  0.00     0.016 A 
ATOM     25  C   UNL A   1      44.937  21.353  26.378  1.00  0.00     0.016 A 
ATOM     26  C   UNL A   1      44.385  23.606  24.830  1.00  0.00     0.010 A 
ATOM     27  C   UNL A   1      45.141  22.624  26.913  1.00  0.00     0.010 A 
ATOM     28  C   UNL A   1      44.887  23.761  26.134  1.00  0.00    -0.014 A 
BRANCH  28  29
ATOM     29  C   UNL A   1      45.180  25.116  26.657  1.00  0.00     0.031 A 
ATOM     30  C   UNL A   1      46.579  25.657  26.584  1.00  0.00     0.074 A 
ATOM     31  C   UNL A   1      44.187  25.871  27.165  1.00  0.00     0.049 A 
ATOM     32  N   UNL A   1      46.993  26.880  26.789  1.00  0.00    -0.248 NA
ATOM     33  C   UNL A   1      47.652  24.708  26.240  1.00  0.00     0.031 C 
ATOM     34  C   UNL A   1      42.805  25.432  27.364  1.00  0.00     0.029 A 
ATOM     35  N   UNL A   1      44.187  27.177  27.593  1.00  0.00    -0.354 N 
ATOM     36  C   UNL A   1      48.361  26.857  26.552  1.00  0.00     0.074 A 
ATOM     37  C   UNL A   1      48.725  25.487  26.272  1.00  0.00     0.031 C 
ATOM     38  C   UNL A   1      42.084  26.458  27.850  1.00  0.00     0.029 A 
ATOM     39  C   UNL A   1      42.948  27.629  27.980  1.00  0.00     0.049 A 
ATOM     40  H   UNL A   1      44.997  27.735  27.619  1.00  0.00     0.167 HD
ATOM     41  C   UNL A   1      49.228  27.894  26.522  1.00  0.00     0.031 A 
ATOM     42  C   UNL A   1      42.542  28.860  28.353  1.00  0.00     0.031 A 
ATOM     43  C   UNL A   1      48.867  29.252  26.817  1.00  0.00     0.049 A 
ATOM     44  C   UNL A   1      43.516  30.005  28.291  1.00  0.00     0.074 A 
ATOM     45  C   UNL A   1      49.673  30.376  26.805  1.00  0.00     0.029 A 
ATOM     46  N   UNL A   1      47.595  29.670  27.170  1.00  0.00    -0.354 N 
ATOM     47  N   UNL A   1      44.786  29.986  27.963  1.00  0.00    -0.248 NA
ATOM     48  C   UNL A   1      42.996  31.345  28.603  1.00  0.00     0.031 C 
ATOM     49  C   UNL A   1      48.891  31.473  27.176  1.00  0.00     0.029 A 
ATOM     50  C   UNL A   1      47.590  31.037  27.375  1.00  0.00     0.049 A 
ATOM     51  H   UNL A   1      46.810  29.081  27.261  1.00  0.00     0.167 HD
ATOM     52  C   UNL A   1      45.205  31.311  27.989  1.00  0.00     0.074 A 
ATOM     53  C   UNL A   1      44.057  32.108  28.366  1.00  0.00     0.031 C 
ATOM     54  C   UNL A   1      46.432  31.818  27.720  1.00  0.00     0.031 A 
BRANCH  41  55
ATOM     55  C   UNL A   1      50.641  27.610  26.097  1.00  0.00    -0.014 A 
ATOM     56  C   UNL A   1      50.997  27.626  24.739  1.00  0.00     0.010 A 
ATOM     57  C   UNL A   1      51.598  27.236  27.057  1.00  0.00     0.010 A 
ATOM     58  C   UNL A   1      52.285  27.253  24.344  1.00  0.00     0.020 A 
ATOM     59  C   UNL A   1      52.892  26.881  26.669  1.00  0.00     0.020 A 
ATOM     60  C   UNL A   1      53.220  26.873  25.312  1.00  0.00     0.054 A 
BRANCH  60  61
ATOM     61  S   UNL A   1      54.884  26.381  24.784  1.00  0.00     0.124 S 
ATOM     62  O   UNL A   1      54.892  26.779  23.380  1.00  0.00    -0.237 OA
ATOM     63  O   UNL A   1      55.746  27.162  25.668  1.00  0.00    -0.237 OA
ATOM     64  O   UNL A   1      54.905  24.939  25.028  1.00  0.00    -0.744 OA
ENDBRANCH  60  61
ENDBRANCH  41  55
BRANCH  42  65
ATOM     65  C   UNL A   1      41.118  29.081  28.723  1.00  0.00    -0.014 A 
ATOM     66  C   UNL A   1      40.149  29.280  27.725  1.00  0.00     0.010 A 
ATOM     67  C   UNL A   1      40.732  29.134  30.074  1.00  0.00     0.010 A 
ATOM     68  C   UNL A   1      38.819  29.542  28.070  1.00  0.00     0.020 A 
ATOM     69  C   UNL A   1      39.399  29.375  30.423  1.00  0.00     0.020 A 
ATOM     70  C   UNL A   1      38.455  29.596  29.418  1.00  0.00     0.054 A 
BRANCH  70  71
ATOM     71  S   UNL A   1      36.724  29.931  29.850  1.00  0.00     0.124 S 
ATOM     72  O   UNL A   1      36.734  31.381  30.017  1.00  0.00    -0.237 OA
ATOM     73  O   UNL A   1      35.997  29.437  28.683  1.00  0.00    -0.237 OA
ATOM     74  O   UNL A   1      36.526  29.159  31.075  1.00  0.00    -0.744 OA
ENDBRANCH  70  71
ENDBRANCH  42  65
BRANCH  54  75
ATOM     75  C   UNL A   1      46.617  33.310  27.774  1.00  0.00    -0.014 A 
ATOM     76  C   UNL A   1      46.733  33.943  29.027  1.00  0.00     0.010 A 
ATOM     77  C   UNL A   1      46.523  34.094  26.613  1.00  0.00     0.010 A 
ATOM     78  C   UNL A   1      46.720  35.336  29.120  1.00  0.00     0.020 A 
ATOM     79  C   UNL A   1      46.529  35.488  26.701  1.00  0.00     0.020 A 
ATOM     80  C   UNL A   1      46.602  36.099  27.956  1.00  0.00     0.054 A 
BRANCH  80  81
ATOM     81  S   UNL A   1      46.543  37.908  28.090  1.00  0.00     0.124 S 
ATOM     82  O   UNL A   1      47.862  38.293  27.600  1.00  0.00    -0.237 OA
ATOM     83  O   UNL A   1      45.422  38.263  27.223  1.00  0.00    -0.237 OA
ATOM     84  O   UNL A   1      46.313  38.134  29.514  1.00  0.00    -0.744 OA
ENDBRANCH  80  81
ENDBRANCH  54  75
ENDBRANCH  28  29
ENDBRANCH  21  23
ENDBRANCH  20  21
ENDBRANCH   1  20
TORSDOF 16
ENDMDL
