MODEL 1
REMARK VINA RESULT:      -9.5      0.000      0.000
REMARK SMILES C[C@H](C(=O)OCCOC(=O)c1ccc(-c2c3nc(c(-c4ccc(S(=O)(=O)[O-])cc4)c4ccc([nH]4)c(-c4ccc(S(=O)(=O)[O-])cc4)c4nc(c(-c5ccc(S(=O)(=O)[O-])cc5)c5ccc2[nH]5)C=C4)C=C3)cc1)c1cccc(C(=O)c2ccccc2)c1
REMARK SMILES IDX 6 1 5 2 3 3 4 4 2 5 1 6 71 7 72 8 84 9 73 10 75 11 74 12
REMARK SMILES IDX 76 13 77 14 78 15 79 16 83 17 80 18 82 19 81 20 7 21 8 22
REMARK SMILES IDX 9 23 10 24 11 25 12 26 70 27 13 28 69 29 14 30 15 31 16 32
REMARK SMILES IDX 63 33 17 34 68 35 62 36 64 37 18 38 67 39 61 40 60 41 19 43
REMARK SMILES IDX 49 44 30 45 48 46 31 47 34 48 47 49 65 50 32 51 33 52 46 54
REMARK SMILES IDX 66 55 35 56 20 57 21 58 29 59 22 60 28 61 23 62 24 63 25 64
REMARK SMILES IDX 26 65 27 66 50 67 51 68 59 69 52 70 58 71 53 72 54 73 55 74
REMARK SMILES IDX 56 75 57 76 36 77 37 78 45 79 38 80 44 81 39 82 40 83 41 84
REMARK SMILES IDX 42 85 43 86
REMARK H PARENT 64 42 34 53
REMARK Flexibility Score: inf
ROOT
ATOM      1  C   UNL A   1      34.759  34.066  29.107  1.00  0.00     0.274 C 
ENDROOT
BRANCH   1   2
ATOM      2  O   UNL A   1      35.608  33.562  30.156  1.00  0.00    -0.462 OA
BRANCH   2   3
ATOM      3  C   UNL A   1      35.060  33.497  31.400  1.00  0.00     0.313 C 
ATOM      4  O   UNL A   1      34.204  32.683  31.733  1.00  0.00    -0.252 OA
BRANCH   3   5
ATOM      5  C   UNL A   1      35.673  34.509  32.369  1.00  0.00     0.126 C 
ATOM      6  C   UNL A   1      34.724  35.615  32.831  1.00  0.00     0.025 C 
BRANCH   5   7
ATOM      7  C   UNL A   1      36.329  33.843  33.571  1.00  0.00    -0.033 A 
ATOM      8  C   UNL A   1      35.904  34.124  34.877  1.00  0.00     0.004 A 
ATOM      9  C   UNL A   1      37.409  32.961  33.380  1.00  0.00     0.016 A 
ATOM     10  C   UNL A   1      36.542  33.537  35.969  1.00  0.00     0.001 A 
ATOM     11  C   UNL A   1      38.083  32.400  34.474  1.00  0.00     0.023 A 
ATOM     12  C   UNL A   1      37.629  32.687  35.770  1.00  0.00     0.012 A 
BRANCH  11  13
ATOM     13  C   UNL A   1      39.251  31.480  34.333  1.00  0.00     0.193 C 
ATOM     14  O   UNL A   1      40.346  31.813  34.784  1.00  0.00    -0.289 OA
BRANCH  13  15
ATOM     15  C   UNL A   1      39.147  30.157  33.677  1.00  0.00     0.022 A 
ATOM     16  C   UNL A   1      40.322  29.425  33.476  1.00  0.00     0.012 A 
ATOM     17  C   UNL A   1      37.924  29.655  33.217  1.00  0.00     0.012 A 
ATOM     18  C   UNL A   1      40.268  28.172  32.865  1.00  0.00     0.001 A 
ATOM     19  C   UNL A   1      37.873  28.398  32.611  1.00  0.00     0.001 A 
ATOM     20  C   UNL A   1      39.043  27.656  32.441  1.00  0.00     0.000 A 
ENDBRANCH  13  15
ENDBRANCH  11  13
ENDBRANCH   5   7
ENDBRANCH   3   5
ENDBRANCH   2   3
ENDBRANCH   1   2
BRANCH   1  21
ATOM     21  C   UNL A   1      34.584  33.028  27.996  1.00  0.00     0.275 C 
BRANCH  21  22
ATOM     22  O   UNL A   1      34.116  31.767  28.511  1.00  0.00    -0.458 OA
BRANCH  22  23
ATOM     23  C   UNL A   1      34.347  30.701  27.713  1.00  0.00     0.338 C 
ATOM     24  O   UNL A   1      33.631  30.266  26.827  1.00  0.00    -0.246 OA
BRANCH  23  25
ATOM     25  C   UNL A   1      35.673  30.143  28.003  1.00  0.00     0.060 A 
ATOM     26  C   UNL A   1      35.951  29.723  29.306  1.00  0.00     0.016 A 
ATOM     27  C   UNL A   1      36.672  30.154  27.030  1.00  0.00     0.016 A 
ATOM     28  C   UNL A   1      37.248  29.360  29.655  1.00  0.00     0.010 A 
ATOM     29  C   UNL A   1      37.964  29.745  27.373  1.00  0.00     0.010 A 
ATOM     30  C   UNL A   1      38.267  29.367  28.693  1.00  0.00    -0.014 A 
BRANCH  30  31
ATOM     31  C   UNL A   1      39.654  29.004  29.076  1.00  0.00     0.031 A 
ATOM     32  C   UNL A   1      40.524  29.998  29.796  1.00  0.00     0.074 A 
ATOM     33  C   UNL A   1      40.128  27.778  28.786  1.00  0.00     0.049 A 
ATOM     34  N   UNL A   1      41.793  29.911  30.103  1.00  0.00    -0.248 NA
ATOM     35  C   UNL A   1      39.887  31.255  30.217  1.00  0.00     0.031 C 
ATOM     36  C   UNL A   1      39.372  26.709  28.132  1.00  0.00     0.029 A 
ATOM     37  N   UNL A   1      41.364  27.225  29.008  1.00  0.00    -0.354 N 
ATOM     38  C   UNL A   1      42.117  31.112  30.721  1.00  0.00     0.074 A 
ATOM     39  C   UNL A   1      40.911  31.913  30.743  1.00  0.00     0.031 C 
ATOM     40  C   UNL A   1      40.154  25.624  28.017  1.00  0.00     0.029 A 
ATOM     41  C   UNL A   1      41.481  25.939  28.536  1.00  0.00     0.049 A 
ATOM     42  H   UNL A   1      42.096  27.702  29.461  1.00  0.00     0.167 HD
ATOM     43  C   UNL A   1      43.311  31.513  31.220  1.00  0.00     0.031 A 
ATOM     44  C   UNL A   1      42.546  25.115  28.494  1.00  0.00     0.031 A 
ATOM     45  C   UNL A   1      44.504  30.710  31.211  1.00  0.00     0.049 A 
ATOM     46  C   UNL A   1      43.866  25.593  29.025  1.00  0.00     0.074 A 
ATOM     47  C   UNL A   1      45.763  31.030  31.688  1.00  0.00     0.029 A 
ATOM     48  N   UNL A   1      44.584  29.422  30.706  1.00  0.00    -0.354 N 
ATOM     49  N   UNL A   1      44.164  26.749  29.569  1.00  0.00    -0.248 NA
ATOM     50  C   UNL A   1      44.996  24.659  28.927  1.00  0.00     0.031 C 
ATOM     51  C   UNL A   1      46.612  29.943  31.445  1.00  0.00     0.029 A 
ATOM     52  C   UNL A   1      45.872  28.935  30.851  1.00  0.00     0.049 A 
ATOM     53  H   UNL A   1      43.836  28.925  30.303  1.00  0.00     0.167 HD
ATOM     54  C   UNL A   1      45.515  26.680  29.881  1.00  0.00     0.074 A 
ATOM     55  C   UNL A   1      45.972  25.363  29.484  1.00  0.00     0.031 C 
ATOM     56  C   UNL A   1      46.309  27.625  30.443  1.00  0.00     0.031 A 
BRANCH  43  57
ATOM     57  C   UNL A   1      43.389  32.906  31.781  1.00  0.00    -0.014 A 
ATOM     58  C   UNL A   1      42.948  33.192  33.085  1.00  0.00     0.010 A 
ATOM     59  C   UNL A   1      43.934  33.939  30.998  1.00  0.00     0.010 A 
ATOM     60  C   UNL A   1      43.012  34.497  33.582  1.00  0.00     0.020 A 
ATOM     61  C   UNL A   1      44.017  35.242  31.498  1.00  0.00     0.020 A 
ATOM     62  C   UNL A   1      43.536  35.516  32.780  1.00  0.00     0.054 A 
BRANCH  62  63
ATOM     63  S   UNL A   1      43.613  37.203  33.443  1.00  0.00     0.124 S 
ATOM     64  O   UNL A   1      43.472  38.007  32.232  1.00  0.00    -0.237 OA
ATOM     65  O   UNL A   1      42.476  37.245  34.359  1.00  0.00    -0.237 OA
ATOM     66  O   UNL A   1      44.926  37.263  34.083  1.00  0.00    -0.744 OA
ENDBRANCH  62  63
ENDBRANCH  43  57
BRANCH  44  67
ATOM     67  C   UNL A   1      42.404  23.766  27.887  1.00  0.00    -0.014 A 
ATOM     68  C   UNL A   1      42.808  23.534  26.562  1.00  0.00     0.010 A 
ATOM     69  C   UNL A   1      41.896  22.699  28.649  1.00  0.00     0.010 A 
ATOM     70  C   UNL A   1      42.704  22.256  26.006  1.00  0.00     0.020 A 
ATOM     71  C   UNL A   1      41.811  21.415  28.104  1.00  0.00     0.020 A 
ATOM     72  C   UNL A   1      42.208  21.203  26.783  1.00  0.00     0.054 A 
BRANCH  72  73
ATOM     73  S   UNL A   1      42.150  19.533  26.075  1.00  0.00     0.124 S 
ATOM     74  O   UNL A   1      40.738  19.399  25.734  1.00  0.00    -0.237 OA
ATOM     75  O   UNL A   1      43.068  19.631  24.943  1.00  0.00    -0.237 OA
ATOM     76  O   UNL A   1      42.616  18.687  27.171  1.00  0.00    -0.744 OA
ENDBRANCH  72  73
ENDBRANCH  44  67
BRANCH  56  77
ATOM     77  C   UNL A   1      47.748  27.259  30.675  1.00  0.00    -0.014 A 
ATOM     78  C   UNL A   1      48.145  26.613  31.857  1.00  0.00     0.010 A 
ATOM     79  C   UNL A   1      48.704  27.532  29.681  1.00  0.00     0.010 A 
ATOM     80  C   UNL A   1      49.484  26.266  32.054  1.00  0.00     0.020 A 
ATOM     81  C   UNL A   1      50.040  27.171  29.867  1.00  0.00     0.020 A 
ATOM     82  C   UNL A   1      50.424  26.552  31.059  1.00  0.00     0.054 A 
BRANCH  82  83
ATOM     83  S   UNL A   1      52.152  26.060  31.314  1.00  0.00     0.124 S 
ATOM     84  O   UNL A   1      52.005  24.717  31.869  1.00  0.00    -0.237 OA
ATOM     85  O   UNL A   1      52.712  26.126  29.967  1.00  0.00    -0.237 OA
ATOM     86  O   UNL A   1      52.663  27.067  32.243  1.00  0.00    -0.744 OA
ENDBRANCH  82  83
ENDBRANCH  56  77
ENDBRANCH  30  31
ENDBRANCH  23  25
ENDBRANCH  22  23
ENDBRANCH  21  22
ENDBRANCH   1  21
TORSDOF 17
ENDMDL
MODEL 2
REMARK VINA RESULT:      -9.3      1.197      8.412
REMARK SMILES C[C@H](C(=O)OCCOC(=O)c1ccc(-c2c3nc(c(-c4ccc(S(=O)(=O)[O-])cc4)c4ccc([nH]4)c(-c4ccc(S(=O)(=O)[O-])cc4)c4nc(c(-c5ccc(S(=O)(=O)[O-])cc5)c5ccc2[nH]5)C=C4)C=C3)cc1)c1cccc(C(=O)c2ccccc2)c1
REMARK SMILES IDX 6 1 5 2 3 3 4 4 2 5 1 6 71 7 72 8 84 9 73 10 75 11 74 12
REMARK SMILES IDX 76 13 77 14 78 15 79 16 83 17 80 18 82 19 81 20 7 21 8 22
REMARK SMILES IDX 9 23 10 24 11 25 12 26 70 27 13 28 69 29 14 30 15 31 16 32
REMARK SMILES IDX 63 33 17 34 68 35 62 36 64 37 18 38 67 39 61 40 60 41 19 43
REMARK SMILES IDX 49 44 30 45 48 46 31 47 34 48 47 49 65 50 32 51 33 52 46 54
REMARK SMILES IDX 66 55 35 56 20 57 21 58 29 59 22 60 28 61 23 62 24 63 25 64
REMARK SMILES IDX 26 65 27 66 50 67 51 68 59 69 52 70 58 71 53 72 54 73 55 74
REMARK SMILES IDX 56 75 57 76 36 77 37 78 45 79 38 80 44 81 39 82 40 83 41 84
REMARK SMILES IDX 42 85 43 86
REMARK H PARENT 64 42 34 53
REMARK Flexibility Score: inf
ROOT
ATOM      1  C   UNL A   1      33.878  33.400  28.623  1.00  0.00     0.274 C 
ENDROOT
BRANCH   1   2
ATOM      2  O   UNL A   1      34.138  32.935  29.961  1.00  0.00    -0.462 OA
BRANCH   2   3
ATOM      3  C   UNL A   1      35.061  33.634  30.677  1.00  0.00     0.313 C 
ATOM      4  O   UNL A   1      34.784  34.526  31.472  1.00  0.00    -0.252 OA
BRANCH   3   5
ATOM      5  C   UNL A   1      36.490  33.145  30.434  1.00  0.00     0.126 C 
ATOM      6  C   UNL A   1      37.190  33.771  29.228  1.00  0.00     0.025 C 
BRANCH   5   7
ATOM      7  C   UNL A   1      37.367  33.267  31.673  1.00  0.00    -0.033 A 
ATOM      8  C   UNL A   1      37.934  34.495  32.042  1.00  0.00     0.004 A 
ATOM      9  C   UNL A   1      37.654  32.125  32.444  1.00  0.00     0.016 A 
ATOM     10  C   UNL A   1      38.767  34.582  33.157  1.00  0.00     0.001 A 
ATOM     11  C   UNL A   1      38.525  32.196  33.540  1.00  0.00     0.023 A 
ATOM     12  C   UNL A   1      39.067  33.439  33.896  1.00  0.00     0.012 A 
BRANCH  11  13
ATOM     13  C   UNL A   1      38.887  31.013  34.377  1.00  0.00     0.193 C 
ATOM     14  O   UNL A   1      38.319  30.832  35.453  1.00  0.00    -0.289 OA
BRANCH  13  15
ATOM     15  C   UNL A   1      39.906  30.023  33.957  1.00  0.00     0.022 A 
ATOM     16  C   UNL A   1      39.507  28.985  33.108  1.00  0.00     0.012 A 
ATOM     17  C   UNL A   1      41.224  30.078  34.424  1.00  0.00     0.012 A 
ATOM     18  C   UNL A   1      40.436  28.034  32.685  1.00  0.00     0.001 A 
ATOM     19  C   UNL A   1      42.152  29.128  33.994  1.00  0.00     0.001 A 
ATOM     20  C   UNL A   1      41.759  28.111  33.121  1.00  0.00     0.000 A 
ENDBRANCH  13  15
ENDBRANCH  11  13
ENDBRANCH   5   7
ENDBRANCH   3   5
ENDBRANCH   2   3
ENDBRANCH   1   2
BRANCH   1  21
ATOM     21  C   UNL A   1      33.959  32.250  27.617  1.00  0.00     0.275 C 
BRANCH  21  22
ATOM     22  O   UNL A   1      33.747  30.972  28.247  1.00  0.00    -0.458 OA
BRANCH  22  23
ATOM     23  C   UNL A   1      34.392  29.934  27.669  1.00  0.00     0.338 C 
ATOM     24  O   UNL A   1      33.952  29.153  26.842  1.00  0.00    -0.246 OA
BRANCH  23  25
ATOM     25  C   UNL A   1      35.788  29.903  28.121  1.00  0.00     0.060 A 
ATOM     26  C   UNL A   1      36.800  30.089  27.177  1.00  0.00     0.016 A 
ATOM     27  C   UNL A   1      36.095  29.565  29.438  1.00  0.00     0.016 A 
ATOM     28  C   UNL A   1      38.129  29.887  27.537  1.00  0.00     0.010 A 
ATOM     29  C   UNL A   1      37.435  29.407  29.808  1.00  0.00     0.010 A 
ATOM     30  C   UNL A   1      38.460  29.543  28.855  1.00  0.00    -0.014 A 
BRANCH  30  31
ATOM     31  C   UNL A   1      39.875  29.303  29.228  1.00  0.00     0.031 A 
ATOM     32  C   UNL A   1      40.533  27.992  28.894  1.00  0.00     0.074 A 
ATOM     33  C   UNL A   1      40.574  30.266  29.857  1.00  0.00     0.049 A 
ATOM     34  N   UNL A   1      41.714  27.550  29.242  1.00  0.00    -0.248 NA
ATOM     35  C   UNL A   1      39.758  27.052  28.068  1.00  0.00     0.031 C 
ATOM     36  C   UNL A   1      40.066  31.596  30.198  1.00  0.00     0.029 A 
ATOM     37  N   UNL A   1      41.865  30.272  30.322  1.00  0.00    -0.354 N 
ATOM     38  C   UNL A   1      41.813  26.271  28.710  1.00  0.00     0.074 A 
ATOM     39  C   UNL A   1      40.570  26.005  28.017  1.00  0.00     0.031 C 
ATOM     40  C   UNL A   1      41.039  32.295  30.804  1.00  0.00     0.029 A 
ATOM     41  C   UNL A   1      42.216  31.445  30.947  1.00  0.00     0.049 A 
ATOM     42  H   UNL A   1      42.480  29.511  30.218  1.00  0.00     0.167 HD
ATOM     43  C   UNL A   1      42.843  25.395  28.796  1.00  0.00     0.031 A 
ATOM     44  C   UNL A   1      43.347  31.789  31.593  1.00  0.00     0.031 A 
ATOM     45  C   UNL A   1      44.083  25.667  29.472  1.00  0.00     0.049 A 
ATOM     46  C   UNL A   1      44.463  30.791  31.701  1.00  0.00     0.074 A 
ATOM     47  C   UNL A   1      45.185  24.841  29.618  1.00  0.00     0.029 A 
ATOM     48  N   UNL A   1      44.391  26.859  30.109  1.00  0.00    -0.354 N 
ATOM     49  N   UNL A   1      44.523  29.569  31.228  1.00  0.00    -0.248 NA
ATOM     50  C   UNL A   1      45.660  31.214  32.441  1.00  0.00     0.031 C 
ATOM     51  C   UNL A   1      46.149  25.527  30.368  1.00  0.00     0.029 A 
ATOM     52  C   UNL A   1      45.660  26.790  30.657  1.00  0.00     0.049 A 
ATOM     53  H   UNL A   1      43.795  27.640  30.163  1.00  0.00     0.167 HD
ATOM     54  C   UNL A   1      45.765  29.078  31.609  1.00  0.00     0.074 A 
ATOM     55  C   UNL A   1      46.432  30.141  32.334  1.00  0.00     0.031 C 
ATOM     56  C   UNL A   1      46.304  27.855  31.382  1.00  0.00     0.031 A 
BRANCH  43  57
ATOM     57  C   UNL A   1      42.649  24.040  28.173  1.00  0.00    -0.014 A 
ATOM     58  C   UNL A   1      42.072  22.982  28.897  1.00  0.00     0.010 A 
ATOM     59  C   UNL A   1      43.031  23.831  26.836  1.00  0.00     0.010 A 
ATOM     60  C   UNL A   1      41.918  21.724  28.305  1.00  0.00     0.020 A 
ATOM     61  C   UNL A   1      42.861  22.580  26.235  1.00  0.00     0.020 A 
ATOM     62  C   UNL A   1      42.324  21.530  26.981  1.00  0.00     0.054 A 
BRANCH  62  63
ATOM     63  S   UNL A   1      42.113  19.891  26.230  1.00  0.00     0.124 S 
ATOM     64  O   UNL A   1      40.681  19.875  25.944  1.00  0.00    -0.237 OA
ATOM     65  O   UNL A   1      42.986  19.954  25.060  1.00  0.00    -0.237 OA
ATOM     66  O   UNL A   1      42.551  18.972  27.279  1.00  0.00    -0.744 OA
ENDBRANCH  62  63
ENDBRANCH  43  57
BRANCH  44  67
ATOM     67  C   UNL A   1      43.453  33.131  32.220  1.00  0.00    -0.014 A 
ATOM     68  C   UNL A   1      44.015  34.208  31.513  1.00  0.00     0.010 A 
ATOM     69  C   UNL A   1      42.958  33.345  33.518  1.00  0.00     0.010 A 
ATOM     70  C   UNL A   1      44.082  35.476  32.095  1.00  0.00     0.020 A 
ATOM     71  C   UNL A   1      43.004  34.616  34.096  1.00  0.00     0.020 A 
ATOM     72  C   UNL A   1      43.573  35.673  33.383  1.00  0.00     0.054 A 
BRANCH  72  73
ATOM     73  S   UNL A   1      43.596  37.341  34.098  1.00  0.00     0.124 S 
ATOM     74  O   UNL A   1      42.360  37.354  34.873  1.00  0.00    -0.237 OA
ATOM     75  O   UNL A   1      44.832  37.341  34.877  1.00  0.00    -0.237 OA
ATOM     76  O   UNL A   1      43.612  38.210  32.924  1.00  0.00    -0.744 OA
ENDBRANCH  72  73
ENDBRANCH  44  67
BRANCH  56  77
ATOM     77  C   UNL A   1      47.688  27.609  31.911  1.00  0.00    -0.014 A 
ATOM     78  C   UNL A   1      48.821  27.925  31.141  1.00  0.00     0.010 A 
ATOM     79  C   UNL A   1      47.856  27.093  33.208  1.00  0.00     0.010 A 
ATOM     80  C   UNL A   1      50.102  27.704  31.651  1.00  0.00     0.020 A 
ATOM     81  C   UNL A   1      49.136  26.887  33.727  1.00  0.00     0.020 A 
ATOM     82  C   UNL A   1      50.252  27.181  32.939  1.00  0.00     0.054 A 
BRANCH  82  83
ATOM     83  S   UNL A   1      51.923  26.938  33.601  1.00  0.00     0.124 S 
ATOM     84  O   UNL A   1      51.725  25.820  34.521  1.00  0.00    -0.237 OA
ATOM     85  O   UNL A   1      52.706  26.636  32.405  1.00  0.00    -0.237 OA
ATOM     86  O   UNL A   1      52.233  28.219  34.233  1.00  0.00    -0.744 OA
ENDBRANCH  82  83
ENDBRANCH  56  77
ENDBRANCH  30  31
ENDBRANCH  23  25
ENDBRANCH  22  23
ENDBRANCH  21  22
ENDBRANCH   1  21
TORSDOF 17
ENDMDL
MODEL 3
REMARK VINA RESULT:      -9.2      3.468     10.634
REMARK SMILES C[C@H](C(=O)OCCOC(=O)c1ccc(-c2c3nc(c(-c4ccc(S(=O)(=O)[O-])cc4)c4ccc([nH]4)c(-c4ccc(S(=O)(=O)[O-])cc4)c4nc(c(-c5ccc(S(=O)(=O)[O-])cc5)c5ccc2[nH]5)C=C4)C=C3)cc1)c1cccc(C(=O)c2ccccc2)c1
REMARK SMILES IDX 6 1 5 2 3 3 4 4 2 5 1 6 71 7 72 8 84 9 73 10 75 11 74 12
REMARK SMILES IDX 76 13 77 14 78 15 79 16 83 17 80 18 82 19 81 20 7 21 8 22
REMARK SMILES IDX 9 23 10 24 11 25 12 26 70 27 13 28 69 29 14 30 15 31 16 32
REMARK SMILES IDX 63 33 17 34 68 35 62 36 64 37 18 38 67 39 61 40 60 41 19 43
REMARK SMILES IDX 49 44 30 45 48 46 31 47 34 48 47 49 65 50 32 51 33 52 46 54
REMARK SMILES IDX 66 55 35 56 20 57 21 58 29 59 22 60 28 61 23 62 24 63 25 64
REMARK SMILES IDX 26 65 27 66 50 67 51 68 59 69 52 70 58 71 53 72 54 73 55 74
REMARK SMILES IDX 56 75 57 76 36 77 37 78 45 79 38 80 44 81 39 82 40 83 41 84
REMARK SMILES IDX 42 85 43 86
REMARK H PARENT 64 42 34 53
REMARK Flexibility Score: inf
ROOT
ATOM      1  C   UNL A   1      36.310  21.008  24.941  1.00  0.00     0.274 C 
ENDROOT
BRANCH   1   2
ATOM      2  O   UNL A   1      35.348  21.353  25.957  1.00  0.00    -0.462 OA
BRANCH   2   3
ATOM      3  C   UNL A   1      34.181  21.903  25.525  1.00  0.00     0.313 C 
ATOM      4  O   UNL A   1      33.825  21.926  24.351  1.00  0.00    -0.252 OA
BRANCH   3   5
ATOM      5  C   UNL A   1      33.321  22.438  26.670  1.00  0.00     0.126 C 
ATOM      6  C   UNL A   1      34.054  22.615  28.000  1.00  0.00     0.025 C 
BRANCH   5   7
ATOM      7  C   UNL A   1      32.586  23.719  26.300  1.00  0.00    -0.033 A 
ATOM      8  C   UNL A   1      31.185  23.770  26.273  1.00  0.00     0.004 A 
ATOM      9  C   UNL A   1      33.317  24.866  25.937  1.00  0.00     0.016 A 
ATOM     10  C   UNL A   1      30.527  24.939  25.893  1.00  0.00     0.001 A 
ATOM     11  C   UNL A   1      32.663  26.032  25.513  1.00  0.00     0.023 A 
ATOM     12  C   UNL A   1      31.262  26.060  25.508  1.00  0.00     0.012 A 
BRANCH  11  13
ATOM     13  C   UNL A   1      33.387  27.268  25.090  1.00  0.00     0.193 C 
ATOM     14  O   UNL A   1      34.019  27.274  24.035  1.00  0.00    -0.289 OA
BRANCH  13  15
ATOM     15  C   UNL A   1      33.366  28.515  25.891  1.00  0.00     0.022 A 
ATOM     16  C   UNL A   1      34.432  28.755  26.765  1.00  0.00     0.012 A 
ATOM     17  C   UNL A   1      32.297  29.415  25.827  1.00  0.00     0.012 A 
ATOM     18  C   UNL A   1      34.454  29.918  27.535  1.00  0.00     0.001 A 
ATOM     19  C   UNL A   1      32.326  30.581  26.595  1.00  0.00     0.001 A 
ATOM     20  C   UNL A   1      33.406  30.834  27.442  1.00  0.00     0.000 A 
ENDBRANCH  13  15
ENDBRANCH  11  13
ENDBRANCH   5   7
ENDBRANCH   3   5
ENDBRANCH   2   3
ENDBRANCH   1   2
BRANCH   1  21
ATOM     21  C   UNL A   1      37.343  22.123  24.763  1.00  0.00     0.275 C 
BRANCH  21  22
ATOM     22  O   UNL A   1      37.687  22.739  26.018  1.00  0.00    -0.458 OA
BRANCH  22  23
ATOM     23  C   UNL A   1      39.013  22.879  26.242  1.00  0.00     0.338 C 
ATOM     24  O   UNL A   1      39.904  22.100  25.945  1.00  0.00    -0.246 OA
BRANCH  23  25
ATOM     25  C   UNL A   1      39.279  24.187  26.852  1.00  0.00     0.060 A 
ATOM     26  C   UNL A   1      40.022  25.123  26.130  1.00  0.00     0.016 A 
ATOM     27  C   UNL A   1      38.908  24.438  28.172  1.00  0.00     0.016 A 
ATOM     28  C   UNL A   1      40.444  26.297  26.745  1.00  0.00     0.010 A 
ATOM     29  C   UNL A   1      39.295  25.640  28.774  1.00  0.00     0.010 A 
ATOM     30  C   UNL A   1      40.086  26.567  28.072  1.00  0.00    -0.014 A 
BRANCH  30  31
ATOM     31  C   UNL A   1      40.559  27.809  28.733  1.00  0.00     0.031 A 
ATOM     32  C   UNL A   1      41.963  27.893  29.265  1.00  0.00     0.074 A 
ATOM     33  C   UNL A   1      39.731  28.864  28.845  1.00  0.00     0.049 A 
ATOM     34  N   UNL A   1      42.519  28.840  29.976  1.00  0.00    -0.248 NA
ATOM     35  C   UNL A   1      42.855  26.762  28.966  1.00  0.00     0.031 C 
ATOM     36  C   UNL A   1      38.361  28.925  28.331  1.00  0.00     0.029 A 
ATOM     37  N   UNL A   1      39.924  30.091  29.429  1.00  0.00    -0.354 N 
ATOM     38  C   UNL A   1      43.812  28.407  30.240  1.00  0.00     0.074 A 
ATOM     39  C   UNL A   1      43.958  27.110  29.615  1.00  0.00     0.031 C 
ATOM     40  C   UNL A   1      37.842  30.132  28.609  1.00  0.00     0.029 A 
ATOM     41  C   UNL A   1      38.818  30.905  29.370  1.00  0.00     0.049 A 
ATOM     42  H   UNL A   1      40.772  30.362  29.849  1.00  0.00     0.167 HD
ATOM     43  C   UNL A   1      44.787  29.031  30.944  1.00  0.00     0.031 A 
ATOM     44  C   UNL A   1      38.600  32.125  29.897  1.00  0.00     0.031 A 
ATOM     45  C   UNL A   1      44.645  30.327  31.552  1.00  0.00     0.049 A 
ATOM     46  C   UNL A   1      39.685  32.784  30.699  1.00  0.00     0.074 A 
ATOM     47  C   UNL A   1      45.574  31.040  32.290  1.00  0.00     0.029 A 
ATOM     48  N   UNL A   1      43.503  31.109  31.486  1.00  0.00    -0.354 N 
ATOM     49  N   UNL A   1      40.889  32.340  30.974  1.00  0.00    -0.248 NA
ATOM     50  C   UNL A   1      39.378  34.102  31.271  1.00  0.00     0.031 C 
ATOM     51  C   UNL A   1      44.982  32.243  32.693  1.00  0.00     0.029 A 
ATOM     52  C   UNL A   1      43.698  32.293  32.175  1.00  0.00     0.049 A 
ATOM     53  H   UNL A   1      42.674  30.859  31.017  1.00  0.00     0.167 HD
ATOM     54  C   UNL A   1      41.485  33.327  31.748  1.00  0.00     0.074 A 
ATOM     55  C   UNL A   1      40.518  34.398  31.882  1.00  0.00     0.031 C 
ATOM     56  C   UNL A   1      42.721  33.343  32.303  1.00  0.00     0.031 A 
BRANCH  43  57
ATOM     57  C   UNL A   1      46.084  28.292  31.128  1.00  0.00    -0.014 A 
ATOM     58  C   UNL A   1      47.200  28.568  30.318  1.00  0.00     0.010 A 
ATOM     59  C   UNL A   1      46.193  27.323  32.141  1.00  0.00     0.010 A 
ATOM     60  C   UNL A   1      48.391  27.856  30.491  1.00  0.00     0.020 A 
ATOM     61  C   UNL A   1      47.387  26.622  32.330  1.00  0.00     0.020 A 
ATOM     62  C   UNL A   1      48.473  26.880  31.490  1.00  0.00     0.054 A 
BRANCH  62  63
ATOM     63  S   UNL A   1      50.028  25.969  31.701  1.00  0.00     0.124 S 
ATOM     64  O   UNL A   1      49.577  24.765  32.394  1.00  0.00    -0.237 OA
ATOM     65  O   UNL A   1      50.478  25.769  30.326  1.00  0.00    -0.237 OA
ATOM     66  O   UNL A   1      50.853  26.875  32.497  1.00  0.00    -0.744 OA
ENDBRANCH  62  63
ENDBRANCH  43  57
BRANCH  44  67
ATOM     67  C   UNL A   1      37.279  32.778  29.710  1.00  0.00    -0.014 A 
ATOM     68  C   UNL A   1      36.282  32.668  30.694  1.00  0.00     0.010 A 
ATOM     69  C   UNL A   1      37.027  33.545  28.558  1.00  0.00     0.010 A 
ATOM     70  C   UNL A   1      35.053  33.312  30.528  1.00  0.00     0.020 A 
ATOM     71  C   UNL A   1      35.807  34.207  28.399  1.00  0.00     0.020 A 
ATOM     72  C   UNL A   1      34.824  34.080  29.382  1.00  0.00     0.054 A 
BRANCH  72  73
ATOM     73  S   UNL A   1      33.254  34.973  29.215  1.00  0.00     0.124 S 
ATOM     74  O   UNL A   1      32.703  34.870  30.562  1.00  0.00    -0.237 OA
ATOM     75  O   UNL A   1      33.684  36.309  28.808  1.00  0.00    -0.237 OA
ATOM     76  O   UNL A   1      32.544  34.217  28.186  1.00  0.00    -0.744 OA
ENDBRANCH  72  73
ENDBRANCH  44  67
BRANCH  56  77
ATOM     77  C   UNL A   1      43.101  34.565  33.091  1.00  0.00    -0.014 A 
ATOM     78  C   UNL A   1      42.920  34.608  34.484  1.00  0.00     0.010 A 
ATOM     79  C   UNL A   1      43.681  35.665  32.435  1.00  0.00     0.010 A 
ATOM     80  C   UNL A   1      43.289  35.745  35.207  1.00  0.00     0.020 A 
ATOM     81  C   UNL A   1      44.068  36.796  33.157  1.00  0.00     0.020 A 
ATOM     82  C   UNL A   1      43.857  36.834  34.538  1.00  0.00     0.054 A 
BRANCH  82  83
ATOM     83  S   UNL A   1      44.368  38.286  35.497  1.00  0.00     0.124 S 
ATOM     84  O   UNL A   1      45.820  38.134  35.526  1.00  0.00    -0.237 OA
ATOM     85  O   UNL A   1      43.869  39.400  34.694  1.00  0.00    -0.237 OA
ATOM     86  O   UNL A   1      43.695  38.104  36.782  1.00  0.00    -0.744 OA
ENDBRANCH  82  83
ENDBRANCH  56  77
ENDBRANCH  30  31
ENDBRANCH  23  25
ENDBRANCH  22  23
ENDBRANCH  21  22
ENDBRANCH   1  21
TORSDOF 17
ENDMDL
