MODEL 1
REMARK VINA RESULT:      -8.5      0.000      0.000
REMARK SMILES CCCN(CCC)c1cc(C(=O)OCCOC(=O)c2ccc(-c3c4nc(c(-c5ccc(S(=O)(=O)[O-])cc5)c5ccc([nH]5)c(-c5ccc(S(=O)(=O)[O-])cc5)c5nc(c(-c6ccc(S(=O)(=O)[O-])cc6)c6ccc3[nH]6)C=C5)C=C4)cc2)cc(C(F)(F)F)c1
REMARK SMILES IDX 14 1 13 2 11 3 12 4 10 5 8 6 9 7 85 8 80 9 79 10 4 11 3 12
REMARK SMILES IDX 2 13 1 14 5 15 6 16 7 17 81 18 82 19 83 20 84 21 15 22 16 23
REMARK SMILES IDX 17 24 18 25 19 26 20 27 78 28 21 29 77 30 22 31 23 32 24 33
REMARK SMILES IDX 71 34 25 35 76 36 70 37 72 38 26 39 75 40 69 41 68 42 27 44
REMARK SMILES IDX 57 45 38 46 56 47 39 48 42 49 55 50 73 51 40 52 41 53 54 55
REMARK SMILES IDX 74 56 43 57 28 58 29 59 37 60 30 61 36 62 31 63 32 64 33 65
REMARK SMILES IDX 34 66 35 67 58 68 59 69 67 70 60 71 66 72 61 73 62 74 63 75
REMARK SMILES IDX 64 76 65 77 44 78 45 79 53 80 46 81 52 82 47 83 48 84 49 85
REMARK SMILES IDX 50 86 51 87
REMARK H PARENT 72 43 42 54
REMARK Flexibility Score: inf
ROOT
ATOM      1  C   UNL A   1      39.319  20.215  25.721  1.00  0.00     0.275 C 
ENDROOT
BRANCH   1   2
ATOM      2  O   UNL A   1      40.483  21.000  26.051  1.00  0.00    -0.458 OA
BRANCH   2   3
ATOM      3  C   UNL A   1      41.085  20.767  27.250  1.00  0.00     0.338 C 
ATOM      4  O   UNL A   1      40.760  19.957  28.085  1.00  0.00    -0.246 OA
BRANCH   3   5
ATOM      5  C   UNL A   1      42.263  21.668  27.365  1.00  0.00     0.062 A 
ATOM      6  C   UNL A   1      44.120  22.849  26.295  1.00  0.00     0.038 A 
ATOM      7  C   UNL A   1      43.089  21.898  26.250  1.00  0.00     0.041 A 
ATOM      8  C   UNL A   1      44.382  23.435  27.537  1.00  0.00     0.039 A 
ATOM      9  C   UNL A   1      43.607  23.182  28.679  1.00  0.00     0.058 A 
ATOM     10  C   UNL A   1      42.527  22.305  28.577  1.00  0.00     0.029 A 
BRANCH   6  11
ATOM     11  N   UNL A   1      44.802  23.247  25.151  1.00  0.00    -0.372 N 
BRANCH  11  12
ATOM     12  C   UNL A   1      45.400  22.247  24.247  1.00  0.00     0.116 C 
BRANCH  12  13
ATOM     13  C   UNL A   1      46.092  21.051  24.935  1.00  0.00     0.018 C 
ATOM     14  C   UNL A   1      45.747  19.679  24.382  1.00  0.00     0.006 C 
ENDBRANCH  12  13
ENDBRANCH  11  12
BRANCH  11  15
ATOM     15  C   UNL A   1      45.358  24.610  25.093  1.00  0.00     0.116 C 
BRANCH  15  16
ATOM     16  C   UNL A   1      46.875  24.697  25.021  1.00  0.00     0.018 C 
ATOM     17  C   UNL A   1      47.510  24.885  26.387  1.00  0.00     0.006 C 
ENDBRANCH  15  16
ENDBRANCH  11  15
ENDBRANCH   6  11
BRANCH   9  18
ATOM     18  C   UNL A   1      43.907  23.869  29.982  1.00  0.00     0.416 C 
ATOM     19  F   UNL A   1      43.093  24.938  30.208  1.00  0.00    -0.166 F 
ATOM     20  F   UNL A   1      43.742  23.044  31.053  1.00  0.00    -0.166 F 
ATOM     21  F   UNL A   1      45.180  24.346  30.075  1.00  0.00    -0.166 F 
ENDBRANCH   9  18
ENDBRANCH   3   5
ENDBRANCH   2   3
ENDBRANCH   1   2
BRANCH   1  22
ATOM     22  C   UNL A   1      38.126  21.128  25.446  1.00  0.00     0.275 C 
BRANCH  22  23
ATOM     23  O   UNL A   1      38.607  22.477  25.319  1.00  0.00    -0.458 OA
BRANCH  23  24
ATOM     24  C   UNL A   1      38.019  23.405  26.106  1.00  0.00     0.338 C 
ATOM     25  O   UNL A   1      36.833  23.495  26.378  1.00  0.00    -0.246 OA
BRANCH  24  26
ATOM     26  C   UNL A   1      39.052  24.283  26.695  1.00  0.00     0.060 A 
ATOM     27  C   UNL A   1      38.988  24.579  28.052  1.00  0.00     0.016 A 
ATOM     28  C   UNL A   1      39.922  25.002  25.874  1.00  0.00     0.016 A 
ATOM     29  C   UNL A   1      39.656  25.700  28.543  1.00  0.00     0.010 A 
ATOM     30  C   UNL A   1      40.713  26.030  26.417  1.00  0.00     0.010 A 
ATOM     31  C   UNL A   1      40.553  26.442  27.753  1.00  0.00    -0.014 A 
BRANCH  31  32
ATOM     32  C   UNL A   1      41.265  27.648  28.307  1.00  0.00     0.031 A 
ATOM     33  C   UNL A   1      40.508  28.778  28.985  1.00  0.00     0.074 A 
ATOM     34  C   UNL A   1      42.614  27.750  28.252  1.00  0.00     0.049 A 
ATOM     35  N   UNL A   1      40.915  29.991  29.278  1.00  0.00    -0.248 NA
ATOM     36  C   UNL A   1      39.117  28.518  29.392  1.00  0.00     0.031 C 
ATOM     37  C   UNL A   1      43.532  26.737  27.725  1.00  0.00     0.029 A 
ATOM     38  N   UNL A   1      43.457  28.762  28.658  1.00  0.00    -0.354 N 
ATOM     39  C   UNL A   1      39.821  30.650  29.838  1.00  0.00     0.074 A 
ATOM     40  C   UNL A   1      38.733  29.697  29.861  1.00  0.00     0.031 C 
ATOM     41  C   UNL A   1      44.795  27.135  27.915  1.00  0.00     0.029 A 
ATOM     42  C   UNL A   1      44.782  28.511  28.388  1.00  0.00     0.049 A 
ATOM     43  H   UNL A   1      43.141  29.585  29.098  1.00  0.00     0.167 HD
ATOM     44  C   UNL A   1      39.726  31.931  30.274  1.00  0.00     0.031 A 
ATOM     45  C   UNL A   1      45.870  29.306  28.392  1.00  0.00     0.031 A 
ATOM     46  C   UNL A   1      40.821  32.870  30.289  1.00  0.00     0.049 A 
ATOM     47  C   UNL A   1      45.720  30.757  28.724  1.00  0.00     0.074 A 
ATOM     48  C   UNL A   1      40.816  34.190  30.708  1.00  0.00     0.029 A 
ATOM     49  N   UNL A   1      42.113  32.592  29.874  1.00  0.00    -0.354 N 
ATOM     50  N   UNL A   1      44.653  31.399  29.133  1.00  0.00    -0.248 NA
ATOM     51  C   UNL A   1      46.909  31.602  28.550  1.00  0.00     0.031 C 
ATOM     52  C   UNL A   1      42.088  34.728  30.485  1.00  0.00     0.029 A 
ATOM     53  C   UNL A   1      42.902  33.726  29.988  1.00  0.00     0.049 A 
ATOM     54  H   UNL A   1      42.424  31.717  29.546  1.00  0.00     0.167 HD
ATOM     55  C   UNL A   1      45.041  32.726  29.261  1.00  0.00     0.074 A 
ATOM     56  C   UNL A   1      46.447  32.790  28.914  1.00  0.00     0.031 C 
ATOM     57  C   UNL A   1      44.292  33.795  29.623  1.00  0.00     0.031 A 
BRANCH  44  58
ATOM     58  C   UNL A   1      38.374  32.441  30.713  1.00  0.00    -0.014 A 
ATOM     59  C   UNL A   1      37.955  32.393  32.053  1.00  0.00     0.010 A 
ATOM     60  C   UNL A   1      37.546  33.073  29.763  1.00  0.00     0.010 A 
ATOM     61  C   UNL A   1      36.723  32.946  32.429  1.00  0.00     0.020 A 
ATOM     62  C   UNL A   1      36.329  33.649  30.139  1.00  0.00     0.020 A 
ATOM     63  C   UNL A   1      35.919  33.571  31.470  1.00  0.00     0.054 A 
BRANCH  63  64
ATOM     64  S   UNL A   1      34.346  34.312  31.992  1.00  0.00     0.124 S 
ATOM     65  O   UNL A   1      34.793  35.548  32.631  1.00  0.00    -0.237 OA
ATOM     66  O   UNL A   1      33.636  34.482  30.727  1.00  0.00    -0.237 OA
ATOM     67  O   UNL A   1      33.773  33.318  32.895  1.00  0.00    -0.744 OA
ENDBRANCH  63  64
ENDBRANCH  44  58
BRANCH  45  68
ATOM     68  C   UNL A   1      47.168  28.762  27.898  1.00  0.00    -0.014 A 
ATOM     69  C   UNL A   1      47.506  28.811  26.536  1.00  0.00     0.010 A 
ATOM     70  C   UNL A   1      48.099  28.237  28.817  1.00  0.00     0.010 A 
ATOM     71  C   UNL A   1      48.760  28.363  26.108  1.00  0.00     0.020 A 
ATOM     72  C   UNL A   1      49.365  27.828  28.398  1.00  0.00     0.020 A 
ATOM     73  C   UNL A   1      49.685  27.888  27.044  1.00  0.00     0.054 A 
BRANCH  73  74
ATOM     74  S   UNL A   1      51.341  27.408  26.481  1.00  0.00     0.124 S 
ATOM     75  O   UNL A   1      52.147  28.548  26.903  1.00  0.00    -0.237 OA
ATOM     76  O   UNL A   1      51.574  26.163  27.208  1.00  0.00    -0.237 OA
ATOM     77  O   UNL A   1      51.179  27.253  25.037  1.00  0.00    -0.744 OA
ENDBRANCH  73  74
ENDBRANCH  45  68
BRANCH  57  78
ATOM     78  C   UNL A   1      44.983  35.129  29.679  1.00  0.00    -0.014 A 
ATOM     79  C   UNL A   1      45.643  35.553  30.847  1.00  0.00     0.010 A 
ATOM     80  C   UNL A   1      44.994  35.959  28.544  1.00  0.00     0.010 A 
ATOM     81  C   UNL A   1      46.275  36.798  30.887  1.00  0.00     0.020 A 
ATOM     82  C   UNL A   1      45.649  37.192  28.571  1.00  0.00     0.020 A 
ATOM     83  C   UNL A   1      46.275  37.610  29.748  1.00  0.00     0.054 A 
BRANCH  83  84
ATOM     84  S   UNL A   1      47.134  39.205  29.815  1.00  0.00     0.124 S 
ATOM     85  O   UNL A   1      48.517  38.797  30.048  1.00  0.00    -0.237 OA
ATOM     86  O   UNL A   1      46.859  39.773  28.498  1.00  0.00    -0.237 OA
ATOM     87  O   UNL A   1      46.493  39.897  30.932  1.00  0.00    -0.744 OA
ENDBRANCH  83  84
ENDBRANCH  57  78
ENDBRANCH  31  32
ENDBRANCH  24  26
ENDBRANCH  23  24
ENDBRANCH  22  23
ENDBRANCH   1  22
TORSDOF 20
ENDMDL
MODEL 2
REMARK VINA RESULT:      -8.0      4.446      7.092
REMARK SMILES CCCN(CCC)c1cc(C(=O)OCCOC(=O)c2ccc(-c3c4nc(c(-c5ccc(S(=O)(=O)[O-])cc5)c5ccc([nH]5)c(-c5ccc(S(=O)(=O)[O-])cc5)c5nc(c(-c6ccc(S(=O)(=O)[O-])cc6)c6ccc3[nH]6)C=C5)C=C4)cc2)cc(C(F)(F)F)c1
REMARK SMILES IDX 14 1 13 2 11 3 12 4 10 5 8 6 9 7 85 8 80 9 79 10 4 11 3 12
REMARK SMILES IDX 2 13 1 14 5 15 6 16 7 17 81 18 82 19 83 20 84 21 15 22 16 23
REMARK SMILES IDX 17 24 18 25 19 26 20 27 78 28 21 29 77 30 22 31 23 32 24 33
REMARK SMILES IDX 71 34 25 35 76 36 70 37 72 38 26 39 75 40 69 41 68 42 27 44
REMARK SMILES IDX 57 45 38 46 56 47 39 48 42 49 55 50 73 51 40 52 41 53 54 55
REMARK SMILES IDX 74 56 43 57 28 58 29 59 37 60 30 61 36 62 31 63 32 64 33 65
REMARK SMILES IDX 34 66 35 67 58 68 59 69 67 70 60 71 66 72 61 73 62 74 63 75
REMARK SMILES IDX 64 76 65 77 44 78 45 79 53 80 46 81 52 82 47 83 48 84 49 85
REMARK SMILES IDX 50 86 51 87
REMARK H PARENT 72 43 42 54
REMARK Flexibility Score: inf
ROOT
ATOM      1  C   UNL A   1      35.960  23.896  25.695  1.00  0.00     0.275 C 
ENDROOT
BRANCH   1   2
ATOM      2  O   UNL A   1      35.171  24.632  24.738  1.00  0.00    -0.458 OA
BRANCH   2   3
ATOM      3  C   UNL A   1      33.830  24.726  24.962  1.00  0.00     0.338 C 
ATOM      4  O   UNL A   1      33.055  23.816  25.135  1.00  0.00    -0.246 OA
BRANCH   3   5
ATOM      5  C   UNL A   1      33.461  26.166  24.994  1.00  0.00     0.062 A 
ATOM      6  C   UNL A   1      31.991  27.978  24.257  1.00  0.00     0.038 A 
ATOM      7  C   UNL A   1      32.451  26.656  24.147  1.00  0.00     0.041 A 
ATOM      8  C   UNL A   1      32.686  28.816  25.133  1.00  0.00     0.039 A 
ATOM      9  C   UNL A   1      33.734  28.365  25.950  1.00  0.00     0.058 A 
ATOM     10  C   UNL A   1      34.104  27.022  25.889  1.00  0.00     0.029 A 
BRANCH   6  11
ATOM     11  N   UNL A   1      30.854  28.416  23.588  1.00  0.00    -0.372 N 
BRANCH  11  12
ATOM     12  C   UNL A   1      30.292  29.753  23.858  1.00  0.00     0.116 C 
BRANCH  12  13
ATOM     13  C   UNL A   1      29.008  30.110  23.080  1.00  0.00     0.018 C 
ATOM     14  C   UNL A   1      29.205  30.525  21.632  1.00  0.00     0.006 C 
ENDBRANCH  12  13
ENDBRANCH  11  12
BRANCH  11  15
ATOM     15  C   UNL A   1      29.939  27.417  23.010  1.00  0.00     0.116 C 
BRANCH  15  16
ATOM     16  C   UNL A   1      29.205  26.542  24.015  1.00  0.00     0.018 C 
ATOM     17  C   UNL A   1      27.697  26.684  23.915  1.00  0.00     0.006 C 
ENDBRANCH  15  16
ENDBRANCH  11  15
ENDBRANCH   6  11
BRANCH   9  18
ATOM     18  C   UNL A   1      34.424  29.300  26.904  1.00  0.00     0.416 C 
ATOM     19  F   UNL A   1      33.918  30.564  26.855  1.00  0.00    -0.166 F 
ATOM     20  F   UNL A   1      34.301  28.902  28.201  1.00  0.00    -0.166 F 
ATOM     21  F   UNL A   1      35.763  29.427  26.682  1.00  0.00    -0.166 F 
ENDBRANCH   9  18
ENDBRANCH   3   5
ENDBRANCH   2   3
ENDBRANCH   1   2
BRANCH   1  22
ATOM     22  C   UNL A   1      37.153  23.239  25.002  1.00  0.00     0.275 C 
BRANCH  22  23
ATOM     23  O   UNL A   1      37.849  22.430  25.967  1.00  0.00    -0.458 OA
BRANCH  23  24
ATOM     24  C   UNL A   1      39.151  22.724  26.174  1.00  0.00     0.338 C 
ATOM     25  O   UNL A   1      40.117  22.045  25.868  1.00  0.00    -0.246 OA
BRANCH  24  26
ATOM     26  C   UNL A   1      39.267  24.073  26.766  1.00  0.00     0.060 A 
ATOM     27  C   UNL A   1      40.016  25.038  26.100  1.00  0.00     0.016 A 
ATOM     28  C   UNL A   1      38.852  24.310  28.078  1.00  0.00     0.016 A 
ATOM     29  C   UNL A   1      40.492  26.143  26.803  1.00  0.00     0.010 A 
ATOM     30  C   UNL A   1      39.207  25.508  28.723  1.00  0.00     0.010 A 
ATOM     31  C   UNL A   1      40.086  26.426  28.120  1.00  0.00    -0.014 A 
BRANCH  31  32
ATOM     32  C   UNL A   1      40.613  27.628  28.857  1.00  0.00     0.031 A 
ATOM     33  C   UNL A   1      39.740  28.842  29.128  1.00  0.00     0.074 A 
ATOM     34  C   UNL A   1      41.878  27.654  29.340  1.00  0.00     0.049 A 
ATOM     35  N   UNL A   1      40.091  30.049  29.505  1.00  0.00    -0.248 NA
ATOM     36  C   UNL A   1      38.285  28.686  28.957  1.00  0.00     0.031 C 
ATOM     37  C   UNL A   1      42.849  26.558  29.267  1.00  0.00     0.029 A 
ATOM     38  N   UNL A   1      42.568  28.646  30.003  1.00  0.00    -0.354 N 
ATOM     39  C   UNL A   1      38.919  30.803  29.553  1.00  0.00     0.074 A 
ATOM     40  C   UNL A   1      37.840  29.914  29.183  1.00  0.00     0.031 C 
ATOM     41  C   UNL A   1      43.960  26.901  29.927  1.00  0.00     0.029 A 
ATOM     42  C   UNL A   1      43.868  28.306  30.295  1.00  0.00     0.049 A 
ATOM     43  H   UNL A   1      42.168  29.513  30.245  1.00  0.00     0.167 HD
ATOM     44  C   UNL A   1      38.758  32.115  29.859  1.00  0.00     0.031 A 
ATOM     45  C   UNL A   1      44.925  29.040  30.697  1.00  0.00     0.031 A 
ATOM     46  C   UNL A   1      39.828  32.993  30.267  1.00  0.00     0.049 A 
ATOM     47  C   UNL A   1      44.768  30.517  30.878  1.00  0.00     0.074 A 
ATOM     48  C   UNL A   1      39.760  34.339  30.592  1.00  0.00     0.029 A 
ATOM     49  N   UNL A   1      41.153  32.618  30.414  1.00  0.00    -0.354 N 
ATOM     50  N   UNL A   1      43.679  31.242  30.800  1.00  0.00    -0.248 NA
ATOM     51  C   UNL A   1      45.990  31.282  31.155  1.00  0.00     0.031 C 
ATOM     52  C   UNL A   1      41.054  34.791  30.870  1.00  0.00     0.029 A 
ATOM     53  C   UNL A   1      41.918  33.713  30.783  1.00  0.00     0.049 A 
ATOM     54  H   UNL A   1      41.500  31.707  30.276  1.00  0.00     0.167 HD
ATOM     55  C   UNL A   1      44.087  32.552  31.013  1.00  0.00     0.074 A 
ATOM     56  C   UNL A   1      45.515  32.516  31.252  1.00  0.00     0.031 C 
ATOM     57  C   UNL A   1      43.340  33.682  31.000  1.00  0.00     0.031 A 
BRANCH  44  58
ATOM     58  C   UNL A   1      37.386  32.727  29.700  1.00  0.00    -0.014 A 
ATOM     59  C   UNL A   1      36.564  33.016  30.801  1.00  0.00     0.010 A 
ATOM     60  C   UNL A   1      36.958  33.108  28.412  1.00  0.00     0.010 A 
ATOM     61  C   UNL A   1      35.329  33.653  30.615  1.00  0.00     0.020 A 
ATOM     62  C   UNL A   1      35.740  33.766  28.225  1.00  0.00     0.020 A 
ATOM     63  C   UNL A   1      34.926  34.024  29.328  1.00  0.00     0.054 A 
BRANCH  63  64
ATOM     64  S   UNL A   1      33.339  34.882  29.119  1.00  0.00     0.124 S 
ATOM     65  O   UNL A   1      33.767  36.192  28.633  1.00  0.00    -0.237 OA
ATOM     66  O   UNL A   1      32.649  34.045  28.141  1.00  0.00    -0.237 OA
ATOM     67  O   UNL A   1      32.759  34.876  30.459  1.00  0.00    -0.744 OA
ENDBRANCH  63  64
ENDBRANCH  44  58
BRANCH  45  68
ATOM     68  C   UNL A   1      46.265  28.394  30.785  1.00  0.00    -0.014 A 
ATOM     69  C   UNL A   1      46.725  27.832  31.987  1.00  0.00     0.010 A 
ATOM     70  C   UNL A   1      47.069  28.294  29.631  1.00  0.00     0.010 A 
ATOM     71  C   UNL A   1      47.954  27.166  32.026  1.00  0.00     0.020 A 
ATOM     72  C   UNL A   1      48.274  27.594  29.657  1.00  0.00     0.020 A 
ATOM     73  C   UNL A   1      48.713  27.039  30.857  1.00  0.00     0.054 A 
BRANCH  73  74
ATOM     74  S   UNL A   1      50.254  26.085  30.905  1.00  0.00     0.124 S 
ATOM     75  O   UNL A   1      50.206  25.499  32.240  1.00  0.00    -0.237 OA
ATOM     76  O   UNL A   1      50.084  25.151  29.795  1.00  0.00    -0.237 OA
ATOM     77  O   UNL A   1      51.289  27.097  30.701  1.00  0.00    -0.744 OA
ENDBRANCH  73  74
ENDBRANCH  45  68
BRANCH  57  78
ATOM     78  C   UNL A   1      44.053  34.978  31.267  1.00  0.00    -0.014 A 
ATOM     79  C   UNL A   1      44.593  35.737  30.213  1.00  0.00     0.010 A 
ATOM     80  C   UNL A   1      44.166  35.456  32.585  1.00  0.00     0.010 A 
ATOM     81  C   UNL A   1      45.259  36.937  30.476  1.00  0.00     0.020 A 
ATOM     82  C   UNL A   1      44.807  36.668  32.850  1.00  0.00     0.020 A 
ATOM     83  C   UNL A   1      45.361  37.395  31.793  1.00  0.00     0.054 A 
BRANCH  83  84
ATOM     84  S   UNL A   1      46.199  38.974  32.104  1.00  0.00     0.124 S 
ATOM     85  O   UNL A   1      47.084  38.635  33.215  1.00  0.00    -0.237 OA
ATOM     86  O   UNL A   1      46.862  39.239  30.829  1.00  0.00    -0.237 OA
ATOM     87  O   UNL A   1      45.106  39.887  32.433  1.00  0.00    -0.744 OA
ENDBRANCH  83  84
ENDBRANCH  57  78
ENDBRANCH  31  32
ENDBRANCH  24  26
ENDBRANCH  23  24
ENDBRANCH  22  23
ENDBRANCH   1  22
TORSDOF 20
ENDMDL
MODEL 3
REMARK VINA RESULT:      -8.0      2.022      8.496
REMARK SMILES CCCN(CCC)c1cc(C(=O)OCCOC(=O)c2ccc(-c3c4nc(c(-c5ccc(S(=O)(=O)[O-])cc5)c5ccc([nH]5)c(-c5ccc(S(=O)(=O)[O-])cc5)c5nc(c(-c6ccc(S(=O)(=O)[O-])cc6)c6ccc3[nH]6)C=C5)C=C4)cc2)cc(C(F)(F)F)c1
REMARK SMILES IDX 14 1 13 2 11 3 12 4 10 5 8 6 9 7 85 8 80 9 79 10 4 11 3 12
REMARK SMILES IDX 2 13 1 14 5 15 6 16 7 17 81 18 82 19 83 20 84 21 15 22 16 23
REMARK SMILES IDX 17 24 18 25 19 26 20 27 78 28 21 29 77 30 22 31 23 32 24 33
REMARK SMILES IDX 71 34 25 35 76 36 70 37 72 38 26 39 75 40 69 41 68 42 27 44
REMARK SMILES IDX 57 45 38 46 56 47 39 48 42 49 55 50 73 51 40 52 41 53 54 55
REMARK SMILES IDX 74 56 43 57 28 58 29 59 37 60 30 61 36 62 31 63 32 64 33 65
REMARK SMILES IDX 34 66 35 67 58 68 59 69 67 70 60 71 66 72 61 73 62 74 63 75
REMARK SMILES IDX 64 76 65 77 44 78 45 79 53 80 46 81 52 82 47 83 48 84 49 85
REMARK SMILES IDX 50 86 51 87
REMARK H PARENT 72 43 42 54
REMARK Flexibility Score: inf
ROOT
ATOM      1  C   UNL A   1      39.664  20.493  25.736  1.00  0.00     0.275 C 
ENDROOT
BRANCH   1   2
ATOM      2  O   UNL A   1      40.720  21.401  26.111  1.00  0.00    -0.458 OA
BRANCH   2   3
ATOM      3  C   UNL A   1      41.092  21.433  27.421  1.00  0.00     0.338 C 
ATOM      4  O   UNL A   1      40.474  21.005  28.366  1.00  0.00    -0.246 OA
BRANCH   3   5
ATOM      5  C   UNL A   1      42.435  22.065  27.509  1.00  0.00     0.062 A 
ATOM      6  C   UNL A   1      44.576  22.613  26.458  1.00  0.00     0.038 A 
ATOM      7  C   UNL A   1      43.359  21.915  26.460  1.00  0.00     0.041 A 
ATOM      8  C   UNL A   1      44.888  23.337  27.613  1.00  0.00     0.039 A 
ATOM      9  C   UNL A   1      44.007  23.460  28.698  1.00  0.00     0.058 A 
ATOM     10  C   UNL A   1      42.763  22.833  28.628  1.00  0.00     0.029 A 
BRANCH   6  11
ATOM     11  N   UNL A   1      45.400  22.650  25.340  1.00  0.00    -0.372 N 
BRANCH  11  12
ATOM     12  C   UNL A   1      46.254  21.496  24.998  1.00  0.00     0.116 C 
BRANCH  12  13
ATOM     13  C   UNL A   1      45.524  20.277  24.395  1.00  0.00     0.018 C 
ATOM     14  C   UNL A   1      45.703  18.965  25.138  1.00  0.00     0.006 C 
ENDBRANCH  12  13
ENDBRANCH  11  12
BRANCH  11  15
ATOM     15  C   UNL A   1      45.805  23.958  24.797  1.00  0.00     0.116 C 
BRANCH  15  16
ATOM     16  C   UNL A   1      46.992  24.615  25.485  1.00  0.00     0.018 C 
ATOM     17  C   UNL A   1      47.520  25.811  24.714  1.00  0.00     0.006 C 
ENDBRANCH  15  16
ENDBRANCH  11  15
ENDBRANCH   6  11
BRANCH   9  18
ATOM     18  C   UNL A   1      44.375  24.283  29.901  1.00  0.00     0.416 C 
ATOM     19  F   UNL A   1      43.461  25.257  30.166  1.00  0.00    -0.166 F 
ATOM     20  F   UNL A   1      44.459  23.534  31.036  1.00  0.00    -0.166 F 
ATOM     21  F   UNL A   1      45.574  24.920  29.788  1.00  0.00    -0.166 F 
ENDBRANCH   9  18
ENDBRANCH   3   5
ENDBRANCH   2   3
ENDBRANCH   1   2
BRANCH   1  22
ATOM     22  C   UNL A   1      38.333  21.238  25.647  1.00  0.00     0.275 C 
BRANCH  22  23
ATOM     23  O   UNL A   1      38.602  22.608  25.304  1.00  0.00    -0.458 OA
BRANCH  23  24
ATOM     24  C   UNL A   1      38.057  23.549  26.105  1.00  0.00     0.338 C 
ATOM     25  O   UNL A   1      36.880  23.675  26.400  1.00  0.00    -0.246 OA
BRANCH  24  26
ATOM     26  C   UNL A   1      39.128  24.392  26.679  1.00  0.00     0.060 A 
ATOM     27  C   UNL A   1      39.099  24.683  28.039  1.00  0.00     0.016 A 
ATOM     28  C   UNL A   1      40.005  25.089  25.844  1.00  0.00     0.016 A 
ATOM     29  C   UNL A   1      39.811  25.780  28.521  1.00  0.00     0.010 A 
ATOM     30  C   UNL A   1      40.837  26.089  26.377  1.00  0.00     0.010 A 
ATOM     31  C   UNL A   1      40.715  26.499  27.718  1.00  0.00    -0.014 A 
BRANCH  31  32
ATOM     32  C   UNL A   1      41.475  27.679  28.263  1.00  0.00     0.031 A 
ATOM     33  C   UNL A   1      42.988  27.774  28.151  1.00  0.00     0.074 A 
ATOM     34  C   UNL A   1      40.829  28.719  28.842  1.00  0.00     0.049 A 
ATOM     35  N   UNL A   1      43.818  28.570  28.782  1.00  0.00    -0.248 NA
ATOM     36  C   UNL A   1      43.658  26.864  27.207  1.00  0.00     0.031 C 
ATOM     37  C   UNL A   1      39.377  28.867  28.969  1.00  0.00     0.029 A 
ATOM     38  N   UNL A   1      41.317  29.866  29.429  1.00  0.00    -0.354 N 
ATOM     39  C   UNL A   1      45.100  28.214  28.364  1.00  0.00     0.074 A 
ATOM     40  C   UNL A   1      44.939  27.140  27.409  1.00  0.00     0.031 C 
ATOM     41  C   UNL A   1      39.093  30.057  29.508  1.00  0.00     0.029 A 
ATOM     42  C   UNL A   1      40.334  30.674  29.953  1.00  0.00     0.049 A 
ATOM     43  H   UNL A   1      42.276  30.087  29.470  1.00  0.00     0.167 HD
ATOM     44  C   UNL A   1      46.297  28.721  28.751  1.00  0.00     0.031 A 
ATOM     45  C   UNL A   1      40.382  31.723  30.797  1.00  0.00     0.031 A 
ATOM     46  C   UNL A   1      46.457  29.819  29.673  1.00  0.00     0.049 A 
ATOM     47  C   UNL A   1      41.702  32.171  31.339  1.00  0.00     0.074 A 
ATOM     48  C   UNL A   1      47.632  30.396  30.128  1.00  0.00     0.029 A 
ATOM     49  N   UNL A   1      45.419  30.509  30.276  1.00  0.00    -0.354 N 
ATOM     50  N   UNL A   1      42.903  31.745  31.031  1.00  0.00    -0.248 NA
ATOM     51  C   UNL A   1      41.673  33.208  32.379  1.00  0.00     0.031 C 
ATOM     52  C   UNL A   1      47.304  31.391  31.055  1.00  0.00     0.029 A 
ATOM     53  C   UNL A   1      45.924  31.478  31.129  1.00  0.00     0.049 A 
ATOM     54  H   UNL A   1      44.461  30.337  30.121  1.00  0.00     0.167 HD
ATOM     55  C   UNL A   1      43.773  32.459  31.844  1.00  0.00     0.074 A 
ATOM     56  C   UNL A   1      42.964  33.365  32.635  1.00  0.00     0.031 C 
ATOM     57  C   UNL A   1      45.121  32.362  31.931  1.00  0.00     0.031 A 
BRANCH  44  58
ATOM     58  C   UNL A   1      47.556  28.057  28.244  1.00  0.00    -0.014 A 
ATOM     59  C   UNL A   1      48.300  28.582  27.176  1.00  0.00     0.010 A 
ATOM     60  C   UNL A   1      48.050  26.928  28.928  1.00  0.00     0.010 A 
ATOM     61  C   UNL A   1      49.503  27.977  26.786  1.00  0.00     0.020 A 
ATOM     62  C   UNL A   1      49.261  26.337  28.559  1.00  0.00     0.020 A 
ATOM     63  C   UNL A   1      49.976  26.859  27.480  1.00  0.00     0.054 A 
BRANCH  63  64
ATOM     64  S   UNL A   1      51.555  26.117  26.979  1.00  0.00     0.124 S 
ATOM     65  O   UNL A   1      52.426  26.482  28.093  1.00  0.00    -0.237 OA
ATOM     66  O   UNL A   1      51.225  24.698  26.879  1.00  0.00    -0.237 OA
ATOM     67  O   UNL A   1      51.861  26.773  25.710  1.00  0.00    -0.744 OA
ENDBRANCH  63  64
ENDBRANCH  44  58
BRANCH  45  68
ATOM     68  C   UNL A   1      39.107  32.304  31.305  1.00  0.00    -0.014 A 
ATOM     69  C   UNL A   1      38.472  33.363  30.637  1.00  0.00     0.010 A 
ATOM     70  C   UNL A   1      38.494  31.749  32.447  1.00  0.00     0.010 A 
ATOM     71  C   UNL A   1      37.238  33.841  31.092  1.00  0.00     0.020 A 
ATOM     72  C   UNL A   1      37.245  32.195  32.877  1.00  0.00     0.020 A 
ATOM     73  C   UNL A   1      36.627  33.244  32.199  1.00  0.00     0.054 A 
BRANCH  73  74
ATOM     74  S   UNL A   1      34.982  33.810  32.711  1.00  0.00     0.124 S 
ATOM     75  O   UNL A   1      34.818  33.142  33.998  1.00  0.00    -0.237 OA
ATOM     76  O   UNL A   1      35.147  35.260  32.765  1.00  0.00    -0.237 OA
ATOM     77  O   UNL A   1      34.108  33.332  31.641  1.00  0.00    -0.744 OA
ENDBRANCH  73  74
ENDBRANCH  45  68
BRANCH  57  78
ATOM     78  C   UNL A   1      45.813  33.272  32.908  1.00  0.00    -0.014 A 
ATOM     79  C   UNL A   1      46.075  32.852  34.225  1.00  0.00     0.010 A 
ATOM     80  C   UNL A   1      46.228  34.551  32.499  1.00  0.00     0.010 A 
ATOM     81  C   UNL A   1      46.713  33.710  35.124  1.00  0.00     0.020 A 
ATOM     82  C   UNL A   1      46.891  35.402  33.387  1.00  0.00     0.020 A 
ATOM     83  C   UNL A   1      47.118  34.979  34.699  1.00  0.00     0.054 A 
BRANCH  83  84
ATOM     84  S   UNL A   1      47.976  36.059  35.877  1.00  0.00     0.124 S 
ATOM     85  O   UNL A   1      48.474  35.102  36.860  1.00  0.00    -0.237 OA
ATOM     86  O   UNL A   1      48.995  36.693  35.044  1.00  0.00    -0.237 OA
ATOM     87  O   UNL A   1      46.925  36.955  36.356  1.00  0.00    -0.744 OA
ENDBRANCH  83  84
ENDBRANCH  57  78
ENDBRANCH  31  32
ENDBRANCH  24  26
ENDBRANCH  23  24
ENDBRANCH  22  23
ENDBRANCH   1  22
TORSDOF 20
ENDMDL
