MODEL 1
REMARK VINA RESULT:      -9.9      0.000      0.000
REMARK SMILES COc1cc(CC(=O)OCCOC(=O)c2ccc(-c3c4nc(c(-c5ccc(S(=O)(=O)[O-])cc5)c5ccc([nH]5)c(-c5ccc(S(=O)(=O)[O-])cc5)c5nc(c(-c6ccc(S(=O)(=O)[O-])cc6)c6ccc3[nH]6)C=C5)C=C4)cc2)cc(Br)c1O
REMARK SMILES IDX 11 1 10 2 9 3 7 4 8 5 6 6 5 7 3 8 4 9 78 10 76 11 75 12
REMARK SMILES IDX 77 13 2 14 1 15 79 16 12 18 13 19 14 20 15 21 16 22 74 23
REMARK SMILES IDX 17 24 73 25 18 26 19 27 20 28 67 29 21 30 72 31 66 32 68 33
REMARK SMILES IDX 22 34 71 35 65 36 64 37 23 39 53 40 34 41 52 42 35 43 38 44
REMARK SMILES IDX 51 45 69 46 36 47 37 48 50 50 70 51 39 52 24 53 25 54 33 55
REMARK SMILES IDX 26 56 32 57 27 58 28 59 29 60 30 61 31 62 54 63 55 64 63 65
REMARK SMILES IDX 56 66 62 67 57 68 58 69 59 70 60 71 61 72 40 73 41 74 49 75
REMARK SMILES IDX 42 76 48 77 43 78 44 79 45 80 46 81 47 82
REMARK H PARENT 79 17 68 38 38 49
REMARK Flexibility Score: inf
ROOT
ATOM      1  C   UNL A   1      35.713  31.281  27.819  1.00  0.00     0.275 C 
ENDROOT
BRANCH   1   2
ATOM      2  C   UNL A   1      34.193  31.231  27.702  1.00  0.00     0.274 C 
BRANCH   2   3
ATOM      3  O   UNL A   1      33.786  30.261  26.717  1.00  0.00    -0.462 OA
BRANCH   3   4
ATOM      4  C   UNL A   1      32.453  30.226  26.451  1.00  0.00     0.310 C 
ATOM      5  O   UNL A   1      31.744  31.217  26.311  1.00  0.00    -0.252 OA
BRANCH   4   6
ATOM      6  C   UNL A   1      31.878  28.832  26.423  1.00  0.00     0.158 C 
BRANCH   6   7
ATOM      7  C   UNL A   1      31.683  28.171  25.077  1.00  0.00    -0.032 A 
ATOM      8  C   UNL A   1      30.591  28.130  22.913  1.00  0.00     0.161 A 
ATOM      9  C   UNL A   1      30.712  28.666  24.195  1.00  0.00     0.054 A 
ATOM     10  C   UNL A   1      31.459  27.130  22.473  1.00  0.00     0.172 A 
ATOM     11  C   UNL A   1      32.410  26.613  23.346  1.00  0.00     0.063 A 
ATOM     12  C   UNL A   1      32.522  27.131  24.642  1.00  0.00     0.024 A 
ATOM     13  Br  UNL A   1      33.608  25.245  22.811  1.00  0.00    -0.047 Br
BRANCH   8  14
ATOM     14  O   UNL A   1      29.651  28.654  22.063  1.00  0.00    -0.493 OA
ATOM     15  C   UNL A   1      29.916  30.044  21.850  1.00  0.00     0.278 C 
ENDBRANCH   8  14
BRANCH  10  16
ATOM     16  O   UNL A   1      31.377  26.694  21.178  1.00  0.00    -0.503 OA
ATOM     17  H   UNL A   1      31.223  27.306  20.486  1.00  0.00     0.293 HD
ENDBRANCH  10  16
ENDBRANCH   6   7
ENDBRANCH   4   6
ENDBRANCH   3   4
ENDBRANCH   2   3
ENDBRANCH   1   2
BRANCH   1  18
ATOM     18  O   UNL A   1      36.255  29.953  27.725  1.00  0.00    -0.458 OA
BRANCH  18  19
ATOM     19  C   UNL A   1      36.823  29.475  28.855  1.00  0.00     0.338 C 
ATOM     20  O   UNL A   1      36.307  29.360  29.952  1.00  0.00    -0.246 OA
BRANCH  19  21
ATOM     21  C   UNL A   1      38.222  29.104  28.586  1.00  0.00     0.060 A 
ATOM     22  C   UNL A   1      39.036  28.616  29.610  1.00  0.00     0.016 A 
ATOM     23  C   UNL A   1      38.749  29.356  27.319  1.00  0.00     0.016 A 
ATOM     24  C   UNL A   1      40.400  28.429  29.382  1.00  0.00     0.010 A 
ATOM     25  C   UNL A   1      40.103  29.113  27.077  1.00  0.00     0.010 A 
ATOM     26  C   UNL A   1      40.945  28.677  28.113  1.00  0.00    -0.014 A 
BRANCH  26  27
ATOM     27  C   UNL A   1      42.401  28.516  27.869  1.00  0.00     0.031 A 
ATOM     28  C   UNL A   1      43.342  29.661  28.132  1.00  0.00     0.074 A 
ATOM     29  C   UNL A   1      42.879  27.350  27.393  1.00  0.00     0.049 A 
ATOM     30  N   UNL A   1      44.622  29.753  27.876  1.00  0.00    -0.248 NA
ATOM     31  C   UNL A   1      42.767  30.862  28.759  1.00  0.00     0.031 C 
ATOM     32  C   UNL A   1      42.079  26.156  27.118  1.00  0.00     0.029 A 
ATOM     33  N   UNL A   1      44.156  26.982  27.051  1.00  0.00    -0.354 N 
ATOM     34  C   UNL A   1      44.999  31.029  28.278  1.00  0.00     0.074 A 
ATOM     35  C   UNL A   1      43.810  31.680  28.786  1.00  0.00     0.031 C 
ATOM     36  C   UNL A   1      42.885  25.184  26.659  1.00  0.00     0.029 A 
ATOM     37  C   UNL A   1      44.246  25.701  26.561  1.00  0.00     0.049 A 
ATOM     38  H   UNL A   1      44.933  27.579  27.148  1.00  0.00     0.167 HD
ATOM     39  C   UNL A   1      46.223  31.607  28.229  1.00  0.00     0.031 A 
ATOM     40  C   UNL A   1      45.299  25.026  26.064  1.00  0.00     0.031 A 
ATOM     41  C   UNL A   1      47.409  30.957  27.738  1.00  0.00     0.049 A 
ATOM     42  C   UNL A   1      46.641  25.697  25.994  1.00  0.00     0.074 A 
ATOM     43  C   UNL A   1      48.699  31.458  27.665  1.00  0.00     0.029 A 
ATOM     44  N   UNL A   1      47.454  29.663  27.243  1.00  0.00    -0.354 N 
ATOM     45  N   UNL A   1      46.976  26.909  26.369  1.00  0.00    -0.248 NA
ATOM     46  C   UNL A   1      47.747  24.910  25.431  1.00  0.00     0.031 C 
ATOM     47  C   UNL A   1      49.517  30.476  27.093  1.00  0.00     0.029 A 
ATOM     48  C   UNL A   1      48.745  29.352  26.849  1.00  0.00     0.049 A 
ATOM     49  H   UNL A   1      46.682  29.056  27.180  1.00  0.00     0.167 HD
ATOM     50  C   UNL A   1      48.335  27.025  26.099  1.00  0.00     0.074 A 
ATOM     51  C   UNL A   1      48.763  25.757  25.544  1.00  0.00     0.031 C 
ATOM     52  C   UNL A   1      49.153  28.088  26.293  1.00  0.00     0.031 A 
BRANCH  39  53
ATOM     53  C   UNL A   1      46.333  33.035  28.694  1.00  0.00    -0.014 A 
ATOM     54  C   UNL A   1      46.495  33.347  30.056  1.00  0.00     0.010 A 
ATOM     55  C   UNL A   1      46.305  34.076  27.749  1.00  0.00     0.010 A 
ATOM     56  C   UNL A   1      46.590  34.680  30.468  1.00  0.00     0.020 A 
ATOM     57  C   UNL A   1      46.420  35.408  28.156  1.00  0.00     0.020 A 
ATOM     58  C   UNL A   1      46.544  35.702  29.515  1.00  0.00     0.054 A 
BRANCH  58  59
ATOM     59  S   UNL A   1      46.685  37.424  30.069  1.00  0.00     0.124 S 
ATOM     60  O   UNL A   1      47.336  38.057  28.924  1.00  0.00    -0.237 OA
ATOM     61  O   UNL A   1      45.294  37.809  30.292  1.00  0.00    -0.237 OA
ATOM     62  O   UNL A   1      47.502  37.333  31.277  1.00  0.00    -0.744 OA
ENDBRANCH  58  59
ENDBRANCH  39  53
BRANCH  40  63
ATOM     63  C   UNL A   1      45.116  23.636  25.569  1.00  0.00    -0.014 A 
ATOM     64  C   UNL A   1      44.894  23.389  24.204  1.00  0.00     0.010 A 
ATOM     65  C   UNL A   1      45.189  22.551  26.461  1.00  0.00     0.010 A 
ATOM     66  C   UNL A   1      44.740  22.081  23.739  1.00  0.00     0.020 A 
ATOM     67  C   UNL A   1      45.059  21.240  25.996  1.00  0.00     0.020 A 
ATOM     68  C   UNL A   1      44.824  21.013  24.639  1.00  0.00     0.054 A 
BRANCH  68  69
ATOM     69  S   UNL A   1      44.692  19.317  24.009  1.00  0.00     0.124 S 
ATOM     70  O   UNL A   1      44.563  19.537  22.572  1.00  0.00    -0.237 OA
ATOM     71  O   UNL A   1      45.948  18.713  24.447  1.00  0.00    -0.237 OA
ATOM     72  O   UNL A   1      43.499  18.800  24.675  1.00  0.00    -0.744 OA
ENDBRANCH  68  69
ENDBRANCH  40  63
BRANCH  52  73
ATOM     73  C   UNL A   1      50.601  27.914  25.924  1.00  0.00    -0.014 A 
ATOM     74  C   UNL A   1      51.584  27.729  26.911  1.00  0.00     0.010 A 
ATOM     75  C   UNL A   1      50.975  27.899  24.569  1.00  0.00     0.010 A 
ATOM     76  C   UNL A   1      52.923  27.564  26.551  1.00  0.00     0.020 A 
ATOM     77  C   UNL A   1      52.311  27.714  24.203  1.00  0.00     0.020 A 
ATOM     78  C   UNL A   1      53.279  27.564  25.199  1.00  0.00     0.054 A 
BRANCH  78  79
ATOM     79  S   UNL A   1      55.019  27.315  24.747  1.00  0.00     0.124 S 
ATOM     80  O   UNL A   1      55.070  25.873  24.523  1.00  0.00    -0.237 OA
ATOM     81  O   UNL A   1      55.166  28.141  23.551  1.00  0.00    -0.237 OA
ATOM     82  O   UNL A   1      55.750  27.792  25.919  1.00  0.00    -0.744 OA
ENDBRANCH  78  79
ENDBRANCH  52  73
ENDBRANCH  26  27
ENDBRANCH  19  21
ENDBRANCH  18  19
ENDBRANCH   1  18
TORSDOF 17
ENDMDL
MODEL 2
REMARK VINA RESULT:      -9.8      3.524      4.950
REMARK SMILES COc1cc(CC(=O)OCCOC(=O)c2ccc(-c3c4nc(c(-c5ccc(S(=O)(=O)[O-])cc5)c5ccc([nH]5)c(-c5ccc(S(=O)(=O)[O-])cc5)c5nc(c(-c6ccc(S(=O)(=O)[O-])cc6)c6ccc3[nH]6)C=C5)C=C4)cc2)cc(Br)c1O
REMARK SMILES IDX 11 1 10 2 9 3 7 4 8 5 6 6 5 7 3 8 4 9 78 10 76 11 75 12
REMARK SMILES IDX 77 13 2 14 1 15 79 16 12 18 13 19 14 20 15 21 16 22 74 23
REMARK SMILES IDX 17 24 73 25 18 26 19 27 20 28 67 29 21 30 72 31 66 32 68 33
REMARK SMILES IDX 22 34 71 35 65 36 64 37 23 39 53 40 34 41 52 42 35 43 38 44
REMARK SMILES IDX 51 45 69 46 36 47 37 48 50 50 70 51 39 52 24 53 25 54 33 55
REMARK SMILES IDX 26 56 32 57 27 58 28 59 29 60 30 61 31 62 54 63 55 64 63 65
REMARK SMILES IDX 56 66 62 67 57 68 58 69 59 70 60 71 61 72 40 73 41 74 49 75
REMARK SMILES IDX 42 76 48 77 43 78 44 79 45 80 46 81 47 82
REMARK H PARENT 79 17 68 38 38 49
REMARK Flexibility Score: inf
ROOT
ATOM      1  C   UNL A   1      35.625  31.266  31.510  1.00  0.00     0.275 C 
ENDROOT
BRANCH   1   2
ATOM      2  C   UNL A   1      36.504  31.287  32.757  1.00  0.00     0.274 C 
BRANCH   2   3
ATOM      3  O   UNL A   1      37.018  32.611  33.001  1.00  0.00    -0.462 OA
BRANCH   3   4
ATOM      4  C   UNL A   1      36.209  33.424  33.731  1.00  0.00     0.310 C 
ATOM      5  O   UNL A   1      35.602  33.079  34.739  1.00  0.00    -0.252 OA
BRANCH   4   6
ATOM      6  C   UNL A   1      36.044  34.802  33.140  1.00  0.00     0.158 C 
BRANCH   6   7
ATOM      7  C   UNL A   1      34.974  35.000  32.089  1.00  0.00    -0.032 A 
ATOM      8  C   UNL A   1      32.882  36.016  31.411  1.00  0.00     0.161 A 
ATOM      9  C   UNL A   1      33.826  35.742  32.399  1.00  0.00     0.054 A 
ATOM     10  C   UNL A   1      33.082  35.599  30.095  1.00  0.00     0.172 A 
ATOM     11  C   UNL A   1      34.205  34.841  29.779  1.00  0.00     0.063 A 
ATOM     12  C   UNL A   1      35.147  34.542  30.772  1.00  0.00     0.024 A 
ATOM     13  Br  UNL A   1      34.527  34.233  28.012  1.00  0.00    -0.047 Br
BRANCH   8  14
ATOM     14  O   UNL A   1      31.783  36.770  31.737  1.00  0.00    -0.493 OA
ATOM     15  C   UNL A   1      31.135  36.205  32.881  1.00  0.00     0.278 C 
ENDBRANCH   8  14
BRANCH  10  16
ATOM     16  O   UNL A   1      32.184  35.967  29.130  1.00  0.00    -0.503 OA
ATOM     17  H   UNL A   1      32.168  36.851  28.817  1.00  0.00     0.293 HD
ENDBRANCH  10  16
ENDBRANCH   6   7
ENDBRANCH   4   6
ENDBRANCH   3   4
ENDBRANCH   2   3
ENDBRANCH   1   2
BRANCH   1  18
ATOM     18  O   UNL A   1      36.428  31.510  30.343  1.00  0.00    -0.458 OA
BRANCH  18  19
ATOM     19  C   UNL A   1      36.330  30.581  29.365  1.00  0.00     0.338 C 
ATOM     20  O   UNL A   1      35.330  30.255  28.752  1.00  0.00    -0.246 OA
BRANCH  19  21
ATOM     21  C   UNL A   1      37.648  29.971  29.129  1.00  0.00     0.060 A 
ATOM     22  C   UNL A   1      38.476  29.634  30.203  1.00  0.00     0.016 A 
ATOM     23  C   UNL A   1      38.100  29.839  27.817  1.00  0.00     0.016 A 
ATOM     24  C   UNL A   1      39.785  29.214  29.964  1.00  0.00     0.010 A 
ATOM     25  C   UNL A   1      39.391  29.363  27.578  1.00  0.00     0.010 A 
ATOM     26  C   UNL A   1      40.254  29.076  28.649  1.00  0.00    -0.014 A 
BRANCH  26  27
ATOM     27  C   UNL A   1      41.656  28.664  28.383  1.00  0.00     0.031 A 
ATOM     28  C   UNL A   1      42.761  29.687  28.410  1.00  0.00     0.074 A 
ATOM     29  C   UNL A   1      41.938  27.379  28.099  1.00  0.00     0.049 A 
ATOM     30  N   UNL A   1      44.023  29.546  28.096  1.00  0.00    -0.248 NA
ATOM     31  C   UNL A   1      42.397  31.047  28.841  1.00  0.00     0.031 C 
ATOM     32  C   UNL A   1      40.965  26.286  28.064  1.00  0.00     0.029 A 
ATOM     33  N   UNL A   1      43.128  26.775  27.780  1.00  0.00    -0.354 N 
ATOM     34  C   UNL A   1      44.597  30.801  28.257  1.00  0.00     0.074 A 
ATOM     35  C   UNL A   1      43.543  31.695  28.688  1.00  0.00     0.031 C 
ATOM     36  C   UNL A   1      41.599  25.144  27.752  1.00  0.00     0.029 A 
ATOM     37  C   UNL A   1      43.010  25.432  27.516  1.00  0.00     0.049 A 
ATOM     38  H   UNL A   1      43.985  27.259  27.744  1.00  0.00     0.167 HD
ATOM     39  C   UNL A   1      45.885  31.177  28.065  1.00  0.00     0.031 A 
ATOM     40  C   UNL A   1      43.927  24.536  27.105  1.00  0.00     0.031 A 
ATOM     41  C   UNL A   1      46.937  30.287  27.651  1.00  0.00     0.049 A 
ATOM     42  C   UNL A   1      45.343  24.982  26.871  1.00  0.00     0.074 A 
ATOM     43  C   UNL A   1      48.276  30.574  27.445  1.00  0.00     0.029 A 
ATOM     44  N   UNL A   1      46.772  28.937  27.385  1.00  0.00    -0.354 N 
ATOM     45  N   UNL A   1      45.864  26.177  27.019  1.00  0.00    -0.248 NA
ATOM     46  C   UNL A   1      46.293  23.959  26.413  1.00  0.00     0.031 C 
ATOM     47  C   UNL A   1      48.915  29.402  27.022  1.00  0.00     0.029 A 
ATOM     48  C   UNL A   1      47.981  28.378  27.004  1.00  0.00     0.049 A 
ATOM     49  H   UNL A   1      45.921  28.448  27.457  1.00  0.00     0.167 HD
ATOM     50  C   UNL A   1      47.207  26.045  26.684  1.00  0.00     0.074 A 
ATOM     51  C   UNL A   1      47.421  24.654  26.341  1.00  0.00     0.031 C 
ATOM     52  C   UNL A   1      48.175  26.993  26.662  1.00  0.00     0.031 A 
BRANCH  39  53
ATOM     53  C   UNL A   1      46.219  32.630  28.271  1.00  0.00    -0.014 A 
ATOM     54  C   UNL A   1      46.305  33.519  27.185  1.00  0.00     0.010 A 
ATOM     55  C   UNL A   1      46.420  33.118  29.575  1.00  0.00     0.010 A 
ATOM     56  C   UNL A   1      46.623  34.864  27.397  1.00  0.00     0.020 A 
ATOM     57  C   UNL A   1      46.718  34.465  29.792  1.00  0.00     0.020 A 
ATOM     58  C   UNL A   1      46.835  35.327  28.699  1.00  0.00     0.054 A 
BRANCH  58  59
ATOM     59  S   UNL A   1      47.230  37.079  28.954  1.00  0.00     0.124 S 
ATOM     60  O   UNL A   1      45.974  37.595  29.494  1.00  0.00    -0.237 OA
ATOM     61  O   UNL A   1      48.344  37.027  29.897  1.00  0.00    -0.237 OA
ATOM     62  O   UNL A   1      47.574  37.554  27.616  1.00  0.00    -0.744 OA
ENDBRANCH  58  59
ENDBRANCH  39  53
BRANCH  40  63
ATOM     63  C   UNL A   1      43.523  23.125  26.865  1.00  0.00    -0.014 A 
ATOM     64  C   UNL A   1      43.667  22.550  25.592  1.00  0.00     0.010 A 
ATOM     65  C   UNL A   1      43.017  22.345  27.920  1.00  0.00     0.010 A 
ATOM     66  C   UNL A   1      43.303  21.219  25.373  1.00  0.00     0.020 A 
ATOM     67  C   UNL A   1      42.674  21.006  27.711  1.00  0.00     0.020 A 
ATOM     68  C   UNL A   1      42.810  20.454  26.435  1.00  0.00     0.054 A 
BRANCH  68  69
ATOM     69  S   UNL A   1      42.408  18.707  26.152  1.00  0.00     0.124 S 
ATOM     70  O   UNL A   1      42.667  18.121  27.463  1.00  0.00    -0.237 OA
ATOM     71  O   UNL A   1      41.004  18.762  25.749  1.00  0.00    -0.237 OA
ATOM     72  O   UNL A   1      43.334  18.314  25.093  1.00  0.00    -0.744 OA
ENDBRANCH  68  69
ENDBRANCH  40  63
BRANCH  52  73
ATOM     73  C   UNL A   1      49.560  26.550  26.275  1.00  0.00    -0.014 A 
ATOM     74  C   UNL A   1      50.397  25.902  27.200  1.00  0.00     0.010 A 
ATOM     75  C   UNL A   1      50.012  26.752  24.960  1.00  0.00     0.010 A 
ATOM     76  C   UNL A   1      51.678  25.492  26.823  1.00  0.00     0.020 A 
ATOM     77  C   UNL A   1      51.286  26.325  24.573  1.00  0.00     0.020 A 
ATOM     78  C   UNL A   1      52.117  25.712  25.514  1.00  0.00     0.054 A 
BRANCH  78  79
ATOM     79  S   UNL A   1      53.772  25.143  25.033  1.00  0.00     0.124 S 
ATOM     80  O   UNL A   1      53.645  23.695  25.170  1.00  0.00    -0.237 OA
ATOM     81  O   UNL A   1      53.899  25.634  23.663  1.00  0.00    -0.237 OA
ATOM     82  O   UNL A   1      54.652  25.788  26.003  1.00  0.00    -0.744 OA
ENDBRANCH  78  79
ENDBRANCH  52  73
ENDBRANCH  26  27
ENDBRANCH  19  21
ENDBRANCH  18  19
ENDBRANCH   1  18
TORSDOF 17
ENDMDL
MODEL 3
REMARK VINA RESULT:      -9.8      7.591     13.133
REMARK SMILES COc1cc(CC(=O)OCCOC(=O)c2ccc(-c3c4nc(c(-c5ccc(S(=O)(=O)[O-])cc5)c5ccc([nH]5)c(-c5ccc(S(=O)(=O)[O-])cc5)c5nc(c(-c6ccc(S(=O)(=O)[O-])cc6)c6ccc3[nH]6)C=C5)C=C4)cc2)cc(Br)c1O
REMARK SMILES IDX 11 1 10 2 9 3 7 4 8 5 6 6 5 7 3 8 4 9 78 10 76 11 75 12
REMARK SMILES IDX 77 13 2 14 1 15 79 16 12 18 13 19 14 20 15 21 16 22 74 23
REMARK SMILES IDX 17 24 73 25 18 26 19 27 20 28 67 29 21 30 72 31 66 32 68 33
REMARK SMILES IDX 22 34 71 35 65 36 64 37 23 39 53 40 34 41 52 42 35 43 38 44
REMARK SMILES IDX 51 45 69 46 36 47 37 48 50 50 70 51 39 52 24 53 25 54 33 55
REMARK SMILES IDX 26 56 32 57 27 58 28 59 29 60 30 61 31 62 54 63 55 64 63 65
REMARK SMILES IDX 56 66 62 67 57 68 58 69 59 70 60 71 61 72 40 73 41 74 49 75
REMARK SMILES IDX 42 76 48 77 43 78 44 79 45 80 46 81 47 82
REMARK H PARENT 79 17 68 38 38 49
REMARK Flexibility Score: inf
ROOT
ATOM      1  C   UNL A   1      40.555  22.292  26.550  1.00  0.00     0.275 C 
ENDROOT
BRANCH   1   2
ATOM      2  C   UNL A   1      39.355  21.452  26.121  1.00  0.00     0.274 C 
BRANCH   2   3
ATOM      3  O   UNL A   1      38.267  22.292  25.692  1.00  0.00    -0.462 OA
BRANCH   3   4
ATOM      4  C   UNL A   1      37.440  21.744  24.763  1.00  0.00     0.310 C 
ATOM      5  O   UNL A   1      36.876  22.373  23.874  1.00  0.00    -0.252 OA
BRANCH   4   6
ATOM      6  C   UNL A   1      37.196  20.269  24.965  1.00  0.00     0.158 C 
BRANCH   6   7
ATOM      7  C   UNL A   1      35.785  19.753  24.796  1.00  0.00    -0.032 A 
ATOM      8  C   UNL A   1      34.266  17.883  24.527  1.00  0.00     0.161 A 
ATOM      9  C   UNL A   1      35.566  18.385  24.584  1.00  0.00     0.054 A 
ATOM     10  C   UNL A   1      33.168  18.721  24.725  1.00  0.00     0.172 A 
ATOM     11  C   UNL A   1      33.370  20.084  24.913  1.00  0.00     0.063 A 
ATOM     12  C   UNL A   1      34.672  20.599  24.948  1.00  0.00     0.024 A 
ATOM     13  Br  UNL A   1      31.918  21.275  25.174  1.00  0.00    -0.047 Br
BRANCH   8  14
ATOM     14  O   UNL A   1      34.085  16.536  24.346  1.00  0.00    -0.493 OA
ATOM     15  C   UNL A   1      34.945  15.811  25.231  1.00  0.00     0.278 C 
ENDBRANCH   8  14
BRANCH  10  16
ATOM     16  O   UNL A   1      31.911  18.182  24.759  1.00  0.00    -0.503 OA
ATOM     17  H   UNL A   1      31.162  18.742  24.817  1.00  0.00     0.293 HD
ENDBRANCH  10  16
ENDBRANCH   6   7
ENDBRANCH   4   6
ENDBRANCH   3   4
ENDBRANCH   2   3
ENDBRANCH   1   2
BRANCH   1  18
ATOM     18  O   UNL A   1      40.174  23.675  26.642  1.00  0.00    -0.458 OA
BRANCH  18  19
ATOM     19  C   UNL A   1      41.180  24.567  26.492  1.00  0.00     0.338 C 
ATOM     20  O   UNL A   1      42.122  24.498  25.724  1.00  0.00    -0.246 OA
BRANCH  19  21
ATOM     21  C   UNL A   1      40.993  25.684  27.433  1.00  0.00     0.060 A 
ATOM     22  C   UNL A   1      41.901  26.745  27.461  1.00  0.00     0.016 A 
ATOM     23  C   UNL A   1      39.961  25.607  28.367  1.00  0.00     0.016 A 
ATOM     24  C   UNL A   1      41.809  27.708  28.467  1.00  0.00     0.010 A 
ATOM     25  C   UNL A   1      39.836  26.604  29.337  1.00  0.00     0.010 A 
ATOM     26  C   UNL A   1      40.776  27.646  29.414  1.00  0.00    -0.014 A 
BRANCH  26  27
ATOM     27  C   UNL A   1      40.689  28.646  30.509  1.00  0.00     0.031 A 
ATOM     28  C   UNL A   1      41.600  28.538  31.702  1.00  0.00     0.074 A 
ATOM     29  C   UNL A   1      39.781  29.638  30.444  1.00  0.00     0.049 A 
ATOM     30  N   UNL A   1      41.601  29.242  32.805  1.00  0.00    -0.248 NA
ATOM     31  C   UNL A   1      42.642  27.500  31.651  1.00  0.00     0.031 C 
ATOM     32  C   UNL A   1      38.855  29.868  29.333  1.00  0.00     0.029 A 
ATOM     33  N   UNL A   1      39.485  30.637  31.337  1.00  0.00    -0.354 N 
ATOM     34  C   UNL A   1      42.616  28.713  33.593  1.00  0.00     0.074 A 
ATOM     35  C   UNL A   1      43.205  27.622  32.845  1.00  0.00     0.031 C 
ATOM     36  C   UNL A   1      38.102  30.946  29.607  1.00  0.00     0.029 A 
ATOM     37  C   UNL A   1      38.456  31.451  30.930  1.00  0.00     0.049 A 
ATOM     38  H   UNL A   1      39.964  30.758  32.188  1.00  0.00     0.167 HD
ATOM     39  C   UNL A   1      43.024  29.100  34.826  1.00  0.00     0.031 A 
ATOM     40  C   UNL A   1      37.846  32.473  31.559  1.00  0.00     0.031 A 
ATOM     41  C   UNL A   1      42.450  30.194  35.564  1.00  0.00     0.049 A 
ATOM     42  C   UNL A   1      38.296  32.866  32.937  1.00  0.00     0.074 A 
ATOM     43  C   UNL A   1      42.807  30.670  36.815  1.00  0.00     0.029 A 
ATOM     44  N   UNL A   1      41.403  30.986  35.119  1.00  0.00    -0.354 N 
ATOM     45  N   UNL A   1      39.252  32.346  33.671  1.00  0.00    -0.248 NA
ATOM     46  C   UNL A   1      37.583  33.982  33.574  1.00  0.00     0.031 C 
ATOM     47  C   UNL A   1      41.953  31.731  37.140  1.00  0.00     0.029 A 
ATOM     48  C   UNL A   1      41.091  31.939  36.074  1.00  0.00     0.049 A 
ATOM     49  H   UNL A   1      40.949  30.885  34.252  1.00  0.00     0.167 HD
ATOM     50  C   UNL A   1      39.263  33.082  34.851  1.00  0.00     0.074 A 
ATOM     51  C   UNL A   1      38.231  34.090  34.728  1.00  0.00     0.031 C 
ATOM     52  C   UNL A   1      40.058  32.932  35.938  1.00  0.00     0.031 A 
BRANCH  39  53
ATOM     53  C   UNL A   1      44.129  28.308  35.469  1.00  0.00    -0.014 A 
ATOM     54  C   UNL A   1      45.478  28.662  35.290  1.00  0.00     0.010 A 
ATOM     55  C   UNL A   1      43.811  27.212  36.291  1.00  0.00     0.010 A 
ATOM     56  C   UNL A   1      46.492  27.909  35.892  1.00  0.00     0.020 A 
ATOM     57  C   UNL A   1      44.820  26.470  36.910  1.00  0.00     0.020 A 
ATOM     58  C   UNL A   1      46.156  26.813  36.692  1.00  0.00     0.054 A 
BRANCH  58  59
ATOM     59  S   UNL A   1      47.485  25.860  37.478  1.00  0.00     0.124 S 
ATOM     60  O   UNL A   1      47.065  25.855  38.877  1.00  0.00    -0.237 OA
ATOM     61  O   UNL A   1      47.409  24.572  36.794  1.00  0.00    -0.237 OA
ATOM     62  O   UNL A   1      48.686  26.642  37.192  1.00  0.00    -0.744 OA
ENDBRANCH  58  59
ENDBRANCH  39  53
BRANCH  40  63
ATOM     63  C   UNL A   1      36.722  33.183  30.893  1.00  0.00    -0.014 A 
ATOM     64  C   UNL A   1      36.943  33.925  29.721  1.00  0.00     0.010 A 
ATOM     65  C   UNL A   1      35.419  33.094  31.417  1.00  0.00     0.010 A 
ATOM     66  C   UNL A   1      35.881  34.576  29.087  1.00  0.00     0.020 A 
ATOM     67  C   UNL A   1      34.351  33.725  30.773  1.00  0.00     0.020 A 
ATOM     68  C   UNL A   1      34.591  34.471  29.617  1.00  0.00     0.054 A 
BRANCH  68  69
ATOM     69  S   UNL A   1      33.212  35.264  28.743  1.00  0.00     0.124 S 
ATOM     70  O   UNL A   1      33.902  36.262  27.932  1.00  0.00    -0.237 OA
ATOM     71  O   UNL A   1      32.617  34.151  28.007  1.00  0.00    -0.237 OA
ATOM     72  O   UNL A   1      32.387  35.795  29.825  1.00  0.00    -0.744 OA
ENDBRANCH  68  69
ENDBRANCH  40  63
BRANCH  52  73
ATOM     73  C   UNL A   1      39.855  33.899  37.072  1.00  0.00    -0.014 A 
ATOM     74  C   UNL A   1      40.481  35.158  37.072  1.00  0.00     0.010 A 
ATOM     75  C   UNL A   1      38.998  33.557  38.133  1.00  0.00     0.010 A 
ATOM     76  C   UNL A   1      40.279  36.046  38.131  1.00  0.00     0.020 A 
ATOM     77  C   UNL A   1      38.777  34.451  39.184  1.00  0.00     0.020 A 
ATOM     78  C   UNL A   1      39.432  35.685  39.183  1.00  0.00     0.054 A 
BRANCH  78  79
ATOM     79  S   UNL A   1      39.154  36.865  40.533  1.00  0.00     0.124 S 
ATOM     80  O   UNL A   1      40.515  37.121  40.996  1.00  0.00    -0.237 OA
ATOM     81  O   UNL A   1      38.501  37.984  39.858  1.00  0.00    -0.237 OA
ATOM     82  O   UNL A   1      38.306  36.127  41.466  1.00  0.00    -0.744 OA
ENDBRANCH  78  79
ENDBRANCH  52  73
ENDBRANCH  26  27
ENDBRANCH  19  21
ENDBRANCH  18  19
ENDBRANCH   1  18
TORSDOF 17
ENDMDL
