MODEL 1
REMARK VINA RESULT:      -9.4      0.000      0.000
REMARK SMILES CC(=O)c1cccc(-c2ccc(C(=O)OCCOC(=O)c3ccc(-c4c5nc(c(-c6ccc(S(=O)(=O)[O-])cc6)c6ccc([nH]6)c(-c6ccc(S(=O)(=O)[O-])cc6)c6nc(c(-c7ccc(S(=O)(=O)[O-])cc7)c7ccc4[nH]7)C=C6)C=C5)cc3)cc2F)c1
REMARK SMILES IDX 17 1 16 2 15 3 13 4 14 5 12 6 9 7 10 8 82 9 11 10 81 11
REMARK SMILES IDX 83 12 8 13 4 14 5 15 84 16 6 17 7 18 2 19 1 20 3 21 18 22
REMARK SMILES IDX 19 23 20 24 21 25 22 26 80 27 23 28 79 29 24 30 25 31 26 32
REMARK SMILES IDX 73 33 27 34 78 35 72 36 74 37 28 38 77 39 71 40 70 41 29 43
REMARK SMILES IDX 59 44 40 45 58 46 41 47 44 48 57 49 75 50 42 51 43 52 56 54
REMARK SMILES IDX 76 55 45 56 30 57 31 58 39 59 32 60 38 61 33 62 34 63 35 64
REMARK SMILES IDX 36 65 37 66 60 67 61 68 69 69 62 70 68 71 63 72 64 73 65 74
REMARK SMILES IDX 66 75 67 76 46 77 47 78 55 79 48 80 54 81 49 82 50 83 51 84
REMARK SMILES IDX 52 85 53 86
REMARK H PARENT 74 42 44 53
REMARK Flexibility Score: inf
ROOT
ATOM      1  C   UNL A   1      33.319  33.999  28.007  1.00  0.00     0.275 C 
ENDROOT
BRANCH   1   2
ATOM      2  C   UNL A   1      33.461  34.571  29.417  1.00  0.00     0.275 C 
BRANCH   2   3
ATOM      3  O   UNL A   1      34.799  34.395  29.927  1.00  0.00    -0.458 OA
BRANCH   3   4
ATOM      4  C   UNL A   1      34.878  33.774  31.129  1.00  0.00     0.338 C 
ATOM      5  O   UNL A   1      34.028  33.063  31.637  1.00  0.00    -0.246 OA
BRANCH   4   6
ATOM      6  C   UNL A   1      36.193  34.013  31.769  1.00  0.00     0.063 A 
ATOM      7  C   UNL A   1      38.771  34.314  32.872  1.00  0.00     0.018 A 
ATOM      8  C   UNL A   1      38.582  34.337  31.484  1.00  0.00     0.012 A 
ATOM      9  C   UNL A   1      37.638  34.153  33.688  1.00  0.00     0.131 A 
ATOM     10  C   UNL A   1      37.312  34.157  30.941  1.00  0.00     0.016 A 
ATOM     11  C   UNL A   1      36.355  34.021  33.154  1.00  0.00     0.055 A 
ATOM     12  F   UNL A   1      37.777  34.088  35.021  1.00  0.00    -0.206 F 
BRANCH   7  13
ATOM     13  C   UNL A   1      40.135  34.369  33.411  1.00  0.00    -0.015 A 
ATOM     14  C   UNL A   1      41.716  35.260  35.038  1.00  0.00     0.018 A 
ATOM     15  C   UNL A   1      42.694  34.374  34.580  1.00  0.00     0.012 A 
ATOM     16  C   UNL A   1      40.447  35.264  34.447  1.00  0.00     0.020 A 
ATOM     17  C   UNL A   1      42.397  33.478  33.553  1.00  0.00     0.001 A 
ATOM     18  C   UNL A   1      41.125  33.474  32.976  1.00  0.00     0.009 A 
BRANCH  14  19
ATOM     19  C   UNL A   1      42.047  36.168  36.169  1.00  0.00     0.159 C 
ATOM     20  C   UNL A   1      43.447  36.720  36.257  1.00  0.00     0.093 C 
ATOM     21  O   UNL A   1      41.178  36.477  36.981  1.00  0.00    -0.295 OA
ENDBRANCH  14  19
ENDBRANCH   7  13
ENDBRANCH   4   6
ENDBRANCH   3   4
ENDBRANCH   2   3
ENDBRANCH   1   2
BRANCH   1  22
ATOM     22  O   UNL A   1      34.492  33.247  27.649  1.00  0.00    -0.458 OA
BRANCH  22  23
ATOM     23  C   UNL A   1      34.340  31.904  27.634  1.00  0.00     0.338 C 
ATOM     24  O   UNL A   1      33.323  31.279  27.385  1.00  0.00    -0.246 OA
BRANCH  23  25
ATOM     25  C   UNL A   1      35.615  31.236  27.948  1.00  0.00     0.060 A 
ATOM     26  C   UNL A   1      35.632  29.859  28.154  1.00  0.00     0.016 A 
ATOM     27  C   UNL A   1      36.748  31.997  28.229  1.00  0.00     0.016 A 
ATOM     28  C   UNL A   1      36.732  29.256  28.764  1.00  0.00     0.010 A 
ATOM     29  C   UNL A   1      37.890  31.372  28.746  1.00  0.00     0.010 A 
ATOM     30  C   UNL A   1      37.874  30.006  29.086  1.00  0.00    -0.014 A 
BRANCH  30  31
ATOM     31  C   UNL A   1      38.997  29.399  29.867  1.00  0.00     0.031 A 
ATOM     32  C   UNL A   1      39.130  29.690  31.346  1.00  0.00     0.074 A 
ATOM     33  C   UNL A   1      39.881  28.559  29.293  1.00  0.00     0.049 A 
ATOM     34  N   UNL A   1      40.112  29.402  32.164  1.00  0.00    -0.248 NA
ATOM     35  C   UNL A   1      38.020  30.418  31.983  1.00  0.00     0.031 C 
ATOM     36  C   UNL A   1      39.864  28.124  27.895  1.00  0.00     0.029 A 
ATOM     37  N   UNL A   1      40.961  27.897  29.828  1.00  0.00    -0.354 N 
ATOM     38  C   UNL A   1      39.781  29.990  33.380  1.00  0.00     0.074 A 
ATOM     39  C   UNL A   1      38.501  30.639  33.199  1.00  0.00     0.031 C 
ATOM     40  C   UNL A   1      40.838  27.220  27.702  1.00  0.00     0.029 A 
ATOM     41  C   UNL A   1      41.606  27.074  28.935  1.00  0.00     0.049 A 
ATOM     42  H   UNL A   1      41.247  28.002  30.765  1.00  0.00     0.167 HD
ATOM     43  C   UNL A   1      40.479  30.001  34.542  1.00  0.00     0.031 A 
ATOM     44  C   UNL A   1      42.705  26.307  29.075  1.00  0.00     0.031 A 
ATOM     45  C   UNL A   1      41.710  29.290  34.759  1.00  0.00     0.049 A 
ATOM     46  C   UNL A   1      43.453  26.309  30.377  1.00  0.00     0.074 A 
ATOM     47  C   UNL A   1      42.481  29.229  35.909  1.00  0.00     0.029 A 
ATOM     48  N   UNL A   1      42.337  28.491  33.816  1.00  0.00    -0.354 N 
ATOM     49  N   UNL A   1      43.170  26.945  31.489  1.00  0.00    -0.248 NA
ATOM     50  C   UNL A   1      44.682  25.504  30.437  1.00  0.00     0.031 C 
ATOM     51  C   UNL A   1      43.585  28.407  35.653  1.00  0.00     0.029 A 
ATOM     52  C   UNL A   1      43.482  27.932  34.356  1.00  0.00     0.049 A 
ATOM     53  H   UNL A   1      42.015  28.344  32.898  1.00  0.00     0.167 HD
ATOM     54  C   UNL A   1      44.184  26.613  32.381  1.00  0.00     0.074 A 
ATOM     55  C   UNL A   1      45.074  25.706  31.688  1.00  0.00     0.031 C 
ATOM     56  C   UNL A   1      44.361  27.031  33.658  1.00  0.00     0.031 A 
BRANCH  43  57
ATOM     57  C   UNL A   1      39.946  30.860  35.657  1.00  0.00    -0.014 A 
ATOM     58  C   UNL A   1      38.621  30.751  36.112  1.00  0.00     0.010 A 
ATOM     59  C   UNL A   1      40.801  31.801  36.261  1.00  0.00     0.010 A 
ATOM     60  C   UNL A   1      38.145  31.605  37.112  1.00  0.00     0.020 A 
ATOM     61  C   UNL A   1      40.337  32.640  37.277  1.00  0.00     0.020 A 
ATOM     62  C   UNL A   1      39.003  32.553  37.678  1.00  0.00     0.054 A 
BRANCH  62  63
ATOM     63  S   UNL A   1      38.367  33.664  38.964  1.00  0.00     0.124 S 
ATOM     64  O   UNL A   1      39.264  33.372  40.081  1.00  0.00    -0.237 OA
ATOM     65  O   UNL A   1      38.528  34.986  38.363  1.00  0.00    -0.237 OA
ATOM     66  O   UNL A   1      36.985  33.229  39.143  1.00  0.00    -0.744 OA
ENDBRANCH  62  63
ENDBRANCH  43  57
BRANCH  44  67
ATOM     67  C   UNL A   1      43.175  25.478  27.933  1.00  0.00    -0.014 A 
ATOM     68  C   UNL A   1      44.092  26.005  27.007  1.00  0.00     0.010 A 
ATOM     69  C   UNL A   1      42.737  24.149  27.785  1.00  0.00     0.010 A 
ATOM     70  C   UNL A   1      44.566  25.217  25.955  1.00  0.00     0.020 A 
ATOM     71  C   UNL A   1      43.228  23.351  26.749  1.00  0.00     0.020 A 
ATOM     72  C   UNL A   1      44.136  23.892  25.837  1.00  0.00     0.054 A 
BRANCH  72  73
ATOM     73  S   UNL A   1      44.833  22.853  24.522  1.00  0.00     0.124 S 
ATOM     74  O   UNL A   1      45.847  23.731  23.946  1.00  0.00    -0.237 OA
ATOM     75  O   UNL A   1      45.339  21.699  25.261  1.00  0.00    -0.237 OA
ATOM     76  O   UNL A   1      43.682  22.575  23.666  1.00  0.00    -0.744 OA
ENDBRANCH  72  73
ENDBRANCH  44  67
BRANCH  56  77
ATOM     77  C   UNL A   1      45.549  26.483  34.399  1.00  0.00    -0.014 A 
ATOM     78  C   UNL A   1      46.783  27.156  34.388  1.00  0.00     0.010 A 
ATOM     79  C   UNL A   1      45.419  25.294  35.140  1.00  0.00     0.010 A 
ATOM     80  C   UNL A   1      47.879  26.630  35.079  1.00  0.00     0.020 A 
ATOM     81  C   UNL A   1      46.507  24.775  35.845  1.00  0.00     0.020 A 
ATOM     82  C   UNL A   1      47.735  25.440  35.798  1.00  0.00     0.054 A 
BRANCH  82  83
ATOM     83  S   UNL A   1      49.161  24.784  36.709  1.00  0.00     0.124 S 
ATOM     84  O   UNL A   1      49.559  23.653  35.877  1.00  0.00    -0.237 OA
ATOM     85  O   UNL A   1      50.087  25.913  36.720  1.00  0.00    -0.237 OA
ATOM     86  O   UNL A   1      48.603  24.433  38.014  1.00  0.00    -0.744 OA
ENDBRANCH  82  83
ENDBRANCH  56  77
ENDBRANCH  30  31
ENDBRANCH  23  25
ENDBRANCH  22  23
ENDBRANCH   1  22
TORSDOF 16
ENDMDL
MODEL 2
REMARK VINA RESULT:      -9.3      4.382     11.718
REMARK SMILES CC(=O)c1cccc(-c2ccc(C(=O)OCCOC(=O)c3ccc(-c4c5nc(c(-c6ccc(S(=O)(=O)[O-])cc6)c6ccc([nH]6)c(-c6ccc(S(=O)(=O)[O-])cc6)c6nc(c(-c7ccc(S(=O)(=O)[O-])cc7)c7ccc4[nH]7)C=C6)C=C5)cc3)cc2F)c1
REMARK SMILES IDX 17 1 16 2 15 3 13 4 14 5 12 6 9 7 10 8 82 9 11 10 81 11
REMARK SMILES IDX 83 12 8 13 4 14 5 15 84 16 6 17 7 18 2 19 1 20 3 21 18 22
REMARK SMILES IDX 19 23 20 24 21 25 22 26 80 27 23 28 79 29 24 30 25 31 26 32
REMARK SMILES IDX 73 33 27 34 78 35 72 36 74 37 28 38 77 39 71 40 70 41 29 43
REMARK SMILES IDX 59 44 40 45 58 46 41 47 44 48 57 49 75 50 42 51 43 52 56 54
REMARK SMILES IDX 76 55 45 56 30 57 31 58 39 59 32 60 38 61 33 62 34 63 35 64
REMARK SMILES IDX 36 65 37 66 60 67 61 68 69 69 62 70 68 71 63 72 64 73 65 74
REMARK SMILES IDX 66 75 67 76 46 77 47 78 55 79 48 80 54 81 49 82 50 83 51 84
REMARK SMILES IDX 52 85 53 86
REMARK H PARENT 74 42 44 53
REMARK Flexibility Score: inf
ROOT
ATOM      1  C   UNL A   1      42.856  23.385  25.582  1.00  0.00     0.275 C 
ENDROOT
BRANCH   1   2
ATOM      2  C   UNL A   1      43.045  22.066  26.330  1.00  0.00     0.275 C 
BRANCH   2   3
ATOM      3  O   UNL A   1      42.313  20.993  25.702  1.00  0.00    -0.458 OA
BRANCH   3   4
ATOM      4  C   UNL A   1      41.413  20.369  26.501  1.00  0.00     0.338 C 
ATOM      5  O   UNL A   1      41.661  19.657  27.459  1.00  0.00    -0.246 OA
BRANCH   4   6
ATOM      6  C   UNL A   1      40.025  20.705  26.106  1.00  0.00     0.063 A 
ATOM      7  C   UNL A   1      37.432  21.286  25.162  1.00  0.00     0.018 A 
ATOM      8  C   UNL A   1      38.000  20.024  24.951  1.00  0.00     0.012 A 
ATOM      9  C   UNL A   1      38.186  22.239  25.868  1.00  0.00     0.131 A 
ATOM     10  C   UNL A   1      39.293  19.749  25.392  1.00  0.00     0.016 A 
ATOM     11  C   UNL A   1      39.463  21.957  26.355  1.00  0.00     0.055 A 
ATOM     12  F   UNL A   1      37.695  23.473  26.059  1.00  0.00    -0.206 F 
BRANCH   7  13
ATOM     13  C   UNL A   1      36.124  21.591  24.568  1.00  0.00    -0.015 A 
ATOM     14  C   UNL A   1      33.718  21.208  24.478  1.00  0.00     0.018 A 
ATOM     15  C   UNL A   1      33.579  22.267  23.578  1.00  0.00     0.012 A 
ATOM     16  C   UNL A   1      34.987  20.866  24.961  1.00  0.00     0.020 A 
ATOM     17  C   UNL A   1      34.699  22.997  23.182  1.00  0.00     0.001 A 
ATOM     18  C   UNL A   1      35.962  22.663  23.677  1.00  0.00     0.009 A 
BRANCH  14  19
ATOM     19  C   UNL A   1      32.498  20.482  24.922  1.00  0.00     0.159 C 
ATOM     20  C   UNL A   1      32.524  18.975  24.926  1.00  0.00     0.093 C 
ATOM     21  O   UNL A   1      31.516  21.112  25.305  1.00  0.00    -0.295 OA
ENDBRANCH  14  19
ENDBRANCH   7  13
ENDBRANCH   4   6
ENDBRANCH   3   4
ENDBRANCH   2   3
ENDBRANCH   1   2
BRANCH   1  22
ATOM     22  O   UNL A   1      42.017  24.276  26.339  1.00  0.00    -0.458 OA
BRANCH  22  23
ATOM     23  C   UNL A   1      41.958  25.547  25.881  1.00  0.00     0.338 C 
ATOM     24  O   UNL A   1      42.284  25.951  24.778  1.00  0.00    -0.246 OA
BRANCH  23  25
ATOM     25  C   UNL A   1      41.402  26.442  26.912  1.00  0.00     0.060 A 
ATOM     26  C   UNL A   1      41.771  27.784  26.923  1.00  0.00     0.016 A 
ATOM     27  C   UNL A   1      40.675  25.910  27.976  1.00  0.00     0.016 A 
ATOM     28  C   UNL A   1      41.532  28.567  28.052  1.00  0.00     0.010 A 
ATOM     29  C   UNL A   1      40.346  26.727  29.065  1.00  0.00     0.010 A 
ATOM     30  C   UNL A   1      40.830  28.046  29.150  1.00  0.00    -0.014 A 
BRANCH  30  31
ATOM     31  C   UNL A   1      40.695  28.830  30.417  1.00  0.00     0.031 A 
ATOM     32  C   UNL A   1      39.567  29.829  30.571  1.00  0.00     0.074 A 
ATOM     33  C   UNL A   1      41.537  28.643  31.454  1.00  0.00     0.049 A 
ATOM     34  N   UNL A   1      39.369  30.719  31.510  1.00  0.00    -0.248 NA
ATOM     35  C   UNL A   1      38.539  29.837  29.517  1.00  0.00     0.031 C 
ATOM     36  C   UNL A   1      42.639  27.681  31.497  1.00  0.00     0.029 A 
ATOM     37  N   UNL A   1      41.578  29.244  32.690  1.00  0.00    -0.354 N 
ATOM     38  C   UNL A   1      38.254  31.449  31.115  1.00  0.00     0.074 A 
ATOM     39  C   UNL A   1      37.808  30.889  29.858  1.00  0.00     0.031 C 
ATOM     40  C   UNL A   1      43.201  27.709  32.717  1.00  0.00     0.029 A 
ATOM     41  C   UNL A   1      42.560  28.749  33.515  1.00  0.00     0.049 A 
ATOM     42  H   UNL A   1      40.960  29.963  32.960  1.00  0.00     0.167 HD
ATOM     43  C   UNL A   1      37.655  32.497  31.733  1.00  0.00     0.031 A 
ATOM     44  C   UNL A   1      42.928  29.104  34.762  1.00  0.00     0.031 A 
ATOM     45  C   UNL A   1      38.037  33.009  33.022  1.00  0.00     0.049 A 
ATOM     46  C   UNL A   1      42.238  30.251  35.444  1.00  0.00     0.074 A 
ATOM     47  C   UNL A   1      37.478  34.057  33.734  1.00  0.00     0.029 A 
ATOM     48  N   UNL A   1      39.054  32.491  33.806  1.00  0.00    -0.354 N 
ATOM     49  N   UNL A   1      41.242  30.986  35.013  1.00  0.00    -0.248 NA
ATOM     50  C   UNL A   1      42.738  30.628  36.774  1.00  0.00     0.031 C 
ATOM     51  C   UNL A   1      38.173  34.184  34.943  1.00  0.00     0.029 A 
ATOM     52  C   UNL A   1      39.140  33.194  34.996  1.00  0.00     0.049 A 
ATOM     53  H   UNL A   1      39.631  31.734  33.555  1.00  0.00     0.167 HD
ATOM     54  C   UNL A   1      40.992  31.911  36.021  1.00  0.00     0.074 A 
ATOM     55  C   UNL A   1      41.927  31.629  37.091  1.00  0.00     0.031 C 
ATOM     56  C   UNL A   1      40.073  32.907  36.053  1.00  0.00     0.031 A 
BRANCH  43  57
ATOM     57  C   UNL A   1      36.551  33.197  30.986  1.00  0.00    -0.014 A 
ATOM     58  C   UNL A   1      36.765  33.795  29.732  1.00  0.00     0.010 A 
ATOM     59  C   UNL A   1      35.269  33.254  31.562  1.00  0.00     0.010 A 
ATOM     60  C   UNL A   1      35.730  34.485  29.094  1.00  0.00     0.020 A 
ATOM     61  C   UNL A   1      34.225  33.922  30.917  1.00  0.00     0.020 A 
ATOM     62  C   UNL A   1      34.470  34.556  29.698  1.00  0.00     0.054 A 
BRANCH  62  63
ATOM     63  S   UNL A   1      33.140  35.468  28.864  1.00  0.00     0.124 S 
ATOM     64  O   UNL A   1      32.383  35.992  29.998  1.00  0.00    -0.237 OA
ATOM     65  O   UNL A   1      33.868  36.465  28.083  1.00  0.00    -0.237 OA
ATOM     66  O   UNL A   1      32.460  34.442  28.079  1.00  0.00    -0.744 OA
ENDBRANCH  62  63
ENDBRANCH  43  57
BRANCH  44  67
ATOM     67  C   UNL A   1      44.024  28.366  35.445  1.00  0.00    -0.014 A 
ATOM     68  C   UNL A   1      43.732  27.253  36.252  1.00  0.00     0.010 A 
ATOM     69  C   UNL A   1      45.366  28.750  35.264  1.00  0.00     0.010 A 
ATOM     70  C   UNL A   1      44.761  26.532  36.863  1.00  0.00     0.020 A 
ATOM     71  C   UNL A   1      46.399  28.017  35.854  1.00  0.00     0.020 A 
ATOM     72  C   UNL A   1      46.089  26.915  36.654  1.00  0.00     0.054 A 
BRANCH  72  73
ATOM     73  S   UNL A   1      47.419  25.914  37.378  1.00  0.00     0.124 S 
ATOM     74  O   UNL A   1      47.213  24.622  36.732  1.00  0.00    -0.237 OA
ATOM     75  O   UNL A   1      48.621  26.640  36.974  1.00  0.00    -0.237 OA
ATOM     76  O   UNL A   1      47.131  25.956  38.810  1.00  0.00    -0.744 OA
ENDBRANCH  72  73
ENDBRANCH  44  67
BRANCH  56  77
ATOM     77  C   UNL A   1      40.015  33.746  37.298  1.00  0.00    -0.014 A 
ATOM     78  C   UNL A   1      39.132  33.429  38.345  1.00  0.00     0.010 A 
ATOM     79  C   UNL A   1      40.878  34.849  37.435  1.00  0.00     0.010 A 
ATOM     80  C   UNL A   1      39.088  34.223  39.494  1.00  0.00     0.020 A 
ATOM     81  C   UNL A   1      40.849  35.634  38.589  1.00  0.00     0.020 A 
ATOM     82  C   UNL A   1      39.942  35.324  39.606  1.00  0.00     0.054 A 
BRANCH  82  83
ATOM     83  S   UNL A   1      39.890  36.330  41.116  1.00  0.00     0.124 S 
ATOM     84  O   UNL A   1      39.943  37.686  40.579  1.00  0.00    -0.237 OA
ATOM     85  O   UNL A   1      38.618  35.942  41.721  1.00  0.00    -0.237 OA
ATOM     86  O   UNL A   1      41.077  35.903  41.855  1.00  0.00    -0.744 OA
ENDBRANCH  82  83
ENDBRANCH  56  77
ENDBRANCH  30  31
ENDBRANCH  23  25
ENDBRANCH  22  23
ENDBRANCH   1  22
TORSDOF 16
ENDMDL
MODEL 3
REMARK VINA RESULT:      -9.2      3.649     11.733
REMARK SMILES CC(=O)c1cccc(-c2ccc(C(=O)OCCOC(=O)c3ccc(-c4c5nc(c(-c6ccc(S(=O)(=O)[O-])cc6)c6ccc([nH]6)c(-c6ccc(S(=O)(=O)[O-])cc6)c6nc(c(-c7ccc(S(=O)(=O)[O-])cc7)c7ccc4[nH]7)C=C6)C=C5)cc3)cc2F)c1
REMARK SMILES IDX 17 1 16 2 15 3 13 4 14 5 12 6 9 7 10 8 82 9 11 10 81 11
REMARK SMILES IDX 83 12 8 13 4 14 5 15 84 16 6 17 7 18 2 19 1 20 3 21 18 22
REMARK SMILES IDX 19 23 20 24 21 25 22 26 80 27 23 28 79 29 24 30 25 31 26 32
REMARK SMILES IDX 73 33 27 34 78 35 72 36 74 37 28 38 77 39 71 40 70 41 29 43
REMARK SMILES IDX 59 44 40 45 58 46 41 47 44 48 57 49 75 50 42 51 43 52 56 54
REMARK SMILES IDX 76 55 45 56 30 57 31 58 39 59 32 60 38 61 33 62 34 63 35 64
REMARK SMILES IDX 36 65 37 66 60 67 61 68 69 69 62 70 68 71 63 72 64 73 65 74
REMARK SMILES IDX 66 75 67 76 46 77 47 78 55 79 48 80 54 81 49 82 50 83 51 84
REMARK SMILES IDX 52 85 53 86
REMARK H PARENT 74 42 44 53
REMARK Flexibility Score: inf
ROOT
ATOM      1  C   UNL A   1      42.929  23.304  25.713  1.00  0.00     0.275 C 
ENDROOT
BRANCH   1   2
ATOM      2  C   UNL A   1      42.790  21.891  26.281  1.00  0.00     0.275 C 
BRANCH   2   3
ATOM      3  O   UNL A   1      41.654  21.204  25.717  1.00  0.00    -0.458 OA
BRANCH   3   4
ATOM      4  C   UNL A   1      40.668  20.906  26.599  1.00  0.00     0.338 C 
ATOM      5  O   UNL A   1      40.765  20.197  27.585  1.00  0.00    -0.246 OA
BRANCH   4   6
ATOM      6  C   UNL A   1      39.413  21.615  26.256  1.00  0.00     0.063 A 
ATOM      7  C   UNL A   1      37.059  22.915  25.405  1.00  0.00     0.018 A 
ATOM      8  C   UNL A   1      37.298  21.577  25.065  1.00  0.00     0.012 A 
ATOM      9  C   UNL A   1      38.019  23.575  26.191  1.00  0.00     0.131 A 
ATOM     10  C   UNL A   1      38.475  20.947  25.460  1.00  0.00     0.016 A 
ATOM     11  C   UNL A   1      39.179  22.938  26.633  1.00  0.00     0.055 A 
ATOM     12  F   UNL A   1      37.849  24.868  26.508  1.00  0.00    -0.206 F 
BRANCH   7  13
ATOM     13  C   UNL A   1      35.877  23.593  24.860  1.00  0.00    -0.015 A 
ATOM     14  C   UNL A   1      34.131  25.279  25.089  1.00  0.00     0.018 A 
ATOM     15  C   UNL A   1      33.715  25.032  23.779  1.00  0.00     0.012 A 
ATOM     16  C   UNL A   1      35.200  24.553  25.629  1.00  0.00     0.020 A 
ATOM     17  C   UNL A   1      34.379  24.082  23.003  1.00  0.00     0.001 A 
ATOM     18  C   UNL A   1      35.455  23.372  23.540  1.00  0.00     0.009 A 
BRANCH  14  19
ATOM     19  C   UNL A   1      33.436  26.333  25.874  1.00  0.00     0.159 C 
ATOM     20  C   UNL A   1      31.989  26.117  26.239  1.00  0.00     0.093 C 
ATOM     21  O   UNL A   1      34.051  27.333  26.237  1.00  0.00    -0.295 OA
ENDBRANCH  14  19
ENDBRANCH   7  13
ENDBRANCH   4   6
ENDBRANCH   3   4
ENDBRANCH   2   3
ENDBRANCH   1   2
BRANCH   1  22
ATOM     22  O   UNL A   1      42.056  24.212  26.408  1.00  0.00    -0.458 OA
BRANCH  22  23
ATOM     23  C   UNL A   1      41.949  25.446  25.864  1.00  0.00     0.338 C 
ATOM     24  O   UNL A   1      42.270  25.787  24.739  1.00  0.00    -0.246 OA
BRANCH  23  25
ATOM     25  C   UNL A   1      41.345  26.384  26.827  1.00  0.00     0.060 A 
ATOM     26  C   UNL A   1      41.553  27.751  26.670  1.00  0.00     0.016 A 
ATOM     27  C   UNL A   1      40.742  25.899  27.986  1.00  0.00     0.016 A 
ATOM     28  C   UNL A   1      41.283  28.626  27.722  1.00  0.00     0.010 A 
ATOM     29  C   UNL A   1      40.375  26.793  29.000  1.00  0.00     0.010 A 
ATOM     30  C   UNL A   1      40.704  28.159  28.912  1.00  0.00    -0.014 A 
BRANCH  30  31
ATOM     31  C   UNL A   1      40.543  29.062  30.095  1.00  0.00     0.031 A 
ATOM     32  C   UNL A   1      41.536  28.995  31.235  1.00  0.00     0.074 A 
ATOM     33  C   UNL A   1      39.549  29.971  30.157  1.00  0.00     0.049 A 
ATOM     34  N   UNL A   1      41.487  29.565  32.413  1.00  0.00    -0.248 NA
ATOM     35  C   UNL A   1      42.731  28.161  31.028  1.00  0.00     0.031 C 
ATOM     36  C   UNL A   1      38.543  30.209  29.121  1.00  0.00     0.029 A 
ATOM     37  N   UNL A   1      39.237  30.887  31.133  1.00  0.00    -0.354 N 
ATOM     38  C   UNL A   1      42.589  29.089  33.115  1.00  0.00     0.074 A 
ATOM     39  C   UNL A   1      43.297  28.194  32.226  1.00  0.00     0.031 C 
ATOM     40  C   UNL A   1      37.772  31.247  29.485  1.00  0.00     0.029 A 
ATOM     41  C   UNL A   1      38.169  31.693  30.817  1.00  0.00     0.049 A 
ATOM     42  H   UNL A   1      39.733  30.959  31.982  1.00  0.00     0.167 HD
ATOM     43  C   UNL A   1      42.976  29.360  34.385  1.00  0.00     0.031 A 
ATOM     44  C   UNL A   1      37.556  32.664  31.522  1.00  0.00     0.031 A 
ATOM     45  C   UNL A   1      42.328  30.311  35.248  1.00  0.00     0.049 A 
ATOM     46  C   UNL A   1      38.013  32.971  32.919  1.00  0.00     0.074 A 
ATOM     47  C   UNL A   1      42.660  30.665  36.546  1.00  0.00     0.029 A 
ATOM     48  N   UNL A   1      41.235  31.084  34.891  1.00  0.00    -0.354 N 
ATOM     49  N   UNL A   1      39.004  32.443  33.597  1.00  0.00    -0.248 NA
ATOM     50  C   UNL A   1      37.254  33.993  33.655  1.00  0.00     0.031 C 
ATOM     51  C   UNL A   1      41.752  31.638  36.980  1.00  0.00     0.029 A 
ATOM     52  C   UNL A   1      40.879  31.914  35.941  1.00  0.00     0.049 A 
ATOM     53  H   UNL A   1      40.779  31.048  34.020  1.00  0.00     0.167 HD
ATOM     54  C   UNL A   1      38.990  33.072  34.837  1.00  0.00     0.074 A 
ATOM     55  C   UNL A   1      37.906  34.033  34.809  1.00  0.00     0.031 C 
ATOM     56  C   UNL A   1      39.800  32.865  35.904  1.00  0.00     0.031 A 
BRANCH  43  57
ATOM     57  C   UNL A   1      44.131  28.568  34.937  1.00  0.00    -0.014 A 
ATOM     58  C   UNL A   1      45.459  29.015  34.827  1.00  0.00     0.010 A 
ATOM     59  C   UNL A   1      43.872  27.344  35.580  1.00  0.00     0.010 A 
ATOM     60  C   UNL A   1      46.511  28.226  35.302  1.00  0.00     0.020 A 
ATOM     61  C   UNL A   1      44.919  26.563  36.078  1.00  0.00     0.020 A 
ATOM     62  C   UNL A   1      46.234  26.998  35.912  1.00  0.00     0.054 A 
BRANCH  62  63
ATOM     63  S   UNL A   1      47.611  25.978  36.510  1.00  0.00     0.124 S 
ATOM     64  O   UNL A   1      48.720  26.929  36.482  1.00  0.00    -0.237 OA
ATOM     65  O   UNL A   1      47.165  25.576  37.842  1.00  0.00    -0.237 OA
ATOM     66  O   UNL A   1      47.689  24.898  35.531  1.00  0.00    -0.744 OA
ENDBRANCH  62  63
ENDBRANCH  43  57
BRANCH  44  67
ATOM     67  C   UNL A   1      36.422  33.411  30.915  1.00  0.00    -0.014 A 
ATOM     68  C   UNL A   1      35.275  33.697  31.676  1.00  0.00     0.010 A 
ATOM     69  C   UNL A   1      36.497  33.869  29.587  1.00  0.00     0.010 A 
ATOM     70  C   UNL A   1      34.224  34.433  31.122  1.00  0.00     0.020 A 
ATOM     71  C   UNL A   1      35.458  34.626  29.037  1.00  0.00     0.020 A 
ATOM     72  C   UNL A   1      34.326  34.899  29.808  1.00  0.00     0.054 A 
BRANCH  72  73
ATOM     73  S   UNL A   1      32.994  35.932  29.134  1.00  0.00     0.124 S 
ATOM     74  O   UNL A   1      32.224  36.253  30.330  1.00  0.00    -0.237 OA
ATOM     75  O   UNL A   1      33.727  37.045  28.533  1.00  0.00    -0.237 OA
ATOM     76  O   UNL A   1      32.333  35.048  28.177  1.00  0.00    -0.744 OA
ENDBRANCH  72  73
ENDBRANCH  44  67
BRANCH  56  77
ATOM     77  C   UNL A   1      39.563  33.717  37.119  1.00  0.00    -0.014 A 
ATOM     78  C   UNL A   1      38.691  33.298  38.139  1.00  0.00     0.010 A 
ATOM     79  C   UNL A   1      40.247  34.939  37.255  1.00  0.00     0.010 A 
ATOM     80  C   UNL A   1      38.479  34.105  39.260  1.00  0.00     0.020 A 
ATOM     81  C   UNL A   1      40.051  35.740  38.383  1.00  0.00     0.020 A 
ATOM     82  C   UNL A   1      39.155  35.324  39.372  1.00  0.00     0.054 A 
BRANCH  82  83
ATOM     83  S   UNL A   1      38.888  36.348  40.847  1.00  0.00     0.124 S 
ATOM     84  O   UNL A   1      37.854  35.597  41.553  1.00  0.00    -0.237 OA
ATOM     85  O   UNL A   1      40.204  36.355  41.480  1.00  0.00    -0.237 OA
ATOM     86  O   UNL A   1      38.461  37.634  40.299  1.00  0.00    -0.744 OA
ENDBRANCH  82  83
ENDBRANCH  56  77
ENDBRANCH  30  31
ENDBRANCH  23  25
ENDBRANCH  22  23
ENDBRANCH   1  22
TORSDOF 16
ENDMDL
