MODEL 1
REMARK VINA RESULT:     -10.1      0.000      0.000
REMARK SMILES Cc1noc(C)c1CNc1cnc(C(=O)OCCOC(=O)c2ccc(-c3c4nc(c(-c5ccc(S(=O)(=O)[O-])cc5)c5ccc([nH]5)c(-c5ccc(S(=O)(=O)[O-])cc5)c5nc(c(-c6ccc(S(=O)(=O)[O-])cc6)c6ccc3[nH]6)C=C5)C=C4)cc2)cn1
REMARK SMILES IDX 17 1 16 2 14 3 15 4 13 5 10 6 11 7 83 8 12 9 82 10 9 11 8 13
REMARK SMILES IDX 7 14 1 15 2 16 3 17 4 18 5 19 6 20 18 21 19 22 20 23 21 24
REMARK SMILES IDX 22 25 23 26 81 27 24 28 80 29 25 30 26 31 27 32 74 33 28 34
REMARK SMILES IDX 79 35 73 36 75 37 29 38 78 39 72 40 71 41 30 43 60 44 41 45
REMARK SMILES IDX 59 46 42 47 45 48 58 49 76 50 43 51 44 52 57 54 77 55 46 56
REMARK SMILES IDX 31 57 32 58 40 59 33 60 39 61 34 62 35 63 36 64 37 65 38 66
REMARK SMILES IDX 61 67 62 68 70 69 63 70 69 71 64 72 65 73 66 74 67 75 68 76
REMARK SMILES IDX 47 77 48 78 56 79 49 80 55 81 50 82 51 83 52 84 53 85 54 86
REMARK H PARENT 9 12 75 42 45 53
REMARK Flexibility Score: inf
ROOT
ATOM      1  C   UNL A   1      33.890  34.467  28.751  1.00  0.00     0.275 C 
ENDROOT
BRANCH   1   2
ATOM      2  O   UNL A   1      32.809  34.630  29.692  1.00  0.00    -0.457 OA
BRANCH   2   3
ATOM      3  C   UNL A   1      32.980  35.609  30.613  1.00  0.00     0.358 C 
ATOM      4  O   UNL A   1      32.583  36.763  30.518  1.00  0.00    -0.244 OA
BRANCH   3   5
ATOM      5  C   UNL A   1      33.655  35.109  31.830  1.00  0.00     0.166 A 
ATOM      6  C   UNL A   1      35.151  34.348  33.951  1.00  0.00     0.144 A 
ATOM      7  C   UNL A   1      34.431  33.434  33.173  1.00  0.00     0.158 A 
ATOM      8  N   UNL A   1      35.095  35.660  33.685  1.00  0.00    -0.235 NA
ATOM      9  N   UNL A   1      33.666  33.780  32.100  1.00  0.00    -0.244 NA
ATOM     10  C   UNL A   1      34.358  36.018  32.606  1.00  0.00     0.149 A 
BRANCH   6  11
ATOM     11  N   UNL A   1      36.005  34.007  34.977  1.00  0.00    -0.365 N 
ATOM     12  H   UNL A   1      35.926  34.427  35.864  1.00  0.00     0.162 HD
BRANCH  11  13
ATOM     13  C   UNL A   1      37.026  33.009  34.708  1.00  0.00     0.156 C 
BRANCH  13  14
ATOM     14  C   UNL A   1      38.323  33.217  35.413  1.00  0.00     0.037 A 
ATOM     15  C   UNL A   1      37.823  32.297  37.821  1.00  0.00     0.071 C 
ATOM     16  C   UNL A   1      38.658  32.922  36.767  1.00  0.00     0.086 A 
ATOM     17  N   UNL A   1      39.918  33.277  37.044  1.00  0.00    -0.085 NA
ATOM     18  O   UNL A   1      40.439  33.779  35.871  1.00  0.00    -0.361 OA
ATOM     19  C   UNL A   1      39.492  33.736  34.900  1.00  0.00     0.138 A 
ATOM     20  C   UNL A   1      39.900  34.225  33.569  1.00  0.00     0.091 C 
ENDBRANCH  13  14
ENDBRANCH  11  13
ENDBRANCH   6  11
ENDBRANCH   3   5
ENDBRANCH   2   3
ENDBRANCH   1   2
BRANCH   1  21
ATOM     21  C   UNL A   1      33.812  33.125  28.017  1.00  0.00     0.275 C 
BRANCH  21  22
ATOM     22  O   UNL A   1      34.454  32.069  28.758  1.00  0.00    -0.458 OA
BRANCH  22  23
ATOM     23  C   UNL A   1      34.489  30.870  28.134  1.00  0.00     0.338 C 
ATOM     24  O   UNL A   1      33.618  30.376  27.437  1.00  0.00    -0.246 OA
BRANCH  23  25
ATOM     25  C   UNL A   1      35.795  30.228  28.327  1.00  0.00     0.060 A 
ATOM     26  C   UNL A   1      36.126  29.770  29.599  1.00  0.00     0.016 A 
ATOM     27  C   UNL A   1      36.754  30.244  27.316  1.00  0.00     0.016 A 
ATOM     28  C   UNL A   1      37.441  29.439  29.907  1.00  0.00     0.010 A 
ATOM     29  C   UNL A   1      38.051  29.801  27.599  1.00  0.00     0.010 A 
ATOM     30  C   UNL A   1      38.420  29.429  28.907  1.00  0.00    -0.014 A 
BRANCH  30  31
ATOM     31  C   UNL A   1      39.825  29.043  29.219  1.00  0.00     0.031 A 
ATOM     32  C   UNL A   1      40.770  30.055  29.814  1.00  0.00     0.074 A 
ATOM     33  C   UNL A   1      40.269  27.797  28.950  1.00  0.00     0.049 A 
ATOM     34  N   UNL A   1      42.074  30.011  29.907  1.00  0.00    -0.248 NA
ATOM     35  C   UNL A   1      40.171  31.284  30.360  1.00  0.00     0.031 C 
ATOM     36  C   UNL A   1      39.454  26.694  28.432  1.00  0.00     0.029 A 
ATOM     37  N   UNL A   1      41.524  27.249  29.065  1.00  0.00    -0.354 N 
ATOM     38  C   UNL A   1      42.456  31.232  30.454  1.00  0.00     0.074 A 
ATOM     39  C   UNL A   1      41.246  31.989  30.687  1.00  0.00     0.031 C 
ATOM     40  C   UNL A   1      40.222  25.603  28.291  1.00  0.00     0.029 A 
ATOM     41  C   UNL A   1      41.600  25.953  28.609  1.00  0.00     0.049 A 
ATOM     42  H   UNL A   1      42.293  27.737  29.437  1.00  0.00     0.167 HD
ATOM     43  C   UNL A   1      43.707  31.681  30.719  1.00  0.00     0.031 A 
ATOM     44  C   UNL A   1      42.663  25.151  28.401  1.00  0.00     0.031 A 
ATOM     45  C   UNL A   1      44.899  30.898  30.533  1.00  0.00     0.049 A 
ATOM     46  C   UNL A   1      44.042  25.679  28.678  1.00  0.00     0.074 A 
ATOM     47  C   UNL A   1      46.213  31.259  30.781  1.00  0.00     0.029 A 
ATOM     48  N   UNL A   1      44.923  29.591  30.071  1.00  0.00    -0.354 N 
ATOM     49  N   UNL A   1      44.394  26.858  29.128  1.00  0.00    -0.248 NA
ATOM     50  C   UNL A   1      45.168  24.777  28.398  1.00  0.00     0.031 C 
ATOM     51  C   UNL A   1      47.033  30.180  30.438  1.00  0.00     0.029 A 
ATOM     52  C   UNL A   1      46.228  29.134  30.019  1.00  0.00     0.049 A 
ATOM     53  H   UNL A   1      44.129  29.066  29.818  1.00  0.00     0.167 HD
ATOM     54  C   UNL A   1      45.780  26.835  29.203  1.00  0.00     0.074 A 
ATOM     55  C   UNL A   1      46.204  25.522  28.761  1.00  0.00     0.031 C 
ATOM     56  C   UNL A   1      46.627  27.817  29.597  1.00  0.00     0.031 A 
BRANCH  43  57
ATOM     57  C   UNL A   1      43.862  33.102  31.193  1.00  0.00    -0.014 A 
ATOM     58  C   UNL A   1      44.029  33.413  32.553  1.00  0.00     0.010 A 
ATOM     59  C   UNL A   1      43.910  34.138  30.242  1.00  0.00     0.010 A 
ATOM     60  C   UNL A   1      44.213  34.740  32.956  1.00  0.00     0.020 A 
ATOM     61  C   UNL A   1      44.115  35.462  30.637  1.00  0.00     0.020 A 
ATOM     62  C   UNL A   1      44.254  35.757  31.995  1.00  0.00     0.054 A 
BRANCH  62  63
ATOM     63  S   UNL A   1      44.530  37.465  32.539  1.00  0.00     0.124 S 
ATOM     64  O   UNL A   1      45.448  37.279  33.660  1.00  0.00    -0.237 OA
ATOM     65  O   UNL A   1      45.107  38.093  31.353  1.00  0.00    -0.237 OA
ATOM     66  O   UNL A   1      43.194  37.935  32.900  1.00  0.00    -0.744 OA
ENDBRANCH  62  63
ENDBRANCH  43  57
BRANCH  44  67
ATOM     67  C   UNL A   1      42.462  23.793  27.827  1.00  0.00    -0.014 A 
ATOM     68  C   UNL A   1      42.614  23.565  26.450  1.00  0.00     0.010 A 
ATOM     69  C   UNL A   1      42.138  22.712  28.669  1.00  0.00     0.010 A 
ATOM     70  C   UNL A   1      42.439  22.281  25.922  1.00  0.00     0.020 A 
ATOM     71  C   UNL A   1      41.991  21.424  28.150  1.00  0.00     0.020 A 
ATOM     72  C   UNL A   1      42.130  21.218  26.777  1.00  0.00     0.054 A 
BRANCH  72  73
ATOM     73  S   UNL A   1      41.963  19.548  26.086  1.00  0.00     0.124 S 
ATOM     74  O   UNL A   1      42.476  18.720  27.172  1.00  0.00    -0.237 OA
ATOM     75  O   UNL A   1      40.527  19.447  25.836  1.00  0.00    -0.237 OA
ATOM     76  O   UNL A   1      42.795  19.594  24.885  1.00  0.00    -0.744 OA
ENDBRANCH  72  73
ENDBRANCH  44  67
BRANCH  56  77
ATOM     77  C   UNL A   1      48.095  27.500  29.621  1.00  0.00    -0.014 A 
ATOM     78  C   UNL A   1      48.940  27.899  28.572  1.00  0.00     0.010 A 
ATOM     79  C   UNL A   1      48.647  26.880  30.756  1.00  0.00     0.010 A 
ATOM     80  C   UNL A   1      50.316  27.678  28.656  1.00  0.00     0.020 A 
ATOM     81  C   UNL A   1      50.024  26.674  30.852  1.00  0.00     0.020 A 
ATOM     82  C   UNL A   1      50.850  27.071  29.798  1.00  0.00     0.054 A 
BRANCH  82  83
ATOM     83  S   UNL A   1      52.649  26.871  29.923  1.00  0.00     0.124 S 
ATOM     84  O   UNL A   1      53.017  26.562  28.543  1.00  0.00    -0.237 OA
ATOM     85  O   UNL A   1      53.085  28.177  30.412  1.00  0.00    -0.237 OA
ATOM     86  O   UNL A   1      52.809  25.773  30.872  1.00  0.00    -0.744 OA
ENDBRANCH  82  83
ENDBRANCH  56  77
ENDBRANCH  30  31
ENDBRANCH  23  25
ENDBRANCH  22  23
ENDBRANCH  21  22
ENDBRANCH   1  21
TORSDOF 17
ENDMDL
MODEL 2
REMARK VINA RESULT:     -10.0      5.163     12.493
REMARK SMILES Cc1noc(C)c1CNc1cnc(C(=O)OCCOC(=O)c2ccc(-c3c4nc(c(-c5ccc(S(=O)(=O)[O-])cc5)c5ccc([nH]5)c(-c5ccc(S(=O)(=O)[O-])cc5)c5nc(c(-c6ccc(S(=O)(=O)[O-])cc6)c6ccc3[nH]6)C=C5)C=C4)cc2)cn1
REMARK SMILES IDX 17 1 16 2 14 3 15 4 13 5 10 6 11 7 83 8 12 9 82 10 9 11 8 13
REMARK SMILES IDX 7 14 1 15 2 16 3 17 4 18 5 19 6 20 18 21 19 22 20 23 21 24
REMARK SMILES IDX 22 25 23 26 81 27 24 28 80 29 25 30 26 31 27 32 74 33 28 34
REMARK SMILES IDX 79 35 73 36 75 37 29 38 78 39 72 40 71 41 30 43 60 44 41 45
REMARK SMILES IDX 59 46 42 47 45 48 58 49 76 50 43 51 44 52 57 54 77 55 46 56
REMARK SMILES IDX 31 57 32 58 40 59 33 60 39 61 34 62 35 63 36 64 37 65 38 66
REMARK SMILES IDX 61 67 62 68 70 69 63 70 69 71 64 72 65 73 66 74 67 75 68 76
REMARK SMILES IDX 47 77 48 78 56 79 49 80 55 81 50 82 51 83 52 84 53 85 54 86
REMARK H PARENT 9 12 75 42 45 53
REMARK Flexibility Score: inf
ROOT
ATOM      1  C   UNL A   1      42.755  22.184  26.228  1.00  0.00     0.275 C 
ENDROOT
BRANCH   1   2
ATOM      2  O   UNL A   1      41.652  21.399  25.731  1.00  0.00    -0.457 OA
BRANCH   2   3
ATOM      3  C   UNL A   1      40.654  21.169  26.618  1.00  0.00     0.358 C 
ATOM      4  O   UNL A   1      40.743  20.511  27.647  1.00  0.00    -0.244 OA
BRANCH   3   5
ATOM      5  C   UNL A   1      39.413  21.883  26.249  1.00  0.00     0.166 A 
ATOM      6  C   UNL A   1      37.209  23.108  25.269  1.00  0.00     0.144 A 
ATOM      7  C   UNL A   1      38.124  23.761  26.103  1.00  0.00     0.158 A 
ATOM      8  N   UNL A   1      37.383  21.818  24.949  1.00  0.00    -0.235 NA
ATOM      9  N   UNL A   1      39.242  23.178  26.617  1.00  0.00    -0.244 NA
ATOM     10  C   UNL A   1      38.503  21.230  25.432  1.00  0.00     0.149 A 
BRANCH   6  11
ATOM     11  N   UNL A   1      36.128  23.709  24.663  1.00  0.00    -0.365 N 
ATOM     12  H   UNL A   1      36.247  24.314  23.896  1.00  0.00     0.162 HD
BRANCH  11  13
ATOM     13  C   UNL A   1      34.806  23.422  25.192  1.00  0.00     0.156 C 
BRANCH  13  14
ATOM     14  C   UNL A   1      33.886  22.708  24.261  1.00  0.00     0.037 A 
ATOM     15  C   UNL A   1      33.303  24.562  22.496  1.00  0.00     0.071 C 
ATOM     16  C   UNL A   1      33.223  23.212  23.104  1.00  0.00     0.086 A 
ATOM     17  N   UNL A   1      32.453  22.275  22.539  1.00  0.00    -0.085 NA
ATOM     18  O   UNL A   1      32.621  21.136  23.296  1.00  0.00    -0.361 OA
ATOM     19  C   UNL A   1      33.480  21.392  24.316  1.00  0.00     0.138 A 
ATOM     20  C   UNL A   1      33.782  20.262  25.214  1.00  0.00     0.091 C 
ENDBRANCH  13  14
ENDBRANCH  11  13
ENDBRANCH   6  11
ENDBRANCH   3   5
ENDBRANCH   2   3
ENDBRANCH   1   2
BRANCH   1  21
ATOM     21  C   UNL A   1      42.738  23.611  25.671  1.00  0.00     0.275 C 
BRANCH  21  22
ATOM     22  O   UNL A   1      42.384  24.577  26.679  1.00  0.00    -0.458 OA
BRANCH  22  23
ATOM     23  C   UNL A   1      41.894  25.745  26.205  1.00  0.00     0.338 C 
ATOM     24  O   UNL A   1      41.792  26.083  25.037  1.00  0.00    -0.246 OA
BRANCH  23  25
ATOM     25  C   UNL A   1      41.392  26.577  27.307  1.00  0.00     0.060 A 
ATOM     26  C   UNL A   1      41.966  27.829  27.505  1.00  0.00     0.016 A 
ATOM     27  C   UNL A   1      40.503  26.056  28.244  1.00  0.00     0.016 A 
ATOM     28  C   UNL A   1      41.753  28.519  28.694  1.00  0.00     0.010 A 
ATOM     29  C   UNL A   1      40.200  26.806  29.387  1.00  0.00     0.010 A 
ATOM     30  C   UNL A   1      40.849  28.029  29.644  1.00  0.00    -0.014 A 
BRANCH  30  31
ATOM     31  C   UNL A   1      40.587  28.778  30.905  1.00  0.00     0.031 A 
ATOM     32  C   UNL A   1      39.473  29.792  30.961  1.00  0.00     0.074 A 
ATOM     33  C   UNL A   1      41.356  28.575  31.994  1.00  0.00     0.049 A 
ATOM     34  N   UNL A   1      39.253  30.727  31.848  1.00  0.00    -0.248 NA
ATOM     35  C   UNL A   1      38.490  29.761  29.865  1.00  0.00     0.031 C 
ATOM     36  C   UNL A   1      42.430  27.583  32.109  1.00  0.00     0.029 A 
ATOM     37  N   UNL A   1      41.361  29.203  33.217  1.00  0.00    -0.354 N 
ATOM     38  C   UNL A   1      38.152  31.439  31.384  1.00  0.00     0.074 A 
ATOM     39  C   UNL A   1      37.739  30.819  30.144  1.00  0.00     0.031 C 
ATOM     40  C   UNL A   1      42.974  27.658  33.333  1.00  0.00     0.029 A 
ATOM     41  C   UNL A   1      42.361  28.766  34.054  1.00  0.00     0.049 A 
ATOM     42  H   UNL A   1      40.710  29.897  33.469  1.00  0.00     0.167 HD
ATOM     43  C   UNL A   1      37.555  32.522  31.937  1.00  0.00     0.031 A 
ATOM     44  C   UNL A   1      42.791  29.240  35.240  1.00  0.00     0.031 A 
ATOM     45  C   UNL A   1      37.941  33.097  33.198  1.00  0.00     0.049 A 
ATOM     46  C   UNL A   1      42.131  30.457  35.823  1.00  0.00     0.074 A 
ATOM     47  C   UNL A   1      37.392  34.188  33.850  1.00  0.00     0.029 A 
ATOM     48  N   UNL A   1      38.958  32.616  34.008  1.00  0.00    -0.354 N 
ATOM     49  N   UNL A   1      41.138  31.162  35.339  1.00  0.00    -0.248 NA
ATOM     50  C   UNL A   1      42.663  30.956  37.099  1.00  0.00     0.031 C 
ATOM     51  C   UNL A   1      38.100  34.388  35.038  1.00  0.00     0.029 A 
ATOM     52  C   UNL A   1      39.060  33.394  35.148  1.00  0.00     0.049 A 
ATOM     53  H   UNL A   1      39.525  31.838  33.802  1.00  0.00     0.167 HD
ATOM     54  C   UNL A   1      40.913  32.177  36.260  1.00  0.00     0.074 A 
ATOM     55  C   UNL A   1      41.867  31.991  37.334  1.00  0.00     0.031 C 
ATOM     56  C   UNL A   1      40.002  33.179  36.215  1.00  0.00     0.031 A 
BRANCH  43  57
ATOM     57  C   UNL A   1      36.450  33.193  31.164  1.00  0.00    -0.014 A 
ATOM     58  C   UNL A   1      35.125  33.209  31.631  1.00  0.00     0.010 A 
ATOM     59  C   UNL A   1      36.767  33.881  29.978  1.00  0.00     0.010 A 
ATOM     60  C   UNL A   1      34.131  33.877  30.909  1.00  0.00     0.020 A 
ATOM     61  C   UNL A   1      35.782  34.569  29.265  1.00  0.00     0.020 A 
ATOM     62  C   UNL A   1      34.465  34.552  29.730  1.00  0.00     0.054 A 
BRANCH  62  63
ATOM     63  S   UNL A   1      33.165  35.443  28.831  1.00  0.00     0.124 S 
ATOM     64  O   UNL A   1      32.525  34.365  28.081  1.00  0.00    -0.237 OA
ATOM     65  O   UNL A   1      32.365  36.021  29.908  1.00  0.00    -0.237 OA
ATOM     66  O   UNL A   1      33.904  36.411  28.022  1.00  0.00    -0.744 OA
ENDBRANCH  62  63
ENDBRANCH  43  57
BRANCH  44  67
ATOM     67  C   UNL A   1      43.959  28.605  35.909  1.00  0.00    -0.014 A 
ATOM     68  C   UNL A   1      43.783  27.543  36.810  1.00  0.00     0.010 A 
ATOM     69  C   UNL A   1      45.264  29.053  35.624  1.00  0.00     0.010 A 
ATOM     70  C   UNL A   1      44.888  26.943  37.421  1.00  0.00     0.020 A 
ATOM     71  C   UNL A   1      46.372  28.437  36.211  1.00  0.00     0.020 A 
ATOM     72  C   UNL A   1      46.177  27.394  37.116  1.00  0.00     0.054 A 
BRANCH  72  73
ATOM     73  S   UNL A   1      47.605  26.567  37.872  1.00  0.00     0.124 S 
ATOM     74  O   UNL A   1      48.620  26.711  36.834  1.00  0.00    -0.237 OA
ATOM     75  O   UNL A   1      47.823  27.352  39.085  1.00  0.00    -0.237 OA
ATOM     76  O   UNL A   1      47.126  25.205  38.100  1.00  0.00    -0.744 OA
ENDBRANCH  72  73
ENDBRANCH  44  67
BRANCH  56  77
ATOM     77  C   UNL A   1      39.950  34.124  37.381  1.00  0.00    -0.014 A 
ATOM     78  C   UNL A   1      40.575  35.381  37.324  1.00  0.00     0.010 A 
ATOM     79  C   UNL A   1      39.182  33.784  38.510  1.00  0.00     0.010 A 
ATOM     80  C   UNL A   1      40.438  36.282  38.381  1.00  0.00     0.020 A 
ATOM     81  C   UNL A   1      39.027  34.689  39.561  1.00  0.00     0.020 A 
ATOM     82  C   UNL A   1      39.660  35.933  39.491  1.00  0.00     0.054 A 
BRANCH  82  83
ATOM     83  S   UNL A   1      39.425  37.152  40.814  1.00  0.00     0.124 S 
ATOM     84  O   UNL A   1      40.798  37.567  41.092  1.00  0.00    -0.237 OA
ATOM     85  O   UNL A   1      38.581  38.160  40.177  1.00  0.00    -0.237 OA
ATOM     86  O   UNL A   1      38.777  36.387  41.877  1.00  0.00    -0.744 OA
ENDBRANCH  82  83
ENDBRANCH  56  77
ENDBRANCH  30  31
ENDBRANCH  23  25
ENDBRANCH  22  23
ENDBRANCH  21  22
ENDBRANCH   1  21
TORSDOF 17
ENDMDL
MODEL 3
REMARK VINA RESULT:      -9.8      5.378     12.539
REMARK SMILES Cc1noc(C)c1CNc1cnc(C(=O)OCCOC(=O)c2ccc(-c3c4nc(c(-c5ccc(S(=O)(=O)[O-])cc5)c5ccc([nH]5)c(-c5ccc(S(=O)(=O)[O-])cc5)c5nc(c(-c6ccc(S(=O)(=O)[O-])cc6)c6ccc3[nH]6)C=C5)C=C4)cc2)cn1
REMARK SMILES IDX 17 1 16 2 14 3 15 4 13 5 10 6 11 7 83 8 12 9 82 10 9 11 8 13
REMARK SMILES IDX 7 14 1 15 2 16 3 17 4 18 5 19 6 20 18 21 19 22 20 23 21 24
REMARK SMILES IDX 22 25 23 26 81 27 24 28 80 29 25 30 26 31 27 32 74 33 28 34
REMARK SMILES IDX 79 35 73 36 75 37 29 38 78 39 72 40 71 41 30 43 60 44 41 45
REMARK SMILES IDX 59 46 42 47 45 48 58 49 76 50 43 51 44 52 57 54 77 55 46 56
REMARK SMILES IDX 31 57 32 58 40 59 33 60 39 61 34 62 35 63 36 64 37 65 38 66
REMARK SMILES IDX 61 67 62 68 70 69 63 70 69 71 64 72 65 73 66 74 67 75 68 76
REMARK SMILES IDX 47 77 48 78 56 79 49 80 55 81 50 82 51 83 52 84 53 85 54 86
REMARK H PARENT 9 12 75 42 45 53
REMARK Flexibility Score: inf
ROOT
ATOM      1  C   UNL A   1      37.790  22.107  25.441  1.00  0.00     0.275 C 
ENDROOT
BRANCH   1   2
ATOM      2  O   UNL A   1      36.899  21.885  24.330  1.00  0.00    -0.457 OA
BRANCH   2   3
ATOM      3  C   UNL A   1      35.638  21.514  24.660  1.00  0.00     0.358 C 
ATOM      4  O   UNL A   1      35.329  20.688  25.509  1.00  0.00    -0.244 OA
BRANCH   3   5
ATOM      5  C   UNL A   1      34.622  22.293  23.919  1.00  0.00     0.166 A 
ATOM      6  C   UNL A   1      32.860  23.972  22.739  1.00  0.00     0.144 A 
ATOM      7  C   UNL A   1      32.473  22.748  23.298  1.00  0.00     0.158 A 
ATOM      8  N   UNL A   1      34.147  24.344  22.742  1.00  0.00    -0.235 NA
ATOM      9  N   UNL A   1      33.332  21.877  23.898  1.00  0.00    -0.244 NA
ATOM     10  C   UNL A   1      35.010  23.500  23.356  1.00  0.00     0.149 A 
BRANCH   6  11
ATOM     11  N   UNL A   1      31.993  24.907  22.217  1.00  0.00    -0.365 N 
ATOM     12  H   UNL A   1      31.451  24.708  21.420  1.00  0.00     0.162 HD
BRANCH  11  13
ATOM     13  C   UNL A   1      31.906  26.197  22.879  1.00  0.00     0.156 C 
BRANCH  13  14
ATOM     14  C   UNL A   1      31.335  26.171  24.256  1.00  0.00     0.037 A 
ATOM     15  C   UNL A   1      33.480  26.075  25.766  1.00  0.00     0.071 C 
ATOM     16  C   UNL A   1      32.021  26.100  25.503  1.00  0.00     0.086 A 
ATOM     17  N   UNL A   1      31.162  26.068  26.529  1.00  0.00    -0.085 NA
ATOM     18  O   UNL A   1      29.903  26.149  25.974  1.00  0.00    -0.361 OA
ATOM     19  C   UNL A   1      30.007  26.218  24.623  1.00  0.00     0.138 A 
ATOM     20  C   UNL A   1      28.740  26.328  23.876  1.00  0.00     0.091 C 
ENDBRANCH  13  14
ENDBRANCH  11  13
ENDBRANCH   6  11
ENDBRANCH   3   5
ENDBRANCH   2   3
ENDBRANCH   1   2
BRANCH   1  21
ATOM     21  C   UNL A   1      37.788  23.571  25.892  1.00  0.00     0.275 C 
BRANCH  21  22
ATOM     22  O   UNL A   1      38.801  23.830  26.883  1.00  0.00    -0.458 OA
BRANCH  22  23
ATOM     23  C   UNL A   1      39.760  24.705  26.506  1.00  0.00     0.338 C 
ATOM     24  O   UNL A   1      40.282  24.800  25.408  1.00  0.00    -0.246 OA
BRANCH  23  25
ATOM     25  C   UNL A   1      40.065  25.637  27.600  1.00  0.00     0.060 A 
ATOM     26  C   UNL A   1      39.233  25.642  28.716  1.00  0.00     0.016 A 
ATOM     27  C   UNL A   1      41.041  26.618  27.449  1.00  0.00     0.016 A 
ATOM     28  C   UNL A   1      39.285  26.691  29.627  1.00  0.00     0.010 A 
ATOM     29  C   UNL A   1      41.169  27.611  28.429  1.00  0.00     0.010 A 
ATOM     30  C   UNL A   1      40.268  27.680  29.510  1.00  0.00    -0.014 A 
BRANCH  30  31
ATOM     31  C   UNL A   1      40.356  28.790  30.501  1.00  0.00     0.031 A 
ATOM     32  C   UNL A   1      41.378  28.734  31.606  1.00  0.00     0.074 A 
ATOM     33  C   UNL A   1      39.508  29.837  30.432  1.00  0.00     0.049 A 
ATOM     34  N   UNL A   1      41.444  29.440  32.705  1.00  0.00    -0.248 NA
ATOM     35  C   UNL A   1      42.458  27.743  31.464  1.00  0.00     0.031 C 
ATOM     36  C   UNL A   1      38.508  30.060  29.383  1.00  0.00     0.029 A 
ATOM     37  N   UNL A   1      39.343  30.913  31.272  1.00  0.00    -0.354 N 
ATOM     38  C   UNL A   1      42.525  28.932  33.418  1.00  0.00     0.074 A 
ATOM     39  C   UNL A   1      43.097  27.869  32.621  1.00  0.00     0.031 C 
ATOM     40  C   UNL A   1      37.849  31.202  29.632  1.00  0.00     0.029 A 
ATOM     41  C   UNL A   1      38.307  31.741  30.906  1.00  0.00     0.049 A 
ATOM     42  H   UNL A   1      39.912  31.075  32.058  1.00  0.00     0.167 HD
ATOM     43  C   UNL A   1      42.984  29.310  34.635  1.00  0.00     0.031 A 
ATOM     44  C   UNL A   1      37.735  32.777  31.550  1.00  0.00     0.031 A 
ATOM     45  C   UNL A   1      42.441  30.404  35.395  1.00  0.00     0.049 A 
ATOM     46  C   UNL A   1      38.243  33.163  32.910  1.00  0.00     0.074 A 
ATOM     47  C   UNL A   1      42.843  30.874  36.634  1.00  0.00     0.029 A 
ATOM     48  N   UNL A   1      41.394  31.212  34.980  1.00  0.00    -0.354 N 
ATOM     49  N   UNL A   1      39.220  32.630  33.602  1.00  0.00    -0.248 NA
ATOM     50  C   UNL A   1      37.560  34.276  33.584  1.00  0.00     0.031 C 
ATOM     51  C   UNL A   1      42.015  31.945  36.984  1.00  0.00     0.029 A 
ATOM     52  C   UNL A   1      41.129  32.170  35.943  1.00  0.00     0.049 A 
ATOM     53  H   UNL A   1      40.910  31.117  34.128  1.00  0.00     0.167 HD
ATOM     54  C   UNL A   1      39.280  33.352  34.786  1.00  0.00     0.074 A 
ATOM     55  C   UNL A   1      38.249  34.367  34.714  1.00  0.00     0.031 C 
ATOM     56  C   UNL A   1      40.112  33.185  35.842  1.00  0.00     0.031 A 
BRANCH  43  57
ATOM     57  C   UNL A   1      44.100  28.508  35.251  1.00  0.00    -0.014 A 
ATOM     58  C   UNL A   1      43.847  27.370  36.036  1.00  0.00     0.010 A 
ATOM     59  C   UNL A   1      45.433  28.868  34.977  1.00  0.00     0.010 A 
ATOM     60  C   UNL A   1      44.907  26.623  36.558  1.00  0.00     0.020 A 
ATOM     61  C   UNL A   1      46.495  28.112  35.477  1.00  0.00     0.020 A 
ATOM     62  C   UNL A   1      46.226  26.999  36.277  1.00  0.00     0.054 A 
BRANCH  62  63
ATOM     63  S   UNL A   1      47.584  25.993  36.935  1.00  0.00     0.124 S 
ATOM     64  O   UNL A   1      48.743  26.579  36.267  1.00  0.00    -0.237 OA
ATOM     65  O   UNL A   1      47.498  26.233  38.373  1.00  0.00    -0.237 OA
ATOM     66  O   UNL A   1      47.245  24.635  36.513  1.00  0.00    -0.744 OA
ENDBRANCH  62  63
ENDBRANCH  43  57
BRANCH  44  67
ATOM     67  C   UNL A   1      36.562  33.466  30.944  1.00  0.00    -0.014 A 
ATOM     68  C   UNL A   1      35.382  33.659  31.680  1.00  0.00     0.010 A 
ATOM     69  C   UNL A   1      36.635  33.956  29.626  1.00  0.00     0.010 A 
ATOM     70  C   UNL A   1      34.292  34.321  31.108  1.00  0.00     0.020 A 
ATOM     71  C   UNL A   1      35.559  34.643  29.061  1.00  0.00     0.020 A 
ATOM     72  C   UNL A   1      34.389  34.812  29.802  1.00  0.00     0.054 A 
BRANCH  72  73
ATOM     73  S   UNL A   1      32.988  35.721  29.093  1.00  0.00     0.124 S 
ATOM     74  O   UNL A   1      32.390  34.719  28.216  1.00  0.00    -0.237 OA
ATOM     75  O   UNL A   1      32.205  36.076  30.274  1.00  0.00    -0.237 OA
ATOM     76  O   UNL A   1      33.624  36.849  28.415  1.00  0.00    -0.744 OA
ENDBRANCH  72  73
ENDBRANCH  44  67
BRANCH  56  77
ATOM     77  C   UNL A   1      39.985  34.148  36.987  1.00  0.00    -0.014 A 
ATOM     78  C   UNL A   1      40.644  35.390  36.967  1.00  0.00     0.010 A 
ATOM     79  C   UNL A   1      39.116  33.844  38.051  1.00  0.00     0.010 A 
ATOM     80  C   UNL A   1      40.439  36.310  37.997  1.00  0.00     0.020 A 
ATOM     81  C   UNL A   1      38.894  34.769  39.072  1.00  0.00     0.020 A 
ATOM     82  C   UNL A   1      39.561  35.996  39.041  1.00  0.00     0.054 A 
BRANCH  82  83
ATOM     83  S   UNL A   1      39.245  37.240  40.323  1.00  0.00     0.124 S 
ATOM     84  O   UNL A   1      38.505  36.469  41.319  1.00  0.00    -0.237 OA
ATOM     85  O   UNL A   1      40.592  37.646  40.716  1.00  0.00    -0.237 OA
ATOM     86  O   UNL A   1      38.471  38.264  39.626  1.00  0.00    -0.744 OA
ENDBRANCH  82  83
ENDBRANCH  56  77
ENDBRANCH  30  31
ENDBRANCH  23  25
ENDBRANCH  22  23
ENDBRANCH  21  22
ENDBRANCH   1  21
TORSDOF 17
ENDMDL
