MODEL 1
REMARK VINA RESULT:      -8.7      0.000      0.000
REMARK SMILES CC(C)[N@@H+](C)Cc1cc2c(cc1Cl)C=C(C(=O)OCCOC(=O)c1ccc(-c3c4nc(c(-c5ccc(S(=O)(=O)[O-])cc5)c5ccc([nH]5)c(-c5ccc(S(=O)(=O)[O-])cc5)c5nc(c(-c6ccc(S(=O)(=O)[O-])cc6)c6ccc3[nH]6)C=C5)C=C4)cc1)[C@@H](C(F)(F)F)O2
REMARK SMILES IDX 19 1 18 2 16 3 17 4 15 5 7 6 8 7 12 8 9 9 11 10 13 11 10 12
REMARK SMILES IDX 89 13 14 14 84 15 6 16 4 17 5 18 2 20 1 21 3 22 85 23 86 24
REMARK SMILES IDX 87 25 88 26 20 27 21 28 22 29 23 30 24 31 25 32 83 33 26 34
REMARK SMILES IDX 82 35 27 36 28 37 29 38 76 39 30 40 81 41 75 42 77 43 31 44
REMARK SMILES IDX 80 45 74 46 73 47 32 49 62 50 43 51 61 52 44 53 47 54 60 55
REMARK SMILES IDX 78 56 45 57 46 58 59 60 79 61 48 62 33 63 34 64 42 65 35 66
REMARK SMILES IDX 41 67 36 68 37 69 38 70 39 71 40 72 63 73 64 74 72 75 65 76
REMARK SMILES IDX 71 77 66 78 67 79 68 80 69 81 70 82 49 83 50 84 58 85 51 86
REMARK SMILES IDX 57 87 52 88 53 89 54 90 55 91 56 92
REMARK H PARENT 4 19 77 48 47 59
REMARK Flexibility Score: inf
ROOT
ATOM      1  C   UNL A   1      34.112  34.184  29.201  1.00  0.00     0.275 C 
ENDROOT
BRANCH   1   2
ATOM      2  O   UNL A   1      34.765  33.451  30.261  1.00  0.00    -0.459 OA
BRANCH   2   3
ATOM      3  C   UNL A   1      34.807  34.074  31.462  1.00  0.00     0.338 C 
ATOM      4  O   UNL A   1      33.858  34.328  32.186  1.00  0.00    -0.246 OA
BRANCH   3   5
ATOM      5  C   UNL A   1      36.203  34.355  31.840  1.00  0.00     0.087 C 
ATOM      6  C   UNL A   1      41.226  34.431  31.834  1.00  0.00     0.029 A 
ATOM      7  C   UNL A   1      40.241  34.605  32.834  1.00  0.00     0.058 A 
ATOM      8  C   UNL A   1      40.817  34.454  30.493  1.00  0.00     0.050 A 
ATOM      9  C   UNL A   1      38.883  34.615  32.517  1.00  0.00     0.128 A 
ATOM     10  C   UNL A   1      39.462  34.438  30.176  1.00  0.00     0.033 A 
ATOM     11  Cl  UNL A   1      41.921  34.538  29.168  1.00  0.00    -0.084 Cl
ATOM     12  C   UNL A   1      38.505  34.465  31.193  1.00  0.00     0.019 A 
ATOM     13  O   UNL A   1      37.994  34.726  33.550  1.00  0.00    -0.475 OA
ATOM     14  C   UNL A   1      37.113  34.272  30.869  1.00  0.00     0.027 C 
ATOM     15  C   UNL A   1      36.561  34.625  33.272  1.00  0.00     0.316 C 
BRANCH   6  16
ATOM     16  C   UNL A   1      42.658  34.183  32.253  1.00  0.00     0.300 C 
BRANCH  16  17
ATOM     17  N   UNL A   1      43.529  35.358  32.428  1.00  0.00    -0.332 N 
ATOM     18  C   UNL A   1      44.773  35.307  31.666  1.00  0.00     0.333 C 
ATOM     19  H   UNL A   1      42.908  36.045  32.000  1.00  0.00     0.348 HD
BRANCH  17  20
ATOM     20  C   UNL A   1      43.705  35.964  33.757  1.00  0.00     0.177 C 
ATOM     21  C   UNL A   1      45.168  36.317  34.038  1.00  0.00     0.075 C 
ATOM     22  C   UNL A   1      42.786  37.137  34.118  1.00  0.00     0.075 C 
ENDBRANCH  17  20
ENDBRANCH  16  17
ENDBRANCH   6  16
BRANCH  15  23
ATOM     23  C   UNL A   1      35.975  33.561  34.215  1.00  0.00     0.430 C 
ATOM     24  F   UNL A   1      35.697  32.415  33.547  1.00  0.00    -0.167 F 
ATOM     25  F   UNL A   1      36.845  33.226  35.199  1.00  0.00    -0.167 F 
ATOM     26  F   UNL A   1      34.832  33.972  34.806  1.00  0.00    -0.167 F 
ENDBRANCH  15  23
ENDBRANCH   3   5
ENDBRANCH   2   3
ENDBRANCH   1   2
BRANCH   1  27
ATOM     27  C   UNL A   1      33.673  33.249  28.074  1.00  0.00     0.275 C 
BRANCH  27  28
ATOM     28  O   UNL A   1      33.682  31.882  28.520  1.00  0.00    -0.458 OA
BRANCH  28  29
ATOM     29  C   UNL A   1      34.239  30.995  27.666  1.00  0.00     0.338 C 
ATOM     30  O   UNL A   1      33.796  30.619  26.594  1.00  0.00    -0.246 OA
BRANCH  29  31
ATOM     31  C   UNL A   1      35.562  30.597  28.167  1.00  0.00     0.060 A 
ATOM     32  C   UNL A   1      36.657  31.449  28.100  1.00  0.00     0.016 A 
ATOM     33  C   UNL A   1      35.658  29.399  28.862  1.00  0.00     0.016 A 
ATOM     34  C   UNL A   1      37.852  31.073  28.730  1.00  0.00     0.010 A 
ATOM     35  C   UNL A   1      36.774  29.127  29.644  1.00  0.00     0.010 A 
ATOM     36  C   UNL A   1      37.915  29.927  29.550  1.00  0.00    -0.014 A 
BRANCH  36  37
ATOM     37  C   UNL A   1      39.162  29.525  30.273  1.00  0.00     0.031 A 
ATOM     38  C   UNL A   1      40.078  28.465  29.690  1.00  0.00     0.074 A 
ATOM     39  C   UNL A   1      39.465  30.073  31.468  1.00  0.00     0.049 A 
ATOM     40  N   UNL A   1      41.169  27.949  30.198  1.00  0.00    -0.248 NA
ATOM     41  C   UNL A   1      39.702  27.873  28.392  1.00  0.00     0.031 C 
ATOM     42  C   UNL A   1      38.642  31.052  32.184  1.00  0.00     0.029 A 
ATOM     43  N   UNL A   1      40.555  29.903  32.290  1.00  0.00    -0.354 N 
ATOM     44  C   UNL A   1      41.576  26.961  29.306  1.00  0.00     0.074 A 
ATOM     45  C   UNL A   1      40.576  26.886  28.270  1.00  0.00     0.031 C 
ATOM     46  C   UNL A   1      39.292  31.457  33.285  1.00  0.00     0.029 A 
ATOM     47  C   UNL A   1      40.550  30.723  33.398  1.00  0.00     0.049 A 
ATOM     48  H   UNL A   1      41.273  29.255  32.105  1.00  0.00     0.167 HD
ATOM     49  C   UNL A   1      42.707  26.218  29.311  1.00  0.00     0.031 A 
ATOM     50  C   UNL A   1      41.452  30.883  34.388  1.00  0.00     0.031 A 
ATOM     51  C   UNL A   1      43.745  26.354  30.295  1.00  0.00     0.049 A 
ATOM     52  C   UNL A   1      42.721  30.075  34.360  1.00  0.00     0.074 A 
ATOM     53  C   UNL A   1      44.968  25.709  30.341  1.00  0.00     0.029 A 
ATOM     54  N   UNL A   1      43.697  27.207  31.388  1.00  0.00    -0.354 N 
ATOM     55  N   UNL A   1      43.110  29.194  33.470  1.00  0.00    -0.248 NA
ATOM     56  C   UNL A   1      43.676  30.284  35.458  1.00  0.00     0.031 C 
ATOM     57  C   UNL A   1      45.635  26.128  31.491  1.00  0.00     0.029 A 
ATOM     58  C   UNL A   1      44.862  27.089  32.123  1.00  0.00     0.049 A 
ATOM     59  H   UNL A   1      42.947  27.806  31.606  1.00  0.00     0.167 HD
ATOM     60  C   UNL A   1      44.361  28.757  33.889  1.00  0.00     0.074 A 
ATOM     61  C   UNL A   1      44.674  29.482  35.103  1.00  0.00     0.031 C 
ATOM     62  C   UNL A   1      45.172  27.832  33.320  1.00  0.00     0.031 A 
BRANCH  49  63
ATOM     63  C   UNL A   1      42.932  25.233  28.189  1.00  0.00    -0.014 A 
ATOM     64  C   UNL A   1      42.467  23.910  28.307  1.00  0.00     0.010 A 
ATOM     65  C   UNL A   1      43.711  25.581  27.070  1.00  0.00     0.010 A 
ATOM     66  C   UNL A   1      42.804  22.947  27.351  1.00  0.00     0.020 A 
ATOM     67  C   UNL A   1      44.020  24.632  26.092  1.00  0.00     0.020 A 
ATOM     68  C   UNL A   1      43.587  23.314  26.253  1.00  0.00     0.054 A 
BRANCH  68  69
ATOM     69  S   UNL A   1      44.048  22.047  25.039  1.00  0.00     0.124 S 
ATOM     70  O   UNL A   1      43.684  22.683  23.777  1.00  0.00    -0.237 OA
ATOM     71  O   UNL A   1      45.480  21.884  25.275  1.00  0.00    -0.237 OA
ATOM     72  O   UNL A   1      43.229  20.897  25.418  1.00  0.00    -0.744 OA
ENDBRANCH  68  69
ENDBRANCH  49  63
BRANCH  50  73
ATOM     73  C   UNL A   1      41.202  31.908  35.442  1.00  0.00    -0.014 A 
ATOM     74  C   UNL A   1      40.120  31.777  36.334  1.00  0.00     0.010 A 
ATOM     75  C   UNL A   1      41.986  33.075  35.494  1.00  0.00     0.010 A 
ATOM     76  C   UNL A   1      39.786  32.817  37.206  1.00  0.00     0.020 A 
ATOM     77  C   UNL A   1      41.675  34.106  36.388  1.00  0.00     0.020 A 
ATOM     78  C   UNL A   1      40.557  33.983  37.214  1.00  0.00     0.054 A 
BRANCH  78  79
ATOM     79  S   UNL A   1      40.060  35.350  38.301  1.00  0.00     0.124 S 
ATOM     80  O   UNL A   1      39.605  36.348  37.336  1.00  0.00    -0.237 OA
ATOM     81  O   UNL A   1      39.014  34.743  39.120  1.00  0.00    -0.237 OA
ATOM     82  O   UNL A   1      41.290  35.686  39.014  1.00  0.00    -0.744 OA
ENDBRANCH  78  79
ENDBRANCH  50  73
BRANCH  62  83
ATOM     83  C   UNL A   1      46.493  27.526  33.972  1.00  0.00    -0.014 A 
ATOM     84  C   UNL A   1      47.676  28.066  33.431  1.00  0.00     0.010 A 
ATOM     85  C   UNL A   1      46.582  26.551  34.980  1.00  0.00     0.010 A 
ATOM     86  C   UNL A   1      48.924  27.590  33.837  1.00  0.00     0.020 A 
ATOM     87  C   UNL A   1      47.831  26.093  35.411  1.00  0.00     0.020 A 
ATOM     88  C   UNL A   1      48.991  26.591  34.812  1.00  0.00     0.054 A 
BRANCH  88  89
ATOM     89  S   UNL A   1      50.615  25.917  35.257  1.00  0.00     0.124 S 
ATOM     90  O   UNL A   1      51.444  27.119  35.305  1.00  0.00    -0.237 OA
ATOM     91  O   UNL A   1      50.354  25.280  36.545  1.00  0.00    -0.237 OA
ATOM     92  O   UNL A   1      50.916  24.996  34.164  1.00  0.00    -0.744 OA
ENDBRANCH  88  89
ENDBRANCH  62  83
ENDBRANCH  36  37
ENDBRANCH  29  31
ENDBRANCH  28  29
ENDBRANCH  27  28
ENDBRANCH   1  27
TORSDOF 18
ENDMDL
MODEL 2
REMARK VINA RESULT:      -8.3      7.230     12.125
REMARK SMILES CC(C)[N@@H+](C)Cc1cc2c(cc1Cl)C=C(C(=O)OCCOC(=O)c1ccc(-c3c4nc(c(-c5ccc(S(=O)(=O)[O-])cc5)c5ccc([nH]5)c(-c5ccc(S(=O)(=O)[O-])cc5)c5nc(c(-c6ccc(S(=O)(=O)[O-])cc6)c6ccc3[nH]6)C=C5)C=C4)cc1)[C@@H](C(F)(F)F)O2
REMARK SMILES IDX 19 1 18 2 16 3 17 4 15 5 7 6 8 7 12 8 9 9 11 10 13 11 10 12
REMARK SMILES IDX 89 13 14 14 84 15 6 16 4 17 5 18 2 20 1 21 3 22 85 23 86 24
REMARK SMILES IDX 87 25 88 26 20 27 21 28 22 29 23 30 24 31 25 32 83 33 26 34
REMARK SMILES IDX 82 35 27 36 28 37 29 38 76 39 30 40 81 41 75 42 77 43 31 44
REMARK SMILES IDX 80 45 74 46 73 47 32 49 62 50 43 51 61 52 44 53 47 54 60 55
REMARK SMILES IDX 78 56 45 57 46 58 59 60 79 61 48 62 33 63 34 64 42 65 35 66
REMARK SMILES IDX 41 67 36 68 37 69 38 70 39 71 40 72 63 73 64 74 72 75 65 76
REMARK SMILES IDX 71 77 66 78 67 79 68 80 69 81 70 82 49 83 50 84 58 85 51 86
REMARK SMILES IDX 57 87 52 88 53 89 54 90 55 91 56 92
REMARK H PARENT 4 19 77 48 47 59
REMARK Flexibility Score: inf
ROOT
ATOM      1  C   UNL A   1      45.758  39.753  30.885  1.00  0.00     0.275 C 
ENDROOT
BRANCH   1   2
ATOM      2  O   UNL A   1      44.736  39.388  29.932  1.00  0.00    -0.459 OA
BRANCH   2   3
ATOM      3  C   UNL A   1      43.812  40.342  29.671  1.00  0.00     0.338 C 
ATOM      4  O   UNL A   1      43.060  40.869  30.475  1.00  0.00    -0.246 OA
BRANCH   3   5
ATOM      5  C   UNL A   1      43.877  40.739  28.253  1.00  0.00     0.087 C 
ATOM      6  C   UNL A   1      44.221  43.531  24.092  1.00  0.00     0.029 A 
ATOM      7  C   UNL A   1      43.685  42.253  24.378  1.00  0.00     0.058 A 
ATOM      8  C   UNL A   1      45.043  44.133  25.054  1.00  0.00     0.050 A 
ATOM      9  C   UNL A   1      43.813  41.682  25.643  1.00  0.00     0.128 A 
ATOM     10  C   UNL A   1      45.151  43.578  26.326  1.00  0.00     0.033 A 
ATOM     11  Cl  UNL A   1      45.988  45.544  24.742  1.00  0.00    -0.084 Cl
ATOM     12  C   UNL A   1      44.491  42.384  26.627  1.00  0.00     0.019 A 
ATOM     13  O   UNL A   1      43.214  40.472  25.854  1.00  0.00    -0.475 OA
ATOM     14  C   UNL A   1      44.462  41.908  27.987  1.00  0.00     0.027 C 
ATOM     15  C   UNL A   1      43.226  39.894  27.198  1.00  0.00     0.316 C 
BRANCH   6  16
ATOM     16  C   UNL A   1      43.847  44.206  22.790  1.00  0.00     0.300 C 
BRANCH  16  17
ATOM     17  N   UNL A   1      44.097  43.464  21.543  1.00  0.00    -0.332 N 
ATOM     18  C   UNL A   1      45.357  43.796  20.885  1.00  0.00     0.333 C 
ATOM     19  H   UNL A   1      44.175  42.536  21.958  1.00  0.00     0.348 HD
BRANCH  17  20
ATOM     20  C   UNL A   1      43.006  43.227  20.586  1.00  0.00     0.177 C 
ATOM     21  C   UNL A   1      41.660  43.024  21.286  1.00  0.00     0.075 C 
ATOM     22  C   UNL A   1      42.867  44.218  19.423  1.00  0.00     0.075 C 
ENDBRANCH  17  20
ENDBRANCH  16  17
ENDBRANCH   6  16
BRANCH  15  23
ATOM     23  C   UNL A   1      41.776  39.540  27.569  1.00  0.00     0.430 C 
ATOM     24  F   UNL A   1      41.069  39.166  26.474  1.00  0.00    -0.167 F 
ATOM     25  F   UNL A   1      41.716  38.499  28.434  1.00  0.00    -0.167 F 
ATOM     26  F   UNL A   1      41.123  40.578  28.137  1.00  0.00    -0.167 F 
ENDBRANCH  15  23
ENDBRANCH   3   5
ENDBRANCH   2   3
ENDBRANCH   1   2
BRANCH   1  27
ATOM     27  C   UNL A   1      46.936  38.780  30.830  1.00  0.00     0.275 C 
BRANCH  27  28
ATOM     28  O   UNL A   1      46.538  37.540  30.219  1.00  0.00    -0.458 OA
BRANCH  28  29
ATOM     29  C   UNL A   1      47.426  37.010  29.348  1.00  0.00     0.338 C 
ATOM     30  O   UNL A   1      48.482  37.493  28.979  1.00  0.00    -0.246 OA
BRANCH  29  31
ATOM     31  C   UNL A   1      46.985  35.662  28.959  1.00  0.00     0.060 A 
ATOM     32  C   UNL A   1      46.707  35.336  27.638  1.00  0.00     0.016 A 
ATOM     33  C   UNL A   1      47.005  34.670  29.930  1.00  0.00     0.016 A 
ATOM     34  C   UNL A   1      46.439  33.999  27.310  1.00  0.00     0.010 A 
ATOM     35  C   UNL A   1      46.934  33.330  29.567  1.00  0.00     0.010 A 
ATOM     36  C   UNL A   1      46.593  32.968  28.262  1.00  0.00    -0.014 A 
BRANCH  36  37
ATOM     37  C   UNL A   1      46.358  31.529  27.930  1.00  0.00     0.031 A 
ATOM     38  C   UNL A   1      44.975  30.924  28.072  1.00  0.00     0.074 A 
ATOM     39  C   UNL A   1      47.384  30.743  27.538  1.00  0.00     0.049 A 
ATOM     40  N   UNL A   1      44.593  29.686  27.885  1.00  0.00    -0.248 NA
ATOM     41  C   UNL A   1      43.884  31.809  28.523  1.00  0.00     0.031 C 
ATOM     42  C   UNL A   1      48.782  31.169  27.426  1.00  0.00     0.029 A 
ATOM     43  N   UNL A   1      47.414  29.426  27.144  1.00  0.00    -0.354 N 
ATOM     44  C   UNL A   1      43.244  29.645  28.229  1.00  0.00     0.074 A 
ATOM     45  C   UNL A   1      42.891  30.955  28.717  1.00  0.00     0.031 C 
ATOM     46  C   UNL A   1      49.510  30.167  26.912  1.00  0.00     0.029 A 
ATOM     47  C   UNL A   1      48.653  29.000  26.718  1.00  0.00     0.049 A 
ATOM     48  H   UNL A   1      46.622  28.840  27.163  1.00  0.00     0.167 HD
ATOM     49  C   UNL A   1      42.360  28.629  28.102  1.00  0.00     0.031 A 
ATOM     50  C   UNL A   1      49.061  27.816  26.217  1.00  0.00     0.031 A 
ATOM     51  C   UNL A   1      42.692  27.351  27.534  1.00  0.00     0.049 A 
ATOM     52  C   UNL A   1      48.057  26.707  26.047  1.00  0.00     0.074 A 
ATOM     53  C   UNL A   1      41.847  26.285  27.281  1.00  0.00     0.029 A 
ATOM     54  N   UNL A   1      43.956  26.975  27.107  1.00  0.00    -0.354 N 
ATOM     55  N   UNL A   1      46.775  26.716  26.322  1.00  0.00    -0.248 NA
ATOM     56  C   UNL A   1      48.546  25.435  25.496  1.00  0.00     0.031 C 
ATOM     57  C   UNL A   1      42.611  25.243  26.756  1.00  0.00     0.029 A 
ATOM     58  C   UNL A   1      43.917  25.685  26.611  1.00  0.00     0.049 A 
ATOM     59  H   UNL A   1      44.760  27.542  27.150  1.00  0.00     0.167 HD
ATOM     60  C   UNL A   1      46.300  25.461  25.960  1.00  0.00     0.074 A 
ATOM     61  C   UNL A   1      47.427  24.722  25.430  1.00  0.00     0.031 C 
ATOM     62  C   UNL A   1      45.043  24.966  26.066  1.00  0.00     0.031 A 
BRANCH  49  63
ATOM     63  C   UNL A   1      40.926  28.860  28.516  1.00  0.00    -0.014 A 
ATOM     64  C   UNL A   1      39.943  29.115  27.542  1.00  0.00     0.010 A 
ATOM     65  C   UNL A   1      40.575  28.950  29.875  1.00  0.00     0.010 A 
ATOM     66  C   UNL A   1      38.648  29.487  27.916  1.00  0.00     0.020 A 
ATOM     67  C   UNL A   1      39.272  29.284  30.255  1.00  0.00     0.020 A 
ATOM     68  C   UNL A   1      38.324  29.578  29.273  1.00  0.00     0.054 A 
BRANCH  68  69
ATOM     69  S   UNL A   1      36.652  30.097  29.745  1.00  0.00     0.124 S 
ATOM     70  O   UNL A   1      35.901  29.873  28.514  1.00  0.00    -0.237 OA
ATOM     71  O   UNL A   1      36.337  29.196  30.851  1.00  0.00    -0.237 OA
ATOM     72  O   UNL A   1      36.824  31.499  30.126  1.00  0.00    -0.744 OA
ENDBRANCH  68  69
ENDBRANCH  49  63
BRANCH  50  73
ATOM     73  C   UNL A   1      50.478  27.661  25.776  1.00  0.00    -0.014 A 
ATOM     74  C   UNL A   1      50.833  27.818  24.423  1.00  0.00     0.010 A 
ATOM     75  C   UNL A   1      51.463  27.254  26.694  1.00  0.00     0.010 A 
ATOM     76  C   UNL A   1      52.124  27.507  23.985  1.00  0.00     0.020 A 
ATOM     77  C   UNL A   1      52.765  26.973  26.265  1.00  0.00     0.020 A 
ATOM     78  C   UNL A   1      53.077  27.068  24.909  1.00  0.00     0.054 A 
BRANCH  78  79
ATOM     79  S   UNL A   1      54.723  26.598  24.306  1.00  0.00     0.124 S 
ATOM     80  O   UNL A   1      55.571  27.611  24.931  1.00  0.00    -0.237 OA
ATOM     81  O   UNL A   1      54.878  25.241  24.823  1.00  0.00    -0.237 OA
ATOM     82  O   UNL A   1      54.598  26.698  22.854  1.00  0.00    -0.744 OA
ENDBRANCH  78  79
ENDBRANCH  50  73
BRANCH  62  83
ATOM     83  C   UNL A   1      44.775  23.560  25.602  1.00  0.00    -0.014 A 
ATOM     84  C   UNL A   1      45.015  22.483  26.478  1.00  0.00     0.010 A 
ATOM     85  C   UNL A   1      44.487  23.297  24.252  1.00  0.00     0.010 A 
ATOM     86  C   UNL A   1      45.039  21.172  25.998  1.00  0.00     0.020 A 
ATOM     87  C   UNL A   1      44.480  21.983  23.775  1.00  0.00     0.020 A 
ATOM     88  C   UNL A   1      44.790  20.933  24.644  1.00  0.00     0.054 A 
BRANCH  88  89
ATOM     89  S   UNL A   1      44.920  19.234  24.022  1.00  0.00     0.124 S 
ATOM     90  O   UNL A   1      46.332  18.934  24.241  1.00  0.00    -0.237 OA
ATOM     91  O   UNL A   1      43.982  18.509  24.874  1.00  0.00    -0.237 OA
ATOM     92  O   UNL A   1      44.517  19.350  22.622  1.00  0.00    -0.744 OA
ENDBRANCH  88  89
ENDBRANCH  62  83
ENDBRANCH  36  37
ENDBRANCH  29  31
ENDBRANCH  28  29
ENDBRANCH  27  28
ENDBRANCH   1  27
TORSDOF 18
ENDMDL
MODEL 3
REMARK VINA RESULT:      -8.1      9.972     13.133
REMARK SMILES CC(C)[N@@H+](C)Cc1cc2c(cc1Cl)C=C(C(=O)OCCOC(=O)c1ccc(-c3c4nc(c(-c5ccc(S(=O)(=O)[O-])cc5)c5ccc([nH]5)c(-c5ccc(S(=O)(=O)[O-])cc5)c5nc(c(-c6ccc(S(=O)(=O)[O-])cc6)c6ccc3[nH]6)C=C5)C=C4)cc1)[C@@H](C(F)(F)F)O2
REMARK SMILES IDX 19 1 18 2 16 3 17 4 15 5 7 6 8 7 12 8 9 9 11 10 13 11 10 12
REMARK SMILES IDX 89 13 14 14 84 15 6 16 4 17 5 18 2 20 1 21 3 22 85 23 86 24
REMARK SMILES IDX 87 25 88 26 20 27 21 28 22 29 23 30 24 31 25 32 83 33 26 34
REMARK SMILES IDX 82 35 27 36 28 37 29 38 76 39 30 40 81 41 75 42 77 43 31 44
REMARK SMILES IDX 80 45 74 46 73 47 32 49 62 50 43 51 61 52 44 53 47 54 60 55
REMARK SMILES IDX 78 56 45 57 46 58 59 60 79 61 48 62 33 63 34 64 42 65 35 66
REMARK SMILES IDX 41 67 36 68 37 69 38 70 39 71 40 72 63 73 64 74 72 75 65 76
REMARK SMILES IDX 71 77 66 78 67 79 68 80 69 81 70 82 49 83 50 84 58 85 51 86
REMARK SMILES IDX 57 87 52 88 53 89 54 90 55 91 56 92
REMARK H PARENT 4 19 77 48 47 59
REMARK Flexibility Score: inf
ROOT
ATOM      1  C   UNL A   1      42.522  39.985  26.514  1.00  0.00     0.275 C 
ENDROOT
BRANCH   1   2
ATOM      2  O   UNL A   1      43.202  40.574  25.384  1.00  0.00    -0.459 OA
BRANCH   2   3
ATOM      3  C   UNL A   1      43.698  41.817  25.584  1.00  0.00     0.338 C 
ATOM      4  O   UNL A   1      44.038  42.305  26.651  1.00  0.00    -0.246 OA
BRANCH   3   5
ATOM      5  C   UNL A   1      43.855  42.516  24.297  1.00  0.00     0.087 C 
ATOM      6  C   UNL A   1      43.279  43.839  19.485  1.00  0.00     0.029 A 
ATOM      7  C   UNL A   1      44.326  43.982  20.426  1.00  0.00     0.058 A 
ATOM      8  C   UNL A   1      42.015  43.457  19.956  1.00  0.00     0.050 A 
ATOM      9  C   UNL A   1      44.166  43.582  21.752  1.00  0.00     0.128 A 
ATOM     10  C   UNL A   1      41.859  43.033  21.272  1.00  0.00     0.033 A 
ATOM     11  Cl  UNL A   1      40.587  43.514  18.986  1.00  0.00    -0.084 Cl
ATOM     12  C   UNL A   1      42.949  43.048  22.146  1.00  0.00     0.019 A 
ATOM     13  O   UNL A   1      45.245  43.697  22.582  1.00  0.00    -0.475 OA
ATOM     14  C   UNL A   1      42.827  42.446  23.450  1.00  0.00     0.027 C 
ATOM     15  C   UNL A   1      45.154  43.182  23.948  1.00  0.00     0.316 C 
BRANCH   6  16
ATOM     16  C   UNL A   1      43.579  44.058  18.018  1.00  0.00     0.300 C 
BRANCH  16  17
ATOM     17  N   UNL A   1      43.149  45.332  17.418  1.00  0.00    -0.332 N 
ATOM     18  C   UNL A   1      42.129  45.198  16.382  1.00  0.00     0.333 C 
ATOM     19  H   UNL A   1      42.720  45.730  18.254  1.00  0.00     0.348 HD
BRANCH  17  20
ATOM     20  C   UNL A   1      44.134  46.380  17.109  1.00  0.00     0.177 C 
ATOM     21  C   UNL A   1      43.663  47.763  17.565  1.00  0.00     0.075 C 
ATOM     22  C   UNL A   1      45.583  46.130  17.547  1.00  0.00     0.075 C 
ENDBRANCH  17  20
ENDBRANCH  16  17
ENDBRANCH   6  16
BRANCH  15  23
ATOM     23  C   UNL A   1      46.352  42.245  24.176  1.00  0.00     0.430 C 
ATOM     24  F   UNL A   1      46.880  42.417  25.413  1.00  0.00    -0.167 F 
ATOM     25  F   UNL A   1      45.995  40.941  24.094  1.00  0.00    -0.167 F 
ATOM     26  F   UNL A   1      47.343  42.453  23.281  1.00  0.00    -0.167 F 
ENDBRANCH  15  23
ENDBRANCH   3   5
ENDBRANCH   2   3
ENDBRANCH   1   2
BRANCH   1  27
ATOM     27  C   UNL A   1      43.162  38.654  26.910  1.00  0.00     0.275 C 
BRANCH  27  28
ATOM     28  O   UNL A   1      42.320  37.554  26.524  1.00  0.00    -0.458 OA
BRANCH  28  29
ATOM     29  C   UNL A   1      42.114  36.618  27.477  1.00  0.00     0.338 C 
ATOM     30  O   UNL A   1      41.289  36.641  28.374  1.00  0.00    -0.246 OA
BRANCH  29  31
ATOM     31  C   UNL A   1      42.984  35.460  27.222  1.00  0.00     0.060 A 
ATOM     32  C   UNL A   1      43.367  35.102  25.935  1.00  0.00     0.016 A 
ATOM     33  C   UNL A   1      43.550  34.822  28.317  1.00  0.00     0.016 A 
ATOM     34  C   UNL A   1      44.317  34.085  25.767  1.00  0.00     0.010 A 
ATOM     35  C   UNL A   1      44.627  33.960  28.149  1.00  0.00     0.010 A 
ATOM     36  C   UNL A   1      44.996  33.529  26.873  1.00  0.00    -0.014 A 
BRANCH  36  37
ATOM     37  C   UNL A   1      46.047  32.476  26.722  1.00  0.00     0.031 A 
ATOM     38  C   UNL A   1      47.514  32.858  26.669  1.00  0.00     0.074 A 
ATOM     39  C   UNL A   1      45.699  31.178  26.591  1.00  0.00     0.049 A 
ATOM     40  N   UNL A   1      48.560  32.092  26.486  1.00  0.00    -0.248 NA
ATOM     41  C   UNL A   1      47.853  34.289  26.792  1.00  0.00     0.031 C 
ATOM     42  C   UNL A   1      44.325  30.670  26.552  1.00  0.00     0.029 A 
ATOM     43  N   UNL A   1      46.468  30.043  26.485  1.00  0.00    -0.354 N 
ATOM     44  C   UNL A   1      49.657  32.947  26.437  1.00  0.00     0.074 A 
ATOM     45  C   UNL A   1      49.150  34.294  26.523  1.00  0.00     0.031 C 
ATOM     46  C   UNL A   1      44.350  29.329  26.519  1.00  0.00     0.029 A 
ATOM     47  C   UNL A   1      45.737  28.875  26.467  1.00  0.00     0.049 A 
ATOM     48  H   UNL A   1      47.451  30.062  26.427  1.00  0.00     0.167 HD
ATOM     49  C   UNL A   1      50.975  32.645  26.383  1.00  0.00     0.031 A 
ATOM     50  C   UNL A   1      46.127  27.584  26.426  1.00  0.00     0.031 A 
ATOM     51  C   UNL A   1      51.484  31.301  26.386  1.00  0.00     0.049 A 
ATOM     52  C   UNL A   1      47.597  27.263  26.403  1.00  0.00     0.074 A 
ATOM     53  C   UNL A   1      52.804  30.889  26.420  1.00  0.00     0.029 A 
ATOM     54  N   UNL A   1      50.703  30.155  26.381  1.00  0.00    -0.354 N 
ATOM     55  N   UNL A   1      48.615  28.090  26.421  1.00  0.00    -0.248 NA
ATOM     56  C   UNL A   1      47.975  25.843  26.360  1.00  0.00     0.031 C 
ATOM     57  C   UNL A   1      52.824  29.495  26.377  1.00  0.00     0.029 A 
ATOM     58  C   UNL A   1      51.516  29.036  26.392  1.00  0.00     0.049 A 
ATOM     59  H   UNL A   1      49.719  30.141  26.373  1.00  0.00     0.167 HD
ATOM     60  C   UNL A   1      49.753  27.292  26.413  1.00  0.00     0.074 A 
ATOM     61  C   UNL A   1      49.301  25.916  26.404  1.00  0.00     0.031 C 
ATOM     62  C   UNL A   1      51.054  27.670  26.405  1.00  0.00     0.031 A 
BRANCH  49  63
ATOM     63  C   UNL A   1      51.978  33.773  26.384  1.00  0.00    -0.014 A 
ATOM     64  C   UNL A   1      52.388  34.352  27.599  1.00  0.00     0.010 A 
ATOM     65  C   UNL A   1      52.420  34.346  25.177  1.00  0.00     0.010 A 
ATOM     66  C   UNL A   1      53.190  35.497  27.609  1.00  0.00     0.020 A 
ATOM     67  C   UNL A   1      53.253  35.468  25.181  1.00  0.00     0.020 A 
ATOM     68  C   UNL A   1      53.610  36.053  26.398  1.00  0.00     0.054 A 
BRANCH  68  69
ATOM     69  S   UNL A   1      54.619  37.560  26.424  1.00  0.00     0.124 S 
ATOM     70  O   UNL A   1      55.946  37.047  26.099  1.00  0.00    -0.237 OA
ATOM     71  O   UNL A   1      53.990  38.384  25.395  1.00  0.00    -0.237 OA
ATOM     72  O   UNL A   1      54.458  38.056  27.790  1.00  0.00    -0.744 OA
ENDBRANCH  68  69
ENDBRANCH  49  63
BRANCH  50  73
ATOM     73  C   UNL A   1      45.094  26.509  26.480  1.00  0.00    -0.014 A 
ATOM     74  C   UNL A   1      44.688  25.960  27.711  1.00  0.00     0.010 A 
ATOM     75  C   UNL A   1      44.584  25.958  25.290  1.00  0.00     0.010 A 
ATOM     76  C   UNL A   1      43.850  24.841  27.750  1.00  0.00     0.020 A 
ATOM     77  C   UNL A   1      43.719  24.859  25.325  1.00  0.00     0.020 A 
ATOM     78  C   UNL A   1      43.385  24.287  26.554  1.00  0.00     0.054 A 
BRANCH  78  79
ATOM     79  S   UNL A   1      42.361  22.790  26.626  1.00  0.00     0.124 S 
ATOM     80  O   UNL A   1      41.023  23.352  26.795  1.00  0.00    -0.237 OA
ATOM     81  O   UNL A   1      42.621  22.161  25.334  1.00  0.00    -0.237 OA
ATOM     82  O   UNL A   1      42.887  22.070  27.784  1.00  0.00    -0.744 OA
ENDBRANCH  78  79
ENDBRANCH  50  73
BRANCH  62  83
ATOM     83  C   UNL A   1      52.119  26.606  26.392  1.00  0.00    -0.014 A 
ATOM     84  C   UNL A   1      52.862  26.354  27.563  1.00  0.00     0.010 A 
ATOM     85  C   UNL A   1      52.517  26.010  25.184  1.00  0.00     0.010 A 
ATOM     86  C   UNL A   1      54.022  25.580  27.512  1.00  0.00     0.020 A 
ATOM     87  C   UNL A   1      53.662  25.209  25.136  1.00  0.00     0.020 A 
ATOM     88  C   UNL A   1      54.426  25.029  26.293  1.00  0.00     0.054 A 
BRANCH  88  89
ATOM     89  S   UNL A   1      55.986  24.107  26.228  1.00  0.00     0.124 S 
ATOM     90  O   UNL A   1      56.707  24.642  27.380  1.00  0.00    -0.237 OA
ATOM     91  O   UNL A   1      55.544  22.721  26.349  1.00  0.00    -0.237 OA
ATOM     92  O   UNL A   1      56.542  24.464  24.925  1.00  0.00    -0.744 OA
ENDBRANCH  88  89
ENDBRANCH  62  83
ENDBRANCH  36  37
ENDBRANCH  29  31
ENDBRANCH  28  29
ENDBRANCH  27  28
ENDBRANCH   1  27
TORSDOF 18
ENDMDL
