MODEL 1
REMARK VINA RESULT:     -11.7      0.000      0.000
REMARK SMILES Cc1cc2nc(SCC(=O)OCCOC(=O)c3ccc(-c4c5nc(c(-c6ccc(S(=O)(=O)[O-])cc6)c6ccc([nH]6)c(-c6ccc(S(=O)(=O)[O-])cc6)c6nc(c(-c7ccc(S(=O)(=O)[O-])cc7)c7ccc4[nH]7)C=C6)C=C5)cc3)n(CC(C)C)c(=O)c2[nH]1
REMARK SMILES IDX 12 1 11 2 9 3 10 4 8 5 7 6 6 7 1 8 2 9 3 10 85 11 4 12 84 13
REMARK SMILES IDX 5 15 82 16 77 17 83 18 78 19 79 20 80 21 81 22 13 23 14 24
REMARK SMILES IDX 15 25 16 26 17 27 18 28 76 29 19 30 75 31 20 32 21 33 22 34
REMARK SMILES IDX 69 35 23 36 74 37 68 38 70 39 24 40 73 41 67 42 66 43 25 45
REMARK SMILES IDX 55 46 36 47 54 48 37 49 40 50 53 51 71 52 38 53 39 54 52 56
REMARK SMILES IDX 72 57 41 58 26 59 27 60 35 61 28 62 34 63 29 64 30 65 31 66
REMARK SMILES IDX 32 67 33 68 56 69 57 70 65 71 58 72 64 73 59 74 60 75 61 76
REMARK SMILES IDX 62 77 63 78 42 79 43 80 51 81 44 82 50 83 45 84 46 85 47 86
REMARK SMILES IDX 48 87 49 88
REMARK H PARENT 85 14 70 44 40 55
REMARK Flexibility Score: inf
ROOT
ATOM      1  C   UNL A   1      33.927  21.524  26.768  1.00  0.00     0.274 C 
ENDROOT
BRANCH   1   2
ATOM      2  O   UNL A   1      32.892  22.189  26.039  1.00  0.00    -0.461 OA
BRANCH   2   3
ATOM      3  C   UNL A   1      32.146  23.046  26.781  1.00  0.00     0.316 C 
ATOM      4  O   UNL A   1      31.349  22.639  27.616  1.00  0.00    -0.251 OA
BRANCH   3   5
ATOM      5  C   UNL A   1      32.427  24.520  26.442  1.00  0.00     0.200 C 
BRANCH   5   6
ATOM      6  S   UNL A   1      32.204  24.834  24.652  1.00  0.00    -0.076 SA
BRANCH   6   7
ATOM      7  C   UNL A   1      31.632  26.480  24.483  1.00  0.00     0.172 A 
ATOM      8  C   UNL A   1      29.178  30.689  21.477  1.00  0.00     0.064 C 
ATOM      9  C   UNL A   1      29.420  29.754  22.602  1.00  0.00     0.014 A 
ATOM     10  C   UNL A   1      29.031  28.448  22.923  1.00  0.00     0.052 A 
ATOM     11  N   UNL A   1      30.371  30.104  23.530  1.00  0.00    -0.353 N 
ATOM     12  C   UNL A   1      30.032  27.948  23.804  1.00  0.00     0.097 A 
ATOM     13  C   UNL A   1      30.975  28.924  23.815  1.00  0.00     0.131 A 
ATOM     14  H   UNL A   1      30.567  30.996  23.899  1.00  0.00     0.166 HD
ATOM     15  N   UNL A   1      30.375  26.627  24.140  1.00  0.00    -0.222 NA
ATOM     16  C   UNL A   1      32.341  28.600  23.754  1.00  0.00     0.278 A 
ATOM     17  N   UNL A   1      32.641  27.465  24.450  1.00  0.00    -0.286 N 
ATOM     18  O   UNL A   1      33.136  29.173  23.027  1.00  0.00    -0.267 OA
BRANCH  17  19
ATOM     19  C   UNL A   1      33.741  27.672  25.397  1.00  0.00     0.131 C 
BRANCH  19  20
ATOM     20  C   UNL A   1      33.603  28.261  26.849  1.00  0.00     0.003 C 
ATOM     21  C   UNL A   1      34.003  29.736  26.991  1.00  0.00     0.009 C 
ATOM     22  C   UNL A   1      32.154  28.312  27.414  1.00  0.00     0.009 C 
ENDBRANCH  19  20
ENDBRANCH  17  19
ENDBRANCH   6   7
ENDBRANCH   5   6
ENDBRANCH   3   5
ENDBRANCH   2   3
ENDBRANCH   1   2
BRANCH   1  23
ATOM     23  C   UNL A   1      35.315  21.773  26.163  1.00  0.00     0.275 C 
BRANCH  23  24
ATOM     24  O   UNL A   1      35.955  20.895  25.151  1.00  0.00    -0.458 OA
BRANCH  24  25
ATOM     25  C   UNL A   1      37.303  20.640  25.030  1.00  0.00     0.338 C 
ATOM     26  O   UNL A   1      37.714  19.595  24.547  1.00  0.00    -0.246 OA
BRANCH  25  27
ATOM     27  C   UNL A   1      38.329  21.676  25.521  1.00  0.00     0.060 A 
ATOM     28  C   UNL A   1      39.548  21.212  26.068  1.00  0.00     0.016 A 
ATOM     29  C   UNL A   1      38.100  23.047  25.629  1.00  0.00     0.016 A 
ATOM     30  C   UNL A   1      40.374  22.037  26.891  1.00  0.00     0.010 A 
ATOM     31  C   UNL A   1      38.908  23.862  26.481  1.00  0.00     0.010 A 
ATOM     32  C   UNL A   1      40.006  23.356  27.212  1.00  0.00    -0.014 A 
BRANCH  32  33
ATOM     33  C   UNL A   1      40.908  24.243  28.038  1.00  0.00     0.031 A 
ATOM     34  C   UNL A   1      40.295  25.578  28.157  1.00  0.00     0.074 A 
ATOM     35  C   UNL A   1      42.033  24.092  28.800  1.00  0.00     0.049 A 
ATOM     36  N   UNL A   1      40.515  26.604  27.408  1.00  0.00    -0.248 NA
ATOM     37  C   UNL A   1      39.164  25.708  29.086  1.00  0.00     0.031 C 
ATOM     38  C   UNL A   1      42.678  22.862  29.221  1.00  0.00     0.029 A 
ATOM     39  N   UNL A   1      42.837  25.034  29.433  1.00  0.00    -0.354 N 
ATOM     40  C   UNL A   1      39.672  27.579  27.912  1.00  0.00     0.074 A 
ATOM     41  C   UNL A   1      38.692  26.898  28.723  1.00  0.00     0.031 C 
ATOM     42  C   UNL A   1      43.667  23.090  30.112  1.00  0.00     0.029 A 
ATOM     43  C   UNL A   1      43.794  24.516  30.329  1.00  0.00     0.049 A 
ATOM     44  H   UNL A   1      42.743  26.001  29.267  1.00  0.00     0.167 HD
ATOM     45  C   UNL A   1      39.996  28.898  27.905  1.00  0.00     0.031 A 
ATOM     46  C   UNL A   1      44.621  25.162  31.209  1.00  0.00     0.031 A 
ATOM     47  C   UNL A   1      41.146  29.190  27.096  1.00  0.00     0.049 A 
ATOM     48  C   UNL A   1      44.720  26.567  30.754  1.00  0.00     0.074 A 
ATOM     49  C   UNL A   1      41.490  28.952  25.778  1.00  0.00     0.029 A 
ATOM     50  N   UNL A   1      42.325  29.468  27.748  1.00  0.00    -0.354 N 
ATOM     51  N   UNL A   1      45.322  26.931  29.658  1.00  0.00    -0.248 NA
ATOM     52  C   UNL A   1      43.767  27.518  31.298  1.00  0.00     0.031 C 
ATOM     53  C   UNL A   1      42.876  28.627  25.810  1.00  0.00     0.029 A 
ATOM     54  C   UNL A   1      43.318  28.750  27.128  1.00  0.00     0.049 A 
ATOM     55  H   UNL A   1      42.436  30.070  28.519  1.00  0.00     0.167 HD
ATOM     56  C   UNL A   1      44.517  27.934  29.140  1.00  0.00     0.074 A 
ATOM     57  C   UNL A   1      43.613  28.301  30.228  1.00  0.00     0.031 C 
ATOM     58  C   UNL A   1      44.468  28.184  27.800  1.00  0.00     0.031 A 
BRANCH  45  59
ATOM     59  C   UNL A   1      39.481  29.825  28.964  1.00  0.00    -0.014 A 
ATOM     60  C   UNL A   1      40.037  29.793  30.249  1.00  0.00     0.010 A 
ATOM     61  C   UNL A   1      38.313  30.600  28.773  1.00  0.00     0.010 A 
ATOM     62  C   UNL A   1      39.453  30.518  31.295  1.00  0.00     0.020 A 
ATOM     63  C   UNL A   1      37.760  31.370  29.789  1.00  0.00     0.020 A 
ATOM     64  C   UNL A   1      38.324  31.308  31.054  1.00  0.00     0.054 A 
BRANCH  64  65
ATOM     65  S   UNL A   1      37.544  32.190  32.426  1.00  0.00     0.124 S 
ATOM     66  O   UNL A   1      38.586  33.140  32.803  1.00  0.00    -0.237 OA
ATOM     67  O   UNL A   1      36.362  32.760  31.788  1.00  0.00    -0.237 OA
ATOM     68  O   UNL A   1      37.276  31.136  33.402  1.00  0.00    -0.744 OA
ENDBRANCH  64  65
ENDBRANCH  45  59
BRANCH  46  69
ATOM     69  C   UNL A   1      45.158  24.719  32.546  1.00  0.00    -0.014 A 
ATOM     70  C   UNL A   1      46.054  25.513  33.305  1.00  0.00     0.010 A 
ATOM     71  C   UNL A   1      44.585  23.620  33.217  1.00  0.00     0.010 A 
ATOM     72  C   UNL A   1      46.282  25.270  34.682  1.00  0.00     0.020 A 
ATOM     73  C   UNL A   1      44.818  23.360  34.578  1.00  0.00     0.020 A 
ATOM     74  C   UNL A   1      45.630  24.213  35.318  1.00  0.00     0.054 A 
BRANCH  74  75
ATOM     75  S   UNL A   1      45.737  24.020  37.127  1.00  0.00     0.124 S 
ATOM     76  O   UNL A   1      45.627  22.575  37.305  1.00  0.00    -0.237 OA
ATOM     77  O   UNL A   1      47.047  24.596  37.423  1.00  0.00    -0.237 OA
ATOM     78  O   UNL A   1      44.600  24.792  37.624  1.00  0.00    -0.744 OA
ENDBRANCH  74  75
ENDBRANCH  46  69
BRANCH  58  79
ATOM     79  C   UNL A   1      45.546  27.626  26.901  1.00  0.00    -0.014 A 
ATOM     80  C   UNL A   1      45.552  26.309  26.403  1.00  0.00     0.010 A 
ATOM     81  C   UNL A   1      46.471  28.547  26.373  1.00  0.00     0.010 A 
ATOM     82  C   UNL A   1      46.450  25.940  25.388  1.00  0.00     0.020 A 
ATOM     83  C   UNL A   1      47.361  28.184  25.361  1.00  0.00     0.020 A 
ATOM     84  C   UNL A   1      47.343  26.882  24.867  1.00  0.00     0.054 A 
BRANCH  84  85
ATOM     85  S   UNL A   1      48.456  26.404  23.513  1.00  0.00     0.124 S 
ATOM     86  O   UNL A   1      49.775  26.516  24.129  1.00  0.00    -0.237 OA
ATOM     87  O   UNL A   1      48.016  25.046  23.205  1.00  0.00    -0.237 OA
ATOM     88  O   UNL A   1      48.177  27.391  22.470  1.00  0.00    -0.744 OA
ENDBRANCH  84  85
ENDBRANCH  58  79
ENDBRANCH  32  33
ENDBRANCH  25  27
ENDBRANCH  24  25
ENDBRANCH  23  24
ENDBRANCH   1  23
TORSDOF 18
ENDMDL
MODEL 2
REMARK VINA RESULT:     -11.2      5.111      9.923
REMARK SMILES Cc1cc2nc(SCC(=O)OCCOC(=O)c3ccc(-c4c5nc(c(-c6ccc(S(=O)(=O)[O-])cc6)c6ccc([nH]6)c(-c6ccc(S(=O)(=O)[O-])cc6)c6nc(c(-c7ccc(S(=O)(=O)[O-])cc7)c7ccc4[nH]7)C=C6)C=C5)cc3)n(CC(C)C)c(=O)c2[nH]1
REMARK SMILES IDX 12 1 11 2 9 3 10 4 8 5 7 6 6 7 1 8 2 9 3 10 85 11 4 12 84 13
REMARK SMILES IDX 5 15 82 16 77 17 83 18 78 19 79 20 80 21 81 22 13 23 14 24
REMARK SMILES IDX 15 25 16 26 17 27 18 28 76 29 19 30 75 31 20 32 21 33 22 34
REMARK SMILES IDX 69 35 23 36 74 37 68 38 70 39 24 40 73 41 67 42 66 43 25 45
REMARK SMILES IDX 55 46 36 47 54 48 37 49 40 50 53 51 71 52 38 53 39 54 52 56
REMARK SMILES IDX 72 57 41 58 26 59 27 60 35 61 28 62 34 63 29 64 30 65 31 66
REMARK SMILES IDX 32 67 33 68 56 69 57 70 65 71 58 72 64 73 59 74 60 75 61 76
REMARK SMILES IDX 62 77 63 78 42 79 43 80 51 81 44 82 50 83 45 84 46 85 47 86
REMARK SMILES IDX 48 87 49 88
REMARK H PARENT 85 14 70 44 40 55
REMARK Flexibility Score: inf
ROOT
ATOM      1  C   UNL A   1      34.168  34.719  31.325  1.00  0.00     0.274 C 
ENDROOT
BRANCH   1   2
ATOM      2  O   UNL A   1      33.842  33.740  32.317  1.00  0.00    -0.461 OA
BRANCH   2   3
ATOM      3  C   UNL A   1      34.862  33.434  33.158  1.00  0.00     0.316 C 
ATOM      4  O   UNL A   1      34.724  33.485  34.373  1.00  0.00    -0.251 OA
BRANCH   3   5
ATOM      5  C   UNL A   1      36.146  33.035  32.411  1.00  0.00     0.200 C 
BRANCH   5   6
ATOM      6  S   UNL A   1      36.928  31.574  33.189  1.00  0.00    -0.076 SA
BRANCH   6   7
ATOM      7  C   UNL A   1      37.988  32.165  34.451  1.00  0.00     0.172 A 
ATOM      8  C   UNL A   1      39.040  35.393  39.061  1.00  0.00     0.064 C 
ATOM      9  C   UNL A   1      38.967  34.180  38.210  1.00  0.00     0.014 A 
ATOM     10  C   UNL A   1      37.991  33.223  37.908  1.00  0.00     0.052 A 
ATOM     11  N   UNL A   1      40.010  33.943  37.346  1.00  0.00    -0.353 N 
ATOM     12  C   UNL A   1      38.346  32.693  36.635  1.00  0.00     0.097 A 
ATOM     13  C   UNL A   1      39.392  33.462  36.240  1.00  0.00     0.131 A 
ATOM     14  H   UNL A   1      40.973  34.087  37.495  1.00  0.00     0.166 HD
ATOM     15  N   UNL A   1      37.570  32.008  35.683  1.00  0.00    -0.222 NA
ATOM     16  C   UNL A   1      39.483  33.921  34.914  1.00  0.00     0.278 A 
ATOM     17  N   UNL A   1      39.037  33.000  34.011  1.00  0.00    -0.286 N 
ATOM     18  O   UNL A   1      39.770  35.069  34.619  1.00  0.00    -0.267 OA
BRANCH  17  19
ATOM     19  C   UNL A   1      40.017  32.746  32.950  1.00  0.00     0.131 C 
BRANCH  19  20
ATOM     20  C   UNL A   1      40.101  33.510  31.577  1.00  0.00     0.003 C 
ATOM     21  C   UNL A   1      38.958  34.501  31.315  1.00  0.00     0.009 C 
ATOM     22  C   UNL A   1      41.328  34.451  31.412  1.00  0.00     0.009 C 
ENDBRANCH  19  20
ENDBRANCH  17  19
ENDBRANCH   6   7
ENDBRANCH   5   6
ENDBRANCH   3   5
ENDBRANCH   2   3
ENDBRANCH   1   2
BRANCH   1  23
ATOM     23  C   UNL A   1      34.063  34.160  29.901  1.00  0.00     0.275 C 
BRANCH  23  24
ATOM     24  O   UNL A   1      34.075  32.713  29.568  1.00  0.00    -0.458 OA
BRANCH  24  25
ATOM     25  C   UNL A   1      34.795  32.117  28.556  1.00  0.00     0.338 C 
ATOM     26  O   UNL A   1      34.471  32.244  27.384  1.00  0.00    -0.246 OA
BRANCH  25  27
ATOM     27  C   UNL A   1      36.027  31.259  28.890  1.00  0.00     0.060 A 
ATOM     28  C   UNL A   1      37.217  31.912  29.288  1.00  0.00     0.016 A 
ATOM     29  C   UNL A   1      36.133  29.884  28.678  1.00  0.00     0.016 A 
ATOM     30  C   UNL A   1      38.490  31.267  29.238  1.00  0.00     0.010 A 
ATOM     31  C   UNL A   1      37.411  29.250  28.595  1.00  0.00     0.010 A 
ATOM     32  C   UNL A   1      38.627  29.947  28.773  1.00  0.00    -0.014 A 
BRANCH  32  33
ATOM     33  C   UNL A   1      39.967  29.250  28.773  1.00  0.00     0.031 A 
ATOM     34  C   UNL A   1      40.429  29.088  30.163  1.00  0.00     0.074 A 
ATOM     35  C   UNL A   1      40.766  28.620  27.859  1.00  0.00     0.049 A 
ATOM     36  N   UNL A   1      41.207  29.879  30.820  1.00  0.00    -0.248 NA
ATOM     37  C   UNL A   1      39.780  28.038  30.959  1.00  0.00     0.031 C 
ATOM     38  C   UNL A   1      40.452  28.251  26.491  1.00  0.00     0.029 A 
ATOM     39  N   UNL A   1      42.052  28.103  27.976  1.00  0.00    -0.354 N 
ATOM     40  C   UNL A   1      41.295  29.301  32.075  1.00  0.00     0.074 A 
ATOM     41  C   UNL A   1      40.199  28.368  32.177  1.00  0.00     0.031 C 
ATOM     42  C   UNL A   1      41.419  27.485  25.940  1.00  0.00     0.029 A 
ATOM     43  C   UNL A   1      42.493  27.314  26.895  1.00  0.00     0.049 A 
ATOM     44  H   UNL A   1      42.617  28.278  28.764  1.00  0.00     0.167 HD
ATOM     45  C   UNL A   1      42.419  29.373  32.834  1.00  0.00     0.031 A 
ATOM     46  C   UNL A   1      43.622  26.549  26.763  1.00  0.00     0.031 A 
ATOM     47  C   UNL A   1      43.379  30.315  32.329  1.00  0.00     0.049 A 
ATOM     48  C   UNL A   1      44.595  27.041  27.764  1.00  0.00     0.074 A 
ATOM     49  C   UNL A   1      43.340  31.658  32.005  1.00  0.00     0.029 A 
ATOM     50  N   UNL A   1      44.494  29.809  31.702  1.00  0.00    -0.354 N 
ATOM     51  N   UNL A   1      45.172  28.207  27.698  1.00  0.00    -0.248 NA
ATOM     52  C   UNL A   1      44.591  26.411  29.072  1.00  0.00     0.031 C 
ATOM     53  C   UNL A   1      44.139  31.781  30.833  1.00  0.00     0.029 A 
ATOM     54  C   UNL A   1      44.677  30.525  30.545  1.00  0.00     0.049 A 
ATOM     55  H   UNL A   1      45.057  29.069  32.025  1.00  0.00     0.167 HD
ATOM     56  C   UNL A   1      45.206  28.649  29.012  1.00  0.00     0.074 A 
ATOM     57  C   UNL A   1      44.899  27.472  29.821  1.00  0.00     0.031 C 
ATOM     58  C   UNL A   1      45.206  29.979  29.313  1.00  0.00     0.031 A 
BRANCH  45  59
ATOM     59  C   UNL A   1      42.771  28.281  33.798  1.00  0.00    -0.014 A 
ATOM     60  C   UNL A   1      42.734  28.529  35.176  1.00  0.00     0.010 A 
ATOM     61  C   UNL A   1      43.336  27.058  33.366  1.00  0.00     0.010 A 
ATOM     62  C   UNL A   1      43.230  27.583  36.082  1.00  0.00     0.020 A 
ATOM     63  C   UNL A   1      43.777  26.088  34.258  1.00  0.00     0.020 A 
ATOM     64  C   UNL A   1      43.740  26.366  35.615  1.00  0.00     0.054 A 
BRANCH  64  65
ATOM     65  S   UNL A   1      44.433  25.182  36.792  1.00  0.00     0.124 S 
ATOM     66  O   UNL A   1      45.854  25.513  36.748  1.00  0.00    -0.237 OA
ATOM     67  O   UNL A   1      43.734  25.533  38.024  1.00  0.00    -0.237 OA
ATOM     68  O   UNL A   1      44.075  23.885  36.223  1.00  0.00    -0.744 OA
ENDBRANCH  64  65
ENDBRANCH  45  59
BRANCH  46  69
ATOM     69  C   UNL A   1      43.850  25.274  25.992  1.00  0.00    -0.014 A 
ATOM     70  C   UNL A   1      45.122  24.914  25.481  1.00  0.00     0.010 A 
ATOM     71  C   UNL A   1      42.868  24.264  25.977  1.00  0.00     0.010 A 
ATOM     72  C   UNL A   1      45.413  23.589  25.071  1.00  0.00     0.020 A 
ATOM     73  C   UNL A   1      43.141  22.950  25.556  1.00  0.00     0.020 A 
ATOM     74  C   UNL A   1      44.425  22.606  25.147  1.00  0.00     0.054 A 
BRANCH  74  75
ATOM     75  S   UNL A   1      44.839  20.859  24.836  1.00  0.00     0.124 S 
ATOM     76  O   UNL A   1      46.200  20.752  25.354  1.00  0.00    -0.237 OA
ATOM     77  O   UNL A   1      43.814  20.156  25.603  1.00  0.00    -0.237 OA
ATOM     78  O   UNL A   1      44.719  20.728  23.385  1.00  0.00    -0.744 OA
ENDBRANCH  74  75
ENDBRANCH  46  69
BRANCH  58  79
ATOM     79  C   UNL A   1      45.530  30.985  28.234  1.00  0.00    -0.014 A 
ATOM     80  C   UNL A   1      44.602  31.444  27.280  1.00  0.00     0.010 A 
ATOM     81  C   UNL A   1      46.770  31.645  28.336  1.00  0.00     0.010 A 
ATOM     82  C   UNL A   1      44.908  32.549  26.468  1.00  0.00     0.020 A 
ATOM     83  C   UNL A   1      47.074  32.746  27.534  1.00  0.00     0.020 A 
ATOM     84  C   UNL A   1      46.139  33.198  26.606  1.00  0.00     0.054 A 
BRANCH  84  85
ATOM     85  S   UNL A   1      46.494  34.662  25.591  1.00  0.00     0.124 S 
ATOM     86  O   UNL A   1      47.905  34.486  25.258  1.00  0.00    -0.237 OA
ATOM     87  O   UNL A   1      45.559  34.512  24.479  1.00  0.00    -0.237 OA
ATOM     88  O   UNL A   1      46.207  35.783  26.485  1.00  0.00    -0.744 OA
ENDBRANCH  84  85
ENDBRANCH  58  79
ENDBRANCH  32  33
ENDBRANCH  25  27
ENDBRANCH  24  25
ENDBRANCH  23  24
ENDBRANCH   1  23
TORSDOF 18
ENDMDL
MODEL 3
REMARK VINA RESULT:     -11.0      4.894      9.305
REMARK SMILES Cc1cc2nc(SCC(=O)OCCOC(=O)c3ccc(-c4c5nc(c(-c6ccc(S(=O)(=O)[O-])cc6)c6ccc([nH]6)c(-c6ccc(S(=O)(=O)[O-])cc6)c6nc(c(-c7ccc(S(=O)(=O)[O-])cc7)c7ccc4[nH]7)C=C6)C=C5)cc3)n(CC(C)C)c(=O)c2[nH]1
REMARK SMILES IDX 12 1 11 2 9 3 10 4 8 5 7 6 6 7 1 8 2 9 3 10 85 11 4 12 84 13
REMARK SMILES IDX 5 15 82 16 77 17 83 18 78 19 79 20 80 21 81 22 13 23 14 24
REMARK SMILES IDX 15 25 16 26 17 27 18 28 76 29 19 30 75 31 20 32 21 33 22 34
REMARK SMILES IDX 69 35 23 36 74 37 68 38 70 39 24 40 73 41 67 42 66 43 25 45
REMARK SMILES IDX 55 46 36 47 54 48 37 49 40 50 53 51 71 52 38 53 39 54 52 56
REMARK SMILES IDX 72 57 41 58 26 59 27 60 35 61 28 62 34 63 29 64 30 65 31 66
REMARK SMILES IDX 32 67 33 68 56 69 57 70 65 71 58 72 64 73 59 74 60 75 61 76
REMARK SMILES IDX 62 77 63 78 42 79 43 80 51 81 44 82 50 83 45 84 46 85 47 86
REMARK SMILES IDX 48 87 49 88
REMARK H PARENT 85 14 70 44 40 55
REMARK Flexibility Score: inf
ROOT
ATOM      1  C   UNL A   1      34.320  33.859  29.196  1.00  0.00     0.274 C 
ENDROOT
BRANCH   1   2
ATOM      2  O   UNL A   1      33.263  34.786  29.464  1.00  0.00    -0.461 OA
BRANCH   2   3
ATOM      3  C   UNL A   1      33.278  35.305  30.718  1.00  0.00     0.316 C 
ATOM      4  O   UNL A   1      32.772  36.391  30.964  1.00  0.00    -0.251 OA
BRANCH   3   5
ATOM      5  C   UNL A   1      33.982  34.385  31.730  1.00  0.00     0.200 C 
BRANCH   5   6
ATOM      6  S   UNL A   1      35.206  35.320  32.721  1.00  0.00    -0.076 SA
BRANCH   6   7
ATOM      7  C   UNL A   1      36.120  34.150  33.651  1.00  0.00     0.172 A 
ATOM      8  C   UNL A   1      39.794  32.775  37.821  1.00  0.00     0.064 C 
ATOM      9  C   UNL A   1      38.549  32.759  37.014  1.00  0.00     0.014 A 
ATOM     10  C   UNL A   1      37.364  33.503  36.983  1.00  0.00     0.052 A 
ATOM     11  N   UNL A   1      38.521  31.957  35.898  1.00  0.00    -0.353 N 
ATOM     12  C   UNL A   1      36.857  33.375  35.658  1.00  0.00     0.097 A 
ATOM     13  C   UNL A   1      37.833  32.702  34.999  1.00  0.00     0.131 A 
ATOM     14  H   UNL A   1      38.907  31.058  35.781  1.00  0.00     0.166 HD
ATOM     15  N   UNL A   1      35.943  34.174  34.950  1.00  0.00    -0.222 NA
ATOM     16  C   UNL A   1      38.216  33.084  33.701  1.00  0.00     0.278 A 
ATOM     17  N   UNL A   1      37.157  33.504  32.948  1.00  0.00    -0.286 N 
ATOM     18  O   UNL A   1      39.378  33.186  33.346  1.00  0.00    -0.267 OA
BRANCH  17  19
ATOM     19  C   UNL A   1      37.086  32.808  31.659  1.00  0.00     0.131 C 
BRANCH  19  20
ATOM     20  C   UNL A   1      37.736  33.300  30.314  1.00  0.00     0.003 C 
ATOM     21  C   UNL A   1      38.268  34.739  30.339  1.00  0.00     0.009 C 
ATOM     22  C   UNL A   1      39.019  32.537  29.875  1.00  0.00     0.009 C 
ENDBRANCH  19  20
ENDBRANCH  17  19
ENDBRANCH   6   7
ENDBRANCH   5   6
ENDBRANCH   3   5
ENDBRANCH   2   3
ENDBRANCH   1   2
BRANCH   1  23
ATOM     23  C   UNL A   1      34.058  33.030  27.933  1.00  0.00     0.275 C 
BRANCH  23  24
ATOM     24  O   UNL A   1      33.398  31.700  27.928  1.00  0.00    -0.458 OA
BRANCH  24  25
ATOM     25  C   UNL A   1      34.020  30.483  27.759  1.00  0.00     0.338 C 
ATOM     26  O   UNL A   1      33.421  29.518  27.304  1.00  0.00    -0.246 OA
BRANCH  25  27
ATOM     27  C   UNL A   1      35.496  30.311  28.156  1.00  0.00     0.060 A 
ATOM     28  C   UNL A   1      36.486  30.450  27.155  1.00  0.00     0.016 A 
ATOM     29  C   UNL A   1      35.949  29.863  29.397  1.00  0.00     0.016 A 
ATOM     30  C   UNL A   1      37.808  29.937  27.318  1.00  0.00     0.010 A 
ATOM     31  C   UNL A   1      37.262  29.319  29.547  1.00  0.00     0.010 A 
ATOM     32  C   UNL A   1      38.191  29.251  28.484  1.00  0.00    -0.014 A 
BRANCH  32  33
ATOM     33  C   UNL A   1      39.606  28.757  28.676  1.00  0.00     0.031 A 
ATOM     34  C   UNL A   1      39.949  28.816  30.108  1.00  0.00     0.074 A 
ATOM     35  C   UNL A   1      40.565  28.153  27.912  1.00  0.00     0.049 A 
ATOM     36  N   UNL A   1      40.547  29.778  30.725  1.00  0.00    -0.248 NA
ATOM     37  C   UNL A   1      39.372  27.778  30.971  1.00  0.00     0.031 C 
ATOM     38  C   UNL A   1      40.437  27.596  26.579  1.00  0.00     0.029 A 
ATOM     39  N   UNL A   1      41.892  27.842  28.195  1.00  0.00    -0.354 N 
ATOM     40  C   UNL A   1      40.590  29.360  32.043  1.00  0.00     0.074 A 
ATOM     41  C   UNL A   1      39.624  28.296  32.170  1.00  0.00     0.031 C 
ATOM     42  C   UNL A   1      41.546  26.920  26.204  1.00  0.00     0.029 A 
ATOM     43  C   UNL A   1      42.536  27.011  27.256  1.00  0.00     0.049 A 
ATOM     44  H   UNL A   1      42.350  28.181  28.998  1.00  0.00     0.167 HD
ATOM     45  C   UNL A   1      41.617  29.674  32.875  1.00  0.00     0.031 A 
ATOM     46  C   UNL A   1      43.764  26.406  27.309  1.00  0.00     0.031 A 
ATOM     47  C   UNL A   1      42.486  30.684  32.338  1.00  0.00     0.049 A 
ATOM     48  C   UNL A   1      44.562  27.139  28.318  1.00  0.00     0.074 A 
ATOM     49  C   UNL A   1      42.300  31.964  31.851  1.00  0.00     0.029 A 
ATOM     50  N   UNL A   1      43.715  30.278  31.869  1.00  0.00    -0.354 N 
ATOM     51  N   UNL A   1      44.982  28.362  28.157  1.00  0.00    -0.248 NA
ATOM     52  C   UNL A   1      44.516  26.661  29.688  1.00  0.00     0.031 C 
ATOM     53  C   UNL A   1      43.185  32.071  30.741  1.00  0.00     0.029 A 
ATOM     54  C   UNL A   1      43.911  30.882  30.652  1.00  0.00     0.049 A 
ATOM     55  H   UNL A   1      44.337  29.666  32.323  1.00  0.00     0.167 HD
ATOM     56  C   UNL A   1      44.830  28.945  29.406  1.00  0.00     0.074 A 
ATOM     57  C   UNL A   1      44.606  27.831  30.324  1.00  0.00     0.031 C 
ATOM     58  C   UNL A   1      44.624  30.286  29.542  1.00  0.00     0.031 A 
BRANCH  45  59
ATOM     59  C   UNL A   1      42.017  28.756  33.990  1.00  0.00    -0.014 A 
ATOM     60  C   UNL A   1      42.702  27.568  33.703  1.00  0.00     0.010 A 
ATOM     61  C   UNL A   1      41.554  28.944  35.313  1.00  0.00     0.010 A 
ATOM     62  C   UNL A   1      42.923  26.615  34.705  1.00  0.00     0.020 A 
ATOM     63  C   UNL A   1      41.820  28.033  36.329  1.00  0.00     0.020 A 
ATOM     64  C   UNL A   1      42.488  26.860  36.013  1.00  0.00     0.054 A 
BRANCH  64  65
ATOM     65  S   UNL A   1      42.726  25.596  37.282  1.00  0.00     0.124 S 
ATOM     66  O   UNL A   1      41.354  25.171  37.543  1.00  0.00    -0.237 OA
ATOM     67  O   UNL A   1      43.572  24.628  36.591  1.00  0.00    -0.237 OA
ATOM     68  O   UNL A   1      43.374  26.321  38.372  1.00  0.00    -0.744 OA
ENDBRANCH  64  65
ENDBRANCH  45  59
BRANCH  46  69
ATOM     69  C   UNL A   1      44.233  25.100  26.720  1.00  0.00    -0.014 A 
ATOM     70  C   UNL A   1      44.580  23.986  27.524  1.00  0.00     0.010 A 
ATOM     71  C   UNL A   1      44.091  24.848  25.341  1.00  0.00     0.010 A 
ATOM     72  C   UNL A   1      44.682  22.680  26.984  1.00  0.00     0.020 A 
ATOM     73  C   UNL A   1      44.207  23.559  24.792  1.00  0.00     0.020 A 
ATOM     74  C   UNL A   1      44.458  22.472  25.622  1.00  0.00     0.054 A 
BRANCH  74  75
ATOM     75  S   UNL A   1      44.366  20.779  24.952  1.00  0.00     0.124 S 
ATOM     76  O   UNL A   1      43.013  20.364  25.308  1.00  0.00    -0.237 OA
ATOM     77  O   UNL A   1      44.607  20.996  23.528  1.00  0.00    -0.237 OA
ATOM     78  O   UNL A   1      45.435  20.072  25.655  1.00  0.00    -0.744 OA
ENDBRANCH  74  75
ENDBRANCH  46  69
BRANCH  58  79
ATOM     79  C   UNL A   1      44.914  31.204  28.378  1.00  0.00    -0.014 A 
ATOM     80  C   UNL A   1      43.968  31.553  27.395  1.00  0.00     0.010 A 
ATOM     81  C   UNL A   1      46.135  31.904  28.412  1.00  0.00     0.010 A 
ATOM     82  C   UNL A   1      44.238  32.592  26.490  1.00  0.00     0.020 A 
ATOM     83  C   UNL A   1      46.404  32.940  27.516  1.00  0.00     0.020 A 
ATOM     84  C   UNL A   1      45.451  33.285  26.561  1.00  0.00     0.054 A 
BRANCH  84  85
ATOM     85  S   UNL A   1      45.759  34.665  25.422  1.00  0.00     0.124 S 
ATOM     86  O   UNL A   1      44.972  34.293  24.249  1.00  0.00    -0.237 OA
ATOM     87  O   UNL A   1      45.265  35.815  26.175  1.00  0.00    -0.237 OA
ATOM     88  O   UNL A   1      47.208  34.637  25.225  1.00  0.00    -0.744 OA
ENDBRANCH  84  85
ENDBRANCH  58  79
ENDBRANCH  32  33
ENDBRANCH  25  27
ENDBRANCH  24  25
ENDBRANCH  23  24
ENDBRANCH   1  23
TORSDOF 18
ENDMDL
