MODEL 1
REMARK VINA RESULT:      -9.9      0.000      0.000
REMARK SMILES Cn1ccnc1SCC[C@@H]1CCC[C@]1([NH3+])C(=O)OCCOC(=O)c1ccc(-c2c3nc(c(-c4ccc(S(=O)(=O)[O-])cc4)c4ccc([nH]4)c(-c4ccc(S(=O)(=O)[O-])cc4)c4nc(c(-c5ccc(S(=O)(=O)[O-])cc5)c5ccc2[nH]5)C=C4)C=C3)cc1
REMARK SMILES IDX 19 1 18 2 16 3 17 4 14 5 10 6 11 7 12 8 13 9 9 10 8 11 7 12
REMARK SMILES IDX 6 13 1 14 2 15 3 16 4 17 5 18 15 19 20 23 21 24 22 25 23 26
REMARK SMILES IDX 24 27 25 28 83 29 26 30 82 31 27 32 28 33 29 34 76 35 30 36
REMARK SMILES IDX 81 37 75 38 77 39 31 40 80 41 74 42 73 43 32 45 62 46 43 47
REMARK SMILES IDX 61 48 44 49 47 50 60 51 78 52 45 53 46 54 59 56 79 57 48 58
REMARK SMILES IDX 33 59 34 60 42 61 35 62 41 63 36 64 37 65 38 66 39 67 40 68
REMARK SMILES IDX 63 69 64 70 72 71 65 72 71 73 66 74 67 75 68 76 69 77 70 78
REMARK SMILES IDX 49 79 50 80 58 81 51 82 57 83 52 84 53 85 54 86 55 87 56 88
REMARK H PARENT 15 20 15 21 15 22 77 44 47 55
REMARK Flexibility Score: inf
ROOT
ATOM      1  C   UNL A   1      37.539  22.382  24.986  1.00  0.00     0.274 C 
ENDROOT
BRANCH   1   2
ATOM      2  O   UNL A   1      36.342  21.675  24.594  1.00  0.00    -0.457 OA
BRANCH   2   3
ATOM      3  C   UNL A   1      35.420  22.419  23.934  1.00  0.00     0.368 C 
ATOM      4  O   UNL A   1      35.692  23.178  23.005  1.00  0.00    -0.245 OA
BRANCH   3   5
ATOM      5  C   UNL A   1      33.991  22.395  24.560  1.00  0.00     0.195 C 
ATOM      6  C   UNL A   1      33.394  23.668  25.191  1.00  0.00     0.063 C 
ATOM      7  C   UNL A   1      34.207  23.843  26.467  1.00  0.00     0.011 C 
ATOM      8  C   UNL A   1      34.251  22.424  27.021  1.00  0.00     0.008 C 
ATOM      9  C   UNL A   1      34.049  21.484  25.821  1.00  0.00     0.081 C 
BRANCH   6  10
ATOM     10  C   UNL A   1      33.193  24.951  24.389  1.00  0.00     0.022 C 
BRANCH  10  11
ATOM     11  C   UNL A   1      31.852  25.046  23.648  1.00  0.00     0.079 C 
BRANCH  11  12
ATOM     12  S   UNL A   1      30.414  25.770  24.516  1.00  0.00    -0.088 SA
BRANCH  12  13
ATOM     13  C   UNL A   1      31.046  26.966  25.597  1.00  0.00     0.167 A 
ATOM     14  C   UNL A   1      31.402  28.880  23.967  1.00  0.00     0.152 C 
ATOM     15  N   UNL A   1      31.414  28.244  25.257  1.00  0.00    -0.329 N 
ATOM     16  C   UNL A   1      31.837  28.867  26.407  1.00  0.00     0.108 A 
ATOM     17  C   UNL A   1      31.744  27.911  27.390  1.00  0.00     0.132 A 
ATOM     18  N   UNL A   1      31.261  26.737  26.875  1.00  0.00    -0.231 NA
ENDBRANCH  12  13
ENDBRANCH  11  12
ENDBRANCH  10  11
ENDBRANCH   6  10
BRANCH   5  19
ATOM     19  N   UNL A   1      33.082  21.817  23.527  1.00  0.00    -0.343 N 
ATOM     20  H   UNL A   1      33.307  20.831  23.390  1.00  0.00     0.345 HD
ATOM     21  H   UNL A   1      33.206  22.320  22.647  1.00  0.00     0.345 HD
ATOM     22  H   UNL A   1      32.115  21.906  23.837  1.00  0.00     0.345 HD
ENDBRANCH   5  19
ENDBRANCH   3   5
ENDBRANCH   2   3
ENDBRANCH   1   2
BRANCH   1  23
ATOM     23  C   UNL A   1      38.602  21.435  25.528  1.00  0.00     0.275 C 
BRANCH  23  24
ATOM     24  O   UNL A   1      39.249  22.027  26.664  1.00  0.00    -0.458 OA
BRANCH  24  25
ATOM     25  C   UNL A   1      40.376  22.719  26.390  1.00  0.00     0.338 C 
ATOM     26  O   UNL A   1      41.346  22.312  25.757  1.00  0.00    -0.246 OA
BRANCH  25  27
ATOM     27  C   UNL A   1      40.301  24.092  26.924  1.00  0.00     0.060 A 
ATOM     28  C   UNL A   1      41.283  25.036  26.624  1.00  0.00     0.016 A 
ATOM     29  C   UNL A   1      39.329  24.387  27.879  1.00  0.00     0.016 A 
ATOM     30  C   UNL A   1      41.387  26.198  27.395  1.00  0.00     0.010 A 
ATOM     31  C   UNL A   1      39.370  25.603  28.564  1.00  0.00     0.010 A 
ATOM     32  C   UNL A   1      40.443  26.496  28.389  1.00  0.00    -0.014 A 
BRANCH  32  33
ATOM     33  C   UNL A   1      40.599  27.659  29.319  1.00  0.00     0.031 A 
ATOM     34  C   UNL A   1      41.803  27.729  30.235  1.00  0.00     0.074 A 
ATOM     35  C   UNL A   1      39.702  28.665  29.371  1.00  0.00     0.049 A 
ATOM     36  N   UNL A   1      41.980  28.438  31.321  1.00  0.00    -0.248 NA
ATOM     37  C   UNL A   1      42.946  26.867  29.892  1.00  0.00     0.031 C 
ATOM     38  C   UNL A   1      38.537  28.824  28.501  1.00  0.00     0.029 A 
ATOM     39  N   UNL A   1      39.647  29.761  30.199  1.00  0.00    -0.354 N 
ATOM     40  C   UNL A   1      43.200  28.024  31.850  1.00  0.00     0.074 A 
ATOM     41  C   UNL A   1      43.731  27.024  30.949  1.00  0.00     0.031 C 
ATOM     42  C   UNL A   1      37.925  29.983  28.793  1.00  0.00     0.029 A 
ATOM     43  C   UNL A   1      38.576  30.585  29.950  1.00  0.00     0.049 A 
ATOM     44  H   UNL A   1      40.313  29.939  30.902  1.00  0.00     0.167 HD
ATOM     45  C   UNL A   1      43.811  28.425  32.994  1.00  0.00     0.031 A 
ATOM     46  C   UNL A   1      38.126  31.673  30.606  1.00  0.00     0.031 A 
ATOM     47  C   UNL A   1      43.325  29.483  33.841  1.00  0.00     0.049 A 
ATOM     48  C   UNL A   1      38.805  32.107  31.873  1.00  0.00     0.074 A 
ATOM     49  C   UNL A   1      43.858  29.956  35.028  1.00  0.00     0.029 A 
ATOM     50  N   UNL A   1      42.211  30.260  33.568  1.00  0.00    -0.354 N 
ATOM     51  N   UNL A   1      39.861  31.596  32.458  1.00  0.00    -0.248 NA
ATOM     52  C   UNL A   1      38.204  33.242  32.587  1.00  0.00     0.031 C 
ATOM     53  C   UNL A   1      43.056  31.010  35.481  1.00  0.00     0.029 A 
ATOM     54  C   UNL A   1      42.045  31.217  34.556  1.00  0.00     0.049 A 
ATOM     55  H   UNL A   1      41.623  30.150  32.785  1.00  0.00     0.167 HD
ATOM     56  C   UNL A   1      40.057  32.352  33.608  1.00  0.00     0.074 A 
ATOM     57  C   UNL A   1      39.020  33.365  33.627  1.00  0.00     0.031 C 
ATOM     58  C   UNL A   1      41.007  32.216  34.565  1.00  0.00     0.031 A 
BRANCH  45  59
ATOM     59  C   UNL A   1      45.034  27.659  33.427  1.00  0.00    -0.014 A 
ATOM     60  C   UNL A   1      46.332  28.054  33.061  1.00  0.00     0.010 A 
ATOM     61  C   UNL A   1      44.868  26.507  34.218  1.00  0.00     0.010 A 
ATOM     62  C   UNL A   1      47.436  27.274  33.425  1.00  0.00     0.020 A 
ATOM     63  C   UNL A   1      45.970  25.741  34.607  1.00  0.00     0.020 A 
ATOM     64  C   UNL A   1      47.246  26.114  34.184  1.00  0.00     0.054 A 
BRANCH  64  65
ATOM     65  S   UNL A   1      48.683  25.100  34.628  1.00  0.00     0.124 S 
ATOM     66  O   UNL A   1      48.300  23.791  34.105  1.00  0.00    -0.237 OA
ATOM     67  O   UNL A   1      49.780  25.761  33.925  1.00  0.00    -0.237 OA
ATOM     68  O   UNL A   1      48.736  25.198  36.085  1.00  0.00    -0.744 OA
ENDBRANCH  64  65
ENDBRANCH  45  59
BRANCH  46  69
ATOM     69  C   UNL A   1      36.937  32.399  30.088  1.00  0.00    -0.014 A 
ATOM     70  C   UNL A   1      35.645  31.981  30.448  1.00  0.00     0.010 A 
ATOM     71  C   UNL A   1      37.090  33.545  29.286  1.00  0.00     0.010 A 
ATOM     72  C   UNL A   1      34.525  32.707  30.032  1.00  0.00     0.020 A 
ATOM     73  C   UNL A   1      35.975  34.289  28.890  1.00  0.00     0.020 A 
ATOM     74  C   UNL A   1      34.699  33.863  29.264  1.00  0.00     0.054 A 
BRANCH  74  75
ATOM     75  S   UNL A   1      33.244  34.859  28.834  1.00  0.00     0.124 S 
ATOM     76  O   UNL A   1      32.603  35.036  30.133  1.00  0.00    -0.237 OA
ATOM     77  O   UNL A   1      33.840  36.059  28.252  1.00  0.00    -0.237 OA
ATOM     78  O   UNL A   1      32.523  34.011  27.887  1.00  0.00    -0.744 OA
ENDBRANCH  74  75
ENDBRANCH  46  69
BRANCH  58  79
ATOM     79  C   UNL A   1      40.990  33.209  35.692  1.00  0.00    -0.014 A 
ATOM     80  C   UNL A   1      40.276  32.955  36.876  1.00  0.00     0.010 A 
ATOM     81  C   UNL A   1      41.717  34.407  35.570  1.00  0.00     0.010 A 
ATOM     82  C   UNL A   1      40.258  33.900  37.905  1.00  0.00     0.020 A 
ATOM     83  C   UNL A   1      41.718  35.346  36.604  1.00  0.00     0.020 A 
ATOM     84  C   UNL A   1      40.974  35.094  37.759  1.00  0.00     0.054 A 
BRANCH  84  85
ATOM     85  S   UNL A   1      40.956  36.300  39.114  1.00  0.00     0.124 S 
ATOM     86  O   UNL A   1      40.450  35.500  40.225  1.00  0.00    -0.237 OA
ATOM     87  O   UNL A   1      42.357  36.699  39.214  1.00  0.00    -0.237 OA
ATOM     88  O   UNL A   1      40.052  37.344  38.633  1.00  0.00    -0.744 OA
ENDBRANCH  84  85
ENDBRANCH  58  79
ENDBRANCH  32  33
ENDBRANCH  25  27
ENDBRANCH  24  25
ENDBRANCH  23  24
ENDBRANCH   1  23
TORSDOF 19
ENDMDL
MODEL 2
REMARK VINA RESULT:      -9.6      4.166     10.205
REMARK SMILES Cn1ccnc1SCC[C@@H]1CCC[C@]1([NH3+])C(=O)OCCOC(=O)c1ccc(-c2c3nc(c(-c4ccc(S(=O)(=O)[O-])cc4)c4ccc([nH]4)c(-c4ccc(S(=O)(=O)[O-])cc4)c4nc(c(-c5ccc(S(=O)(=O)[O-])cc5)c5ccc2[nH]5)C=C4)C=C3)cc1
REMARK SMILES IDX 19 1 18 2 16 3 17 4 14 5 10 6 11 7 12 8 13 9 9 10 8 11 7 12
REMARK SMILES IDX 6 13 1 14 2 15 3 16 4 17 5 18 15 19 20 23 21 24 22 25 23 26
REMARK SMILES IDX 24 27 25 28 83 29 26 30 82 31 27 32 28 33 29 34 76 35 30 36
REMARK SMILES IDX 81 37 75 38 77 39 31 40 80 41 74 42 73 43 32 45 62 46 43 47
REMARK SMILES IDX 61 48 44 49 47 50 60 51 78 52 45 53 46 54 59 56 79 57 48 58
REMARK SMILES IDX 33 59 34 60 42 61 35 62 41 63 36 64 37 65 38 66 39 67 40 68
REMARK SMILES IDX 63 69 64 70 72 71 65 72 71 73 66 74 67 75 68 76 69 77 70 78
REMARK SMILES IDX 49 79 50 80 58 81 51 82 57 83 52 84 53 85 54 86 55 87 56 88
REMARK H PARENT 15 20 15 21 15 22 77 44 47 55
REMARK Flexibility Score: inf
ROOT
ATOM      1  C   UNL A   1      31.844  30.454  25.535  1.00  0.00     0.274 C 
ENDROOT
BRANCH   1   2
ATOM      2  O   UNL A   1      31.429  29.083  25.359  1.00  0.00    -0.457 OA
BRANCH   2   3
ATOM      3  C   UNL A   1      32.309  28.293  24.694  1.00  0.00     0.368 C 
ATOM      4  O   UNL A   1      33.280  28.723  24.073  1.00  0.00    -0.245 OA
BRANCH   3   5
ATOM      5  C   UNL A   1      31.901  26.790  24.607  1.00  0.00     0.195 C 
ATOM      6  C   UNL A   1      32.901  25.739  24.083  1.00  0.00     0.063 C 
ATOM      7  C   UNL A   1      32.985  26.047  22.594  1.00  0.00     0.011 C 
ATOM      8  C   UNL A   1      31.522  26.253  22.221  1.00  0.00     0.008 C 
ATOM      9  C   UNL A   1      30.800  26.667  23.514  1.00  0.00     0.081 C 
BRANCH   6  10
ATOM     10  C   UNL A   1      34.249  25.499  24.756  1.00  0.00     0.022 C 
BRANCH  10  11
ATOM     11  C   UNL A   1      34.444  24.085  25.324  1.00  0.00     0.079 C 
BRANCH  11  12
ATOM     12  S   UNL A   1      35.197  22.804  24.259  1.00  0.00    -0.088 SA
BRANCH  12  13
ATOM     13  C   UNL A   1      34.178  21.409  24.374  1.00  0.00     0.167 A 
ATOM     14  C   UNL A   1      32.159  22.241  23.076  1.00  0.00     0.152 C 
ATOM     15  N   UNL A   1      32.926  21.281  23.825  1.00  0.00    -0.329 N 
ATOM     16  C   UNL A   1      32.475  20.018  24.127  1.00  0.00     0.108 A 
ATOM     17  C   UNL A   1      33.469  19.453  24.889  1.00  0.00     0.132 A 
ATOM     18  N   UNL A   1      34.514  20.326  25.041  1.00  0.00    -0.231 NA
ENDBRANCH  12  13
ENDBRANCH  11  12
ENDBRANCH  10  11
ENDBRANCH   6  10
BRANCH   5  19
ATOM     19  N   UNL A   1      31.365  26.414  25.948  1.00  0.00    -0.343 N 
ATOM     20  H   UNL A   1      32.114  26.460  26.639  1.00  0.00     0.345 HD
ATOM     21  H   UNL A   1      30.993  25.465  25.911  1.00  0.00     0.345 HD
ATOM     22  H   UNL A   1      30.621  27.061  26.210  1.00  0.00     0.345 HD
ENDBRANCH   5  19
ENDBRANCH   3   5
ENDBRANCH   2   3
ENDBRANCH   1   2
BRANCH   1  23
ATOM     23  C   UNL A   1      32.057  30.795  27.005  1.00  0.00     0.275 C 
BRANCH  23  24
ATOM     24  O   UNL A   1      33.461  30.794  27.307  1.00  0.00    -0.458 OA
BRANCH  24  25
ATOM     25  C   UNL A   1      33.945  29.631  27.794  1.00  0.00     0.338 C 
ATOM     26  O   UNL A   1      33.318  28.588  27.950  1.00  0.00    -0.246 OA
BRANCH  25  27
ATOM     27  C   UNL A   1      35.384  29.742  28.101  1.00  0.00     0.060 A 
ATOM     28  C   UNL A   1      36.301  30.121  27.122  1.00  0.00     0.016 A 
ATOM     29  C   UNL A   1      35.842  29.292  29.338  1.00  0.00     0.016 A 
ATOM     30  C   UNL A   1      37.666  29.892  27.323  1.00  0.00     0.010 A 
ATOM     31  C   UNL A   1      37.214  29.176  29.575  1.00  0.00     0.010 A 
ATOM     32  C   UNL A   1      38.146  29.401  28.546  1.00  0.00    -0.014 A 
BRANCH  32  33
ATOM     33  C   UNL A   1      39.580  29.018  28.749  1.00  0.00     0.031 A 
ATOM     34  C   UNL A   1      40.545  30.019  29.347  1.00  0.00     0.074 A 
ATOM     35  C   UNL A   1      40.052  27.798  28.422  1.00  0.00     0.049 A 
ATOM     36  N   UNL A   1      41.854  30.035  29.311  1.00  0.00    -0.248 NA
ATOM     37  C   UNL A   1      39.954  31.166  30.056  1.00  0.00     0.031 C 
ATOM     38  C   UNL A   1      39.259  26.671  27.930  1.00  0.00     0.029 A 
ATOM     39  N   UNL A   1      41.333  27.301  28.472  1.00  0.00    -0.354 N 
ATOM     40  C   UNL A   1      42.235  31.243  29.889  1.00  0.00     0.074 A 
ATOM     41  C   UNL A   1      41.020  31.917  30.293  1.00  0.00     0.031 C 
ATOM     42  C   UNL A   1      40.055  25.600  27.790  1.00  0.00     0.029 A 
ATOM     43  C   UNL A   1      41.433  25.994  28.060  1.00  0.00     0.049 A 
ATOM     44  H   UNL A   1      42.105  27.831  28.774  1.00  0.00     0.167 HD
ATOM     45  C   UNL A   1      43.482  31.753  30.050  1.00  0.00     0.031 A 
ATOM     46  C   UNL A   1      42.510  25.208  27.864  1.00  0.00     0.031 A 
ATOM     47  C   UNL A   1      44.693  31.042  29.729  1.00  0.00     0.049 A 
ATOM     48  C   UNL A   1      43.887  25.781  28.039  1.00  0.00     0.074 A 
ATOM     49  C   UNL A   1      46.004  31.472  29.838  1.00  0.00     0.029 A 
ATOM     50  N   UNL A   1      44.739  29.734  29.275  1.00  0.00    -0.354 N 
ATOM     51  N   UNL A   1      44.234  26.986  28.422  1.00  0.00    -0.248 NA
ATOM     52  C   UNL A   1      45.014  24.896  27.717  1.00  0.00     0.031 C 
ATOM     53  C   UNL A   1      46.845  30.428  29.434  1.00  0.00     0.029 A 
ATOM     54  C   UNL A   1      46.056  29.336  29.109  1.00  0.00     0.049 A 
ATOM     55  H   UNL A   1      43.953  29.169  29.097  1.00  0.00     0.167 HD
ATOM     56  C   UNL A   1      45.624  27.003  28.393  1.00  0.00     0.074 A 
ATOM     57  C   UNL A   1      46.052  25.684  27.971  1.00  0.00     0.031 C 
ATOM     58  C   UNL A   1      46.469  28.023  28.685  1.00  0.00     0.031 A 
BRANCH  45  59
ATOM     59  C   UNL A   1      43.588  33.178  30.527  1.00  0.00    -0.014 A 
ATOM     60  C   UNL A   1      43.589  34.267  29.638  1.00  0.00     0.010 A 
ATOM     61  C   UNL A   1      43.696  33.425  31.909  1.00  0.00     0.010 A 
ATOM     62  C   UNL A   1      43.761  35.570  30.118  1.00  0.00     0.020 A 
ATOM     63  C   UNL A   1      43.840  34.727  32.395  1.00  0.00     0.020 A 
ATOM     64  C   UNL A   1      43.900  35.790  31.493  1.00  0.00     0.054 A 
BRANCH  64  65
ATOM     65  S   UNL A   1      44.146  37.482  32.099  1.00  0.00     0.124 S 
ATOM     66  O   UNL A   1      45.600  37.551  32.215  1.00  0.00    -0.237 OA
ATOM     67  O   UNL A   1      43.560  38.299  31.038  1.00  0.00    -0.237 OA
ATOM     68  O   UNL A   1      43.418  37.503  33.366  1.00  0.00    -0.744 OA
ENDBRANCH  64  65
ENDBRANCH  45  59
BRANCH  46  69
ATOM     69  C   UNL A   1      42.317  23.797  27.434  1.00  0.00    -0.014 A 
ATOM     70  C   UNL A   1      42.347  23.468  26.069  1.00  0.00     0.010 A 
ATOM     71  C   UNL A   1      42.166  22.772  28.386  1.00  0.00     0.010 A 
ATOM     72  C   UNL A   1      42.249  22.134  25.662  1.00  0.00     0.020 A 
ATOM     73  C   UNL A   1      42.095  21.436  27.984  1.00  0.00     0.020 A 
ATOM     74  C   UNL A   1      42.135  21.125  26.623  1.00  0.00     0.054 A 
BRANCH  74  75
ATOM     75  S   UNL A   1      42.129  19.393  26.084  1.00  0.00     0.124 S 
ATOM     76  O   UNL A   1      43.017  19.433  24.926  1.00  0.00    -0.237 OA
ATOM     77  O   UNL A   1      42.647  18.692  27.256  1.00  0.00    -0.237 OA
ATOM     78  O   UNL A   1      40.721  19.136  25.788  1.00  0.00    -0.744 OA
ENDBRANCH  74  75
ENDBRANCH  46  69
BRANCH  58  79
ATOM     79  C   UNL A   1      47.941  27.738  28.593  1.00  0.00    -0.014 A 
ATOM     80  C   UNL A   1      48.600  27.702  27.352  1.00  0.00     0.010 A 
ATOM     81  C   UNL A   1      48.679  27.521  29.771  1.00  0.00     0.010 A 
ATOM     82  C   UNL A   1      49.966  27.418  27.287  1.00  0.00     0.020 A 
ATOM     83  C   UNL A   1      50.049  27.256  29.711  1.00  0.00     0.020 A 
ATOM     84  C   UNL A   1      50.681  27.189  28.468  1.00  0.00     0.054 A 
BRANCH  84  85
ATOM     85  S   UNL A   1      52.458  26.840  28.366  1.00  0.00     0.124 S 
ATOM     86  O   UNL A   1      52.719  26.215  29.659  1.00  0.00    -0.237 OA
ATOM     87  O   UNL A   1      52.550  25.954  27.209  1.00  0.00    -0.237 OA
ATOM     88  O   UNL A   1      53.057  28.161  28.178  1.00  0.00    -0.744 OA
ENDBRANCH  84  85
ENDBRANCH  58  79
ENDBRANCH  32  33
ENDBRANCH  25  27
ENDBRANCH  24  25
ENDBRANCH  23  24
ENDBRANCH   1  23
TORSDOF 19
ENDMDL
MODEL 3
REMARK VINA RESULT:      -9.5      2.597      7.821
REMARK SMILES Cn1ccnc1SCC[C@@H]1CCC[C@]1([NH3+])C(=O)OCCOC(=O)c1ccc(-c2c3nc(c(-c4ccc(S(=O)(=O)[O-])cc4)c4ccc([nH]4)c(-c4ccc(S(=O)(=O)[O-])cc4)c4nc(c(-c5ccc(S(=O)(=O)[O-])cc5)c5ccc2[nH]5)C=C4)C=C3)cc1
REMARK SMILES IDX 19 1 18 2 16 3 17 4 14 5 10 6 11 7 12 8 13 9 9 10 8 11 7 12
REMARK SMILES IDX 6 13 1 14 2 15 3 16 4 17 5 18 15 19 20 23 21 24 22 25 23 26
REMARK SMILES IDX 24 27 25 28 83 29 26 30 82 31 27 32 28 33 29 34 76 35 30 36
REMARK SMILES IDX 81 37 75 38 77 39 31 40 80 41 74 42 73 43 32 45 62 46 43 47
REMARK SMILES IDX 61 48 44 49 47 50 60 51 78 52 45 53 46 54 59 56 79 57 48 58
REMARK SMILES IDX 33 59 34 60 42 61 35 62 41 63 36 64 37 65 38 66 39 67 40 68
REMARK SMILES IDX 63 69 64 70 72 71 65 72 71 73 66 74 67 75 68 76 69 77 70 78
REMARK SMILES IDX 49 79 50 80 58 81 51 82 57 83 52 84 53 85 54 86 55 87 56 88
REMARK H PARENT 15 20 15 21 15 22 77 44 47 55
REMARK Flexibility Score: inf
ROOT
ATOM      1  C   UNL A   1      32.176  28.483  26.814  1.00  0.00     0.274 C 
ENDROOT
BRANCH   1   2
ATOM      2  O   UNL A   1      31.448  27.991  25.668  1.00  0.00    -0.457 OA
BRANCH   2   3
ATOM      3  C   UNL A   1      30.980  26.723  25.781  1.00  0.00     0.368 C 
ATOM      4  O   UNL A   1      30.544  26.245  26.828  1.00  0.00    -0.245 OA
BRANCH   3   5
ATOM      5  C   UNL A   1      31.205  25.829  24.523  1.00  0.00     0.195 C 
ATOM      6  C   UNL A   1      32.083  24.564  24.611  1.00  0.00     0.063 C 
ATOM      7  C   UNL A   1      33.492  25.123  24.757  1.00  0.00     0.011 C 
ATOM      8  C   UNL A   1      33.509  26.237  23.716  1.00  0.00     0.008 C 
ATOM      9  C   UNL A   1      32.044  26.655  23.506  1.00  0.00     0.081 C 
BRANCH   6  10
ATOM     10  C   UNL A   1      31.756  23.417  25.564  1.00  0.00     0.022 C 
BRANCH  10  11
ATOM     11  C   UNL A   1      32.321  23.576  26.983  1.00  0.00     0.079 C 
BRANCH  11  12
ATOM     12  S   UNL A   1      33.207  22.167  27.741  1.00  0.00    -0.088 SA
BRANCH  12  13
ATOM     13  C   UNL A   1      34.279  21.553  26.529  1.00  0.00     0.167 A 
ATOM     14  C   UNL A   1      32.823  19.715  25.554  1.00  0.00     0.152 C 
ATOM     15  N   UNL A   1      34.005  20.528  25.657  1.00  0.00    -0.329 N 
ATOM     16  C   UNL A   1      35.106  20.373  24.849  1.00  0.00     0.108 A 
ATOM     17  C   UNL A   1      36.020  21.292  25.305  1.00  0.00     0.132 A 
ATOM     18  N   UNL A   1      35.500  22.011  26.349  1.00  0.00    -0.231 NA
ENDBRANCH  12  13
ENDBRANCH  11  12
ENDBRANCH  10  11
ENDBRANCH   6  10
BRANCH   5  19
ATOM     19  N   UNL A   1      29.853  25.520  23.971  1.00  0.00    -0.343 N 
ATOM     20  H   UNL A   1      29.152  25.643  24.701  1.00  0.00     0.345 HD
ATOM     21  H   UNL A   1      29.834  24.555  23.640  1.00  0.00     0.345 HD
ATOM     22  H   UNL A   1      29.651  26.150  23.194  1.00  0.00     0.345 HD
ENDBRANCH   5  19
ENDBRANCH   3   5
ENDBRANCH   2   3
ENDBRANCH   1   2
BRANCH   1  23
ATOM     23  C   UNL A   1      32.217  30.006  26.845  1.00  0.00     0.275 C 
BRANCH  23  24
ATOM     24  O   UNL A   1      33.558  30.462  26.612  1.00  0.00    -0.458 OA
BRANCH  24  25
ATOM     25  C   UNL A   1      34.047  31.312  27.542  1.00  0.00     0.338 C 
ATOM     26  O   UNL A   1      33.449  32.249  28.061  1.00  0.00    -0.246 OA
BRANCH  25  27
ATOM     27  C   UNL A   1      35.430  30.955  27.913  1.00  0.00     0.060 A 
ATOM     28  C   UNL A   1      35.786  29.632  28.174  1.00  0.00     0.016 A 
ATOM     29  C   UNL A   1      36.340  31.978  28.171  1.00  0.00     0.016 A 
ATOM     30  C   UNL A   1      36.981  29.355  28.846  1.00  0.00     0.010 A 
ATOM     31  C   UNL A   1      37.583  31.682  28.735  1.00  0.00     0.010 A 
ATOM     32  C   UNL A   1      37.894  30.375  29.153  1.00  0.00    -0.014 A 
BRANCH  32  33
ATOM     33  C   UNL A   1      39.114  30.134  29.987  1.00  0.00     0.031 A 
ATOM     34  C   UNL A   1      40.168  29.160  29.507  1.00  0.00     0.074 A 
ATOM     35  C   UNL A   1      39.319  30.763  31.162  1.00  0.00     0.049 A 
ATOM     36  N   UNL A   1      41.113  28.557  30.184  1.00  0.00    -0.248 NA
ATOM     37  C   UNL A   1      40.136  28.799  28.079  1.00  0.00     0.031 C 
ATOM     38  C   UNL A   1      38.471  31.806  31.739  1.00  0.00     0.029 A 
ATOM     39  N   UNL A   1      40.332  30.617  32.081  1.00  0.00    -0.354 N 
ATOM     40  C   UNL A   1      41.709  27.666  29.295  1.00  0.00     0.074 A 
ATOM     41  C   UNL A   1      41.038  27.830  28.024  1.00  0.00     0.031 C 
ATOM     42  C   UNL A   1      39.032  32.252  32.874  1.00  0.00     0.029 A 
ATOM     43  C   UNL A   1      40.209  31.444  33.171  1.00  0.00     0.049 A 
ATOM     44  H   UNL A   1      41.074  29.980  31.968  1.00  0.00     0.167 HD
ATOM     45  C   UNL A   1      42.710  26.778  29.523  1.00  0.00     0.031 A 
ATOM     46  C   UNL A   1      40.923  31.516  34.311  1.00  0.00     0.031 A 
ATOM     47  C   UNL A   1      43.435  26.680  30.764  1.00  0.00     0.049 A 
ATOM     48  C   UNL A   1      42.025  30.527  34.559  1.00  0.00     0.074 A 
ATOM     49  C   UNL A   1      44.453  25.806  31.104  1.00  0.00     0.029 A 
ATOM     50  N   UNL A   1      43.245  27.513  31.854  1.00  0.00    -0.354 N 
ATOM     51  N   UNL A   1      42.466  29.572  33.775  1.00  0.00    -0.248 NA
ATOM     52  C   UNL A   1      42.699  30.602  35.862  1.00  0.00     0.031 C 
ATOM     53  C   UNL A   1      44.868  26.101  32.409  1.00  0.00     0.029 A 
ATOM     54  C   UNL A   1      44.133  27.184  32.864  1.00  0.00     0.049 A 
ATOM     55  H   UNL A   1      42.577  28.235  31.903  1.00  0.00     0.167 HD
ATOM     56  C   UNL A   1      43.475  28.936  34.489  1.00  0.00     0.074 A 
ATOM     57  C   UNL A   1      43.590  29.624  35.759  1.00  0.00     0.031 C 
ATOM     58  C   UNL A   1      44.234  27.873  34.125  1.00  0.00     0.031 A 
BRANCH  45  59
ATOM     59  C   UNL A   1      43.021  25.794  28.426  1.00  0.00    -0.014 A 
ATOM     60  C   UNL A   1      42.308  24.592  28.275  1.00  0.00     0.010 A 
ATOM     61  C   UNL A   1      44.065  26.086  27.528  1.00  0.00     0.010 A 
ATOM     62  C   UNL A   1      42.677  23.672  27.287  1.00  0.00     0.020 A 
ATOM     63  C   UNL A   1      44.418  25.183  26.522  1.00  0.00     0.020 A 
ATOM     64  C   UNL A   1      43.739  23.968  26.425  1.00  0.00     0.054 A 
BRANCH  64  65
ATOM     65  S   UNL A   1      44.221  22.757  25.163  1.00  0.00     0.124 S 
ATOM     66  O   UNL A   1      45.274  22.012  25.849  1.00  0.00    -0.237 OA
ATOM     67  O   UNL A   1      42.982  22.020  24.927  1.00  0.00    -0.237 OA
ATOM     68  O   UNL A   1      44.670  23.584  24.046  1.00  0.00    -0.744 OA
ENDBRANCH  64  65
ENDBRANCH  45  59
BRANCH  46  69
ATOM     69  C   UNL A   1      40.578  32.547  35.326  1.00  0.00    -0.014 A 
ATOM     70  C   UNL A   1      39.593  32.281  36.292  1.00  0.00     0.010 A 
ATOM     71  C   UNL A   1      41.274  33.769  35.371  1.00  0.00     0.010 A 
ATOM     72  C   UNL A   1      39.321  33.212  37.298  1.00  0.00     0.020 A 
ATOM     73  C   UNL A   1      41.024  34.690  36.392  1.00  0.00     0.020 A 
ATOM     74  C   UNL A   1      40.046  34.406  37.348  1.00  0.00     0.054 A 
BRANCH  74  75
ATOM     75  S   UNL A   1      39.764  35.549  38.729  1.00  0.00     0.124 S 
ATOM     76  O   UNL A   1      41.085  35.608  39.348  1.00  0.00    -0.237 OA
ATOM     77  O   UNL A   1      39.327  36.767  38.051  1.00  0.00    -0.237 OA
ATOM     78  O   UNL A   1      38.731  34.880  39.516  1.00  0.00    -0.744 OA
ENDBRANCH  74  75
ENDBRANCH  46  69
BRANCH  58  79
ATOM     79  C   UNL A   1      45.281  27.415  35.101  1.00  0.00    -0.014 A 
ATOM     80  C   UNL A   1      46.574  27.967  35.094  1.00  0.00     0.010 A 
ATOM     81  C   UNL A   1      44.957  26.431  36.052  1.00  0.00     0.010 A 
ATOM     82  C   UNL A   1      47.538  27.515  35.999  1.00  0.00     0.020 A 
ATOM     83  C   UNL A   1      45.913  25.990  36.970  1.00  0.00     0.020 A 
ATOM     84  C   UNL A   1      47.203  26.522  36.927  1.00  0.00     0.054 A 
BRANCH  84  85
ATOM     85  S   UNL A   1      48.462  25.962  38.106  1.00  0.00     0.124 S 
ATOM     86  O   UNL A   1      49.531  26.933  37.892  1.00  0.00    -0.237 OA
ATOM     87  O   UNL A   1      47.772  26.060  39.390  1.00  0.00    -0.237 OA
ATOM     88  O   UNL A   1      48.759  24.598  37.670  1.00  0.00    -0.744 OA
ENDBRANCH  84  85
ENDBRANCH  58  79
ENDBRANCH  32  33
ENDBRANCH  25  27
ENDBRANCH  24  25
ENDBRANCH  23  24
ENDBRANCH   1  23
TORSDOF 19
ENDMDL
