MODEL 1
REMARK VINA RESULT:     -10.6      0.000      0.000
REMARK SMILES CC[C@@H](NS(=O)(=O)c1cc(C)ccc1C)C(=O)OCCOC(=O)c1ccc(-c2c3nc(c(-c4ccc(S(=O)(=O)[O-])cc4)c4ccc([nH]4)c(-c4ccc(S(=O)(=O)[O-])cc4)c4nc(c(-c5ccc(S(=O)(=O)[O-])cc5)c5ccc2[nH]5)C=C4)C=C3)cc1
REMARK SMILES IDX 19 1 18 2 16 3 17 4 3 5 2 6 1 7 4 8 5 10 6 11 7 12 8 13 9 14
REMARK SMILES IDX 14 15 10 16 13 17 15 18 11 19 12 20 20 21 21 22 22 23 23 24
REMARK SMILES IDX 24 25 25 26 83 27 26 28 82 29 27 30 28 31 29 32 76 33 30 34
REMARK SMILES IDX 81 35 75 36 77 37 31 38 80 39 74 40 73 41 32 43 62 44 43 45
REMARK SMILES IDX 61 46 44 47 47 48 60 49 78 50 45 51 46 52 59 54 79 55 48 56
REMARK SMILES IDX 33 57 34 58 42 59 35 60 41 61 36 62 37 63 38 64 39 65 40 66
REMARK SMILES IDX 63 67 64 68 72 69 65 70 71 71 66 72 67 73 68 74 69 75 70 76
REMARK SMILES IDX 49 77 50 78 58 79 51 80 57 81 52 82 53 83 54 84 55 85 56 86
REMARK H PARENT 4 9 77 42 47 53
REMARK Flexibility Score: inf
ROOT
ATOM      1  C   UNL A   1      31.684  27.810  26.495  1.00  0.00     0.274 C 
ENDROOT
BRANCH   1   2
ATOM      2  O   UNL A   1      31.879  27.538  25.092  1.00  0.00    -0.461 OA
BRANCH   2   3
ATOM      3  C   UNL A   1      31.092  26.586  24.536  1.00  0.00     0.324 C 
ATOM      4  O   UNL A   1      29.970  26.838  24.102  1.00  0.00    -0.250 OA
BRANCH   3   5
ATOM      5  C   UNL A   1      31.744  25.182  24.422  1.00  0.00     0.179 C 
BRANCH   5   6
ATOM      6  C   UNL A   1      30.826  24.326  25.320  1.00  0.00     0.028 C 
ATOM      7  C   UNL A   1      31.424  23.852  26.626  1.00  0.00     0.006 C 
ENDBRANCH   5   6
BRANCH   5   8
ATOM      8  N   UNL A   1      31.908  24.570  23.051  1.00  0.00    -0.197 NA
ATOM      9  H   UNL A   1      31.481  25.222  22.391  1.00  0.00     0.142 HD
BRANCH   8  10
ATOM     10  S   UNL A   1      33.468  24.189  22.422  1.00  0.00     0.241 S 
ATOM     11  O   UNL A   1      33.301  23.411  21.232  1.00  0.00    -0.207 OA
ATOM     12  O   UNL A   1      34.130  25.489  22.355  1.00  0.00    -0.207 OA
BRANCH  10  13
ATOM     13  C   UNL A   1      34.354  23.222  23.691  1.00  0.00     0.085 A 
ATOM     14  C   UNL A   1      35.585  23.739  24.177  1.00  0.00     0.025 A 
ATOM     15  C   UNL A   1      33.860  22.023  24.253  1.00  0.00    -0.031 A 
ATOM     16  C   UNL A   1      36.209  23.197  25.322  1.00  0.00    -0.050 A 
ATOM     17  C   UNL A   1      34.493  21.509  25.412  1.00  0.00     0.005 A 
ATOM     18  C   UNL A   1      32.687  21.215  23.784  1.00  0.00     0.046 C 
ATOM     19  C   UNL A   1      37.475  23.763  25.907  1.00  0.00     0.044 C 
ATOM     20  C   UNL A   1      35.628  22.100  25.954  1.00  0.00     0.004 A 
ENDBRANCH  10  13
ENDBRANCH   8  10
ENDBRANCH   5   8
ENDBRANCH   3   5
ENDBRANCH   2   3
ENDBRANCH   1   2
BRANCH   1  21
ATOM     21  C   UNL A   1      32.188  29.152  27.086  1.00  0.00     0.275 C 
BRANCH  21  22
ATOM     22  O   UNL A   1      33.598  29.465  27.022  1.00  0.00    -0.458 OA
BRANCH  22  23
ATOM     23  C   UNL A   1      34.177  30.607  27.467  1.00  0.00     0.338 C 
ATOM     24  O   UNL A   1      33.576  31.670  27.535  1.00  0.00    -0.246 OA
BRANCH  23  25
ATOM     25  C   UNL A   1      35.491  30.435  28.090  1.00  0.00     0.060 A 
ATOM     26  C   UNL A   1      36.020  29.165  27.982  1.00  0.00     0.016 A 
ATOM     27  C   UNL A   1      36.283  31.491  28.509  1.00  0.00     0.016 A 
ATOM     28  C   UNL A   1      37.367  28.941  28.197  1.00  0.00     0.010 A 
ATOM     29  C   UNL A   1      37.641  31.261  28.718  1.00  0.00     0.010 A 
ATOM     30  C   UNL A   1      38.181  29.966  28.634  1.00  0.00    -0.014 A 
BRANCH  30  31
ATOM     31  C   UNL A   1      39.523  29.579  29.101  1.00  0.00     0.031 A 
ATOM     32  C   UNL A   1      39.829  29.553  30.576  1.00  0.00     0.074 A 
ATOM     33  C   UNL A   1      40.488  29.304  28.198  1.00  0.00     0.049 A 
ATOM     34  N   UNL A   1      40.819  30.130  31.188  1.00  0.00    -0.248 NA
ATOM     35  C   UNL A   1      38.898  28.873  31.492  1.00  0.00     0.031 C 
ATOM     36  C   UNL A   1      40.336  29.236  26.740  1.00  0.00     0.029 A 
ATOM     37  N   UNL A   1      41.774  28.889  28.389  1.00  0.00    -0.354 N 
ATOM     38  C   UNL A   1      40.747  29.744  32.526  1.00  0.00     0.074 A 
ATOM     39  C   UNL A   1      39.489  29.055  32.676  1.00  0.00     0.031 C 
ATOM     40  C   UNL A   1      41.326  28.488  26.227  1.00  0.00     0.029 A 
ATOM     41  C   UNL A   1      42.271  28.208  27.287  1.00  0.00     0.049 A 
ATOM     42  H   UNL A   1      42.289  29.053  29.212  1.00  0.00     0.167 HD
ATOM     43  C   UNL A   1      41.809  29.825  33.377  1.00  0.00     0.031 A 
ATOM     44  C   UNL A   1      43.340  27.387  27.233  1.00  0.00     0.031 A 
ATOM     45  C   UNL A   1      42.826  30.729  32.922  1.00  0.00     0.049 A 
ATOM     46  C   UNL A   1      44.271  27.795  28.302  1.00  0.00     0.074 A 
ATOM     47  C   UNL A   1      42.967  32.091  32.802  1.00  0.00     0.029 A 
ATOM     48  N   UNL A   1      43.884  30.159  32.262  1.00  0.00    -0.354 N 
ATOM     49  N   UNL A   1      44.884  28.946  28.311  1.00  0.00    -0.248 NA
ATOM     50  C   UNL A   1      44.280  27.080  29.568  1.00  0.00     0.031 C 
ATOM     51  C   UNL A   1      43.928  32.285  31.768  1.00  0.00     0.029 A 
ATOM     52  C   UNL A   1      44.347  31.031  31.313  1.00  0.00     0.049 A 
ATOM     53  H   UNL A   1      44.253  29.264  32.442  1.00  0.00     0.167 HD
ATOM     54  C   UNL A   1      44.972  29.293  29.648  1.00  0.00     0.074 A 
ATOM     55  C   UNL A   1      44.748  28.043  30.366  1.00  0.00     0.031 C 
ATOM     56  C   UNL A   1      44.929  30.600  30.050  1.00  0.00     0.031 A 
BRANCH  43  57
ATOM     57  C   UNL A   1      42.131  28.755  34.406  1.00  0.00    -0.014 A 
ATOM     58  C   UNL A   1      42.563  29.135  35.698  1.00  0.00     0.010 A 
ATOM     59  C   UNL A   1      42.339  27.411  34.035  1.00  0.00     0.010 A 
ATOM     60  C   UNL A   1      43.239  28.233  36.537  1.00  0.00     0.020 A 
ATOM     61  C   UNL A   1      42.977  26.498  34.877  1.00  0.00     0.020 A 
ATOM     62  C   UNL A   1      43.460  26.924  36.108  1.00  0.00     0.054 A 
BRANCH  62  63
ATOM     63  S   UNL A   1      44.462  25.804  37.121  1.00  0.00     0.124 S 
ATOM     64  O   UNL A   1      43.757  24.536  36.954  1.00  0.00    -0.237 OA
ATOM     65  O   UNL A   1      45.772  25.892  36.482  1.00  0.00    -0.237 OA
ATOM     66  O   UNL A   1      44.384  26.393  38.456  1.00  0.00    -0.744 OA
ENDBRANCH  62  63
ENDBRANCH  43  57
BRANCH  44  67
ATOM     67  C   UNL A   1      43.364  26.097  26.503  1.00  0.00    -0.014 A 
ATOM     68  C   UNL A   1      44.207  25.894  25.402  1.00  0.00     0.010 A 
ATOM     69  C   UNL A   1      42.696  24.971  27.039  1.00  0.00     0.010 A 
ATOM     70  C   UNL A   1      44.412  24.601  24.888  1.00  0.00     0.020 A 
ATOM     71  C   UNL A   1      42.880  23.688  26.524  1.00  0.00     0.020 A 
ATOM     72  C   UNL A   1      43.760  23.505  25.465  1.00  0.00     0.054 A 
BRANCH  72  73
ATOM     73  S   UNL A   1      44.162  21.826  24.908  1.00  0.00     0.124 S 
ATOM     74  O   UNL A   1      42.975  21.075  25.304  1.00  0.00    -0.237 OA
ATOM     75  O   UNL A   1      44.350  22.006  23.472  1.00  0.00    -0.237 OA
ATOM     76  O   UNL A   1      45.379  21.499  25.652  1.00  0.00    -0.744 OA
ENDBRANCH  72  73
ENDBRANCH  44  67
BRANCH  56  77
ATOM     77  C   UNL A   1      45.263  31.690  29.051  1.00  0.00    -0.014 A 
ATOM     78  C   UNL A   1      46.569  32.138  28.773  1.00  0.00     0.010 A 
ATOM     79  C   UNL A   1      44.211  32.197  28.262  1.00  0.00     0.010 A 
ATOM     80  C   UNL A   1      46.810  33.069  27.750  1.00  0.00     0.020 A 
ATOM     81  C   UNL A   1      44.446  33.099  27.221  1.00  0.00     0.020 A 
ATOM     82  C   UNL A   1      45.747  33.534  26.972  1.00  0.00     0.054 A 
BRANCH  82  83
ATOM     83  S   UNL A   1      46.078  34.694  25.616  1.00  0.00     0.124 S 
ATOM     84  O   UNL A   1      47.488  34.451  25.324  1.00  0.00    -0.237 OA
ATOM     85  O   UNL A   1      45.138  34.255  24.587  1.00  0.00    -0.237 OA
ATOM     86  O   UNL A   1      45.786  36.003  26.197  1.00  0.00    -0.744 OA
ENDBRANCH  82  83
ENDBRANCH  56  77
ENDBRANCH  30  31
ENDBRANCH  23  25
ENDBRANCH  22  23
ENDBRANCH  21  22
ENDBRANCH   1  21
TORSDOF 18
ENDMDL
MODEL 2
REMARK VINA RESULT:     -10.6      1.095      1.730
REMARK SMILES CC[C@@H](NS(=O)(=O)c1cc(C)ccc1C)C(=O)OCCOC(=O)c1ccc(-c2c3nc(c(-c4ccc(S(=O)(=O)[O-])cc4)c4ccc([nH]4)c(-c4ccc(S(=O)(=O)[O-])cc4)c4nc(c(-c5ccc(S(=O)(=O)[O-])cc5)c5ccc2[nH]5)C=C4)C=C3)cc1
REMARK SMILES IDX 19 1 18 2 16 3 17 4 3 5 2 6 1 7 4 8 5 10 6 11 7 12 8 13 9 14
REMARK SMILES IDX 14 15 10 16 13 17 15 18 11 19 12 20 20 21 21 22 22 23 23 24
REMARK SMILES IDX 24 25 25 26 83 27 26 28 82 29 27 30 28 31 29 32 76 33 30 34
REMARK SMILES IDX 81 35 75 36 77 37 31 38 80 39 74 40 73 41 32 43 62 44 43 45
REMARK SMILES IDX 61 46 44 47 47 48 60 49 78 50 45 51 46 52 59 54 79 55 48 56
REMARK SMILES IDX 33 57 34 58 42 59 35 60 41 61 36 62 37 63 38 64 39 65 40 66
REMARK SMILES IDX 63 67 64 68 72 69 65 70 71 71 66 72 67 73 68 74 69 75 70 76
REMARK SMILES IDX 49 77 50 78 58 79 51 80 57 81 52 82 53 83 54 84 55 85 56 86
REMARK H PARENT 4 9 77 42 47 53
REMARK Flexibility Score: inf
ROOT
ATOM      1  C   UNL A   1      31.386  29.719  25.776  1.00  0.00     0.274 C 
ENDROOT
BRANCH   1   2
ATOM      2  O   UNL A   1      31.049  30.058  24.416  1.00  0.00    -0.461 OA
BRANCH   2   3
ATOM      3  C   UNL A   1      30.379  29.124  23.699  1.00  0.00     0.324 C 
ATOM      4  O   UNL A   1      29.330  29.381  23.113  1.00  0.00    -0.250 OA
BRANCH   3   5
ATOM      5  C   UNL A   1      31.077  27.741  23.613  1.00  0.00     0.179 C 
BRANCH   5   6
ATOM      6  C   UNL A   1      29.989  26.797  24.168  1.00  0.00     0.028 C 
ATOM      7  C   UNL A   1      29.937  25.412  23.563  1.00  0.00     0.006 C 
ENDBRANCH   5   6
BRANCH   5   8
ATOM      8  N   UNL A   1      31.589  27.272  22.271  1.00  0.00    -0.197 NA
ATOM      9  H   UNL A   1      31.500  28.065  21.634  1.00  0.00     0.142 HD
BRANCH   8  10
ATOM     10  S   UNL A   1      33.196  26.675  22.086  1.00  0.00     0.241 S 
ATOM     11  O   UNL A   1      33.277  25.961  20.848  1.00  0.00    -0.207 OA
ATOM     12  O   UNL A   1      34.022  27.860  22.299  1.00  0.00    -0.207 OA
BRANCH  10  13
ATOM     13  C   UNL A   1      33.533  25.552  23.486  1.00  0.00     0.085 A 
ATOM     14  C   UNL A   1      33.423  24.155  23.253  1.00  0.00     0.025 A 
ATOM     15  C   UNL A   1      33.947  25.991  24.763  1.00  0.00    -0.031 A 
ATOM     16  C   UNL A   1      33.901  23.215  24.193  1.00  0.00    -0.050 A 
ATOM     17  C   UNL A   1      34.438  25.030  25.681  1.00  0.00     0.005 A 
ATOM     18  C   UNL A   1      33.968  27.399  25.278  1.00  0.00     0.046 C 
ATOM     19  C   UNL A   1      33.866  21.730  23.950  1.00  0.00     0.044 C 
ATOM     20  C   UNL A   1      34.443  23.670  25.392  1.00  0.00     0.004 A 
ENDBRANCH  10  13
ENDBRANCH   8  10
ENDBRANCH   5   8
ENDBRANCH   3   5
ENDBRANCH   2   3
ENDBRANCH   1   2
BRANCH   1  21
ATOM     21  C   UNL A   1      32.186  30.732  26.637  1.00  0.00     0.275 C 
BRANCH  21  22
ATOM     22  O   UNL A   1      33.552  30.425  26.998  1.00  0.00    -0.458 OA
BRANCH  22  23
ATOM     23  C   UNL A   1      34.435  31.287  27.559  1.00  0.00     0.338 C 
ATOM     24  O   UNL A   1      34.102  32.370  28.017  1.00  0.00    -0.246 OA
BRANCH  23  25
ATOM     25  C   UNL A   1      35.770  30.735  27.804  1.00  0.00     0.060 A 
ATOM     26  C   UNL A   1      36.648  31.601  28.423  1.00  0.00     0.016 A 
ATOM     27  C   UNL A   1      36.073  29.388  27.697  1.00  0.00     0.016 A 
ATOM     28  C   UNL A   1      37.797  31.127  29.029  1.00  0.00     0.010 A 
ATOM     29  C   UNL A   1      37.228  28.915  28.314  1.00  0.00     0.010 A 
ATOM     30  C   UNL A   1      38.139  29.794  28.924  1.00  0.00    -0.014 A 
BRANCH  30  31
ATOM     31  C   UNL A   1      39.502  29.435  29.353  1.00  0.00     0.031 A 
ATOM     32  C   UNL A   1      39.850  29.420  30.818  1.00  0.00     0.074 A 
ATOM     33  C   UNL A   1      40.445  29.176  28.423  1.00  0.00     0.049 A 
ATOM     34  N   UNL A   1      40.846  30.019  31.400  1.00  0.00    -0.248 NA
ATOM     35  C   UNL A   1      38.960  28.724  31.763  1.00  0.00     0.031 C 
ATOM     36  C   UNL A   1      40.253  29.101  26.970  1.00  0.00     0.029 A 
ATOM     37  N   UNL A   1      41.744  28.788  28.578  1.00  0.00    -0.354 N 
ATOM     38  C   UNL A   1      40.820  29.636  32.741  1.00  0.00     0.074 A 
ATOM     39  C   UNL A   1      39.581  28.923  32.929  1.00  0.00     0.031 C 
ATOM     40  C   UNL A   1      41.242  28.371  26.431  1.00  0.00     0.029 A 
ATOM     41  C   UNL A   1      42.223  28.113  27.464  1.00  0.00     0.049 A 
ATOM     42  H   UNL A   1      42.279  28.965  29.385  1.00  0.00     0.167 HD
ATOM     43  C   UNL A   1      41.905  29.740  33.560  1.00  0.00     0.031 A 
ATOM     44  C   UNL A   1      43.306  27.313  27.381  1.00  0.00     0.031 A 
ATOM     45  C   UNL A   1      42.890  30.663  33.074  1.00  0.00     0.049 A 
ATOM     46  C   UNL A   1      44.259  27.743  28.422  1.00  0.00     0.074 A 
ATOM     47  C   UNL A   1      43.000  32.028  32.946  1.00  0.00     0.029 A 
ATOM     48  N   UNL A   1      43.939  30.113  32.385  1.00  0.00    -0.354 N 
ATOM     49  N   UNL A   1      44.849  28.907  28.410  1.00  0.00    -0.248 NA
ATOM     50  C   UNL A   1      44.319  27.033  29.689  1.00  0.00     0.031 C 
ATOM     51  C   UNL A   1      43.927  32.237  31.885  1.00  0.00     0.029 A 
ATOM     52  C   UNL A   1      44.357  30.990  31.420  1.00  0.00     0.049 A 
ATOM     53  H   UNL A   1      44.331  29.225  32.557  1.00  0.00     0.167 HD
ATOM     54  C   UNL A   1      44.969  29.260  29.743  1.00  0.00     0.074 A 
ATOM     55  C   UNL A   1      44.790  28.008  30.471  1.00  0.00     0.031 C 
ATOM     56  C   UNL A   1      44.910  30.567  30.142  1.00  0.00     0.031 A 
BRANCH  43  57
ATOM     57  C   UNL A   1      42.277  28.681  34.583  1.00  0.00    -0.014 A 
ATOM     58  C   UNL A   1      42.874  29.067  35.805  1.00  0.00     0.010 A 
ATOM     59  C   UNL A   1      42.363  27.317  34.236  1.00  0.00     0.010 A 
ATOM     60  C   UNL A   1      43.587  28.148  36.593  1.00  0.00     0.020 A 
ATOM     61  C   UNL A   1      43.037  26.389  35.032  1.00  0.00     0.020 A 
ATOM     62  C   UNL A   1      43.680  26.817  36.186  1.00  0.00     0.054 A 
BRANCH  62  63
ATOM     63  S   UNL A   1      44.723  25.664  37.119  1.00  0.00     0.124 S 
ATOM     64  O   UNL A   1      44.440  24.397  36.452  1.00  0.00    -0.237 OA
ATOM     65  O   UNL A   1      46.060  26.210  36.906  1.00  0.00    -0.237 OA
ATOM     66  O   UNL A   1      44.218  25.780  38.485  1.00  0.00    -0.744 OA
ENDBRANCH  62  63
ENDBRANCH  43  57
BRANCH  44  67
ATOM     67  C   UNL A   1      43.335  26.023  26.654  1.00  0.00    -0.014 A 
ATOM     68  C   UNL A   1      43.988  25.889  25.421  1.00  0.00     0.010 A 
ATOM     69  C   UNL A   1      42.891  24.842  27.296  1.00  0.00     0.010 A 
ATOM     70  C   UNL A   1      44.232  24.617  24.875  1.00  0.00     0.020 A 
ATOM     71  C   UNL A   1      43.114  23.576  26.753  1.00  0.00     0.020 A 
ATOM     72  C   UNL A   1      43.809  23.469  25.555  1.00  0.00     0.054 A 
BRANCH  72  73
ATOM     73  S   UNL A   1      44.279  21.831  24.931  1.00  0.00     0.124 S 
ATOM     74  O   UNL A   1      43.138  21.011  25.323  1.00  0.00    -0.237 OA
ATOM     75  O   UNL A   1      44.427  22.071  23.498  1.00  0.00    -0.237 OA
ATOM     76  O   UNL A   1      45.525  21.538  25.638  1.00  0.00    -0.744 OA
ENDBRANCH  72  73
ENDBRANCH  44  67
BRANCH  56  77
ATOM     77  C   UNL A   1      45.194  31.660  29.131  1.00  0.00    -0.014 A 
ATOM     78  C   UNL A   1      46.465  32.224  28.908  1.00  0.00     0.010 A 
ATOM     79  C   UNL A   1      44.142  32.046  28.276  1.00  0.00     0.010 A 
ATOM     80  C   UNL A   1      46.672  33.149  27.872  1.00  0.00     0.020 A 
ATOM     81  C   UNL A   1      44.347  32.941  27.223  1.00  0.00     0.020 A 
ATOM     82  C   UNL A   1      45.613  33.492  27.028  1.00  0.00     0.054 A 
BRANCH  82  83
ATOM     83  S   UNL A   1      45.906  34.646  25.658  1.00  0.00     0.124 S 
ATOM     84  O   UNL A   1      45.631  35.945  26.269  1.00  0.00    -0.237 OA
ATOM     85  O   UNL A   1      47.304  34.393  25.323  1.00  0.00    -0.237 OA
ATOM     86  O   UNL A   1      44.944  34.230  24.639  1.00  0.00    -0.744 OA
ENDBRANCH  82  83
ENDBRANCH  56  77
ENDBRANCH  30  31
ENDBRANCH  23  25
ENDBRANCH  22  23
ENDBRANCH  21  22
ENDBRANCH   1  21
TORSDOF 18
ENDMDL
MODEL 3
REMARK VINA RESULT:     -10.5      2.506      9.015
REMARK SMILES CC[C@@H](NS(=O)(=O)c1cc(C)ccc1C)C(=O)OCCOC(=O)c1ccc(-c2c3nc(c(-c4ccc(S(=O)(=O)[O-])cc4)c4ccc([nH]4)c(-c4ccc(S(=O)(=O)[O-])cc4)c4nc(c(-c5ccc(S(=O)(=O)[O-])cc5)c5ccc2[nH]5)C=C4)C=C3)cc1
REMARK SMILES IDX 19 1 18 2 16 3 17 4 3 5 2 6 1 7 4 8 5 10 6 11 7 12 8 13 9 14
REMARK SMILES IDX 14 15 10 16 13 17 15 18 11 19 12 20 20 21 21 22 22 23 23 24
REMARK SMILES IDX 24 25 25 26 83 27 26 28 82 29 27 30 28 31 29 32 76 33 30 34
REMARK SMILES IDX 81 35 75 36 77 37 31 38 80 39 74 40 73 41 32 43 62 44 43 45
REMARK SMILES IDX 61 46 44 47 47 48 60 49 78 50 45 51 46 52 59 54 79 55 48 56
REMARK SMILES IDX 33 57 34 58 42 59 35 60 41 61 36 62 37 63 38 64 39 65 40 66
REMARK SMILES IDX 63 67 64 68 72 69 65 70 71 71 66 72 67 73 68 74 69 75 70 76
REMARK SMILES IDX 49 77 50 78 58 79 51 80 57 81 52 82 53 83 54 84 55 85 56 86
REMARK H PARENT 4 9 77 42 47 53
REMARK Flexibility Score: inf
ROOT
ATOM      1  C   UNL A   1      35.844  20.790  24.963  1.00  0.00     0.274 C 
ENDROOT
BRANCH   1   2
ATOM      2  O   UNL A   1      35.422  22.131  24.641  1.00  0.00    -0.461 OA
BRANCH   2   3
ATOM      3  C   UNL A   1      34.730  22.802  25.593  1.00  0.00     0.324 C 
ATOM      4  O   UNL A   1      35.233  23.105  26.673  1.00  0.00    -0.250 OA
BRANCH   3   5
ATOM      5  C   UNL A   1      33.293  23.220  25.185  1.00  0.00     0.179 C 
BRANCH   5   6
ATOM      6  C   UNL A   1      32.439  22.104  25.823  1.00  0.00     0.028 C 
ATOM      7  C   UNL A   1      32.118  20.922  24.936  1.00  0.00     0.006 C 
ENDBRANCH   5   6
BRANCH   5   8
ATOM      8  N   UNL A   1      32.800  24.592  25.581  1.00  0.00    -0.197 NA
ATOM      9  H   UNL A   1      32.957  24.676  26.586  1.00  0.00     0.142 HD
BRANCH   8  10
ATOM     10  S   UNL A   1      33.451  26.018  24.863  1.00  0.00     0.241 S 
ATOM     11  O   UNL A   1      33.971  26.854  25.902  1.00  0.00    -0.207 OA
ATOM     12  O   UNL A   1      34.344  25.498  23.831  1.00  0.00    -0.207 OA
BRANCH  10  13
ATOM     13  C   UNL A   1      32.091  26.867  23.989  1.00  0.00     0.085 A 
ATOM     14  C   UNL A   1      30.779  26.344  24.143  1.00  0.00     0.025 A 
ATOM     15  C   UNL A   1      32.262  28.039  23.218  1.00  0.00    -0.031 A 
ATOM     16  C   UNL A   1      29.644  27.069  23.716  1.00  0.00    -0.050 A 
ATOM     17  C   UNL A   1      31.108  28.757  22.816  1.00  0.00     0.005 A 
ATOM     18  C   UNL A   1      33.555  28.662  22.786  1.00  0.00     0.046 C 
ATOM     19  C   UNL A   1      28.237  26.579  23.926  1.00  0.00     0.044 C 
ATOM     20  C   UNL A   1      29.824  28.297  23.085  1.00  0.00     0.004 A 
ENDBRANCH  10  13
ENDBRANCH   8  10
ENDBRANCH   5   8
ENDBRANCH   3   5
ENDBRANCH   2   3
ENDBRANCH   1   2
BRANCH   1  21
ATOM     21  C   UNL A   1      37.353  20.497  25.168  1.00  0.00     0.275 C 
BRANCH  21  22
ATOM     22  O   UNL A   1      38.267  21.603  25.349  1.00  0.00    -0.458 OA
BRANCH  22  23
ATOM     23  C   UNL A   1      39.268  21.662  26.262  1.00  0.00     0.338 C 
ATOM     24  O   UNL A   1      40.059  20.746  26.436  1.00  0.00    -0.246 OA
BRANCH  23  25
ATOM     25  C   UNL A   1      39.493  22.984  26.852  1.00  0.00     0.060 A 
ATOM     26  C   UNL A   1      40.694  23.122  27.518  1.00  0.00     0.016 A 
ATOM     27  C   UNL A   1      38.728  24.097  26.549  1.00  0.00     0.016 A 
ATOM     28  C   UNL A   1      41.198  24.375  27.810  1.00  0.00     0.010 A 
ATOM     29  C   UNL A   1      39.243  25.358  26.840  1.00  0.00     0.010 A 
ATOM     30  C   UNL A   1      40.452  25.505  27.541  1.00  0.00    -0.014 A 
BRANCH  30  31
ATOM     31  C   UNL A   1      40.937  26.763  28.133  1.00  0.00     0.031 A 
ATOM     32  C   UNL A   1      42.218  27.383  27.639  1.00  0.00     0.074 A 
ATOM     33  C   UNL A   1      40.256  27.324  29.155  1.00  0.00     0.049 A 
ATOM     34  N   UNL A   1      43.239  27.761  28.349  1.00  0.00    -0.248 NA
ATOM     35  C   UNL A   1      42.431  27.539  26.190  1.00  0.00     0.031 C 
ATOM     36  C   UNL A   1      38.975  26.874  29.712  1.00  0.00     0.029 A 
ATOM     37  N   UNL A   1      40.486  28.490  29.825  1.00  0.00    -0.354 N 
ATOM     38  C   UNL A   1      44.140  28.364  27.473  1.00  0.00     0.074 A 
ATOM     39  C   UNL A   1      43.638  28.108  26.145  1.00  0.00     0.031 C 
ATOM     40  C   UNL A   1      38.384  27.899  30.345  1.00  0.00     0.029 A 
ATOM     41  C   UNL A   1      39.331  28.993  30.406  1.00  0.00     0.049 A 
ATOM     42  H   UNL A   1      41.367  28.924  29.889  1.00  0.00     0.167 HD
ATOM     43  C   UNL A   1      45.122  29.213  27.891  1.00  0.00     0.031 A 
ATOM     44  C   UNL A   1      39.102  30.248  30.844  1.00  0.00     0.031 A 
ATOM     45  C   UNL A   1      45.426  29.076  29.286  1.00  0.00     0.049 A 
ATOM     46  C   UNL A   1      40.403  30.837  31.212  1.00  0.00     0.074 A 
ATOM     47  C   UNL A   1      46.051  28.146  30.084  1.00  0.00     0.029 A 
ATOM     48  N   UNL A   1      44.818  29.975  30.123  1.00  0.00    -0.354 N 
ATOM     49  N   UNL A   1      41.131  30.394  32.200  1.00  0.00    -0.248 NA
ATOM     50  C   UNL A   1      41.095  31.710  30.277  1.00  0.00     0.031 C 
ATOM     51  C   UNL A   1      45.500  28.329  31.384  1.00  0.00     0.029 A 
ATOM     52  C   UNL A   1      44.574  29.375  31.330  1.00  0.00     0.049 A 
ATOM     53  H   UNL A   1      44.593  30.906  29.893  1.00  0.00     0.167 HD
ATOM     54  C   UNL A   1      42.440  30.569  31.785  1.00  0.00     0.074 A 
ATOM     55  C   UNL A   1      42.352  31.529  30.690  1.00  0.00     0.031 C 
ATOM     56  C   UNL A   1      43.430  29.706  32.168  1.00  0.00     0.031 A 
BRANCH  43  57
ATOM     57  C   UNL A   1      45.504  30.474  27.136  1.00  0.00    -0.014 A 
ATOM     58  C   UNL A   1      46.869  30.778  26.929  1.00  0.00     0.010 A 
ATOM     59  C   UNL A   1      44.581  31.519  26.926  1.00  0.00     0.010 A 
ATOM     60  C   UNL A   1      47.287  32.081  26.607  1.00  0.00     0.020 A 
ATOM     61  C   UNL A   1      44.984  32.807  26.570  1.00  0.00     0.020 A 
ATOM     62  C   UNL A   1      46.338  33.092  26.452  1.00  0.00     0.054 A 
BRANCH  62  63
ATOM     63  S   UNL A   1      46.881  34.800  26.188  1.00  0.00     0.124 S 
ATOM     64  O   UNL A   1      47.108  35.259  27.555  1.00  0.00    -0.237 OA
ATOM     65  O   UNL A   1      48.078  34.625  25.370  1.00  0.00    -0.237 OA
ATOM     66  O   UNL A   1      45.748  35.415  25.500  1.00  0.00    -0.744 OA
ENDBRANCH  62  63
ENDBRANCH  43  57
BRANCH  44  67
ATOM     67  C   UNL A   1      37.843  30.995  30.612  1.00  0.00    -0.014 A 
ATOM     68  C   UNL A   1      37.500  32.112  31.385  1.00  0.00     0.010 A 
ATOM     69  C   UNL A   1      37.066  30.726  29.460  1.00  0.00     0.010 A 
ATOM     70  C   UNL A   1      36.448  32.959  30.991  1.00  0.00     0.020 A 
ATOM     71  C   UNL A   1      36.011  31.551  29.071  1.00  0.00     0.020 A 
ATOM     72  C   UNL A   1      35.724  32.681  29.827  1.00  0.00     0.054 A 
BRANCH  72  73
ATOM     73  S   UNL A   1      34.486  33.869  29.234  1.00  0.00     0.124 S 
ATOM     74  O   UNL A   1      35.318  34.956  28.728  1.00  0.00    -0.237 OA
ATOM     75  O   UNL A   1      33.766  33.097  28.226  1.00  0.00    -0.237 OA
ATOM     76  O   UNL A   1      33.713  34.187  30.434  1.00  0.00    -0.744 OA
ENDBRANCH  72  73
ENDBRANCH  44  67
BRANCH  56  77
ATOM     77  C   UNL A   1      43.227  28.853  33.405  1.00  0.00    -0.014 A 
ATOM     78  C   UNL A   1      43.624  29.230  34.703  1.00  0.00     0.010 A 
ATOM     79  C   UNL A   1      42.482  27.665  33.262  1.00  0.00     0.010 A 
ATOM     80  C   UNL A   1      43.296  28.439  35.815  1.00  0.00     0.020 A 
ATOM     81  C   UNL A   1      42.125  26.889  34.368  1.00  0.00     0.020 A 
ATOM     82  C   UNL A   1      42.537  27.279  35.641  1.00  0.00     0.054 A 
BRANCH  82  83
ATOM     83  S   UNL A   1      42.072  26.294  37.093  1.00  0.00     0.124 S 
ATOM     84  O   UNL A   1      43.105  26.648  38.064  1.00  0.00    -0.237 OA
ATOM     85  O   UNL A   1      40.731  26.788  37.394  1.00  0.00    -0.237 OA
ATOM     86  O   UNL A   1      42.126  24.915  36.612  1.00  0.00    -0.744 OA
ENDBRANCH  82  83
ENDBRANCH  56  77
ENDBRANCH  30  31
ENDBRANCH  23  25
ENDBRANCH  22  23
ENDBRANCH  21  22
ENDBRANCH   1  21
TORSDOF 18
ENDMDL
