MODEL 1
REMARK VINA RESULT:     -12.5      0.000      0.000
REMARK SMILES COc1ccc(-n2cc(C(=O)OCCOC(=O)c3ccc(-c4c5nc(c(-c6ccc(S(=O)(=O)[O-])cc6)c6ccc([nH]6)c(-c6ccc(S(=O)(=O)[O-])cc6)c6nc(c(-c7ccc(S(=O)(=O)[O-])cc7)c7ccc4[nH]7)C=C6)C=C5)cc3)c3c2[C@H](c2ccc(OCC(N)=O)cc2)CC(O)=N3)cc1
REMARK SMILES IDX 13 1 12 2 10 3 11 4 9 5 7 6 8 7 79 8 78 9 80 10 95 11 92 12
REMARK SMILES IDX 93 13 6 14 3 15 4 16 97 17 5 18 96 19 2 20 1 21 81 22 82 23
REMARK SMILES IDX 91 24 83 25 90 26 84 27 85 28 86 29 87 30 88 31 89 32 94 35
REMARK SMILES IDX 14 37 15 38 16 39 17 40 18 41 19 42 77 43 20 44 76 45 21 46
REMARK SMILES IDX 22 47 23 48 70 49 24 50 75 51 69 52 71 53 25 54 74 55 68 56
REMARK SMILES IDX 67 57 26 59 56 60 37 61 55 62 38 63 41 64 54 65 72 66 39 67
REMARK SMILES IDX 40 68 53 70 73 71 42 72 27 73 28 74 36 75 29 76 35 77 30 78
REMARK SMILES IDX 31 79 32 80 33 81 34 82 57 83 58 84 66 85 59 86 65 87 60 88
REMARK SMILES IDX 61 89 62 90 63 91 64 92 43 93 44 94 52 95 45 96 51 97 46 98
REMARK SMILES IDX 47 99 48 100 49 101 50 102
REMARK H PARENT 88 33 88 34 94 36 71 58 41 69
REMARK Flexibility Score: inf
ROOT
ATOM      1  C   UNL A   1      33.467  29.020  24.882  1.00  0.00     0.275 C 
ENDROOT
BRANCH   1   2
ATOM      2  O   UNL A   1      32.505  27.960  24.842  1.00  0.00    -0.458 OA
BRANCH   2   3
ATOM      3  C   UNL A   1      32.700  26.939  23.958  1.00  0.00     0.342 C 
ATOM      4  O   UNL A   1      32.525  27.029  22.745  1.00  0.00    -0.246 OA
BRANCH   3   5
ATOM      5  C   UNL A   1      33.211  25.742  24.605  1.00  0.00     0.104 A 
ATOM      6  N   UNL A   1      34.629  24.141  25.347  1.00  0.00    -0.317 N 
ATOM      7  C   UNL A   1      34.539  25.324  24.638  1.00  0.00     0.109 A 
ATOM      8  C   UNL A   1      33.364  23.808  25.786  1.00  0.00     0.057 A 
ATOM      9  C   UNL A   1      32.506  24.790  25.364  1.00  0.00     0.103 A 
ATOM     10  C   UNL A   1      32.925  22.634  26.595  1.00  0.00     0.078 C 
ATOM     11  N   UNL A   1      31.137  24.797  25.634  1.00  0.00    -0.215 NA
ATOM     12  C   UNL A   1      31.666  23.061  27.384  1.00  0.00     0.111 C 
ATOM     13  C   UNL A   1      30.783  23.998  26.584  1.00  0.00     0.186 C 
BRANCH   6  14
ATOM     14  C   UNL A   1      35.800  23.361  25.437  1.00  0.00     0.046 A 
ATOM     15  C   UNL A   1      38.189  21.916  25.535  1.00  0.00     0.119 A 
ATOM     16  C   UNL A   1      38.068  23.124  26.224  1.00  0.00     0.048 A 
ATOM     17  C   UNL A   1      37.082  21.396  24.856  1.00  0.00     0.048 A 
ATOM     18  C   UNL A   1      36.875  23.846  26.184  1.00  0.00     0.030 A 
ATOM     19  C   UNL A   1      35.878  22.117  24.807  1.00  0.00     0.030 A 
BRANCH  15  20
ATOM     20  O   UNL A   1      39.417  21.318  25.630  1.00  0.00    -0.497 OA
ATOM     21  C   UNL A   1      40.265  21.810  26.662  1.00  0.00     0.278 C 
ENDBRANCH  15  20
ENDBRANCH   6  14
BRANCH  10  22
ATOM     22  C   UNL A   1      32.699  21.413  25.708  1.00  0.00    -0.038 A 
ATOM     23  C   UNL A   1      32.950  20.139  26.236  1.00  0.00     0.008 A 
ATOM     24  C   UNL A   1      32.379  21.511  24.344  1.00  0.00     0.008 A 
ATOM     25  C   UNL A   1      32.971  19.014  25.413  1.00  0.00     0.047 A 
ATOM     26  C   UNL A   1      32.361  20.376  23.527  1.00  0.00     0.047 A 
ATOM     27  C   UNL A   1      32.668  19.126  24.060  1.00  0.00     0.120 A 
BRANCH  27  28
ATOM     28  O   UNL A   1      32.753  17.966  23.344  1.00  0.00    -0.484 OA
BRANCH  28  29
ATOM     29  C   UNL A   1      34.003  17.296  23.398  1.00  0.00     0.329 C 
BRANCH  29  30
ATOM     30  C   UNL A   1      34.099  16.201  24.464  1.00  0.00     0.255 C 
ATOM     31  N   UNL A   1      35.214  16.241  25.254  1.00  0.00    -0.367 N 
ATOM     32  O   UNL A   1      33.255  15.325  24.627  1.00  0.00    -0.271 OA
ATOM     33  H   UNL A   1      35.887  16.945  25.120  1.00  0.00     0.159 HD
ATOM     34  H   UNL A   1      35.343  15.563  25.958  1.00  0.00     0.159 HD
ENDBRANCH  29  30
ENDBRANCH  28  29
ENDBRANCH  27  28
ENDBRANCH  10  22
BRANCH  13  35
ATOM     35  O   UNL A   1      29.484  23.989  26.950  1.00  0.00    -0.496 OA
ATOM     36  H   UNL A   1      29.178  24.584  27.605  1.00  0.00     0.294 HD
ENDBRANCH  13  35
ENDBRANCH   3   5
ENDBRANCH   2   3
ENDBRANCH   1   2
BRANCH   1  37
ATOM     37  C   UNL A   1      33.322  29.834  26.157  1.00  0.00     0.275 C 
BRANCH  37  38
ATOM     38  O   UNL A   1      34.595  29.994  26.774  1.00  0.00    -0.458 OA
BRANCH  38  39
ATOM     39  C   UNL A   1      34.702  31.024  27.642  1.00  0.00     0.338 C 
ATOM     40  O   UNL A   1      34.131  32.099  27.590  1.00  0.00    -0.246 OA
BRANCH  39  41
ATOM     41  C   UNL A   1      35.812  30.740  28.555  1.00  0.00     0.060 A 
ATOM     42  C   UNL A   1      36.833  31.692  28.612  1.00  0.00     0.016 A 
ATOM     43  C   UNL A   1      35.979  29.433  29.035  1.00  0.00     0.016 A 
ATOM     44  C   UNL A   1      38.099  31.259  28.933  1.00  0.00     0.010 A 
ATOM     45  C   UNL A   1      37.244  28.998  29.330  1.00  0.00     0.010 A 
ATOM     46  C   UNL A   1      38.295  29.897  29.186  1.00  0.00    -0.014 A 
BRANCH  46  47
ATOM     47  C   UNL A   1      39.644  29.434  29.406  1.00  0.00     0.031 A 
ATOM     48  C   UNL A   1      40.024  29.480  30.833  1.00  0.00     0.074 A 
ATOM     49  C   UNL A   1      40.392  28.899  28.425  1.00  0.00     0.049 A 
ATOM     50  N   UNL A   1      40.876  30.267  31.397  1.00  0.00    -0.248 NA
ATOM     51  C   UNL A   1      39.202  28.698  31.773  1.00  0.00     0.031 C 
ATOM     52  C   UNL A   1      39.987  28.541  27.062  1.00  0.00     0.029 A 
ATOM     53  N   UNL A   1      41.668  28.442  28.493  1.00  0.00    -0.354 N 
ATOM     54  C   UNL A   1      40.860  29.915  32.741  1.00  0.00     0.074 A 
ATOM     55  C   UNL A   1      39.674  29.124  32.943  1.00  0.00     0.031 C 
ATOM     56  C   UNL A   1      40.911  27.708  26.530  1.00  0.00     0.029 A 
ATOM     57  C   UNL A   1      42.026  27.590  27.458  1.00  0.00     0.049 A 
ATOM     58  H   UNL A   1      42.287  28.694  29.215  1.00  0.00     0.167 HD
ATOM     59  C   UNL A   1      41.967  30.047  33.520  1.00  0.00     0.031 A 
ATOM     60  C   UNL A   1      43.121  26.788  27.423  1.00  0.00     0.031 A 
ATOM     61  C   UNL A   1      42.942  30.919  32.917  1.00  0.00     0.049 A 
ATOM     62  C   UNL A   1      44.079  27.314  28.431  1.00  0.00     0.074 A 
ATOM     63  C   UNL A   1      42.944  32.243  32.526  1.00  0.00     0.029 A 
ATOM     64  N   UNL A   1      43.990  30.321  32.255  1.00  0.00    -0.354 N 
ATOM     65  N   UNL A   1      44.657  28.479  28.331  1.00  0.00    -0.248 NA
ATOM     66  C   UNL A   1      44.021  26.766  29.779  1.00  0.00     0.031 C 
ATOM     67  C   UNL A   1      43.692  32.268  31.314  1.00  0.00     0.029 A 
ATOM     68  C   UNL A   1      44.162  30.977  31.063  1.00  0.00     0.049 A 
ATOM     69  H   UNL A   1      44.521  29.558  32.578  1.00  0.00     0.167 HD
ATOM     70  C   UNL A   1      44.651  28.998  29.619  1.00  0.00     0.074 A 
ATOM     71  C   UNL A   1      44.330  27.861  30.481  1.00  0.00     0.031 C 
ATOM     72  C   UNL A   1      44.624  30.346  29.841  1.00  0.00     0.031 A 
BRANCH  59  73
ATOM     73  C   UNL A   1      42.326  29.045  34.587  1.00  0.00    -0.014 A 
ATOM     74  C   UNL A   1      42.670  29.511  35.868  1.00  0.00     0.010 A 
ATOM     75  C   UNL A   1      42.608  27.691  34.300  1.00  0.00     0.010 A 
ATOM     76  C   UNL A   1      43.326  28.682  36.787  1.00  0.00     0.020 A 
ATOM     77  C   UNL A   1      43.216  26.844  35.224  1.00  0.00     0.020 A 
ATOM     78  C   UNL A   1      43.604  27.357  36.451  1.00  0.00     0.054 A 
BRANCH  78  79
ATOM     79  S   UNL A   1      44.548  26.326  37.597  1.00  0.00     0.124 S 
ATOM     80  O   UNL A   1      45.853  26.272  36.946  1.00  0.00    -0.237 OA
ATOM     81  O   UNL A   1      44.484  27.103  38.832  1.00  0.00    -0.237 OA
ATOM     82  O   UNL A   1      43.804  25.068  37.618  1.00  0.00    -0.744 OA
ENDBRANCH  78  79
ENDBRANCH  59  73
BRANCH  60  83
ATOM     83  C   UNL A   1      43.225  25.425  26.839  1.00  0.00    -0.014 A 
ATOM     84  C   UNL A   1      43.103  25.202  25.455  1.00  0.00     0.010 A 
ATOM     85  C   UNL A   1      43.706  24.360  27.630  1.00  0.00     0.010 A 
ATOM     86  C   UNL A   1      43.482  23.973  24.882  1.00  0.00     0.020 A 
ATOM     87  C   UNL A   1      44.082  23.133  27.068  1.00  0.00     0.020 A 
ATOM     88  C   UNL A   1      43.983  22.950  25.691  1.00  0.00     0.054 A 
BRANCH  88  89
ATOM     89  S   UNL A   1      44.600  21.417  24.930  1.00  0.00     0.124 S 
ATOM     90  O   UNL A   1      44.669  21.778  23.517  1.00  0.00    -0.237 OA
ATOM     91  O   UNL A   1      45.884  21.224  25.597  1.00  0.00    -0.237 OA
ATOM     92  O   UNL A   1      43.576  20.428  25.267  1.00  0.00    -0.744 OA
ENDBRANCH  88  89
ENDBRANCH  60  83
BRANCH  72  93
ATOM     93  C   UNL A   1      44.876  31.275  28.672  1.00  0.00    -0.014 A 
ATOM     94  C   UNL A   1      43.941  31.508  27.643  1.00  0.00     0.010 A 
ATOM     95  C   UNL A   1      46.029  32.076  28.723  1.00  0.00     0.010 A 
ATOM     96  C   UNL A   1      44.165  32.512  26.685  1.00  0.00     0.020 A 
ATOM     97  C   UNL A   1      46.249  33.087  27.784  1.00  0.00     0.020 A 
ATOM     98  C   UNL A   1      45.319  33.299  26.767  1.00  0.00     0.054 A 
BRANCH  98  99
ATOM     99  S   UNL A   1      45.573  34.645  25.575  1.00  0.00     0.124 S 
ATOM    100  O   UNL A   1      45.357  35.837  26.389  1.00  0.00    -0.237 OA
ATOM    101  O   UNL A   1      46.947  34.428  25.126  1.00  0.00    -0.237 OA
ATOM    102  O   UNL A   1      44.554  34.403  24.553  1.00  0.00    -0.744 OA
ENDBRANCH  98  99
ENDBRANCH  72  93
ENDBRANCH  46  47
ENDBRANCH  39  41
ENDBRANCH  38  39
ENDBRANCH  37  38
ENDBRANCH   1  37
TORSDOF 21
ENDMDL
MODEL 2
REMARK VINA RESULT:     -12.1      3.021      7.511
REMARK SMILES COc1ccc(-n2cc(C(=O)OCCOC(=O)c3ccc(-c4c5nc(c(-c6ccc(S(=O)(=O)[O-])cc6)c6ccc([nH]6)c(-c6ccc(S(=O)(=O)[O-])cc6)c6nc(c(-c7ccc(S(=O)(=O)[O-])cc7)c7ccc4[nH]7)C=C6)C=C5)cc3)c3c2[C@H](c2ccc(OCC(N)=O)cc2)CC(O)=N3)cc1
REMARK SMILES IDX 13 1 12 2 10 3 11 4 9 5 7 6 8 7 79 8 78 9 80 10 95 11 92 12
REMARK SMILES IDX 93 13 6 14 3 15 4 16 97 17 5 18 96 19 2 20 1 21 81 22 82 23
REMARK SMILES IDX 91 24 83 25 90 26 84 27 85 28 86 29 87 30 88 31 89 32 94 35
REMARK SMILES IDX 14 37 15 38 16 39 17 40 18 41 19 42 77 43 20 44 76 45 21 46
REMARK SMILES IDX 22 47 23 48 70 49 24 50 75 51 69 52 71 53 25 54 74 55 68 56
REMARK SMILES IDX 67 57 26 59 56 60 37 61 55 62 38 63 41 64 54 65 72 66 39 67
REMARK SMILES IDX 40 68 53 70 73 71 42 72 27 73 28 74 36 75 29 76 35 77 30 78
REMARK SMILES IDX 31 79 32 80 33 81 34 82 57 83 58 84 66 85 59 86 65 87 60 88
REMARK SMILES IDX 61 89 62 90 63 91 64 92 43 93 44 94 52 95 45 96 51 97 46 98
REMARK SMILES IDX 47 99 48 100 49 101 50 102
REMARK H PARENT 88 33 88 34 94 36 71 58 41 69
REMARK Flexibility Score: inf
ROOT
ATOM      1  C   UNL A   1      33.559  28.281  23.810  1.00  0.00     0.275 C 
ENDROOT
BRANCH   1   2
ATOM      2  O   UNL A   1      32.712  27.386  23.079  1.00  0.00    -0.458 OA
BRANCH   2   3
ATOM      3  C   UNL A   1      33.282  26.306  22.471  1.00  0.00     0.342 C 
ATOM      4  O   UNL A   1      33.475  26.212  21.261  1.00  0.00    -0.246 OA
BRANCH   3   5
ATOM      5  C   UNL A   1      33.704  25.296  23.428  1.00  0.00     0.104 A 
ATOM      6  N   UNL A   1      35.005  23.878  24.619  1.00  0.00    -0.317 N 
ATOM      7  C   UNL A   1      35.004  24.837  23.625  1.00  0.00     0.109 A 
ATOM      8  C   UNL A   1      33.711  23.733  25.076  1.00  0.00     0.057 A 
ATOM      9  C   UNL A   1      32.924  24.611  24.377  1.00  0.00     0.103 A 
ATOM     10  C   UNL A   1      33.182  22.834  26.142  1.00  0.00     0.078 C 
ATOM     11  N   UNL A   1      31.551  24.754  24.578  1.00  0.00    -0.215 NA
ATOM     12  C   UNL A   1      31.928  23.513  26.739  1.00  0.00     0.111 C 
ATOM     13  C   UNL A   1      31.124  24.249  25.687  1.00  0.00     0.186 C 
BRANCH   6  14
ATOM     14  C   UNL A   1      36.126  23.092  24.958  1.00  0.00     0.046 A 
ATOM     15  C   UNL A   1      38.432  21.634  25.560  1.00  0.00     0.119 A 
ATOM     16  C   UNL A   1      38.206  22.873  26.161  1.00  0.00     0.048 A 
ATOM     17  C   UNL A   1      37.460  21.092  24.711  1.00  0.00     0.048 A 
ATOM     18  C   UNL A   1      37.053  23.603  25.870  1.00  0.00     0.030 A 
ATOM     19  C   UNL A   1      36.298  21.821  24.409  1.00  0.00     0.030 A 
BRANCH  15  20
ATOM     20  O   UNL A   1      39.611  21.031  25.906  1.00  0.00    -0.497 OA
ATOM     21  C   UNL A   1      40.646  21.904  26.346  1.00  0.00     0.278 C 
ENDBRANCH  15  20
ENDBRANCH   6  14
BRANCH  10  22
ATOM     22  C   UNL A   1      32.912  21.436  25.594  1.00  0.00    -0.038 A 
ATOM     23  C   UNL A   1      33.088  20.333  26.440  1.00  0.00     0.008 A 
ATOM     24  C   UNL A   1      32.622  21.191  24.242  1.00  0.00     0.008 A 
ATOM     25  C   UNL A   1      33.068  19.033  25.936  1.00  0.00     0.047 A 
ATOM     26  C   UNL A   1      32.562  19.885  23.745  1.00  0.00     0.047 A 
ATOM     27  C   UNL A   1      32.796  18.804  24.591  1.00  0.00     0.120 A 
BRANCH  27  28
ATOM     28  O   UNL A   1      32.835  17.494  24.203  1.00  0.00    -0.484 OA
BRANCH  28  29
ATOM     29  C   UNL A   1      34.129  16.948  23.999  1.00  0.00     0.329 C 
BRANCH  29  30
ATOM     30  C   UNL A   1      34.553  15.901  25.033  1.00  0.00     0.255 C 
ATOM     31  N   UNL A   1      35.754  16.126  25.645  1.00  0.00    -0.367 N 
ATOM     32  O   UNL A   1      33.889  14.908  25.318  1.00  0.00    -0.271 OA
ATOM     33  H   UNL A   1      36.283  16.923  25.414  1.00  0.00     0.159 HD
ATOM     34  H   UNL A   1      36.092  15.490  26.317  1.00  0.00     0.159 HD
ENDBRANCH  29  30
ENDBRANCH  28  29
ENDBRANCH  27  28
ENDBRANCH  10  22
BRANCH  13  35
ATOM     35  O   UNL A   1      29.817  24.399  25.986  1.00  0.00    -0.496 OA
ATOM     36  H   UNL A   1      29.371  25.189  25.754  1.00  0.00     0.294 HD
ENDBRANCH  13  35
ENDBRANCH   3   5
ENDBRANCH   2   3
ENDBRANCH   1   2
BRANCH   1  37
ATOM     37  C   UNL A   1      33.025  28.504  25.215  1.00  0.00     0.275 C 
BRANCH  37  38
ATOM     38  O   UNL A   1      33.958  29.272  25.968  1.00  0.00    -0.458 OA
BRANCH  38  39
ATOM     39  C   UNL A   1      33.446  30.330  26.633  1.00  0.00     0.338 C 
ATOM     40  O   UNL A   1      32.480  31.004  26.322  1.00  0.00    -0.246 OA
BRANCH  39  41
ATOM     41  C   UNL A   1      34.385  30.703  27.693  1.00  0.00     0.060 A 
ATOM     42  C   UNL A   1      34.929  31.989  27.623  1.00  0.00     0.016 A 
ATOM     43  C   UNL A   1      34.951  29.693  28.486  1.00  0.00     0.016 A 
ATOM     44  C   UNL A   1      36.178  32.190  28.162  1.00  0.00     0.010 A 
ATOM     45  C   UNL A   1      36.206  29.888  29.000  1.00  0.00     0.010 A 
ATOM     46  C   UNL A   1      36.835  31.103  28.751  1.00  0.00    -0.014 A 
BRANCH  46  47
ATOM     47  C   UNL A   1      38.190  31.293  29.208  1.00  0.00     0.031 A 
ATOM     48  C   UNL A   1      38.987  30.052  29.123  1.00  0.00     0.074 A 
ATOM     49  C   UNL A   1      38.678  32.503  29.535  1.00  0.00     0.049 A 
ATOM     50  N   UNL A   1      39.430  29.331  30.097  1.00  0.00    -0.248 NA
ATOM     51  C   UNL A   1      39.125  29.431  27.794  1.00  0.00     0.031 C 
ATOM     52  C   UNL A   1      38.050  33.816  29.359  1.00  0.00     0.029 A 
ATOM     53  N   UNL A   1      39.917  32.816  29.989  1.00  0.00    -0.354 N 
ATOM     54  C   UNL A   1      40.105  28.280  29.491  1.00  0.00     0.074 A 
ATOM     55  C   UNL A   1      39.695  28.270  28.111  1.00  0.00     0.031 C 
ATOM     56  C   UNL A   1      38.998  34.777  29.466  1.00  0.00     0.029 A 
ATOM     57  C   UNL A   1      40.256  34.155  29.850  1.00  0.00     0.049 A 
ATOM     58  H   UNL A   1      40.525  32.150  30.383  1.00  0.00     0.167 HD
ATOM     59  C   UNL A   1      41.169  27.682  30.092  1.00  0.00     0.031 A 
ATOM     60  C   UNL A   1      41.502  34.682  29.963  1.00  0.00     0.031 A 
ATOM     61  C   UNL A   1      41.227  27.986  31.498  1.00  0.00     0.049 A 
ATOM     62  C   UNL A   1      42.330  33.691  30.700  1.00  0.00     0.074 A 
ATOM     63  C   UNL A   1      40.382  27.769  32.568  1.00  0.00     0.029 A 
ATOM     64  N   UNL A   1      42.095  28.979  31.888  1.00  0.00    -0.354 N 
ATOM     65  N   UNL A   1      42.117  33.364  31.945  1.00  0.00    -0.248 NA
ATOM     66  C   UNL A   1      43.077  32.713  29.923  1.00  0.00     0.031 C 
ATOM     67  C   UNL A   1      40.487  28.946  33.364  1.00  0.00     0.029 A 
ATOM     68  C   UNL A   1      41.435  29.788  32.777  1.00  0.00     0.049 A 
ATOM     69  H   UNL A   1      43.025  29.090  31.583  1.00  0.00     0.167 HD
ATOM     70  C   UNL A   1      42.317  31.991  31.998  1.00  0.00     0.074 A 
ATOM     71  C   UNL A   1      42.995  31.662  30.744  1.00  0.00     0.031 C 
ATOM     72  C   UNL A   1      41.667  31.213  32.914  1.00  0.00     0.031 A 
BRANCH  59  73
ATOM     73  C   UNL A   1      42.371  27.207  29.315  1.00  0.00    -0.014 A 
ATOM     74  C   UNL A   1      42.877  28.020  28.285  1.00  0.00     0.010 A 
ATOM     75  C   UNL A   1      42.844  25.878  29.375  1.00  0.00     0.010 A 
ATOM     76  C   UNL A   1      43.756  27.504  27.324  1.00  0.00     0.020 A 
ATOM     77  C   UNL A   1      43.755  25.368  28.452  1.00  0.00     0.020 A 
ATOM     78  C   UNL A   1      44.178  26.176  27.410  1.00  0.00     0.054 A 
BRANCH  78  79
ATOM     79  S   UNL A   1      45.222  25.487  26.106  1.00  0.00     0.124 S 
ATOM     80  O   UNL A   1      45.599  24.197  26.674  1.00  0.00    -0.237 OA
ATOM     81  O   UNL A   1      44.306  25.440  24.970  1.00  0.00    -0.237 OA
ATOM     82  O   UNL A   1      46.307  26.461  25.986  1.00  0.00    -0.744 OA
ENDBRANCH  78  79
ENDBRANCH  59  73
BRANCH  60  83
ATOM     83  C   UNL A   1      42.085  35.800  29.175  1.00  0.00    -0.014 A 
ATOM     84  C   UNL A   1      41.580  36.155  27.910  1.00  0.00     0.010 A 
ATOM     85  C   UNL A   1      42.986  36.695  29.791  1.00  0.00     0.010 A 
ATOM     86  C   UNL A   1      41.937  37.374  27.303  1.00  0.00     0.020 A 
ATOM     87  C   UNL A   1      43.348  37.908  29.192  1.00  0.00     0.020 A 
ATOM     88  C   UNL A   1      42.808  38.250  27.955  1.00  0.00     0.054 A 
BRANCH  88  89
ATOM     89  S   UNL A   1      43.155  39.883  27.230  1.00  0.00     0.124 S 
ATOM     90  O   UNL A   1      44.163  40.419  28.140  1.00  0.00    -0.237 OA
ATOM     91  O   UNL A   1      43.628  39.544  25.892  1.00  0.00    -0.237 OA
ATOM     92  O   UNL A   1      41.860  40.562  27.273  1.00  0.00    -0.744 OA
ENDBRANCH  88  89
ENDBRANCH  60  83
BRANCH  72  93
ATOM     93  C   UNL A   1      40.931  31.896  34.047  1.00  0.00    -0.014 A 
ATOM     94  C   UNL A   1      39.598  32.345  33.957  1.00  0.00     0.010 A 
ATOM     95  C   UNL A   1      41.560  31.915  35.304  1.00  0.00     0.010 A 
ATOM     96  C   UNL A   1      38.919  32.809  35.097  1.00  0.00     0.020 A 
ATOM     97  C   UNL A   1      40.885  32.359  36.444  1.00  0.00     0.020 A 
ATOM     98  C   UNL A   1      39.570  32.808  36.336  1.00  0.00     0.054 A 
BRANCH  98  99
ATOM     99  S   UNL A   1      38.670  33.338  37.822  1.00  0.00     0.124 S 
ATOM    100  O   UNL A   1      38.984  32.281  38.779  1.00  0.00    -0.237 OA
ATOM    101  O   UNL A   1      39.258  34.644  38.111  1.00  0.00    -0.237 OA
ATOM    102  O   UNL A   1      37.274  33.382  37.387  1.00  0.00    -0.744 OA
ENDBRANCH  98  99
ENDBRANCH  72  93
ENDBRANCH  46  47
ENDBRANCH  39  41
ENDBRANCH  38  39
ENDBRANCH  37  38
ENDBRANCH   1  37
TORSDOF 21
ENDMDL
MODEL 3
REMARK VINA RESULT:     -11.1      6.084     10.984
REMARK SMILES COc1ccc(-n2cc(C(=O)OCCOC(=O)c3ccc(-c4c5nc(c(-c6ccc(S(=O)(=O)[O-])cc6)c6ccc([nH]6)c(-c6ccc(S(=O)(=O)[O-])cc6)c6nc(c(-c7ccc(S(=O)(=O)[O-])cc7)c7ccc4[nH]7)C=C6)C=C5)cc3)c3c2[C@H](c2ccc(OCC(N)=O)cc2)CC(O)=N3)cc1
REMARK SMILES IDX 13 1 12 2 10 3 11 4 9 5 7 6 8 7 79 8 78 9 80 10 95 11 92 12
REMARK SMILES IDX 93 13 6 14 3 15 4 16 97 17 5 18 96 19 2 20 1 21 81 22 82 23
REMARK SMILES IDX 91 24 83 25 90 26 84 27 85 28 86 29 87 30 88 31 89 32 94 35
REMARK SMILES IDX 14 37 15 38 16 39 17 40 18 41 19 42 77 43 20 44 76 45 21 46
REMARK SMILES IDX 22 47 23 48 70 49 24 50 75 51 69 52 71 53 25 54 74 55 68 56
REMARK SMILES IDX 67 57 26 59 56 60 37 61 55 62 38 63 41 64 54 65 72 66 39 67
REMARK SMILES IDX 40 68 53 70 73 71 42 72 27 73 28 74 36 75 29 76 35 77 30 78
REMARK SMILES IDX 31 79 32 80 33 81 34 82 57 83 58 84 66 85 59 86 65 87 60 88
REMARK SMILES IDX 61 89 62 90 63 91 64 92 43 93 44 94 52 95 45 96 51 97 46 98
REMARK SMILES IDX 47 99 48 100 49 101 50 102
REMARK H PARENT 88 33 88 34 94 36 71 58 41 69
REMARK Flexibility Score: inf
ROOT
ATOM      1  C   UNL A   1      47.950  27.662  26.614  1.00  0.00     0.275 C 
ENDROOT
BRANCH   1   2
ATOM      2  O   UNL A   1      48.078  27.292  25.236  1.00  0.00    -0.458 OA
BRANCH   2   3
ATOM      3  C   UNL A   1      47.020  27.513  24.404  1.00  0.00     0.342 C 
ATOM      4  O   UNL A   1      47.106  28.035  23.295  1.00  0.00    -0.246 OA
BRANCH   3   5
ATOM      5  C   UNL A   1      45.776  26.994  24.948  1.00  0.00     0.104 A 
ATOM      6  N   UNL A   1      43.720  26.895  25.890  1.00  0.00    -0.317 N 
ATOM      7  C   UNL A   1      44.727  27.745  25.473  1.00  0.00     0.109 A 
ATOM      8  C   UNL A   1      44.111  25.600  25.616  1.00  0.00     0.057 A 
ATOM      9  C   UNL A   1      45.343  25.657  25.019  1.00  0.00     0.103 A 
ATOM     10  C   UNL A   1      43.383  24.323  25.864  1.00  0.00     0.078 C 
ATOM     11  N   UNL A   1      46.052  24.535  24.589  1.00  0.00    -0.215 NA
ATOM     12  C   UNL A   1      43.863  23.303  24.805  1.00  0.00     0.111 C 
ATOM     13  C   UNL A   1      45.335  23.466  24.486  1.00  0.00     0.186 C 
BRANCH   6  14
ATOM     14  C   UNL A   1      42.584  27.312  26.614  1.00  0.00     0.046 A 
ATOM     15  C   UNL A   1      40.374  28.276  28.024  1.00  0.00     0.119 A 
ATOM     16  C   UNL A   1      40.452  28.442  26.641  1.00  0.00     0.048 A 
ATOM     17  C   UNL A   1      41.373  27.558  28.691  1.00  0.00     0.048 A 
ATOM     18  C   UNL A   1      41.550  27.955  25.930  1.00  0.00     0.030 A 
ATOM     19  C   UNL A   1      42.484  27.069  27.985  1.00  0.00     0.030 A 
BRANCH  15  20
ATOM     20  O   UNL A   1      39.262  28.821  28.608  1.00  0.00    -0.497 OA
ATOM     21  C   UNL A   1      39.319  30.221  28.862  1.00  0.00     0.278 C 
ENDBRANCH  15  20
ENDBRANCH   6  14
BRANCH  10  22
ATOM     22  C   UNL A   1      43.587  23.847  27.300  1.00  0.00    -0.038 A 
ATOM     23  C   UNL A   1      42.553  23.145  27.933  1.00  0.00     0.008 A 
ATOM     24  C   UNL A   1      44.713  24.195  28.064  1.00  0.00     0.008 A 
ATOM     25  C   UNL A   1      42.599  22.881  29.301  1.00  0.00     0.047 A 
ATOM     26  C   UNL A   1      44.776  23.894  29.429  1.00  0.00     0.047 A 
ATOM     27  C   UNL A   1      43.713  23.245  30.051  1.00  0.00     0.120 A 
BRANCH  27  28
ATOM     28  O   UNL A   1      43.634  22.967  31.386  1.00  0.00    -0.484 OA
BRANCH  28  29
ATOM     29  C   UNL A   1      44.514  23.699  32.224  1.00  0.00     0.329 C 
BRANCH  29  30
ATOM     30  C   UNL A   1      44.654  23.147  33.646  1.00  0.00     0.255 C 
ATOM     31  N   UNL A   1      43.570  22.467  34.126  1.00  0.00    -0.367 N 
ATOM     32  O   UNL A   1      45.654  23.289  34.342  1.00  0.00    -0.271 OA
ATOM     33  H   UNL A   1      42.770  22.355  33.564  1.00  0.00     0.159 HD
ATOM     34  H   UNL A   1      43.589  22.089  35.036  1.00  0.00     0.159 HD
ENDBRANCH  29  30
ENDBRANCH  28  29
ENDBRANCH  27  28
ENDBRANCH  10  22
BRANCH  13  35
ATOM     35  O   UNL A   1      45.931  22.350  24.017  1.00  0.00    -0.496 OA
ATOM     36  H   UNL A   1      46.510  21.861  24.569  1.00  0.00     0.294 HD
ENDBRANCH  13  35
ENDBRANCH   3   5
ENDBRANCH   2   3
ENDBRANCH   1   2
BRANCH   1  37
ATOM     37  C   UNL A   1      48.125  29.162  26.789  1.00  0.00     0.275 C 
BRANCH  37  38
ATOM     38  O   UNL A   1      46.955  29.716  27.384  1.00  0.00    -0.458 OA
BRANCH  38  39
ATOM     39  C   UNL A   1      46.178  30.460  26.566  1.00  0.00     0.338 C 
ATOM     40  O   UNL A   1      46.352  30.688  25.382  1.00  0.00    -0.246 OA
BRANCH  39  41
ATOM     41  C   UNL A   1      45.188  31.160  27.388  1.00  0.00     0.060 A 
ATOM     42  C   UNL A   1      45.687  32.014  28.376  1.00  0.00     0.016 A 
ATOM     43  C   UNL A   1      43.863  30.699  27.398  1.00  0.00     0.016 A 
ATOM     44  C   UNL A   1      44.924  32.211  29.502  1.00  0.00     0.010 A 
ATOM     45  C   UNL A   1      43.115  30.876  28.531  1.00  0.00     0.010 A 
ATOM     46  C   UNL A   1      43.693  31.552  29.599  1.00  0.00    -0.014 A 
BRANCH  46  47
ATOM     47  C   UNL A   1      42.953  31.671  30.833  1.00  0.00     0.031 A 
ATOM     48  C   UNL A   1      42.879  30.389  31.563  1.00  0.00     0.074 A 
ATOM     49  C   UNL A   1      42.516  32.853  31.300  1.00  0.00     0.049 A 
ATOM     50  N   UNL A   1      41.840  29.646  31.749  1.00  0.00    -0.248 NA
ATOM     51  C   UNL A   1      44.154  29.761  31.952  1.00  0.00     0.031 C 
ATOM     52  C   UNL A   1      42.808  34.197  30.794  1.00  0.00     0.029 A 
ATOM     53  N   UNL A   1      41.802  33.100  32.427  1.00  0.00    -0.354 N 
ATOM     54  C   UNL A   1      42.299  28.560  32.483  1.00  0.00     0.074 A 
ATOM     55  C   UNL A   1      43.734  28.572  32.380  1.00  0.00     0.031 C 
ATOM     56  C   UNL A   1      42.489  35.107  31.744  1.00  0.00     0.029 A 
ATOM     57  C   UNL A   1      41.850  34.419  32.856  1.00  0.00     0.049 A 
ATOM     58  H   UNL A   1      41.294  32.403  32.900  1.00  0.00     0.167 HD
ATOM     59  C   UNL A   1      41.490  27.907  33.361  1.00  0.00     0.031 A 
ATOM     60  C   UNL A   1      41.466  34.880  34.074  1.00  0.00     0.031 A 
ATOM     61  C   UNL A   1      40.101  28.208  33.130  1.00  0.00     0.049 A 
ATOM     62  C   UNL A   1      40.579  33.847  34.672  1.00  0.00     0.074 A 
ATOM     63  C   UNL A   1      39.240  28.036  32.065  1.00  0.00     0.029 A 
ATOM     64  N   UNL A   1      39.522  29.153  33.944  1.00  0.00    -0.354 N 
ATOM     65  N   UNL A   1      39.413  33.532  34.179  1.00  0.00    -0.248 NA
ATOM     66  C   UNL A   1      41.188  32.830  35.517  1.00  0.00     0.031 C 
ATOM     67  C   UNL A   1      38.427  29.207  32.056  1.00  0.00     0.029 A 
ATOM     68  C   UNL A   1      38.787  29.997  33.151  1.00  0.00     0.049 A 
ATOM     69  H   UNL A   1      39.619  29.216  34.922  1.00  0.00     0.167 HD
ATOM     70  C   UNL A   1      39.333  32.150  34.292  1.00  0.00     0.074 A 
ATOM     71  C   UNL A   1      40.415  31.785  35.207  1.00  0.00     0.031 C 
ATOM     72  C   UNL A   1      38.588  31.408  33.420  1.00  0.00     0.031 A 
BRANCH  59  73
ATOM     73  C   UNL A   1      41.995  27.369  34.675  1.00  0.00    -0.014 A 
ATOM     74  C   UNL A   1      42.453  28.276  35.648  1.00  0.00     0.010 A 
ATOM     75  C   UNL A   1      42.295  26.004  34.879  1.00  0.00     0.010 A 
ATOM     76  C   UNL A   1      43.231  27.843  36.730  1.00  0.00     0.020 A 
ATOM     77  C   UNL A   1      43.027  25.557  35.976  1.00  0.00     0.020 A 
ATOM     78  C   UNL A   1      43.522  26.486  36.877  1.00  0.00     0.054 A 
BRANCH  78  79
ATOM     79  S   UNL A   1      44.617  25.950  38.210  1.00  0.00     0.124 S 
ATOM     80  O   UNL A   1      45.867  26.616  37.857  1.00  0.00    -0.237 OA
ATOM     81  O   UNL A   1      43.934  26.462  39.395  1.00  0.00    -0.237 OA
ATOM     82  O   UNL A   1      44.625  24.493  38.082  1.00  0.00    -0.744 OA
ENDBRANCH  78  79
ENDBRANCH  59  73
BRANCH  60  83
ATOM     83  C   UNL A   1      42.098  35.965  34.870  1.00  0.00    -0.014 A 
ATOM     84  C   UNL A   1      41.855  36.108  36.249  1.00  0.00     0.010 A 
ATOM     85  C   UNL A   1      43.156  36.716  34.314  1.00  0.00     0.010 A 
ATOM     86  C   UNL A   1      42.663  36.943  37.045  1.00  0.00     0.020 A 
ATOM     87  C   UNL A   1      43.961  37.550  35.099  1.00  0.00     0.020 A 
ATOM     88  C   UNL A   1      43.721  37.648  36.467  1.00  0.00     0.054 A 
BRANCH  88  89
ATOM     89  S   UNL A   1      44.845  38.614  37.523  1.00  0.00     0.124 S 
ATOM     90  O   UNL A   1      46.146  38.350  36.914  1.00  0.00    -0.237 OA
ATOM     91  O   UNL A   1      44.338  39.974  37.368  1.00  0.00    -0.237 OA
ATOM     92  O   UNL A   1      44.655  38.033  38.852  1.00  0.00    -0.744 OA
ENDBRANCH  88  89
ENDBRANCH  60  83
BRANCH  72  93
ATOM     93  C   UNL A   1      37.631  32.129  32.495  1.00  0.00    -0.014 A 
ATOM     94  C   UNL A   1      38.027  32.760  31.297  1.00  0.00     0.010 A 
ATOM     95  C   UNL A   1      36.257  32.000  32.760  1.00  0.00     0.010 A 
ATOM     96  C   UNL A   1      37.068  33.257  30.398  1.00  0.00     0.020 A 
ATOM     97  C   UNL A   1      35.299  32.477  31.863  1.00  0.00     0.020 A 
ATOM     98  C   UNL A   1      35.707  33.106  30.687  1.00  0.00     0.054 A 
BRANCH  98  99
ATOM     99  S   UNL A   1      34.467  33.681  29.491  1.00  0.00     0.124 S 
ATOM    100  O   UNL A   1      35.223  34.631  28.680  1.00  0.00    -0.237 OA
ATOM    101  O   UNL A   1      34.072  32.449  28.812  1.00  0.00    -0.237 OA
ATOM    102  O   UNL A   1      33.426  34.276  30.327  1.00  0.00    -0.744 OA
ENDBRANCH  98  99
ENDBRANCH  72  93
ENDBRANCH  46  47
ENDBRANCH  39  41
ENDBRANCH  38  39
ENDBRANCH  37  38
ENDBRANCH   1  37
TORSDOF 21
ENDMDL
