MODEL 1
REMARK VINA RESULT:     -11.5      0.000      0.000
REMARK SMILES O=C(OCCOC(=O)c1[nH]nc2ncc(F)cc12)c1ccc(-c2c3nc(c(-c4ccc(S(=O)(=O)[O-])cc4)c4ccc([nH]4)c(-c4ccc(S(=O)(=O)[O-])cc4)c4nc(c(-c5ccc(S(=O)(=O)[O-])cc5)c5ccc2[nH]5)C=C4)C=C3)cc1
REMARK SMILES IDX 3 1 2 2 1 3 19 4 20 5 78 6 21 7 77 8 22 9 23 10 24 11 71 12
REMARK SMILES IDX 25 13 76 14 70 15 72 16 26 17 75 18 69 19 68 20 27 22 57 23
REMARK SMILES IDX 38 24 56 25 39 26 42 27 55 28 73 29 40 30 41 31 54 33 74 34
REMARK SMILES IDX 43 35 28 36 29 37 37 38 30 39 36 40 31 41 32 42 33 43 34 44
REMARK SMILES IDX 35 45 58 46 59 47 67 48 60 49 66 50 61 51 62 52 63 53 64 54
REMARK SMILES IDX 65 55 44 56 45 57 53 58 46 59 52 60 47 61 48 62 49 63 50 64
REMARK SMILES IDX 51 65 4 66 5 67 6 68 7 69 8 70 9 71 10 72 18 73 11 74 12 76
REMARK SMILES IDX 17 77 13 78 15 79 14 80 16 81
REMARK H PARENT 72 21 42 32 10 75
REMARK Flexibility Score: inf
ROOT
ATOM      1  O   UNL A   1      42.002  18.815  25.394  1.00  0.00    -0.458 OA
ENDROOT
BRANCH   1   2
ATOM      2  C   UNL A   1      40.901  19.504  25.750  1.00  0.00     0.338 C 
ATOM      3  O   UNL A   1      39.765  19.068  25.641  1.00  0.00    -0.246 OA
BRANCH   2   4
ATOM      4  C   UNL A   1      41.202  20.732  26.518  1.00  0.00     0.060 A 
ATOM      5  C   UNL A   1      41.193  20.804  27.916  1.00  0.00     0.016 A 
ATOM      6  C   UNL A   1      41.564  21.851  25.765  1.00  0.00     0.016 A 
ATOM      7  C   UNL A   1      41.467  22.012  28.550  1.00  0.00     0.010 A 
ATOM      8  C   UNL A   1      41.897  23.034  26.400  1.00  0.00     0.010 A 
ATOM      9  C   UNL A   1      41.784  23.138  27.785  1.00  0.00    -0.014 A 
BRANCH   9  10
ATOM     10  C   UNL A   1      42.047  24.416  28.445  1.00  0.00     0.031 A 
ATOM     11  C   UNL A   1      41.045  25.498  28.212  1.00  0.00     0.074 A 
ATOM     12  C   UNL A   1      43.040  24.570  29.349  1.00  0.00     0.049 A 
ATOM     13  N   UNL A   1      41.199  26.615  27.579  1.00  0.00    -0.248 NA
ATOM     14  C   UNL A   1      39.665  25.267  28.658  1.00  0.00     0.031 C 
ATOM     15  C   UNL A   1      43.950  23.558  29.898  1.00  0.00     0.029 A 
ATOM     16  N   UNL A   1      43.369  25.677  30.064  1.00  0.00    -0.354 N 
ATOM     17  C   UNL A   1      39.994  27.311  27.702  1.00  0.00     0.074 A 
ATOM     18  C   UNL A   1      39.046  26.377  28.252  1.00  0.00     0.031 C 
ATOM     19  C   UNL A   1      44.533  24.033  31.022  1.00  0.00     0.029 A 
ATOM     20  C   UNL A   1      44.189  25.435  31.161  1.00  0.00     0.049 A 
ATOM     21  H   UNL A   1      43.052  26.579  29.826  1.00  0.00     0.167 HD
ATOM     22  C   UNL A   1      39.911  28.661  27.520  1.00  0.00     0.031 A 
ATOM     23  C   UNL A   1      44.546  26.325  32.120  1.00  0.00     0.031 A 
ATOM     24  C   UNL A   1      41.112  29.190  26.930  1.00  0.00     0.049 A 
ATOM     25  C   UNL A   1      44.365  27.675  31.532  1.00  0.00     0.074 A 
ATOM     26  C   UNL A   1      41.758  29.016  25.724  1.00  0.00     0.029 A 
ATOM     27  N   UNL A   1      42.043  29.728  27.788  1.00  0.00    -0.354 N 
ATOM     28  N   UNL A   1      45.062  28.109  30.519  1.00  0.00    -0.248 NA
ATOM     29  C   UNL A   1      43.100  28.356  31.757  1.00  0.00     0.031 C 
ATOM     30  C   UNL A   1      43.142  28.970  26.065  1.00  0.00     0.029 A 
ATOM     31  C   UNL A   1      43.262  29.207  27.436  1.00  0.00     0.049 A 
ATOM     32  H   UNL A   1      41.867  30.365  28.518  1.00  0.00     0.167 HD
ATOM     33  C   UNL A   1      44.152  28.795  29.730  1.00  0.00     0.074 A 
ATOM     34  C   UNL A   1      42.982  28.993  30.588  1.00  0.00     0.031 C 
ATOM     35  C   UNL A   1      44.319  28.898  28.378  1.00  0.00     0.031 A 
BRANCH  22  36
ATOM     36  C   UNL A   1      38.903  29.567  28.180  1.00  0.00    -0.014 A 
ATOM     37  C   UNL A   1      37.627  29.710  27.593  1.00  0.00     0.010 A 
ATOM     38  C   UNL A   1      39.250  30.487  29.189  1.00  0.00     0.010 A 
ATOM     39  C   UNL A   1      36.770  30.760  27.952  1.00  0.00     0.020 A 
ATOM     40  C   UNL A   1      38.386  31.517  29.580  1.00  0.00     0.020 A 
ATOM     41  C   UNL A   1      37.164  31.666  28.935  1.00  0.00     0.054 A 
BRANCH  41  42
ATOM     42  S   UNL A   1      36.092  33.079  29.308  1.00  0.00     0.124 S 
ATOM     43  O   UNL A   1      35.403  33.282  28.037  1.00  0.00    -0.237 OA
ATOM     44  O   UNL A   1      35.269  32.563  30.398  1.00  0.00    -0.237 OA
ATOM     45  O   UNL A   1      37.031  34.133  29.687  1.00  0.00    -0.744 OA
ENDBRANCH  41  42
ENDBRANCH  22  36
BRANCH  23  46
ATOM     46  C   UNL A   1      44.703  26.098  33.579  1.00  0.00    -0.014 A 
ATOM     47  C   UNL A   1      45.529  26.934  34.357  1.00  0.00     0.010 A 
ATOM     48  C   UNL A   1      43.805  25.250  34.261  1.00  0.00     0.010 A 
ATOM     49  C   UNL A   1      45.405  26.977  35.757  1.00  0.00     0.020 A 
ATOM     50  C   UNL A   1      43.679  25.285  35.657  1.00  0.00     0.020 A 
ATOM     51  C   UNL A   1      44.460  26.171  36.397  1.00  0.00     0.054 A 
BRANCH  51  52
ATOM     52  S   UNL A   1      44.169  26.381  38.180  1.00  0.00     0.124 S 
ATOM     53  O   UNL A   1      42.715  26.288  38.272  1.00  0.00    -0.237 OA
ATOM     54  O   UNL A   1      44.910  25.263  38.755  1.00  0.00    -0.237 OA
ATOM     55  O   UNL A   1      44.724  27.702  38.467  1.00  0.00    -0.744 OA
ENDBRANCH  51  52
ENDBRANCH  23  46
BRANCH  35  56
ATOM     56  C   UNL A   1      45.630  28.441  27.773  1.00  0.00    -0.014 A 
ATOM     57  C   UNL A   1      45.922  27.101  27.447  1.00  0.00     0.010 A 
ATOM     58  C   UNL A   1      46.527  29.438  27.354  1.00  0.00     0.010 A 
ATOM     59  C   UNL A   1      47.088  26.770  26.736  1.00  0.00     0.020 A 
ATOM     60  C   UNL A   1      47.678  29.120  26.630  1.00  0.00     0.020 A 
ATOM     61  C   UNL A   1      47.958  27.786  26.329  1.00  0.00     0.054 A 
BRANCH  61  62
ATOM     62  S   UNL A   1      49.440  27.366  25.367  1.00  0.00     0.124 S 
ATOM     63  O   UNL A   1      50.523  27.806  26.242  1.00  0.00    -0.237 OA
ATOM     64  O   UNL A   1      49.316  25.921  25.196  1.00  0.00    -0.237 OA
ATOM     65  O   UNL A   1      49.287  28.142  24.136  1.00  0.00    -0.744 OA
ENDBRANCH  61  62
ENDBRANCH  35  56
ENDBRANCH   9  10
ENDBRANCH   2   4
ENDBRANCH   1   2
BRANCH   1  66
ATOM     66  C   UNL A   1      42.722  18.068  26.392  1.00  0.00     0.275 C 
BRANCH  66  67
ATOM     67  C   UNL A   1      44.249  18.026  26.275  1.00  0.00     0.275 C 
BRANCH  67  68
ATOM     68  O   UNL A   1      44.683  18.333  24.936  1.00  0.00    -0.457 OA
BRANCH  68  69
ATOM     69  C   UNL A   1      45.766  19.162  24.813  1.00  0.00     0.357 C 
ATOM     70  O   UNL A   1      46.916  18.873  25.047  1.00  0.00    -0.244 OA
BRANCH  69  71
ATOM     71  C   UNL A   1      45.292  20.447  24.392  1.00  0.00     0.153 A 
ATOM     72  N   UNL A   1      44.777  20.678  23.142  1.00  0.00    -0.269 N 
ATOM     73  C   UNL A   1      45.226  21.671  25.017  1.00  0.00     0.056 A 
ATOM     74  N   UNL A   1      44.394  21.944  22.909  1.00  0.00    -0.154 NA
ATOM     75  H   UNL A   1      44.694  19.967  22.467  1.00  0.00     0.190 HD
ATOM     76  C   UNL A   1      44.704  22.580  24.038  1.00  0.00     0.181 A 
ATOM     77  C   UNL A   1      45.663  21.979  26.301  1.00  0.00     0.055 A 
ATOM     78  N   UNL A   1      44.583  23.909  24.286  1.00  0.00    -0.232 NA
ATOM     79  C   UNL A   1      45.577  23.359  26.509  1.00  0.00     0.142 A 
ATOM     80  C   UNL A   1      45.050  24.235  25.532  1.00  0.00     0.152 A 
ATOM     81  F   UNL A   1      46.046  23.875  27.654  1.00  0.00    -0.205 F 
ENDBRANCH  69  71
ENDBRANCH  68  69
ENDBRANCH  67  68
ENDBRANCH  66  67
ENDBRANCH   1  66
TORSDOF 14
ENDMDL
MODEL 2
REMARK VINA RESULT:     -11.4      3.045      7.923
REMARK SMILES O=C(OCCOC(=O)c1[nH]nc2ncc(F)cc12)c1ccc(-c2c3nc(c(-c4ccc(S(=O)(=O)[O-])cc4)c4ccc([nH]4)c(-c4ccc(S(=O)(=O)[O-])cc4)c4nc(c(-c5ccc(S(=O)(=O)[O-])cc5)c5ccc2[nH]5)C=C4)C=C3)cc1
REMARK SMILES IDX 3 1 2 2 1 3 19 4 20 5 78 6 21 7 77 8 22 9 23 10 24 11 71 12
REMARK SMILES IDX 25 13 76 14 70 15 72 16 26 17 75 18 69 19 68 20 27 22 57 23
REMARK SMILES IDX 38 24 56 25 39 26 42 27 55 28 73 29 40 30 41 31 54 33 74 34
REMARK SMILES IDX 43 35 28 36 29 37 37 38 30 39 36 40 31 41 32 42 33 43 34 44
REMARK SMILES IDX 35 45 58 46 59 47 67 48 60 49 66 50 61 51 62 52 63 53 64 54
REMARK SMILES IDX 65 55 44 56 45 57 53 58 46 59 52 60 47 61 48 62 49 63 50 64
REMARK SMILES IDX 51 65 4 66 5 67 6 68 7 69 8 70 9 71 10 72 18 73 11 74 12 76
REMARK SMILES IDX 17 77 13 78 15 79 14 80 16 81
REMARK H PARENT 72 21 42 32 10 75
REMARK Flexibility Score: inf
ROOT
ATOM      1  O   UNL A   1      40.083  21.278  27.096  1.00  0.00    -0.458 OA
ENDROOT
BRANCH   1   2
ATOM      2  C   UNL A   1      39.528  22.366  26.529  1.00  0.00     0.338 C 
ATOM      3  O   UNL A   1      38.636  22.315  25.696  1.00  0.00    -0.246 OA
BRANCH   2   4
ATOM      4  C   UNL A   1      39.917  23.632  27.188  1.00  0.00     0.060 A 
ATOM      5  C   UNL A   1      41.041  23.774  28.011  1.00  0.00     0.016 A 
ATOM      6  C   UNL A   1      39.119  24.742  26.904  1.00  0.00     0.016 A 
ATOM      7  C   UNL A   1      41.314  25.001  28.606  1.00  0.00     0.010 A 
ATOM      8  C   UNL A   1      39.427  25.975  27.448  1.00  0.00     0.010 A 
ATOM      9  C   UNL A   1      40.482  26.095  28.351  1.00  0.00    -0.014 A 
BRANCH   9  10
ATOM     10  C   UNL A   1      40.750  27.380  28.996  1.00  0.00     0.031 A 
ATOM     11  C   UNL A   1      41.978  28.101  28.547  1.00  0.00     0.074 A 
ATOM     12  C   UNL A   1      39.860  27.970  29.823  1.00  0.00     0.049 A 
ATOM     13  N   UNL A   1      43.051  28.357  29.220  1.00  0.00    -0.248 NA
ATOM     14  C   UNL A   1      42.063  28.506  27.138  1.00  0.00     0.031 C 
ATOM     15  C   UNL A   1      38.499  27.541  30.169  1.00  0.00     0.029 A 
ATOM     16  N   UNL A   1      39.955  29.170  30.451  1.00  0.00    -0.354 N 
ATOM     17  C   UNL A   1      43.874  29.115  28.383  1.00  0.00     0.074 A 
ATOM     18  C   UNL A   1      43.277  29.054  27.074  1.00  0.00     0.031 C 
ATOM     19  C   UNL A   1      37.822  28.575  30.718  1.00  0.00     0.029 A 
ATOM     20  C   UNL A   1      38.750  29.667  30.938  1.00  0.00     0.049 A 
ATOM     21  H   UNL A   1      40.809  29.651  30.554  1.00  0.00     0.167 HD
ATOM     22  C   UNL A   1      44.884  29.894  28.867  1.00  0.00     0.031 A 
ATOM     23  C   UNL A   1      38.535  30.896  31.471  1.00  0.00     0.031 A 
ATOM     24  C   UNL A   1      45.153  29.612  30.251  1.00  0.00     0.049 A 
ATOM     25  C   UNL A   1      39.855  31.397  31.925  1.00  0.00     0.074 A 
ATOM     26  C   UNL A   1      45.603  28.510  30.948  1.00  0.00     0.029 A 
ATOM     27  N   UNL A   1      44.561  30.436  31.181  1.00  0.00    -0.354 N 
ATOM     28  N   UNL A   1      40.541  30.831  32.878  1.00  0.00    -0.248 NA
ATOM     29  C   UNL A   1      40.623  32.228  31.012  1.00  0.00     0.031 C 
ATOM     30  C   UNL A   1      44.813  28.492  32.135  1.00  0.00     0.029 A 
ATOM     31  C   UNL A   1      43.997  29.626  32.133  1.00  0.00     0.049 A 
ATOM     32  H   UNL A   1      44.544  31.420  31.164  1.00  0.00     0.167 HD
ATOM     33  C   UNL A   1      41.856  30.868  32.439  1.00  0.00     0.074 A 
ATOM     34  C   UNL A   1      41.856  31.823  31.330  1.00  0.00     0.031 C 
ATOM     35  C   UNL A   1      42.764  29.925  32.831  1.00  0.00     0.031 A 
BRANCH  22  36
ATOM     36  C   UNL A   1      45.405  31.148  28.211  1.00  0.00    -0.014 A 
ATOM     37  C   UNL A   1      44.616  32.318  28.251  1.00  0.00     0.010 A 
ATOM     38  C   UNL A   1      46.503  31.147  27.328  1.00  0.00     0.010 A 
ATOM     39  C   UNL A   1      44.873  33.403  27.403  1.00  0.00     0.020 A 
ATOM     40  C   UNL A   1      46.790  32.241  26.503  1.00  0.00     0.020 A 
ATOM     41  C   UNL A   1      45.954  33.351  26.523  1.00  0.00     0.054 A 
BRANCH  41  42
ATOM     42  S   UNL A   1      46.207  34.715  25.358  1.00  0.00     0.124 S 
ATOM     43  O   UNL A   1      45.866  35.877  26.172  1.00  0.00    -0.237 OA
ATOM     44  O   UNL A   1      47.620  34.574  25.019  1.00  0.00    -0.237 OA
ATOM     45  O   UNL A   1      45.277  34.417  24.271  1.00  0.00    -0.744 OA
ENDBRANCH  41  42
ENDBRANCH  22  36
BRANCH  23  46
ATOM     46  C   UNL A   1      37.352  31.779  31.308  1.00  0.00    -0.014 A 
ATOM     47  C   UNL A   1      36.101  31.419  31.845  1.00  0.00     0.010 A 
ATOM     48  C   UNL A   1      37.523  33.116  30.890  1.00  0.00     0.010 A 
ATOM     49  C   UNL A   1      35.088  32.376  32.031  1.00  0.00     0.020 A 
ATOM     50  C   UNL A   1      36.516  34.075  31.069  1.00  0.00     0.020 A 
ATOM     51  C   UNL A   1      35.312  33.706  31.666  1.00  0.00     0.054 A 
BRANCH  51  52
ATOM     52  S   UNL A   1      34.076  34.970  32.094  1.00  0.00     0.124 S 
ATOM     53  O   UNL A   1      33.108  34.208  32.877  1.00  0.00    -0.237 OA
ATOM     54  O   UNL A   1      34.866  35.944  32.842  1.00  0.00    -0.237 OA
ATOM     55  O   UNL A   1      33.593  35.435  30.795  1.00  0.00    -0.744 OA
ENDBRANCH  51  52
ENDBRANCH  23  46
BRANCH  35  56
ATOM     56  C   UNL A   1      42.375  28.958  33.931  1.00  0.00    -0.014 A 
ATOM     57  C   UNL A   1      41.688  27.747  33.707  1.00  0.00     0.010 A 
ATOM     58  C   UNL A   1      42.887  29.205  35.216  1.00  0.00     0.010 A 
ATOM     59  C   UNL A   1      41.508  26.820  34.747  1.00  0.00     0.020 A 
ATOM     60  C   UNL A   1      42.728  28.280  36.249  1.00  0.00     0.020 A 
ATOM     61  C   UNL A   1      42.033  27.093  36.014  1.00  0.00     0.054 A 
BRANCH  61  62
ATOM     62  S   UNL A   1      41.845  25.873  37.345  1.00  0.00     0.124 S 
ATOM     63  O   UNL A   1      40.438  26.017  37.711  1.00  0.00    -0.237 OA
ATOM     64  O   UNL A   1      42.199  24.618  36.688  1.00  0.00    -0.237 OA
ATOM     65  O   UNL A   1      42.796  26.319  38.363  1.00  0.00    -0.744 OA
ENDBRANCH  61  62
ENDBRANCH  35  56
ENDBRANCH   9  10
ENDBRANCH   2   4
ENDBRANCH   1   2
BRANCH   1  66
ATOM     66  C   UNL A   1      40.335  20.113  26.290  1.00  0.00     0.275 C 
BRANCH  66  67
ATOM     67  C   UNL A   1      41.709  19.447  26.424  1.00  0.00     0.275 C 
BRANCH  67  68
ATOM     68  O   UNL A   1      42.768  20.424  26.438  1.00  0.00    -0.457 OA
BRANCH  68  69
ATOM     69  C   UNL A   1      43.645  20.401  25.386  1.00  0.00     0.357 C 
ATOM     70  O   UNL A   1      43.739  19.528  24.556  1.00  0.00    -0.244 OA
BRANCH  69  71
ATOM     71  C   UNL A   1      44.457  21.578  25.464  1.00  0.00     0.153 A 
ATOM     72  N   UNL A   1      45.797  21.541  25.748  1.00  0.00    -0.269 N 
ATOM     73  C   UNL A   1      44.180  22.918  25.309  1.00  0.00     0.056 A 
ATOM     74  N   UNL A   1      46.403  22.740  25.797  1.00  0.00    -0.154 NA
ATOM     75  H   UNL A   1      46.280  20.698  25.903  1.00  0.00     0.190 HD
ATOM     76  C   UNL A   1      45.413  23.602  25.573  1.00  0.00     0.181 A 
ATOM     77  C   UNL A   1      42.941  23.492  25.045  1.00  0.00     0.055 A 
ATOM     78  N   UNL A   1      45.491  24.957  25.594  1.00  0.00    -0.232 NA
ATOM     79  C   UNL A   1      43.040  24.884  25.126  1.00  0.00     0.142 A 
ATOM     80  C   UNL A   1      44.268  25.537  25.378  1.00  0.00     0.152 A 
ATOM     81  F   UNL A   1      41.928  25.623  25.001  1.00  0.00    -0.205 F 
ENDBRANCH  69  71
ENDBRANCH  68  69
ENDBRANCH  67  68
ENDBRANCH  66  67
ENDBRANCH   1  66
TORSDOF 14
ENDMDL
MODEL 3
REMARK VINA RESULT:     -11.2      3.886     11.152
REMARK SMILES O=C(OCCOC(=O)c1[nH]nc2ncc(F)cc12)c1ccc(-c2c3nc(c(-c4ccc(S(=O)(=O)[O-])cc4)c4ccc([nH]4)c(-c4ccc(S(=O)(=O)[O-])cc4)c4nc(c(-c5ccc(S(=O)(=O)[O-])cc5)c5ccc2[nH]5)C=C4)C=C3)cc1
REMARK SMILES IDX 3 1 2 2 1 3 19 4 20 5 78 6 21 7 77 8 22 9 23 10 24 11 71 12
REMARK SMILES IDX 25 13 76 14 70 15 72 16 26 17 75 18 69 19 68 20 27 22 57 23
REMARK SMILES IDX 38 24 56 25 39 26 42 27 55 28 73 29 40 30 41 31 54 33 74 34
REMARK SMILES IDX 43 35 28 36 29 37 37 38 30 39 36 40 31 41 32 42 33 43 34 44
REMARK SMILES IDX 35 45 58 46 59 47 67 48 60 49 66 50 61 51 62 52 63 53 64 54
REMARK SMILES IDX 65 55 44 56 45 57 53 58 46 59 52 60 47 61 48 62 49 63 50 64
REMARK SMILES IDX 51 65 4 66 5 67 6 68 7 69 8 70 9 71 10 72 18 73 11 74 12 76
REMARK SMILES IDX 17 77 13 78 15 79 14 80 16 81
REMARK H PARENT 72 21 42 32 10 75
REMARK Flexibility Score: inf
ROOT
ATOM      1  O   UNL A   1      34.629  33.053  28.117  1.00  0.00    -0.458 OA
ENDROOT
BRANCH   1   2
ATOM      2  C   UNL A   1      34.542  31.712  28.031  1.00  0.00     0.338 C 
ATOM      3  O   UNL A   1      33.564  31.123  27.598  1.00  0.00    -0.246 OA
BRANCH   2   4
ATOM      4  C   UNL A   1      35.831  31.025  28.270  1.00  0.00     0.060 A 
ATOM      5  C   UNL A   1      36.024  29.647  28.119  1.00  0.00     0.016 A 
ATOM      6  C   UNL A   1      36.907  31.846  28.615  1.00  0.00     0.016 A 
ATOM      7  C   UNL A   1      37.269  29.088  28.390  1.00  0.00     0.010 A 
ATOM      8  C   UNL A   1      38.158  31.295  28.823  1.00  0.00     0.010 A 
ATOM      9  C   UNL A   1      38.329  29.912  28.778  1.00  0.00    -0.014 A 
BRANCH   9  10
ATOM     10  C   UNL A   1      39.632  29.326  29.089  1.00  0.00     0.031 A 
ATOM     11  C   UNL A   1      39.984  29.232  30.537  1.00  0.00     0.074 A 
ATOM     12  C   UNL A   1      40.405  28.746  28.146  1.00  0.00     0.049 A 
ATOM     13  N   UNL A   1      40.917  29.855  31.180  1.00  0.00    -0.248 NA
ATOM     14  C   UNL A   1      39.129  28.411  31.403  1.00  0.00     0.031 C 
ATOM     15  C   UNL A   1      40.106  28.509  26.728  1.00  0.00     0.029 A 
ATOM     16  N   UNL A   1      41.606  28.130  28.297  1.00  0.00    -0.354 N 
ATOM     17  C   UNL A   1      40.889  29.372  32.490  1.00  0.00     0.074 A 
ATOM     18  C   UNL A   1      39.682  28.594  32.603  1.00  0.00     0.031 C 
ATOM     19  C   UNL A   1      40.964  27.590  26.229  1.00  0.00     0.029 A 
ATOM     20  C   UNL A   1      41.983  27.324  27.228  1.00  0.00     0.049 A 
ATOM     21  H   UNL A   1      42.165  28.244  29.099  1.00  0.00     0.167 HD
ATOM     22  C   UNL A   1      41.955  29.489  33.333  1.00  0.00     0.031 A 
ATOM     23  C   UNL A   1      43.050  26.488  27.177  1.00  0.00     0.031 A 
ATOM     24  C   UNL A   1      42.947  30.389  32.808  1.00  0.00     0.049 A 
ATOM     25  C   UNL A   1      44.009  26.966  28.203  1.00  0.00     0.074 A 
ATOM     26  C   UNL A   1      42.974  31.735  32.506  1.00  0.00     0.029 A 
ATOM     27  N   UNL A   1      44.005  29.825  32.133  1.00  0.00    -0.354 N 
ATOM     28  N   UNL A   1      44.600  28.126  28.139  1.00  0.00    -0.248 NA
ATOM     29  C   UNL A   1      43.950  26.368  29.527  1.00  0.00     0.031 C 
ATOM     30  C   UNL A   1      43.706  31.811  31.285  1.00  0.00     0.029 A 
ATOM     31  C   UNL A   1      44.156  30.528  30.965  1.00  0.00     0.049 A 
ATOM     32  H   UNL A   1      44.549  29.061  32.432  1.00  0.00     0.167 HD
ATOM     33  C   UNL A   1      44.592  28.601  29.442  1.00  0.00     0.074 A 
ATOM     34  C   UNL A   1      44.264  27.436  30.266  1.00  0.00     0.031 C 
ATOM     35  C   UNL A   1      44.579  29.941  29.710  1.00  0.00     0.031 A 
BRANCH  22  36
ATOM     36  C   UNL A   1      42.279  28.544  34.462  1.00  0.00    -0.014 A 
ATOM     37  C   UNL A   1      42.576  29.077  35.735  1.00  0.00     0.010 A 
ATOM     38  C   UNL A   1      42.571  27.181  34.255  1.00  0.00     0.010 A 
ATOM     39  C   UNL A   1      43.194  28.302  36.726  1.00  0.00     0.020 A 
ATOM     40  C   UNL A   1      43.155  26.390  35.251  1.00  0.00     0.020 A 
ATOM     41  C   UNL A   1      43.492  26.964  36.471  1.00  0.00     0.054 A 
BRANCH  41  42
ATOM     42  S   UNL A   1      44.390  26.009  37.722  1.00  0.00     0.124 S 
ATOM     43  O   UNL A   1      45.774  26.390  37.460  1.00  0.00    -0.237 OA
ATOM     44  O   UNL A   1      43.819  26.518  38.967  1.00  0.00    -0.237 OA
ATOM     45  O   UNL A   1      44.050  24.624  37.406  1.00  0.00    -0.744 OA
ENDBRANCH  41  42
ENDBRANCH  22  36
BRANCH  23  46
ATOM     46  C   UNL A   1      43.142  25.143  26.554  1.00  0.00    -0.014 A 
ATOM     47  C   UNL A   1      43.548  24.993  25.214  1.00  0.00     0.010 A 
ATOM     48  C   UNL A   1      43.126  23.989  27.365  1.00  0.00     0.010 A 
ATOM     49  C   UNL A   1      43.996  23.753  24.726  1.00  0.00     0.020 A 
ATOM     50  C   UNL A   1      43.567  22.748  26.884  1.00  0.00     0.020 A 
ATOM     51  C   UNL A   1      44.028  22.642  25.574  1.00  0.00     0.054 A 
BRANCH  51  52
ATOM     52  S   UNL A   1      44.795  21.098  24.993  1.00  0.00     0.124 S 
ATOM     53  O   UNL A   1      43.916  20.080  25.561  1.00  0.00    -0.237 OA
ATOM     54  O   UNL A   1      44.738  21.243  23.542  1.00  0.00    -0.237 OA
ATOM     55  O   UNL A   1      46.140  21.144  25.566  1.00  0.00    -0.744 OA
ENDBRANCH  51  52
ENDBRANCH  23  46
BRANCH  35  56
ATOM     56  C   UNL A   1      44.799  30.911  28.568  1.00  0.00    -0.014 A 
ATOM     57  C   UNL A   1      43.802  31.272  27.639  1.00  0.00     0.010 A 
ATOM     58  C   UNL A   1      46.013  31.618  28.548  1.00  0.00     0.010 A 
ATOM     59  C   UNL A   1      44.023  32.301  26.709  1.00  0.00     0.020 A 
ATOM     60  C   UNL A   1      46.233  32.655  27.639  1.00  0.00     0.020 A 
ATOM     61  C   UNL A   1      45.240  32.989  26.718  1.00  0.00     0.054 A 
BRANCH  61  62
ATOM     62  S   UNL A   1      45.509  34.352  25.549  1.00  0.00     0.124 S 
ATOM     63  O   UNL A   1      44.755  33.919  24.376  1.00  0.00    -0.237 OA
ATOM     64  O   UNL A   1      44.959  35.502  26.261  1.00  0.00    -0.237 OA
ATOM     65  O   UNL A   1      46.961  34.380  25.374  1.00  0.00    -0.744 OA
ENDBRANCH  61  62
ENDBRANCH  35  56
ENDBRANCH   9  10
ENDBRANCH   2   4
ENDBRANCH   1   2
BRANCH   1  66
ATOM     66  C   UNL A   1      33.436  33.847  27.992  1.00  0.00     0.275 C 
BRANCH  66  67
ATOM     67  C   UNL A   1      33.352  35.129  28.827  1.00  0.00     0.275 C 
BRANCH  67  68
ATOM     68  O   UNL A   1      34.293  35.109  29.918  1.00  0.00    -0.457 OA
BRANCH  68  69
ATOM     69  C   UNL A   1      33.781  34.908  31.172  1.00  0.00     0.357 C 
ATOM     70  O   UNL A   1      32.623  35.028  31.498  1.00  0.00    -0.244 OA
BRANCH  69  71
ATOM     71  C   UNL A   1      34.867  34.566  32.042  1.00  0.00     0.153 A 
ATOM     72  N   UNL A   1      35.509  35.486  32.830  1.00  0.00    -0.269 N 
ATOM     73  C   UNL A   1      35.514  33.381  32.308  1.00  0.00     0.056 A 
ATOM     74  N   UNL A   1      36.516  34.997  33.572  1.00  0.00    -0.154 NA
ATOM     75  H   UNL A   1      35.250  36.435  32.850  1.00  0.00     0.190 HD
ATOM     76  C   UNL A   1      36.563  33.710  33.231  1.00  0.00     0.181 A 
ATOM     77  C   UNL A   1      35.263  32.141  31.732  1.00  0.00     0.055 A 
ATOM     78  N   UNL A   1      37.466  32.787  33.650  1.00  0.00    -0.232 NA
ATOM     79  C   UNL A   1      36.237  31.225  32.139  1.00  0.00     0.142 A 
ATOM     80  C   UNL A   1      37.256  31.570  33.056  1.00  0.00     0.152 A 
ATOM     81  F   UNL A   1      36.231  29.992  31.612  1.00  0.00    -0.205 F 
ENDBRANCH  69  71
ENDBRANCH  68  69
ENDBRANCH  67  68
ENDBRANCH  66  67
ENDBRANCH   1  66
TORSDOF 14
ENDMDL
