MODEL 1
REMARK VINA RESULT:     -11.7      0.000      0.000
REMARK SMILES O=C(C[C@@H](C(=O)OCCOC(=O)c1ccc(-c2c3nc(c(-c4ccc(S(=O)(=O)[O-])cc4)c4ccc([nH]4)c(-c4ccc(S(=O)(=O)[O-])cc4)c4nc(c(-c5ccc(S(=O)(=O)[O-])cc5)c5ccc2[nH]5)C=C4)C=C3)cc1)[NH+]1CCN(c2cccc(Cl)c2)CC1)c1ccc(F)cc1
REMARK SMILES IDX 8 1 7 2 5 3 6 4 4 5 3 6 2 7 1 8 86 9 87 10 92 11 88 12 91 13
REMARK SMILES IDX 89 14 90 15 73 16 74 17 85 18 75 20 84 21 76 22 77 23 78 24
REMARK SMILES IDX 83 25 79 26 81 27 80 28 82 29 9 30 10 31 11 32 12 33 13 34
REMARK SMILES IDX 14 35 72 36 15 37 71 38 16 39 17 40 18 41 65 42 19 43 70 44
REMARK SMILES IDX 64 45 66 46 20 47 69 48 63 49 62 50 21 52 51 53 32 54 50 55
REMARK SMILES IDX 33 56 36 57 49 58 67 59 34 60 35 61 48 63 68 64 37 65 22 66
REMARK SMILES IDX 23 67 31 68 24 69 30 70 25 71 26 72 27 73 28 74 29 75 52 76
REMARK SMILES IDX 53 77 61 78 54 79 60 80 55 81 56 82 57 83 58 84 59 85 38 86
REMARK SMILES IDX 39 87 47 88 40 89 46 90 41 91 42 92 43 93 44 94 45 95
REMARK H PARENT 73 19 66 51 36 62
REMARK Flexibility Score: inf
ROOT
ATOM      1  C   UNL A   1      32.205  27.518  26.495  1.00  0.00     0.274 C 
ENDROOT
BRANCH   1   2
ATOM      2  O   UNL A   1      31.614  26.225  26.809  1.00  0.00    -0.458 OA
BRANCH   2   3
ATOM      3  C   UNL A   1      30.637  25.692  26.038  1.00  0.00     0.365 C 
ATOM      4  O   UNL A   1      29.508  25.418  26.422  1.00  0.00    -0.245 OA
BRANCH   3   5
ATOM      5  C   UNL A   1      31.110  25.444  24.591  1.00  0.00     0.303 C 
BRANCH   5   6
ATOM      6  C   UNL A   1      29.944  25.932  23.683  1.00  0.00     0.158 C 
BRANCH   6   7
ATOM      7  C   UNL A   1      30.162  27.204  22.852  1.00  0.00     0.169 C 
ATOM      8  O   UNL A   1      30.919  27.225  21.882  1.00  0.00    -0.294 OA
BRANCH   7   9
ATOM      9  C   UNL A   1      29.356  28.425  23.097  1.00  0.00     0.018 A 
ATOM     10  C   UNL A   1      27.962  28.373  22.994  1.00  0.00     0.015 A 
ATOM     11  C   UNL A   1      29.993  29.626  23.440  1.00  0.00     0.015 A 
ATOM     12  C   UNL A   1      27.214  29.545  23.122  1.00  0.00     0.040 A 
ATOM     13  C   UNL A   1      29.236  30.791  23.598  1.00  0.00     0.040 A 
ATOM     14  C   UNL A   1      27.857  30.744  23.412  1.00  0.00     0.123 A 
ATOM     15  F   UNL A   1      27.135  31.867  23.518  1.00  0.00    -0.207 F 
ENDBRANCH   7   9
ENDBRANCH   6   7
ENDBRANCH   5   6
BRANCH   5  16
ATOM     16  N   UNL A   1      31.358  23.998  24.288  1.00  0.00    -0.320 N 
ATOM     17  C   UNL A   1      32.195  23.622  23.137  1.00  0.00     0.284 C 
ATOM     18  C   UNL A   1      31.794  23.181  25.420  1.00  0.00     0.284 C 
ATOM     19  H   UNL A   1      30.396  23.789  24.023  1.00  0.00     0.348 HD
ATOM     20  C   UNL A   1      33.743  23.487  23.323  1.00  0.00     0.178 C 
ATOM     21  C   UNL A   1      33.297  23.262  25.747  1.00  0.00     0.178 C 
ATOM     22  N   UNL A   1      34.150  22.899  24.619  1.00  0.00    -0.360 N 
BRANCH  22  23
ATOM     23  C   UNL A   1      35.493  22.607  24.911  1.00  0.00     0.038 A 
ATOM     24  C   UNL A   1      36.074  21.359  24.645  1.00  0.00     0.026 A 
ATOM     25  C   UNL A   1      36.353  23.549  25.522  1.00  0.00     0.046 A 
ATOM     26  C   UNL A   1      37.409  21.066  24.985  1.00  0.00     0.004 A 
ATOM     27  C   UNL A   1      37.672  23.258  25.886  1.00  0.00     0.043 A 
ATOM     28  C   UNL A   1      38.205  22.011  25.624  1.00  0.00     0.020 A 
ATOM     29  Cl  UNL A   1      38.627  24.459  26.670  1.00  0.00    -0.084 Cl
ENDBRANCH  22  23
ENDBRANCH   5  16
ENDBRANCH   3   5
ENDBRANCH   2   3
ENDBRANCH   1   2
BRANCH   1  30
ATOM     30  C   UNL A   1      32.878  28.363  27.600  1.00  0.00     0.275 C 
BRANCH  30  31
ATOM     31  O   UNL A   1      34.224  28.735  27.235  1.00  0.00    -0.458 OA
BRANCH  31  32
ATOM     32  C   UNL A   1      34.560  30.042  27.452  1.00  0.00     0.338 C 
ATOM     33  O   UNL A   1      33.957  31.032  27.102  1.00  0.00    -0.246 OA
BRANCH  32  34
ATOM     34  C   UNL A   1      35.863  30.046  28.157  1.00  0.00     0.060 A 
ATOM     35  C   UNL A   1      35.937  29.582  29.470  1.00  0.00     0.016 A 
ATOM     36  C   UNL A   1      37.025  30.428  27.496  1.00  0.00     0.016 A 
ATOM     37  C   UNL A   1      37.166  29.258  30.044  1.00  0.00     0.010 A 
ATOM     38  C   UNL A   1      38.265  30.206  28.111  1.00  0.00     0.010 A 
ATOM     39  C   UNL A   1      38.345  29.558  29.361  1.00  0.00    -0.014 A 
BRANCH  39  40
ATOM     40  C   UNL A   1      39.652  29.395  30.037  1.00  0.00     0.031 A 
ATOM     41  C   UNL A   1      40.518  28.265  29.587  1.00  0.00     0.074 A 
ATOM     42  C   UNL A   1      40.086  30.239  30.993  1.00  0.00     0.049 A 
ATOM     43  N   UNL A   1      41.577  27.763  30.153  1.00  0.00    -0.248 NA
ATOM     44  C   UNL A   1      40.168  27.655  28.292  1.00  0.00     0.031 C 
ATOM     45  C   UNL A   1      39.498  31.534  31.305  1.00  0.00     0.029 A 
ATOM     46  N   UNL A   1      41.108  30.124  31.904  1.00  0.00    -0.354 N 
ATOM     47  C   UNL A   1      42.014  26.768  29.292  1.00  0.00     0.074 A 
ATOM     48  C   UNL A   1      41.118  26.742  28.161  1.00  0.00     0.031 C 
ATOM     49  C   UNL A   1      40.056  32.029  32.423  1.00  0.00     0.029 A 
ATOM     50  C   UNL A   1      41.045  31.076  32.904  1.00  0.00     0.049 A 
ATOM     51  H   UNL A   1      41.811  29.437  31.850  1.00  0.00     0.167 HD
ATOM     52  C   UNL A   1      43.069  25.942  29.456  1.00  0.00     0.031 A 
ATOM     53  C   UNL A   1      41.679  31.127  34.093  1.00  0.00     0.031 A 
ATOM     54  C   UNL A   1      43.915  25.982  30.615  1.00  0.00     0.049 A 
ATOM     55  C   UNL A   1      42.698  30.054  34.374  1.00  0.00     0.074 A 
ATOM     56  C   UNL A   1      44.983  25.166  30.933  1.00  0.00     0.029 A 
ATOM     57  N   UNL A   1      43.770  26.888  31.658  1.00  0.00    -0.354 N 
ATOM     58  N   UNL A   1      43.076  29.066  33.594  1.00  0.00    -0.248 NA
ATOM     59  C   UNL A   1      43.395  30.106  35.663  1.00  0.00     0.031 C 
ATOM     60  C   UNL A   1      45.438  25.534  32.203  1.00  0.00     0.029 A 
ATOM     61  C   UNL A   1      44.703  26.628  32.641  1.00  0.00     0.049 A 
ATOM     62  H   UNL A   1      43.102  27.610  31.692  1.00  0.00     0.167 HD
ATOM     63  C   UNL A   1      44.102  28.421  34.269  1.00  0.00     0.074 A 
ATOM     64  C   UNL A   1      44.273  29.120  35.529  1.00  0.00     0.031 C 
ATOM     65  C   UNL A   1      44.852  27.364  33.873  1.00  0.00     0.031 A 
BRANCH  52  66
ATOM     66  C   UNL A   1      43.277  24.875  28.422  1.00  0.00    -0.014 A 
ATOM     67  C   UNL A   1      42.725  23.589  28.556  1.00  0.00     0.010 A 
ATOM     68  C   UNL A   1      44.048  25.178  27.285  1.00  0.00     0.010 A 
ATOM     69  C   UNL A   1      42.955  22.619  27.574  1.00  0.00     0.020 A 
ATOM     70  C   UNL A   1      44.258  24.221  26.292  1.00  0.00     0.020 A 
ATOM     71  C   UNL A   1      43.716  22.944  26.446  1.00  0.00     0.054 A 
BRANCH  71  72
ATOM     72  S   UNL A   1      43.950  21.688  25.159  1.00  0.00     0.124 S 
ATOM     73  O   UNL A   1      42.841  20.774  25.422  1.00  0.00    -0.237 OA
ATOM     74  O   UNL A   1      43.843  22.468  23.930  1.00  0.00    -0.237 OA
ATOM     75  O   UNL A   1      45.280  21.149  25.438  1.00  0.00    -0.744 OA
ENDBRANCH  71  72
ENDBRANCH  52  66
BRANCH  53  76
ATOM     76  C   UNL A   1      41.328  32.154  35.121  1.00  0.00    -0.014 A 
ATOM     77  C   UNL A   1      40.319  31.929  36.074  1.00  0.00     0.010 A 
ATOM     78  C   UNL A   1      41.970  33.409  35.106  1.00  0.00     0.010 A 
ATOM     79  C   UNL A   1      39.927  32.946  36.955  1.00  0.00     0.020 A 
ATOM     80  C   UNL A   1      41.600  34.420  35.999  1.00  0.00     0.020 A 
ATOM     81  C   UNL A   1      40.566  34.190  36.906  1.00  0.00     0.054 A 
BRANCH  81  82
ATOM     82  S   UNL A   1      40.027  35.500  38.044  1.00  0.00     0.124 S 
ATOM     83  O   UNL A   1      38.817  34.925  38.622  1.00  0.00    -0.237 OA
ATOM     84  O   UNL A   1      41.167  35.618  38.951  1.00  0.00    -0.237 OA
ATOM     85  O   UNL A   1      39.816  36.651  37.169  1.00  0.00    -0.744 OA
ENDBRANCH  81  82
ENDBRANCH  53  76
BRANCH  65  86
ATOM     86  C   UNL A   1      45.978  26.951  34.774  1.00  0.00    -0.014 A 
ATOM     87  C   UNL A   1      47.245  27.548  34.685  1.00  0.00     0.010 A 
ATOM     88  C   UNL A   1      45.722  26.008  35.786  1.00  0.00     0.010 A 
ATOM     89  C   UNL A   1      48.246  27.194  35.590  1.00  0.00     0.020 A 
ATOM     90  C   UNL A   1      46.709  25.679  36.712  1.00  0.00     0.020 A 
ATOM     91  C   UNL A   1      47.970  26.269  36.603  1.00  0.00     0.054 A 
BRANCH  91  92
ATOM     92  S   UNL A   1      49.262  25.892  37.813  1.00  0.00     0.124 S 
ATOM     93  O   UNL A   1      50.449  26.448  37.173  1.00  0.00    -0.237 OA
ATOM     94  O   UNL A   1      48.798  26.600  39.004  1.00  0.00    -0.237 OA
ATOM     95  O   UNL A   1      49.230  24.434  37.911  1.00  0.00    -0.744 OA
ENDBRANCH  91  92
ENDBRANCH  65  86
ENDBRANCH  39  40
ENDBRANCH  32  34
ENDBRANCH  31  32
ENDBRANCH  30  31
ENDBRANCH   1  30
TORSDOF 19
ENDMDL
MODEL 2
REMARK VINA RESULT:     -11.6      5.180     10.224
REMARK SMILES O=C(C[C@@H](C(=O)OCCOC(=O)c1ccc(-c2c3nc(c(-c4ccc(S(=O)(=O)[O-])cc4)c4ccc([nH]4)c(-c4ccc(S(=O)(=O)[O-])cc4)c4nc(c(-c5ccc(S(=O)(=O)[O-])cc5)c5ccc2[nH]5)C=C4)C=C3)cc1)[NH+]1CCN(c2cccc(Cl)c2)CC1)c1ccc(F)cc1
REMARK SMILES IDX 8 1 7 2 5 3 6 4 4 5 3 6 2 7 1 8 86 9 87 10 92 11 88 12 91 13
REMARK SMILES IDX 89 14 90 15 73 16 74 17 85 18 75 20 84 21 76 22 77 23 78 24
REMARK SMILES IDX 83 25 79 26 81 27 80 28 82 29 9 30 10 31 11 32 12 33 13 34
REMARK SMILES IDX 14 35 72 36 15 37 71 38 16 39 17 40 18 41 65 42 19 43 70 44
REMARK SMILES IDX 64 45 66 46 20 47 69 48 63 49 62 50 21 52 51 53 32 54 50 55
REMARK SMILES IDX 33 56 36 57 49 58 67 59 34 60 35 61 48 63 68 64 37 65 22 66
REMARK SMILES IDX 23 67 31 68 24 69 30 70 25 71 26 72 27 73 28 74 29 75 52 76
REMARK SMILES IDX 53 77 61 78 54 79 60 80 55 81 56 82 57 83 58 84 59 85 38 86
REMARK SMILES IDX 39 87 47 88 40 89 46 90 41 91 42 92 43 93 44 94 45 95
REMARK H PARENT 73 19 66 51 36 62
REMARK Flexibility Score: inf
ROOT
ATOM      1  C   UNL A   1      35.283  24.084  24.185  1.00  0.00     0.274 C 
ENDROOT
BRANCH   1   2
ATOM      2  O   UNL A   1      34.847  24.150  22.798  1.00  0.00    -0.458 OA
BRANCH   2   3
ATOM      3  C   UNL A   1      33.628  23.696  22.421  1.00  0.00     0.365 C 
ATOM      4  O   UNL A   1      33.323  23.360  21.285  1.00  0.00    -0.245 OA
BRANCH   3   5
ATOM      5  C   UNL A   1      32.633  23.661  23.599  1.00  0.00     0.303 C 
BRANCH   5   6
ATOM      6  C   UNL A   1      31.925  22.278  23.504  1.00  0.00     0.158 C 
BRANCH   6   7
ATOM      7  C   UNL A   1      32.321  21.196  24.519  1.00  0.00     0.169 C 
ATOM      8  O   UNL A   1      32.115  21.329  25.724  1.00  0.00    -0.294 OA
BRANCH   7   9
ATOM      9  C   UNL A   1      32.837  19.880  24.069  1.00  0.00     0.018 A 
ATOM     10  C   UNL A   1      32.228  19.220  22.997  1.00  0.00     0.015 A 
ATOM     11  C   UNL A   1      33.940  19.304  24.716  1.00  0.00     0.015 A 
ATOM     12  C   UNL A   1      32.649  17.936  22.645  1.00  0.00     0.040 A 
ATOM     13  C   UNL A   1      34.378  18.031  24.338  1.00  0.00     0.040 A 
ATOM     14  C   UNL A   1      33.712  17.349  23.324  1.00  0.00     0.123 A 
ATOM     15  F   UNL A   1      34.100  16.111  22.990  1.00  0.00    -0.207 F 
ENDBRANCH   7   9
ENDBRANCH   6   7
ENDBRANCH   5   6
BRANCH   5  16
ATOM     16  N   UNL A   1      31.582  24.725  23.518  1.00  0.00    -0.320 N 
ATOM     17  C   UNL A   1      30.768  25.046  24.703  1.00  0.00     0.284 C 
ATOM     18  C   UNL A   1      32.013  25.997  22.937  1.00  0.00     0.284 C 
ATOM     19  H   UNL A   1      30.972  24.210  22.883  1.00  0.00     0.348 HD
ATOM     20  C   UNL A   1      31.280  26.120  25.719  1.00  0.00     0.178 C 
ATOM     21  C   UNL A   1      32.747  26.944  23.905  1.00  0.00     0.178 C 
ATOM     22  N   UNL A   1      31.964  27.273  25.092  1.00  0.00    -0.360 N 
BRANCH  22  23
ATOM     23  C   UNL A   1      32.392  28.380  25.844  1.00  0.00     0.038 A 
ATOM     24  C   UNL A   1      31.635  29.555  25.965  1.00  0.00     0.026 A 
ATOM     25  C   UNL A   1      33.636  28.398  26.516  1.00  0.00     0.046 A 
ATOM     26  C   UNL A   1      32.098  30.673  26.685  1.00  0.00     0.004 A 
ATOM     27  C   UNL A   1      34.113  29.514  27.212  1.00  0.00     0.043 A 
ATOM     28  C   UNL A   1      33.347  30.660  27.295  1.00  0.00     0.020 A 
ATOM     29  Cl  UNL A   1      35.665  29.455  27.960  1.00  0.00    -0.084 Cl
ENDBRANCH  22  23
ENDBRANCH   5  16
ENDBRANCH   3   5
ENDBRANCH   2   3
ENDBRANCH   1   2
BRANCH   1  30
ATOM     30  C   UNL A   1      36.561  23.305  24.571  1.00  0.00     0.275 C 
BRANCH  30  31
ATOM     31  O   UNL A   1      37.299  23.982  25.611  1.00  0.00    -0.458 OA
BRANCH  31  32
ATOM     32  C   UNL A   1      38.359  23.295  26.133  1.00  0.00     0.338 C 
ATOM     33  O   UNL A   1      38.534  22.096  26.146  1.00  0.00    -0.246 OA
BRANCH  32  34
ATOM     34  C   UNL A   1      39.260  24.291  26.758  1.00  0.00     0.060 A 
ATOM     35  C   UNL A   1      40.057  25.100  25.950  1.00  0.00     0.016 A 
ATOM     36  C   UNL A   1      39.255  24.485  28.135  1.00  0.00     0.016 A 
ATOM     37  C   UNL A   1      40.654  26.252  26.462  1.00  0.00     0.010 A 
ATOM     38  C   UNL A   1      39.943  25.582  28.672  1.00  0.00     0.010 A 
ATOM     39  C   UNL A   1      40.591  26.510  27.831  1.00  0.00    -0.014 A 
BRANCH  39  40
ATOM     40  C   UNL A   1      41.378  27.623  28.411  1.00  0.00     0.031 A 
ATOM     41  C   UNL A   1      40.617  28.788  28.952  1.00  0.00     0.074 A 
ATOM     42  C   UNL A   1      42.721  27.595  28.497  1.00  0.00     0.049 A 
ATOM     43  N   UNL A   1      41.048  29.969  29.289  1.00  0.00    -0.248 NA
ATOM     44  C   UNL A   1      39.180  28.570  29.192  1.00  0.00     0.031 C 
ATOM     45  C   UNL A   1      43.554  26.417  28.301  1.00  0.00     0.029 A 
ATOM     46  N   UNL A   1      43.632  28.593  28.744  1.00  0.00    -0.354 N 
ATOM     47  C   UNL A   1      39.935  30.641  29.770  1.00  0.00     0.074 A 
ATOM     48  C   UNL A   1      38.812  29.738  29.694  1.00  0.00     0.031 C 
ATOM     49  C   UNL A   1      44.850  26.776  28.278  1.00  0.00     0.029 A 
ATOM     50  C   UNL A   1      44.931  28.217  28.461  1.00  0.00     0.049 A 
ATOM     51  H   UNL A   1      43.386  29.482  29.088  1.00  0.00     0.167 HD
ATOM     52  C   UNL A   1      39.871  31.912  30.218  1.00  0.00     0.031 A 
ATOM     53  C   UNL A   1      46.039  28.971  28.311  1.00  0.00     0.031 A 
ATOM     54  C   UNL A   1      41.011  32.785  30.245  1.00  0.00     0.049 A 
ATOM     55  C   UNL A   1      45.907  30.447  28.587  1.00  0.00     0.074 A 
ATOM     56  C   UNL A   1      41.073  34.113  30.623  1.00  0.00     0.029 A 
ATOM     57  N   UNL A   1      42.292  32.412  29.859  1.00  0.00    -0.354 N 
ATOM     58  N   UNL A   1      44.842  31.109  28.980  1.00  0.00    -0.248 NA
ATOM     59  C   UNL A   1      47.109  31.273  28.432  1.00  0.00     0.031 C 
ATOM     60  C   UNL A   1      42.378  34.560  30.396  1.00  0.00     0.029 A 
ATOM     61  C   UNL A   1      43.146  33.492  29.951  1.00  0.00     0.049 A 
ATOM     62  H   UNL A   1      42.554  31.509  29.565  1.00  0.00     0.167 HD
ATOM     63  C   UNL A   1      45.262  32.414  29.186  1.00  0.00     0.074 A 
ATOM     64  C   UNL A   1      46.675  32.453  28.856  1.00  0.00     0.031 C 
ATOM     65  C   UNL A   1      44.553  33.480  29.631  1.00  0.00     0.031 A 
BRANCH  52  66
ATOM     66  C   UNL A   1      38.520  32.444  30.594  1.00  0.00    -0.014 A 
ATOM     67  C   UNL A   1      38.044  32.403  31.916  1.00  0.00     0.010 A 
ATOM     68  C   UNL A   1      37.710  33.000  29.587  1.00  0.00     0.010 A 
ATOM     69  C   UNL A   1      36.772  32.898  32.221  1.00  0.00     0.020 A 
ATOM     70  C   UNL A   1      36.450  33.518  29.893  1.00  0.00     0.020 A 
ATOM     71  C   UNL A   1      35.985  33.457  31.207  1.00  0.00     0.054 A 
BRANCH  71  72
ATOM     72  S   UNL A   1      34.364  34.145  31.639  1.00  0.00     0.124 S 
ATOM     73  O   UNL A   1      34.729  35.417  32.256  1.00  0.00    -0.237 OA
ATOM     74  O   UNL A   1      33.705  34.244  30.340  1.00  0.00    -0.237 OA
ATOM     75  O   UNL A   1      33.797  33.152  32.548  1.00  0.00    -0.744 OA
ENDBRANCH  71  72
ENDBRANCH  52  66
BRANCH  53  76
ATOM     76  C   UNL A   1      47.322  28.385  27.816  1.00  0.00    -0.014 A 
ATOM     77  C   UNL A   1      47.604  28.283  26.442  1.00  0.00     0.010 A 
ATOM     78  C   UNL A   1      48.252  27.858  28.733  1.00  0.00     0.010 A 
ATOM     79  C   UNL A   1      48.760  27.628  25.996  1.00  0.00     0.020 A 
ATOM     80  C   UNL A   1      49.420  27.224  28.294  1.00  0.00     0.020 A 
ATOM     81  C   UNL A   1      49.657  27.094  26.926  1.00  0.00     0.054 A 
BRANCH  81  82
ATOM     82  S   UNL A   1      51.138  26.231  26.324  1.00  0.00     0.124 S 
ATOM     83  O   UNL A   1      50.962  26.294  24.876  1.00  0.00    -0.237 OA
ATOM     84  O   UNL A   1      52.221  27.047  26.866  1.00  0.00    -0.237 OA
ATOM     85  O   UNL A   1      51.021  24.897  26.909  1.00  0.00    -0.744 OA
ENDBRANCH  81  82
ENDBRANCH  53  76
BRANCH  65  86
ATOM     86  C   UNL A   1      45.308  34.754  29.865  1.00  0.00    -0.014 A 
ATOM     87  C   UNL A   1      45.955  35.010  31.086  1.00  0.00     0.010 A 
ATOM     88  C   UNL A   1      45.444  35.665  28.802  1.00  0.00     0.010 A 
ATOM     89  C   UNL A   1      46.713  36.170  31.242  1.00  0.00     0.020 A 
ATOM     90  C   UNL A   1      46.229  36.806  28.944  1.00  0.00     0.020 A 
ATOM     91  C   UNL A   1      46.853  37.056  30.168  1.00  0.00     0.054 A 
BRANCH  91  92
ATOM     92  S   UNL A   1      47.912  38.510  30.372  1.00  0.00     0.124 S 
ATOM     93  O   UNL A   1      47.166  39.294  31.351  1.00  0.00    -0.237 OA
ATOM     94  O   UNL A   1      49.163  37.928  30.851  1.00  0.00    -0.237 OA
ATOM     95  O   UNL A   1      47.973  39.085  29.030  1.00  0.00    -0.744 OA
ENDBRANCH  91  92
ENDBRANCH  65  86
ENDBRANCH  39  40
ENDBRANCH  32  34
ENDBRANCH  31  32
ENDBRANCH  30  31
ENDBRANCH   1  30
TORSDOF 19
ENDMDL
MODEL 3
REMARK VINA RESULT:     -11.4      4.367      9.327
REMARK SMILES O=C(C[C@@H](C(=O)OCCOC(=O)c1ccc(-c2c3nc(c(-c4ccc(S(=O)(=O)[O-])cc4)c4ccc([nH]4)c(-c4ccc(S(=O)(=O)[O-])cc4)c4nc(c(-c5ccc(S(=O)(=O)[O-])cc5)c5ccc2[nH]5)C=C4)C=C3)cc1)[NH+]1CCN(c2cccc(Cl)c2)CC1)c1ccc(F)cc1
REMARK SMILES IDX 8 1 7 2 5 3 6 4 4 5 3 6 2 7 1 8 86 9 87 10 92 11 88 12 91 13
REMARK SMILES IDX 89 14 90 15 73 16 74 17 85 18 75 20 84 21 76 22 77 23 78 24
REMARK SMILES IDX 83 25 79 26 81 27 80 28 82 29 9 30 10 31 11 32 12 33 13 34
REMARK SMILES IDX 14 35 72 36 15 37 71 38 16 39 17 40 18 41 65 42 19 43 70 44
REMARK SMILES IDX 64 45 66 46 20 47 69 48 63 49 62 50 21 52 51 53 32 54 50 55
REMARK SMILES IDX 33 56 36 57 49 58 67 59 34 60 35 61 48 63 68 64 37 65 22 66
REMARK SMILES IDX 23 67 31 68 24 69 30 70 25 71 26 72 27 73 28 74 29 75 52 76
REMARK SMILES IDX 53 77 61 78 54 79 60 80 55 81 56 82 57 83 58 84 59 85 38 86
REMARK SMILES IDX 39 87 47 88 40 89 46 90 41 91 42 92 43 93 44 94 45 95
REMARK H PARENT 73 19 66 51 36 62
REMARK Flexibility Score: inf
ROOT
ATOM      1  C   UNL A   1      32.246  29.154  25.671  1.00  0.00     0.274 C 
ENDROOT
BRANCH   1   2
ATOM      2  O   UNL A   1      31.828  28.295  24.572  1.00  0.00    -0.458 OA
BRANCH   2   3
ATOM      3  C   UNL A   1      32.727  27.575  23.861  1.00  0.00     0.365 C 
ATOM      4  O   UNL A   1      33.556  28.045  23.094  1.00  0.00    -0.245 OA
BRANCH   3   5
ATOM      5  C   UNL A   1      32.586  26.060  24.113  1.00  0.00     0.303 C 
BRANCH   5   6
ATOM      6  C   UNL A   1      34.041  25.509  24.161  1.00  0.00     0.158 C 
BRANCH   6   7
ATOM      7  C   UNL A   1      34.415  24.564  25.312  1.00  0.00     0.169 C 
ATOM      8  O   UNL A   1      33.644  24.338  26.244  1.00  0.00    -0.294 OA
BRANCH   7   9
ATOM      9  C   UNL A   1      35.667  23.768  25.271  1.00  0.00     0.018 A 
ATOM     10  C   UNL A   1      35.754  22.646  24.440  1.00  0.00     0.015 A 
ATOM     11  C   UNL A   1      36.762  24.150  26.059  1.00  0.00     0.015 A 
ATOM     12  C   UNL A   1      36.894  21.841  24.484  1.00  0.00     0.040 A 
ATOM     13  C   UNL A   1      37.914  23.357  26.074  1.00  0.00     0.040 A 
ATOM     14  C   UNL A   1      37.959  22.197  25.306  1.00  0.00     0.123 A 
ATOM     15  F   UNL A   1      39.042  21.411  25.353  1.00  0.00    -0.207 F 
ENDBRANCH   7   9
ENDBRANCH   6   7
ENDBRANCH   5   6
BRANCH   5  16
ATOM     16  N   UNL A   1      31.857  25.343  23.017  1.00  0.00    -0.320 N 
ATOM     17  C   UNL A   1      32.614  24.649  21.962  1.00  0.00     0.284 C 
ATOM     18  C   UNL A   1      30.797  24.434  23.453  1.00  0.00     0.284 C 
ATOM     19  H   UNL A   1      31.476  26.186  22.588  1.00  0.00     0.348 HD
ATOM     20  C   UNL A   1      33.040  23.158  22.177  1.00  0.00     0.178 C 
ATOM     21  C   UNL A   1      31.272  23.041  23.905  1.00  0.00     0.178 C 
ATOM     22  N   UNL A   1      32.032  22.333  22.878  1.00  0.00    -0.360 N 
BRANCH  22  23
ATOM     23  C   UNL A   1      32.202  20.950  23.060  1.00  0.00     0.038 A 
ATOM     24  C   UNL A   1      32.111  20.028  22.007  1.00  0.00     0.026 A 
ATOM     25  C   UNL A   1      32.453  20.383  24.331  1.00  0.00     0.046 A 
ATOM     26  C   UNL A   1      32.239  18.641  22.213  1.00  0.00     0.004 A 
ATOM     27  C   UNL A   1      32.557  19.005  24.548  1.00  0.00     0.043 A 
ATOM     28  C   UNL A   1      32.445  18.125  23.488  1.00  0.00     0.020 A 
ATOM     29  Cl  UNL A   1      32.817  18.407  26.143  1.00  0.00    -0.084 Cl
ENDBRANCH  22  23
ENDBRANCH   5  16
ENDBRANCH   3   5
ENDBRANCH   2   3
ENDBRANCH   1   2
BRANCH   1  30
ATOM     30  C   UNL A   1      33.693  29.093  26.209  1.00  0.00     0.275 C 
BRANCH  30  31
ATOM     31  O   UNL A   1      33.744  29.380  27.623  1.00  0.00    -0.458 OA
BRANCH  31  32
ATOM     32  C   UNL A   1      34.539  30.429  27.991  1.00  0.00     0.338 C 
ATOM     33  O   UNL A   1      34.245  31.602  28.038  1.00  0.00    -0.246 OA
BRANCH  32  34
ATOM     34  C   UNL A   1      35.885  29.878  28.270  1.00  0.00     0.060 A 
ATOM     35  C   UNL A   1      36.814  29.774  27.236  1.00  0.00     0.016 A 
ATOM     36  C   UNL A   1      36.259  29.543  29.567  1.00  0.00     0.016 A 
ATOM     37  C   UNL A   1      38.169  29.582  27.510  1.00  0.00     0.010 A 
ATOM     38  C   UNL A   1      37.602  29.243  29.835  1.00  0.00     0.010 A 
ATOM     39  C   UNL A   1      38.576  29.327  28.819  1.00  0.00    -0.014 A 
BRANCH  39  40
ATOM     40  C   UNL A   1      39.978  28.936  29.093  1.00  0.00     0.031 A 
ATOM     41  C   UNL A   1      40.921  30.018  29.506  1.00  0.00     0.074 A 
ATOM     42  C   UNL A   1      40.404  27.661  29.022  1.00  0.00     0.049 A 
ATOM     43  N   UNL A   1      42.220  29.996  29.574  1.00  0.00    -0.248 NA
ATOM     44  C   UNL A   1      40.306  31.280  29.952  1.00  0.00     0.031 C 
ATOM     45  C   UNL A   1      39.544  26.488  28.939  1.00  0.00     0.029 A 
ATOM     46  N   UNL A   1      41.671  27.131  28.977  1.00  0.00    -0.354 N 
ATOM     47  C   UNL A   1      42.582  31.244  30.057  1.00  0.00     0.074 A 
ATOM     48  C   UNL A   1      41.370  31.996  30.278  1.00  0.00     0.031 C 
ATOM     49  C   UNL A   1      40.289  25.395  28.699  1.00  0.00     0.029 A 
ATOM     50  C   UNL A   1      41.684  25.799  28.611  1.00  0.00     0.049 A 
ATOM     51  H   UNL A   1      42.483  27.647  29.184  1.00  0.00     0.167 HD
ATOM     52  C   UNL A   1      43.828  31.712  30.277  1.00  0.00     0.031 A 
ATOM     53  C   UNL A   1      42.707  25.023  28.199  1.00  0.00     0.031 A 
ATOM     54  C   UNL A   1      45.008  30.937  30.012  1.00  0.00     0.049 A 
ATOM     55  C   UNL A   1      44.084  25.634  28.222  1.00  0.00     0.074 A 
ATOM     56  C   UNL A   1      46.332  31.311  30.138  1.00  0.00     0.029 A 
ATOM     57  N   UNL A   1      44.996  29.628  29.548  1.00  0.00    -0.354 N 
ATOM     58  N   UNL A   1      44.434  26.838  28.615  1.00  0.00    -0.248 NA
ATOM     59  C   UNL A   1      45.202  24.795  27.780  1.00  0.00     0.031 C 
ATOM     60  C   UNL A   1      47.119  30.250  29.680  1.00  0.00     0.029 A 
ATOM     61  C   UNL A   1      46.288  29.190  29.343  1.00  0.00     0.049 A 
ATOM     62  H   UNL A   1      44.186  29.092  29.390  1.00  0.00     0.167 HD
ATOM     63  C   UNL A   1      45.817  26.877  28.534  1.00  0.00     0.074 A 
ATOM     64  C   UNL A   1      46.240  25.581  28.036  1.00  0.00     0.031 C 
ATOM     65  C   UNL A   1      46.665  27.881  28.864  1.00  0.00     0.031 A 
BRANCH  52  66
ATOM     66  C   UNL A   1      43.961  33.142  30.711  1.00  0.00    -0.014 A 
ATOM     67  C   UNL A   1      44.075  33.503  32.065  1.00  0.00     0.010 A 
ATOM     68  C   UNL A   1      43.973  34.148  29.728  1.00  0.00     0.010 A 
ATOM     69  C   UNL A   1      44.184  34.849  32.429  1.00  0.00     0.020 A 
ATOM     70  C   UNL A   1      44.106  35.491  30.085  1.00  0.00     0.020 A 
ATOM     71  C   UNL A   1      44.204  35.834  31.434  1.00  0.00     0.054 A 
BRANCH  71  72
ATOM     72  S   UNL A   1      44.405  37.567  31.927  1.00  0.00     0.124 S 
ATOM     73  O   UNL A   1      43.960  38.277  30.730  1.00  0.00    -0.237 OA
ATOM     74  O   UNL A   1      43.522  37.673  33.085  1.00  0.00    -0.237 OA
ATOM     75  O   UNL A   1      45.832  37.681  32.223  1.00  0.00    -0.744 OA
ENDBRANCH  71  72
ENDBRANCH  52  66
BRANCH  53  76
ATOM     76  C   UNL A   1      42.477  23.646  27.665  1.00  0.00    -0.014 A 
ATOM     77  C   UNL A   1      42.294  22.545  28.520  1.00  0.00     0.010 A 
ATOM     78  C   UNL A   1      42.509  23.419  26.275  1.00  0.00     0.010 A 
ATOM     79  C   UNL A   1      42.194  21.246  28.002  1.00  0.00     0.020 A 
ATOM     80  C   UNL A   1      42.385  22.127  25.751  1.00  0.00     0.020 A 
ATOM     81  C   UNL A   1      42.249  21.044  26.619  1.00  0.00     0.054 A 
BRANCH  81  82
ATOM     82  S   UNL A   1      42.139  19.350  25.973  1.00  0.00     0.124 S 
ATOM     83  O   UNL A   1      42.663  18.563  27.085  1.00  0.00    -0.237 OA
ATOM     84  O   UNL A   1      40.709  19.204  25.713  1.00  0.00    -0.237 OA
ATOM     85  O   UNL A   1      42.980  19.382  24.779  1.00  0.00    -0.744 OA
ENDBRANCH  81  82
ENDBRANCH  53  76
BRANCH  65  86
ATOM     86  C   UNL A   1      48.134  27.593  28.777  1.00  0.00    -0.014 A 
ATOM     87  C   UNL A   1      48.857  27.823  27.596  1.00  0.00     0.010 A 
ATOM     88  C   UNL A   1      48.810  27.170  29.936  1.00  0.00     0.010 A 
ATOM     89  C   UNL A   1      50.237  27.617  27.574  1.00  0.00     0.020 A 
ATOM     90  C   UNL A   1      50.192  26.998  29.926  1.00  0.00     0.020 A 
ATOM     91  C   UNL A   1      50.896  27.214  28.741  1.00  0.00     0.054 A 
BRANCH  91  92
ATOM     92  S   UNL A   1      52.698  27.037  28.705  1.00  0.00     0.124 S 
ATOM     93  O   UNL A   1      52.900  26.240  27.499  1.00  0.00    -0.237 OA
ATOM     94  O   UNL A   1      53.153  28.423  28.628  1.00  0.00    -0.237 OA
ATOM     95  O   UNL A   1      53.004  26.355  29.961  1.00  0.00    -0.744 OA
ENDBRANCH  91  92
ENDBRANCH  65  86
ENDBRANCH  39  40
ENDBRANCH  32  34
ENDBRANCH  31  32
ENDBRANCH  30  31
ENDBRANCH   1  30
TORSDOF 19
ENDMDL
