MODEL 1
REMARK VINA RESULT:     -12.3      0.000      0.000
REMARK SMILES O=C(CN1C(=O)/C(=C2\SC(N3CCN(c4ccccc4F)CC3)=[NH+]C2=O)c2ccccc21)OCCOC(=O)c1ccc(-c2c3nc(c(-c4ccc(S(=O)(=O)[O-])cc4)c4ccc([nH]4)c(-c4ccc(S(=O)(=O)[O-])cc4)c4nc(c(-c5ccc(S(=O)(=O)[O-])cc5)c5ccc2[nH]5)C=C4)C=C3)cc1
REMARK SMILES IDX 35 1 34 2 33 3 2 4 1 5 3 6 4 7 5 8 32 9 6 10 7 11 27 12
REMARK SMILES IDX 31 13 8 14 28 15 30 16 9 17 25 18 29 19 10 20 24 21 26 22
REMARK SMILES IDX 11 23 12 25 23 26 13 27 22 28 14 29 15 30 16 31 20 32 17 33
REMARK SMILES IDX 19 34 21 35 18 36 36 37 37 38 38 39 39 40 40 41 98 42 41 43
REMARK SMILES IDX 97 44 42 45 43 46 44 47 91 48 45 49 96 50 90 51 92 52 46 53
REMARK SMILES IDX 95 54 89 55 88 56 47 58 77 59 58 60 76 61 59 62 62 63 75 64
REMARK SMILES IDX 93 65 60 66 61 67 74 69 94 70 63 71 48 72 49 73 57 74 50 75
REMARK SMILES IDX 56 76 51 77 52 78 53 79 54 80 55 81 78 82 79 83 87 84 80 85
REMARK SMILES IDX 86 86 81 87 82 88 83 89 84 90 85 91 64 92 65 93 73 94 66 95
REMARK SMILES IDX 72 96 67 97 68 98 69 99 70 100 71 101
REMARK H PARENT 24 24 92 57 62 68
REMARK Flexibility Score: inf
ROOT
ATOM      1  C   UNL A   1      34.851  31.803  29.450  1.00  0.00     0.275 C 
ENDROOT
BRANCH   1   2
ATOM      2  C   UNL A   1      35.046  31.829  27.929  1.00  0.00     0.274 C 
BRANCH   2   3
ATOM      3  O   UNL A   1      34.114  30.998  27.211  1.00  0.00    -0.461 OA
BRANCH   3   4
ATOM      4  C   UNL A   1      32.802  31.320  27.059  1.00  0.00     0.326 C 
ATOM      5  O   UNL A   1      32.470  32.492  26.884  1.00  0.00    -0.250 OA
BRANCH   4   6
ATOM      6  C   UNL A   1      31.760  30.216  27.198  1.00  0.00     0.248 C 
BRANCH   6   7
ATOM      7  N   UNL A   1      31.606  29.389  26.039  1.00  0.00    -0.296 N 
ATOM      8  C   UNL A   1      32.006  28.067  26.033  1.00  0.00     0.260 C 
ATOM      9  C   UNL A   1      30.893  29.712  24.884  1.00  0.00     0.053 A 
ATOM     10  O   UNL A   1      32.530  27.483  26.964  1.00  0.00    -0.269 OA
ATOM     11  C   UNL A   1      31.637  27.534  24.671  1.00  0.00     0.071 C 
ATOM     12  C   UNL A   1      30.861  28.607  24.016  1.00  0.00     0.012 A 
ATOM     13  C   UNL A   1      30.198  30.886  24.638  1.00  0.00     0.027 A 
ATOM     14  C   UNL A   1      32.060  26.317  24.291  1.00  0.00     0.122 C 
ATOM     15  C   UNL A   1      30.058  28.662  22.891  1.00  0.00     0.011 A 
ATOM     16  C   UNL A   1      29.395  30.935  23.504  1.00  0.00     0.002 A 
ATOM     17  S   UNL A   1      32.818  25.169  25.343  1.00  0.00     0.007 SA
ATOM     18  C   UNL A   1      31.989  25.689  22.935  1.00  0.00     0.347 C 
ATOM     19  C   UNL A   1      29.322  29.831  22.642  1.00  0.00     0.001 A 
ATOM     20  C   UNL A   1      32.777  23.956  24.106  1.00  0.00     0.319 C 
ATOM     21  N   UNL A   1      32.388  24.364  22.948  1.00  0.00    -0.200 N 
ATOM     22  O   UNL A   1      31.678  26.289  21.923  1.00  0.00    -0.240 OA
ATOM     23  N   UNL A   1      33.187  22.697  24.436  1.00  0.00    -0.252 N 
ATOM     24  H   UNL A   1      32.374  23.789  22.148  1.00  0.00     0.316 HD
ATOM     25  C   UNL A   1      32.900  22.061  25.738  1.00  0.00     0.258 C 
ATOM     26  C   UNL A   1      33.976  21.886  23.501  1.00  0.00     0.258 C 
ATOM     27  C   UNL A   1      32.272  20.662  25.539  1.00  0.00     0.162 C 
ATOM     28  C   UNL A   1      33.376  20.481  23.330  1.00  0.00     0.162 C 
ATOM     29  N   UNL A   1      33.140  19.884  24.652  1.00  0.00    -0.361 N 
BRANCH  29  30
ATOM     30  C   UNL A   1      33.373  18.541  24.862  1.00  0.00     0.073 A 
ATOM     31  C   UNL A   1      32.299  17.717  25.231  1.00  0.00     0.029 A 
ATOM     32  C   UNL A   1      34.624  17.930  24.692  1.00  0.00     0.146 A 
ATOM     33  C   UNL A   1      32.464  16.343  25.417  1.00  0.00     0.002 A 
ATOM     34  C   UNL A   1      34.804  16.562  24.896  1.00  0.00     0.041 A 
ATOM     35  F   UNL A   1      35.693  18.665  24.345  1.00  0.00    -0.205 F 
ATOM     36  C   UNL A   1      33.720  15.765  25.256  1.00  0.00     0.003 A 
ENDBRANCH  29  30
ENDBRANCH   6   7
ENDBRANCH   4   6
ENDBRANCH   3   4
ENDBRANCH   2   3
ENDBRANCH   1   2
BRANCH   1  37
ATOM     37  O   UNL A   1      36.068  32.048  30.179  1.00  0.00    -0.458 OA
BRANCH  37  38
ATOM     38  C   UNL A   1      36.546  31.013  30.919  1.00  0.00     0.338 C 
ATOM     39  O   UNL A   1      35.941  30.412  31.789  1.00  0.00    -0.246 OA
BRANCH  38  40
ATOM     40  C   UNL A   1      37.848  30.564  30.352  1.00  0.00     0.060 A 
ATOM     41  C   UNL A   1      38.049  30.434  28.975  1.00  0.00     0.016 A 
ATOM     42  C   UNL A   1      38.872  30.190  31.237  1.00  0.00     0.016 A 
ATOM     43  C   UNL A   1      39.269  29.947  28.490  1.00  0.00     0.010 A 
ATOM     44  C   UNL A   1      40.094  29.704  30.748  1.00  0.00     0.010 A 
ATOM     45  C   UNL A   1      40.312  29.591  29.368  1.00  0.00    -0.014 A 
BRANCH  45  46
ATOM     46  C   UNL A   1      41.662  29.276  28.819  1.00  0.00     0.031 A 
ATOM     47  C   UNL A   1      42.788  30.272  28.799  1.00  0.00     0.074 A 
ATOM     48  C   UNL A   1      41.874  28.033  28.338  1.00  0.00     0.049 A 
ATOM     49  N   UNL A   1      44.044  30.078  28.478  1.00  0.00    -0.248 NA
ATOM     50  C   UNL A   1      42.476  31.657  29.181  1.00  0.00     0.031 C 
ATOM     51  C   UNL A   1      40.859  26.981  28.277  1.00  0.00     0.029 A 
ATOM     52  N   UNL A   1      43.005  27.434  27.836  1.00  0.00    -0.354 N 
ATOM     53  C   UNL A   1      44.679  31.304  28.632  1.00  0.00     0.074 A 
ATOM     54  C   UNL A   1      43.658  32.250  29.038  1.00  0.00     0.031 C 
ATOM     55  C   UNL A   1      41.424  25.853  27.822  1.00  0.00     0.029 A 
ATOM     56  C   UNL A   1      42.831  26.106  27.520  1.00  0.00     0.049 A 
ATOM     57  H   UNL A   1      43.859  27.909  27.716  1.00  0.00     0.167 HD
ATOM     58  C   UNL A   1      45.992  31.604  28.467  1.00  0.00     0.031 A 
ATOM     59  C   UNL A   1      43.698  25.181  27.057  1.00  0.00     0.031 A 
ATOM     60  C   UNL A   1      47.003  30.654  28.057  1.00  0.00     0.049 A 
ATOM     61  C   UNL A   1      45.142  25.548  26.857  1.00  0.00     0.074 A 
ATOM     62  C   UNL A   1      48.367  30.865  27.931  1.00  0.00     0.029 A 
ATOM     63  N   UNL A   1      46.776  29.334  27.700  1.00  0.00    -0.354 N 
ATOM     64  N   UNL A   1      45.741  26.689  27.103  1.00  0.00    -0.248 NA
ATOM     65  C   UNL A   1      46.034  24.501  26.338  1.00  0.00     0.031 C 
ATOM     66  C   UNL A   1      48.947  29.708  27.411  1.00  0.00     0.029 A 
ATOM     67  C   UNL A   1      47.967  28.736  27.313  1.00  0.00     0.049 A 
ATOM     68  H   UNL A   1      45.898  28.887  27.718  1.00  0.00     0.167 HD
ATOM     69  C   UNL A   1      47.085  26.483  26.805  1.00  0.00     0.074 A 
ATOM     70  C   UNL A   1      47.214  25.108  26.373  1.00  0.00     0.031 C 
ATOM     71  C   UNL A   1      48.113  27.364  26.887  1.00  0.00     0.031 A 
BRANCH  58  72
ATOM     72  C   UNL A   1      46.463  33.012  28.750  1.00  0.00    -0.014 A 
ATOM     73  C   UNL A   1      46.474  33.968  27.713  1.00  0.00     0.010 A 
ATOM     74  C   UNL A   1      47.080  33.332  29.972  1.00  0.00     0.010 A 
ATOM     75  C   UNL A   1      47.137  35.189  27.873  1.00  0.00     0.020 A 
ATOM     76  C   UNL A   1      47.717  34.567  30.149  1.00  0.00     0.020 A 
ATOM     77  C   UNL A   1      47.768  35.473  29.087  1.00  0.00     0.054 A 
BRANCH  77  78
ATOM     78  S   UNL A   1      48.685  37.031  29.251  1.00  0.00     0.124 S 
ATOM     79  O   UNL A   1      49.084  37.302  27.874  1.00  0.00    -0.237 OA
ATOM     80  O   UNL A   1      47.678  37.932  29.808  1.00  0.00    -0.237 OA
ATOM     81  O   UNL A   1      49.775  36.691  30.162  1.00  0.00    -0.744 OA
ENDBRANCH  77  78
ENDBRANCH  58  72
BRANCH  59  82
ATOM     82  C   UNL A   1      43.217  23.789  26.829  1.00  0.00    -0.014 A 
ATOM     83  C   UNL A   1      43.111  22.881  27.900  1.00  0.00     0.010 A 
ATOM     84  C   UNL A   1      42.941  23.338  25.526  1.00  0.00     0.010 A 
ATOM     85  C   UNL A   1      42.803  21.539  27.666  1.00  0.00     0.020 A 
ATOM     86  C   UNL A   1      42.593  22.004  25.292  1.00  0.00     0.020 A 
ATOM     87  C   UNL A   1      42.559  21.107  26.361  1.00  0.00     0.054 A 
BRANCH  87  88
ATOM     88  S   UNL A   1      42.225  19.347  26.078  1.00  0.00     0.124 S 
ATOM     89  O   UNL A   1      43.119  19.049  24.962  1.00  0.00    -0.237 OA
ATOM     90  O   UNL A   1      42.591  18.745  27.356  1.00  0.00    -0.237 OA
ATOM     91  O   UNL A   1      40.799  19.314  25.761  1.00  0.00    -0.744 OA
ENDBRANCH  87  88
ENDBRANCH  59  82
BRANCH  71  92
ATOM     92  C   UNL A   1      49.504  26.892  26.526  1.00  0.00    -0.014 A 
ATOM     93  C   UNL A   1      49.983  27.076  25.213  1.00  0.00     0.010 A 
ATOM     94  C   UNL A   1      50.285  26.154  27.432  1.00  0.00     0.010 A 
ATOM     95  C   UNL A   1      51.187  26.496  24.802  1.00  0.00     0.020 A 
ATOM     96  C   UNL A   1      51.510  25.604  27.036  1.00  0.00     0.020 A 
ATOM     97  C   UNL A   1      51.939  25.755  25.715  1.00  0.00     0.054 A 
BRANCH  97  98
ATOM     98  S   UNL A   1      53.477  24.975  25.150  1.00  0.00     0.124 S 
ATOM     99  O   UNL A   1      53.591  25.473  23.781  1.00  0.00    -0.237 OA
ATOM    100  O   UNL A   1      54.464  25.493  26.093  1.00  0.00    -0.237 OA
ATOM    101  O   UNL A   1      53.202  23.544  25.270  1.00  0.00    -0.744 OA
ENDBRANCH  97  98
ENDBRANCH  71  92
ENDBRANCH  45  46
ENDBRANCH  38  40
ENDBRANCH  37  38
ENDBRANCH   1  37
TORSDOF 16
ENDMDL
MODEL 2
REMARK VINA RESULT:     -12.2      6.007     12.233
REMARK SMILES O=C(CN1C(=O)/C(=C2\SC(N3CCN(c4ccccc4F)CC3)=[NH+]C2=O)c2ccccc21)OCCOC(=O)c1ccc(-c2c3nc(c(-c4ccc(S(=O)(=O)[O-])cc4)c4ccc([nH]4)c(-c4ccc(S(=O)(=O)[O-])cc4)c4nc(c(-c5ccc(S(=O)(=O)[O-])cc5)c5ccc2[nH]5)C=C4)C=C3)cc1
REMARK SMILES IDX 35 1 34 2 33 3 2 4 1 5 3 6 4 7 5 8 32 9 6 10 7 11 27 12
REMARK SMILES IDX 31 13 8 14 28 15 30 16 9 17 25 18 29 19 10 20 24 21 26 22
REMARK SMILES IDX 11 23 12 25 23 26 13 27 22 28 14 29 15 30 16 31 20 32 17 33
REMARK SMILES IDX 19 34 21 35 18 36 36 37 37 38 38 39 39 40 40 41 98 42 41 43
REMARK SMILES IDX 97 44 42 45 43 46 44 47 91 48 45 49 96 50 90 51 92 52 46 53
REMARK SMILES IDX 95 54 89 55 88 56 47 58 77 59 58 60 76 61 59 62 62 63 75 64
REMARK SMILES IDX 93 65 60 66 61 67 74 69 94 70 63 71 48 72 49 73 57 74 50 75
REMARK SMILES IDX 56 76 51 77 52 78 53 79 54 80 55 81 78 82 79 83 87 84 80 85
REMARK SMILES IDX 86 86 81 87 82 88 83 89 84 90 85 91 64 92 65 93 73 94 66 95
REMARK SMILES IDX 72 96 67 97 68 98 69 99 70 100 71 101
REMARK H PARENT 24 24 92 57 62 68
REMARK Flexibility Score: inf
ROOT
ATOM      1  C   UNL A   1      41.259  23.197  26.151  1.00  0.00     0.275 C 
ENDROOT
BRANCH   1   2
ATOM      2  C   UNL A   1      40.431  22.141  26.894  1.00  0.00     0.274 C 
BRANCH   2   3
ATOM      3  O   UNL A   1      39.457  21.480  26.063  1.00  0.00    -0.461 OA
BRANCH   3   4
ATOM      4  C   UNL A   1      38.253  22.029  25.757  1.00  0.00     0.326 C 
ATOM      5  O   UNL A   1      37.753  22.874  26.500  1.00  0.00    -0.250 OA
BRANCH   4   6
ATOM      6  C   UNL A   1      37.506  21.512  24.533  1.00  0.00     0.248 C 
BRANCH   6   7
ATOM      7  N   UNL A   1      36.079  21.575  24.631  1.00  0.00    -0.296 N 
ATOM      8  C   UNL A   1      35.393  22.762  24.467  1.00  0.00     0.260 C 
ATOM      9  C   UNL A   1      35.208  20.487  24.701  1.00  0.00     0.053 A 
ATOM     10  O   UNL A   1      35.900  23.847  24.250  1.00  0.00    -0.269 OA
ATOM     11  C   UNL A   1      33.932  22.410  24.593  1.00  0.00     0.071 C 
ATOM     12  C   UNL A   1      33.877  20.936  24.662  1.00  0.00     0.012 A 
ATOM     13  C   UNL A   1      35.554  19.144  24.687  1.00  0.00     0.027 A 
ATOM     14  C   UNL A   1      33.011  23.387  24.658  1.00  0.00     0.122 C 
ATOM     15  C   UNL A   1      32.860  20.006  24.546  1.00  0.00     0.011 A 
ATOM     16  C   UNL A   1      34.526  18.215  24.574  1.00  0.00     0.002 A 
ATOM     17  S   UNL A   1      33.336  25.062  24.365  1.00  0.00     0.007 SA
ATOM     18  C   UNL A   1      31.556  23.273  24.987  1.00  0.00     0.347 C 
ATOM     19  C   UNL A   1      33.192  18.643  24.498  1.00  0.00     0.001 A 
ATOM     20  C   UNL A   1      31.646  25.440  24.446  1.00  0.00     0.319 C 
ATOM     21  N   UNL A   1      30.882  24.469  24.812  1.00  0.00    -0.200 N 
ATOM     22  O   UNL A   1      31.033  22.263  25.420  1.00  0.00    -0.240 OA
ATOM     23  N   UNL A   1      31.266  26.719  24.161  1.00  0.00    -0.252 N 
ATOM     24  H   UNL A   1      29.912  24.568  24.953  1.00  0.00     0.316 HD
ATOM     25  C   UNL A   1      31.886  27.536  23.099  1.00  0.00     0.258 C 
ATOM     26  C   UNL A   1      30.204  27.384  24.925  1.00  0.00     0.258 C 
ATOM     27  C   UNL A   1      30.808  28.131  22.162  1.00  0.00     0.162 C 
ATOM     28  C   UNL A   1      29.150  28.010  23.997  1.00  0.00     0.162 C 
ATOM     29  N   UNL A   1      29.819  28.835  22.981  1.00  0.00    -0.361 N 
BRANCH  29  30
ATOM     30  C   UNL A   1      29.261  30.029  22.576  1.00  0.00     0.073 A 
ATOM     31  C   UNL A   1      28.635  30.093  21.322  1.00  0.00     0.029 A 
ATOM     32  C   UNL A   1      29.247  31.191  23.362  1.00  0.00     0.146 A 
ATOM     33  C   UNL A   1      28.015  31.262  20.874  1.00  0.00     0.002 A 
ATOM     34  C   UNL A   1      28.650  32.369  22.915  1.00  0.00     0.041 A 
ATOM     35  F   UNL A   1      29.835  31.196  24.569  1.00  0.00    -0.205 F 
ATOM     36  C   UNL A   1      28.029  32.404  21.669  1.00  0.00     0.003 A 
ENDBRANCH  29  30
ENDBRANCH   6   7
ENDBRANCH   4   6
ENDBRANCH   3   4
ENDBRANCH   2   3
ENDBRANCH   1   2
BRANCH   1  37
ATOM     37  O   UNL A   1      40.680  24.514  26.215  1.00  0.00    -0.458 OA
BRANCH  37  38
ATOM     38  C   UNL A   1      41.550  25.558  26.168  1.00  0.00     0.338 C 
ATOM     39  O   UNL A   1      42.189  25.917  25.194  1.00  0.00    -0.246 OA
BRANCH  38  40
ATOM     40  C   UNL A   1      41.437  26.348  27.425  1.00  0.00     0.060 A 
ATOM     41  C   UNL A   1      42.236  27.470  27.666  1.00  0.00     0.016 A 
ATOM     42  C   UNL A   1      40.556  25.901  28.422  1.00  0.00     0.016 A 
ATOM     43  C   UNL A   1      42.140  28.145  28.889  1.00  0.00     0.010 A 
ATOM     44  C   UNL A   1      40.461  26.581  29.646  1.00  0.00     0.010 A 
ATOM     45  C   UNL A   1      41.242  27.720  29.888  1.00  0.00    -0.014 A 
BRANCH  45  46
ATOM     46  C   UNL A   1      41.015  28.575  31.088  1.00  0.00     0.031 A 
ATOM     47  C   UNL A   1      41.871  28.492  32.321  1.00  0.00     0.074 A 
ATOM     48  C   UNL A   1      40.004  29.468  31.047  1.00  0.00     0.049 A 
ATOM     49  N   UNL A   1      41.863  29.275  33.374  1.00  0.00    -0.248 NA
ATOM     50  C   UNL A   1      42.856  27.404  32.394  1.00  0.00     0.031 C 
ATOM     51  C   UNL A   1      39.084  29.631  29.920  1.00  0.00     0.029 A 
ATOM     52  N   UNL A   1      39.595  30.419  31.950  1.00  0.00    -0.354 N 
ATOM     53  C   UNL A   1      42.846  28.789  34.227  1.00  0.00     0.074 A 
ATOM     54  C   UNL A   1      43.405  27.615  33.586  1.00  0.00     0.031 C 
ATOM     55  C   UNL A   1      38.258  30.655  30.174  1.00  0.00     0.029 A 
ATOM     56  C   UNL A   1      38.557  31.200  31.496  1.00  0.00     0.049 A 
ATOM     57  H   UNL A   1      40.005  30.531  32.839  1.00  0.00     0.167 HD
ATOM     58  C   UNL A   1      43.252  29.288  35.421  1.00  0.00     0.031 A 
ATOM     59  C   UNL A   1      37.921  32.250  32.059  1.00  0.00     0.031 A 
ATOM     60  C   UNL A   1      42.685  30.457  36.056  1.00  0.00     0.049 A 
ATOM     61  C   UNL A   1      38.374  32.765  33.397  1.00  0.00     0.074 A 
ATOM     62  C   UNL A   1      43.085  31.064  37.235  1.00  0.00     0.029 A 
ATOM     63  N   UNL A   1      41.604  31.188  35.585  1.00  0.00    -0.354 N 
ATOM     64  N   UNL A   1      39.371  32.350  34.141  1.00  0.00    -0.248 NA
ATOM     65  C   UNL A   1      37.634  33.902  33.962  1.00  0.00     0.031 C 
ATOM     66  C   UNL A   1      42.195  32.099  37.525  1.00  0.00     0.029 A 
ATOM     67  C   UNL A   1      41.301  32.211  36.474  1.00  0.00     0.049 A 
ATOM     68  H   UNL A   1      41.123  31.009  34.745  1.00  0.00     0.167 HD
ATOM     69  C   UNL A   1      39.400  33.200  35.244  1.00  0.00     0.074 A 
ATOM     70  C   UNL A   1      38.331  34.158  35.063  1.00  0.00     0.031 C 
ATOM     71  C   UNL A   1      40.243  33.179  36.305  1.00  0.00     0.031 A 
BRANCH  58  72
ATOM     72  C   UNL A   1      44.392  28.611  36.149  1.00  0.00    -0.014 A 
ATOM     73  C   UNL A   1      44.117  27.603  37.096  1.00  0.00     0.010 A 
ATOM     74  C   UNL A   1      45.704  29.106  36.049  1.00  0.00     0.010 A 
ATOM     75  C   UNL A   1      45.115  27.145  37.963  1.00  0.00     0.020 A 
ATOM     76  C   UNL A   1      46.714  28.627  36.892  1.00  0.00     0.020 A 
ATOM     77  C   UNL A   1      46.405  27.672  37.863  1.00  0.00     0.054 A 
BRANCH  77  78
ATOM     78  S   UNL A   1      47.667  27.118  39.044  1.00  0.00     0.124 S 
ATOM     79  O   UNL A   1      47.022  25.972  39.674  1.00  0.00    -0.237 OA
ATOM     80  O   UNL A   1      48.799  26.809  38.173  1.00  0.00    -0.237 OA
ATOM     81  O   UNL A   1      47.859  28.281  39.909  1.00  0.00    -0.744 OA
ENDBRANCH  77  78
ENDBRANCH  58  72
BRANCH  59  82
ATOM     82  C   UNL A   1      36.831  32.927  31.300  1.00  0.00    -0.014 A 
ATOM     83  C   UNL A   1      35.483  32.592  31.528  1.00  0.00     0.010 A 
ATOM     84  C   UNL A   1      37.140  33.850  30.286  1.00  0.00     0.010 A 
ATOM     85  C   UNL A   1      34.474  33.116  30.717  1.00  0.00     0.020 A 
ATOM     86  C   UNL A   1      36.128  34.408  29.497  1.00  0.00     0.020 A 
ATOM     87  C   UNL A   1      34.805  34.010  29.698  1.00  0.00     0.054 A 
BRANCH  87  88
ATOM     88  S   UNL A   1      33.484  34.625  28.619  1.00  0.00     0.124 S 
ATOM     89  O   UNL A   1      32.446  34.975  29.586  1.00  0.00    -0.237 OA
ATOM     90  O   UNL A   1      34.123  35.751  27.945  1.00  0.00    -0.237 OA
ATOM     91  O   UNL A   1      33.179  33.480  27.763  1.00  0.00    -0.744 OA
ENDBRANCH  87  88
ENDBRANCH  59  82
BRANCH  71  92
ATOM     92  C   UNL A   1      40.087  34.233  37.377  1.00  0.00    -0.014 A 
ATOM     93  C   UNL A   1      40.600  35.528  37.161  1.00  0.00     0.010 A 
ATOM     94  C   UNL A   1      39.557  33.920  38.642  1.00  0.00     0.010 A 
ATOM     95  C   UNL A   1      40.628  36.469  38.195  1.00  0.00     0.020 A 
ATOM     96  C   UNL A   1      39.548  34.871  39.668  1.00  0.00     0.020 A 
ATOM     97  C   UNL A   1      40.111  36.130  39.446  1.00  0.00     0.054 A 
BRANCH  97  98
ATOM     98  S   UNL A   1      40.197  37.351  40.786  1.00  0.00     0.124 S 
ATOM     99  O   UNL A   1      38.894  38.004  40.693  1.00  0.00    -0.237 OA
ATOM    100  O   UNL A   1      40.401  36.517  41.967  1.00  0.00    -0.237 OA
ATOM    101  O   UNL A   1      41.339  38.187  40.418  1.00  0.00    -0.744 OA
ENDBRANCH  97  98
ENDBRANCH  71  92
ENDBRANCH  45  46
ENDBRANCH  38  40
ENDBRANCH  37  38
ENDBRANCH   1  37
TORSDOF 16
ENDMDL
MODEL 3
REMARK VINA RESULT:     -12.0      6.327     12.910
REMARK SMILES O=C(CN1C(=O)/C(=C2\SC(N3CCN(c4ccccc4F)CC3)=[NH+]C2=O)c2ccccc21)OCCOC(=O)c1ccc(-c2c3nc(c(-c4ccc(S(=O)(=O)[O-])cc4)c4ccc([nH]4)c(-c4ccc(S(=O)(=O)[O-])cc4)c4nc(c(-c5ccc(S(=O)(=O)[O-])cc5)c5ccc2[nH]5)C=C4)C=C3)cc1
REMARK SMILES IDX 35 1 34 2 33 3 2 4 1 5 3 6 4 7 5 8 32 9 6 10 7 11 27 12
REMARK SMILES IDX 31 13 8 14 28 15 30 16 9 17 25 18 29 19 10 20 24 21 26 22
REMARK SMILES IDX 11 23 12 25 23 26 13 27 22 28 14 29 15 30 16 31 20 32 17 33
REMARK SMILES IDX 19 34 21 35 18 36 36 37 37 38 38 39 39 40 40 41 98 42 41 43
REMARK SMILES IDX 97 44 42 45 43 46 44 47 91 48 45 49 96 50 90 51 92 52 46 53
REMARK SMILES IDX 95 54 89 55 88 56 47 58 77 59 58 60 76 61 59 62 62 63 75 64
REMARK SMILES IDX 93 65 60 66 61 67 74 69 94 70 63 71 48 72 49 73 57 74 50 75
REMARK SMILES IDX 56 76 51 77 52 78 53 79 54 80 55 81 78 82 79 83 87 84 80 85
REMARK SMILES IDX 86 86 81 87 82 88 83 89 84 90 85 91 64 92 65 93 73 94 66 95
REMARK SMILES IDX 72 96 67 97 68 98 69 99 70 100 71 101
REMARK H PARENT 24 24 92 57 62 68
REMARK Flexibility Score: inf
ROOT
ATOM      1  C   UNL A   1      33.991  33.227  28.126  1.00  0.00     0.275 C 
ENDROOT
BRANCH   1   2
ATOM      2  C   UNL A   1      34.694  34.402  28.818  1.00  0.00     0.274 C 
BRANCH   2   3
ATOM      3  O   UNL A   1      34.028  34.850  30.015  1.00  0.00    -0.461 OA
BRANCH   3   4
ATOM      4  C   UNL A   1      34.557  34.693  31.257  1.00  0.00     0.326 C 
ATOM      5  O   UNL A   1      34.312  35.514  32.140  1.00  0.00    -0.250 OA
BRANCH   4   6
ATOM      6  C   UNL A   1      35.518  33.536  31.498  1.00  0.00     0.248 C 
BRANCH   6   7
ATOM      7  N   UNL A   1      36.592  33.827  32.400  1.00  0.00    -0.296 N 
ATOM      8  C   UNL A   1      36.495  33.563  33.752  1.00  0.00     0.260 C 
ATOM      9  C   UNL A   1      37.886  34.209  32.045  1.00  0.00     0.053 A 
ATOM     10  O   UNL A   1      35.523  33.091  34.312  1.00  0.00    -0.269 OA
ATOM     11  C   UNL A   1      37.826  33.958  34.342  1.00  0.00     0.071 C 
ATOM     12  C   UNL A   1      38.694  34.287  33.193  1.00  0.00     0.012 A 
ATOM     13  C   UNL A   1      38.381  34.377  30.761  1.00  0.00     0.027 A 
ATOM     14  C   UNL A   1      37.985  33.986  35.676  1.00  0.00     0.122 C 
ATOM     15  C   UNL A   1      40.055  34.482  33.042  1.00  0.00     0.011 A 
ATOM     16  C   UNL A   1      39.749  34.575  30.617  1.00  0.00     0.002 A 
ATOM     17  S   UNL A   1      36.837  33.366  36.814  1.00  0.00     0.007 SA
ATOM     18  C   UNL A   1      39.130  34.537  36.465  1.00  0.00     0.347 C 
ATOM     19  C   UNL A   1      40.579  34.621  31.748  1.00  0.00     0.001 A 
ATOM     20  C   UNL A   1      37.943  33.625  38.124  1.00  0.00     0.319 C 
ATOM     21  N   UNL A   1      39.021  34.259  37.816  1.00  0.00    -0.200 N 
ATOM     22  O   UNL A   1      40.026  35.209  35.986  1.00  0.00    -0.240 OA
ATOM     23  N   UNL A   1      37.577  33.182  39.361  1.00  0.00    -0.252 N 
ATOM     24  H   UNL A   1      39.702  34.520  38.477  1.00  0.00     0.316 HD
ATOM     25  C   UNL A   1      36.853  31.916  39.594  1.00  0.00     0.258 C 
ATOM     26  C   UNL A   1      37.873  33.966  40.566  1.00  0.00     0.258 C 
ATOM     27  C   UNL A   1      37.573  31.058  40.660  1.00  0.00     0.162 C 
ATOM     28  C   UNL A   1      38.554  33.107  41.644  1.00  0.00     0.162 C 
ATOM     29  N   UNL A   1      37.776  31.878  41.856  1.00  0.00    -0.361 N 
BRANCH  29  30
ATOM     30  C   UNL A   1      37.626  31.359  43.124  1.00  0.00     0.073 A 
ATOM     31  C   UNL A   1      37.188  32.204  44.155  1.00  0.00     0.029 A 
ATOM     32  C   UNL A   1      37.850  30.012  43.448  1.00  0.00     0.146 A 
ATOM     33  C   UNL A   1      36.977  31.726  45.451  1.00  0.00     0.002 A 
ATOM     34  C   UNL A   1      37.663  29.530  44.743  1.00  0.00     0.041 A 
ATOM     35  F   UNL A   1      38.276  29.154  42.508  1.00  0.00    -0.205 F 
ATOM     36  C   UNL A   1      37.221  30.389  45.747  1.00  0.00     0.003 A 
ENDBRANCH  29  30
ENDBRANCH   6   7
ENDBRANCH   4   6
ENDBRANCH   3   4
ENDBRANCH   2   3
ENDBRANCH   1   2
BRANCH   1  37
ATOM     37  O   UNL A   1      34.208  31.969  28.794  1.00  0.00    -0.458 OA
BRANCH  37  38
ATOM     38  C   UNL A   1      34.447  30.896  27.995  1.00  0.00     0.338 C 
ATOM     39  O   UNL A   1      33.780  30.552  27.035  1.00  0.00    -0.246 OA
BRANCH  38  40
ATOM     40  C   UNL A   1      35.783  30.328  28.324  1.00  0.00     0.060 A 
ATOM     41  C   UNL A   1      36.845  30.362  27.415  1.00  0.00     0.016 A 
ATOM     42  C   UNL A   1      35.949  29.674  29.555  1.00  0.00     0.016 A 
ATOM     43  C   UNL A   1      38.065  29.758  27.744  1.00  0.00     0.010 A 
ATOM     44  C   UNL A   1      37.174  29.071  29.882  1.00  0.00     0.010 A 
ATOM     45  C   UNL A   1      38.251  29.120  28.986  1.00  0.00    -0.014 A 
BRANCH  45  46
ATOM     46  C   UNL A   1      39.615  28.671  29.388  1.00  0.00     0.031 A 
ATOM     47  C   UNL A   1      40.196  27.350  28.966  1.00  0.00     0.074 A 
ATOM     48  C   UNL A   1      40.356  29.503  30.149  1.00  0.00     0.049 A 
ATOM     49  N   UNL A   1      41.418  26.905  29.134  1.00  0.00    -0.248 NA
ATOM     50  C   UNL A   1      39.307  26.405  28.276  1.00  0.00     0.031 C 
ATOM     51  C   UNL A   1      39.900  30.802  30.646  1.00  0.00     0.029 A 
ATOM     52  N   UNL A   1      41.644  29.402  30.616  1.00  0.00    -0.354 N 
ATOM     53  C   UNL A   1      41.455  25.640  28.559  1.00  0.00     0.074 A 
ATOM     54  C   UNL A   1      40.116  25.370  28.073  1.00  0.00     0.031 C 
ATOM     55  C   UNL A   1      40.908  31.400  31.297  1.00  0.00     0.029 A 
ATOM     56  C   UNL A   1      42.071  30.516  31.302  1.00  0.00     0.049 A 
ATOM     57  H   UNL A   1      42.209  28.608  30.473  1.00  0.00     0.167 HD
ATOM     58  C   UNL A   1      42.510  24.798  28.435  1.00  0.00     0.031 A 
ATOM     59  C   UNL A   1      43.263  30.814  31.861  1.00  0.00     0.031 A 
ATOM     60  C   UNL A   1      43.841  25.074  28.928  1.00  0.00     0.049 A 
ATOM     61  C   UNL A   1      44.408  29.848  31.733  1.00  0.00     0.074 A 
ATOM     62  C   UNL A   1      44.980  24.298  28.785  1.00  0.00     0.029 A 
ATOM     63  N   UNL A   1      44.217  26.191  29.660  1.00  0.00    -0.354 N 
ATOM     64  N   UNL A   1      44.447  28.700  31.099  1.00  0.00    -0.248 NA
ATOM     65  C   UNL A   1      45.676  30.224  32.374  1.00  0.00     0.031 C 
ATOM     66  C   UNL A   1      46.016  24.895  29.504  1.00  0.00     0.029 A 
ATOM     67  C   UNL A   1      45.558  26.100  30.009  1.00  0.00     0.049 A 
ATOM     68  H   UNL A   1      43.621  26.938  29.897  1.00  0.00     0.167 HD
ATOM     69  C   UNL A   1      45.753  28.237  31.235  1.00  0.00     0.074 A 
ATOM     70  C   UNL A   1      46.474  29.233  31.997  1.00  0.00     0.031 C 
ATOM     71  C   UNL A   1      46.294  27.087  30.763  1.00  0.00     0.031 A 
BRANCH  58  72
ATOM     72  C   UNL A   1      42.317  23.482  27.715  1.00  0.00    -0.014 A 
ATOM     73  C   UNL A   1      41.865  22.353  28.427  1.00  0.00     0.010 A 
ATOM     74  C   UNL A   1      42.771  23.313  26.394  1.00  0.00     0.010 A 
ATOM     75  C   UNL A   1      41.923  21.077  27.857  1.00  0.00     0.020 A 
ATOM     76  C   UNL A   1      42.799  22.043  25.807  1.00  0.00     0.020 A 
ATOM     77  C   UNL A   1      42.404  20.930  26.553  1.00  0.00     0.054 A 
BRANCH  77  78
ATOM     78  S   UNL A   1      42.540  19.259  25.857  1.00  0.00     0.124 S 
ATOM     79  O   UNL A   1      43.135  18.511  26.959  1.00  0.00    -0.237 OA
ATOM     80  O   UNL A   1      41.149  18.933  25.547  1.00  0.00    -0.237 OA
ATOM     81  O   UNL A   1      43.401  19.445  24.691  1.00  0.00    -0.744 OA
ENDBRANCH  77  78
ENDBRANCH  58  72
BRANCH  59  82
ATOM     82  C   UNL A   1      43.439  32.136  32.527  1.00  0.00    -0.014 A 
ATOM     83  C   UNL A   1      43.991  33.226  31.827  1.00  0.00     0.010 A 
ATOM     84  C   UNL A   1      43.133  32.289  33.891  1.00  0.00     0.010 A 
ATOM     85  C   UNL A   1      44.292  34.417  32.490  1.00  0.00     0.020 A 
ATOM     86  C   UNL A   1      43.396  33.495  34.550  1.00  0.00     0.020 A 
ATOM     87  C   UNL A   1      44.004  34.539  33.851  1.00  0.00     0.054 A 
BRANCH  87  88
ATOM     88  S   UNL A   1      44.465  36.073  34.701  1.00  0.00     0.124 S 
ATOM     89  O   UNL A   1      43.256  36.877  34.542  1.00  0.00    -0.237 OA
ATOM     90  O   UNL A   1      44.741  35.612  36.059  1.00  0.00    -0.237 OA
ATOM     91  O   UNL A   1      45.630  36.542  33.955  1.00  0.00    -0.744 OA
ENDBRANCH  87  88
ENDBRANCH  59  82
BRANCH  71  92
ATOM     92  C   UNL A   1      47.758  26.814  31.023  1.00  0.00    -0.014 A 
ATOM     93  C   UNL A   1      48.144  26.144  32.201  1.00  0.00     0.010 A 
ATOM     94  C   UNL A   1      48.760  27.328  30.180  1.00  0.00     0.010 A 
ATOM     95  C   UNL A   1      49.492  26.034  32.554  1.00  0.00     0.020 A 
ATOM     96  C   UNL A   1      50.113  27.187  30.510  1.00  0.00     0.020 A 
ATOM     97  C   UNL A   1      50.469  26.566  31.710  1.00  0.00     0.054 A 
BRANCH  97  98
ATOM     98  S   UNL A   1      52.210  26.450  32.209  1.00  0.00     0.124 S 
ATOM     99  O   UNL A   1      52.702  27.795  31.923  1.00  0.00    -0.237 OA
ATOM    100  O   UNL A   1      52.116  26.101  33.623  1.00  0.00    -0.237 OA
ATOM    101  O   UNL A   1      52.745  25.397  31.348  1.00  0.00    -0.744 OA
ENDBRANCH  97  98
ENDBRANCH  71  92
ENDBRANCH  45  46
ENDBRANCH  38  40
ENDBRANCH  37  38
ENDBRANCH   1  37
TORSDOF 16
ENDMDL
