MODEL 1
REMARK VINA RESULT:      -9.5      0.000      0.000
REMARK SMILES O=C(N[C@@H](Cc1ccccc1)C(=O)N[C@@H](CS)C(=O)N[C@@H](CO)C(=O)OCCOC(=O)c1ccc(-c2c3nc(c(-c4ccc(S(=O)(=O)[O-])cc4)c4ccc([nH]4)c(-c4ccc(S(=O)(=O)[O-])cc4)c4nc(c(-c5ccc(S(=O)(=O)[O-])cc5)c5ccc2[nH]5)C=C4)C=C3)cc1)c1ccc(F)cc1
REMARK SMILES IDX 26 1 24 2 25 3 21 4 20 5 18 6 19 7 15 9 14 10 12 11 13 12
REMARK SMILES IDX 4 14 3 15 1 16 2 17 92 19 93 20 98 21 94 22 97 23 95 24
REMARK SMILES IDX 96 25 5 26 6 27 7 28 11 29 8 30 10 31 9 32 16 33 17 34 22 36
REMARK SMILES IDX 23 37 27 39 28 40 29 41 30 42 31 43 32 44 33 45 91 46 34 47
REMARK SMILES IDX 90 48 35 49 36 50 37 51 84 52 38 53 89 54 83 55 85 56 39 57
REMARK SMILES IDX 88 58 82 59 81 60 40 62 70 63 51 64 69 65 52 66 55 67 68 68
REMARK SMILES IDX 86 69 53 70 54 71 67 73 87 74 56 75 41 76 42 77 50 78 43 79
REMARK SMILES IDX 49 80 44 81 45 82 46 83 47 84 48 85 71 86 72 87 80 88 73 89
REMARK SMILES IDX 79 90 74 91 75 92 76 93 77 94 78 95 57 96 58 97 66 98 59 99
REMARK SMILES IDX 65 100 60 101 61 102 62 103 63 104 64 105
REMARK H PARENT 20 8 14 13 3 18 17 35 23 38 85 61 55 72
REMARK Flexibility Score: inf
ROOT
ATOM      1  O   UNL A   1      34.233  28.379  25.971  1.00  0.00    -0.460 OA
ENDROOT
BRANCH   1   2
ATOM      2  C   UNL A   1      33.291  28.833  25.094  1.00  0.00     0.331 C 
ATOM      3  O   UNL A   1      32.960  30.004  24.961  1.00  0.00    -0.250 OA
BRANCH   2   4
ATOM      4  C   UNL A   1      32.597  27.666  24.362  1.00  0.00     0.218 C 
BRANCH   4   5
ATOM      5  N   UNL A   1      31.455  27.150  25.137  1.00  0.00    -0.339 N 
ATOM      6  C   UNL A   1      31.516  26.069  25.974  1.00  0.00     0.244 C 
ATOM      7  O   UNL A   1      31.312  26.292  27.170  1.00  0.00    -0.273 OA
ATOM      8  H   UNL A   1      30.591  27.612  25.046  1.00  0.00     0.164 HD
BRANCH   6   9
ATOM      9  C   UNL A   1      31.932  24.656  25.488  1.00  0.00     0.181 C 
BRANCH   9  10
ATOM     10  N   UNL A   1      32.135  23.669  26.546  1.00  0.00    -0.342 N 
ATOM     11  C   UNL A   1      32.715  22.440  26.527  1.00  0.00     0.243 C 
ATOM     12  O   UNL A   1      32.718  21.831  27.604  1.00  0.00    -0.273 OA
ATOM     13  H   UNL A   1      31.790  23.943  27.427  1.00  0.00     0.164 HD
BRANCH  11  14
ATOM     14  C   UNL A   1      33.495  21.858  25.320  1.00  0.00     0.176 C 
BRANCH  14  15
ATOM     15  N   UNL A   1      32.730  21.654  24.088  1.00  0.00    -0.340 N 
ATOM     16  O   UNL A   1      31.903  20.566  22.316  1.00  0.00    -0.269 OA
ATOM     17  C   UNL A   1      32.411  20.492  23.430  1.00  0.00     0.251 C 
ATOM     18  H   UNL A   1      32.393  22.477  23.666  1.00  0.00     0.164 HD
BRANCH  17  19
ATOM     19  C   UNL A   1      32.749  19.171  24.005  1.00  0.00     0.040 A 
ATOM     20  C   UNL A   1      32.341  18.803  25.294  1.00  0.00     0.017 A 
ATOM     21  C   UNL A   1      33.489  18.278  23.220  1.00  0.00     0.017 A 
ATOM     22  C   UNL A   1      32.748  17.576  25.824  1.00  0.00     0.040 A 
ATOM     23  C   UNL A   1      33.886  17.048  23.750  1.00  0.00     0.040 A 
ATOM     24  C   UNL A   1      33.526  16.717  25.053  1.00  0.00     0.123 A 
ATOM     25  F   UNL A   1      33.937  15.553  25.575  1.00  0.00    -0.207 F 
ENDBRANCH  17  19
ENDBRANCH  14  15
BRANCH  14  26
ATOM     26  C   UNL A   1      34.836  22.582  25.084  1.00  0.00     0.070 C 
BRANCH  26  27
ATOM     27  C   UNL A   1      36.076  21.723  25.093  1.00  0.00    -0.045 A 
ATOM     28  C   UNL A   1      37.342  22.293  25.286  1.00  0.00     0.004 A 
ATOM     29  C   UNL A   1      35.973  20.334  24.926  1.00  0.00     0.004 A 
ATOM     30  C   UNL A   1      38.479  21.486  25.342  1.00  0.00     0.000 A 
ATOM     31  C   UNL A   1      37.112  19.530  24.969  1.00  0.00     0.000 A 
ATOM     32  C   UNL A   1      38.363  20.106  25.183  1.00  0.00     0.000 A 
ENDBRANCH  26  27
ENDBRANCH  14  26
ENDBRANCH  11  14
ENDBRANCH   9  10
BRANCH   9  33
ATOM     33  C   UNL A   1      31.030  24.166  24.350  1.00  0.00     0.101 C 
BRANCH  33  34
ATOM     34  S   UNL A   1      31.681  24.446  22.665  1.00  0.00    -0.177 SA
ATOM     35  H   UNL A   1      31.855  23.250  22.042  1.00  0.00     0.102 HD
ENDBRANCH  33  34
ENDBRANCH   9  33
ENDBRANCH   6   9
ENDBRANCH   4   5
BRANCH   4  36
ATOM     36  C   UNL A   1      32.155  28.177  22.989  1.00  0.00     0.193 C 
BRANCH  36  37
ATOM     37  O   UNL A   1      33.233  28.809  22.294  1.00  0.00    -0.394 OA
ATOM     38  H   UNL A   1      34.026  28.803  22.853  1.00  0.00     0.210 HD
ENDBRANCH  36  37
ENDBRANCH   4  36
ENDBRANCH   2   4
ENDBRANCH   1   2
BRANCH   1  39
ATOM     39  C   UNL A   1      34.091  28.773  27.353  1.00  0.00     0.274 C 
BRANCH  39  40
ATOM     40  C   UNL A   1      35.444  29.250  27.879  1.00  0.00     0.275 C 
BRANCH  40  41
ATOM     41  O   UNL A   1      35.776  30.463  27.186  1.00  0.00    -0.458 OA
BRANCH  41  42
ATOM     42  C   UNL A   1      35.400  31.617  27.784  1.00  0.00     0.338 C 
ATOM     43  O   UNL A   1      34.281  32.111  27.757  1.00  0.00    -0.246 OA
BRANCH  42  44
ATOM     44  C   UNL A   1      36.559  32.191  28.519  1.00  0.00     0.060 A 
ATOM     45  C   UNL A   1      37.637  31.393  28.897  1.00  0.00     0.016 A 
ATOM     46  C   UNL A   1      36.550  33.535  28.907  1.00  0.00     0.016 A 
ATOM     47  C   UNL A   1      38.633  31.910  29.731  1.00  0.00     0.010 A 
ATOM     48  C   UNL A   1      37.606  34.064  29.673  1.00  0.00     0.010 A 
ATOM     49  C   UNL A   1      38.652  33.251  30.142  1.00  0.00    -0.014 A 
BRANCH  49  50
ATOM     50  C   UNL A   1      39.708  33.765  31.087  1.00  0.00     0.031 A 
ATOM     51  C   UNL A   1      39.572  33.577  32.587  1.00  0.00     0.074 A 
ATOM     52  C   UNL A   1      40.837  34.368  30.649  1.00  0.00     0.049 A 
ATOM     53  N   UNL A   1      40.194  34.200  33.560  1.00  0.00    -0.248 NA
ATOM     54  C   UNL A   1      38.598  32.576  33.052  1.00  0.00     0.031 C 
ATOM     55  C   UNL A   1      41.209  34.586  29.250  1.00  0.00     0.029 A 
ATOM     56  N   UNL A   1      41.906  34.889  31.347  1.00  0.00    -0.354 N 
ATOM     57  C   UNL A   1      39.615  33.743  34.741  1.00  0.00     0.074 A 
ATOM     58  C   UNL A   1      38.611  32.771  34.364  1.00  0.00     0.031 C 
ATOM     59  C   UNL A   1      42.451  35.084  29.190  1.00  0.00     0.029 A 
ATOM     60  C   UNL A   1      42.901  35.394  30.541  1.00  0.00     0.049 A 
ATOM     61  H   UNL A   1      41.952  34.900  32.330  1.00  0.00     0.167 HD
ATOM     62  C   UNL A   1      39.883  34.109  36.021  1.00  0.00     0.031 A 
ATOM     63  C   UNL A   1      44.013  36.104  30.820  1.00  0.00     0.031 A 
ATOM     64  C   UNL A   1      40.957  34.990  36.409  1.00  0.00     0.049 A 
ATOM     65  C   UNL A   1      44.282  36.534  32.230  1.00  0.00     0.074 A 
ATOM     66  C   UNL A   1      41.306  35.415  37.681  1.00  0.00     0.029 A 
ATOM     67  N   UNL A   1      41.881  35.546  35.539  1.00  0.00    -0.354 N 
ATOM     68  N   UNL A   1      43.611  36.248  33.318  1.00  0.00    -0.248 NA
ATOM     69  C   UNL A   1      45.427  37.430  32.440  1.00  0.00     0.031 C 
ATOM     70  C   UNL A   1      42.421  36.257  37.575  1.00  0.00     0.029 A 
ATOM     71  C   UNL A   1      42.792  36.317  36.244  1.00  0.00     0.049 A 
ATOM     72  H   UNL A   1      41.889  35.411  34.564  1.00  0.00     0.167 HD
ATOM     73  C   UNL A   1      44.237  36.951  34.340  1.00  0.00     0.074 A 
ATOM     74  C   UNL A   1      45.363  37.642  33.748  1.00  0.00     0.031 C 
ATOM     75  C   UNL A   1      43.894  37.027  35.648  1.00  0.00     0.031 A 
BRANCH  62  76
ATOM     76  C   UNL A   1      38.958  33.614  37.105  1.00  0.00    -0.014 A 
ATOM     77  C   UNL A   1      39.432  33.140  38.340  1.00  0.00     0.010 A 
ATOM     78  C   UNL A   1      37.567  33.686  36.890  1.00  0.00     0.010 A 
ATOM     79  C   UNL A   1      38.532  32.715  39.325  1.00  0.00     0.020 A 
ATOM     80  C   UNL A   1      36.665  33.287  37.880  1.00  0.00     0.020 A 
ATOM     81  C   UNL A   1      37.155  32.787  39.087  1.00  0.00     0.054 A 
BRANCH  81  82
ATOM     82  S   UNL A   1      36.008  32.253  40.388  1.00  0.00     0.124 S 
ATOM     83  O   UNL A   1      34.777  32.031  39.632  1.00  0.00    -0.237 OA
ATOM     84  O   UNL A   1      36.647  31.047  40.908  1.00  0.00    -0.237 OA
ATOM     85  O   UNL A   1      35.976  33.384  41.311  1.00  0.00    -0.744 OA
ENDBRANCH  81  82
ENDBRANCH  62  76
BRANCH  63  86
ATOM     86  C   UNL A   1      44.886  36.557  29.702  1.00  0.00    -0.014 A 
ATOM     87  C   UNL A   1      44.676  37.800  29.085  1.00  0.00     0.010 A 
ATOM     88  C   UNL A   1      45.982  35.769  29.302  1.00  0.00     0.010 A 
ATOM     89  C   UNL A   1      45.567  38.263  28.110  1.00  0.00     0.020 A 
ATOM     90  C   UNL A   1      46.893  36.242  28.356  1.00  0.00     0.020 A 
ATOM     91  C   UNL A   1      46.680  37.488  27.766  1.00  0.00     0.054 A 
BRANCH  91  92
ATOM     92  S   UNL A   1      47.906  38.160  26.609  1.00  0.00     0.124 S 
ATOM     93  O   UNL A   1      47.376  37.728  25.319  1.00  0.00    -0.237 OA
ATOM     94  O   UNL A   1      47.841  39.596  26.871  1.00  0.00    -0.237 OA
ATOM     95  O   UNL A   1      49.151  37.519  27.026  1.00  0.00    -0.744 OA
ENDBRANCH  91  92
ENDBRANCH  63  86
BRANCH  75  96
ATOM     96  C   UNL A   1      44.752  37.893  36.529  1.00  0.00    -0.014 A 
ATOM     97  C   UNL A   1      45.814  37.339  37.266  1.00  0.00     0.010 A 
ATOM     98  C   UNL A   1      44.501  39.273  36.615  1.00  0.00     0.010 A 
ATOM     99  C   UNL A   1      46.588  38.147  38.104  1.00  0.00     0.020 A 
ATOM    100  C   UNL A   1      45.285  40.087  37.436  1.00  0.00     0.020 A 
ATOM    101  C   UNL A   1      46.313  39.515  38.190  1.00  0.00     0.054 A 
BRANCH 101 102
ATOM    102  S   UNL A   1      47.336  40.547  39.276  1.00  0.00     0.124 S 
ATOM    103  O   UNL A   1      46.433  41.653  39.582  1.00  0.00    -0.237 OA
ATOM    104  O   UNL A   1      47.629  39.650  40.392  1.00  0.00    -0.237 OA
ATOM    105  O   UNL A   1      48.487  40.892  38.445  1.00  0.00    -0.744 OA
ENDBRANCH 101 102
ENDBRANCH  75  96
ENDBRANCH  49  50
ENDBRANCH  42  44
ENDBRANCH  41  42
ENDBRANCH  40  41
ENDBRANCH  39  40
ENDBRANCH   1  39
TORSDOF 26
ENDMDL
MODEL 2
REMARK VINA RESULT:      -9.1      1.822      2.768
REMARK SMILES O=C(N[C@@H](Cc1ccccc1)C(=O)N[C@@H](CS)C(=O)N[C@@H](CO)C(=O)OCCOC(=O)c1ccc(-c2c3nc(c(-c4ccc(S(=O)(=O)[O-])cc4)c4ccc([nH]4)c(-c4ccc(S(=O)(=O)[O-])cc4)c4nc(c(-c5ccc(S(=O)(=O)[O-])cc5)c5ccc2[nH]5)C=C4)C=C3)cc1)c1ccc(F)cc1
REMARK SMILES IDX 26 1 24 2 25 3 21 4 20 5 18 6 19 7 15 9 14 10 12 11 13 12
REMARK SMILES IDX 4 14 3 15 1 16 2 17 92 19 93 20 98 21 94 22 97 23 95 24
REMARK SMILES IDX 96 25 5 26 6 27 7 28 11 29 8 30 10 31 9 32 16 33 17 34 22 36
REMARK SMILES IDX 23 37 27 39 28 40 29 41 30 42 31 43 32 44 33 45 91 46 34 47
REMARK SMILES IDX 90 48 35 49 36 50 37 51 84 52 38 53 89 54 83 55 85 56 39 57
REMARK SMILES IDX 88 58 82 59 81 60 40 62 70 63 51 64 69 65 52 66 55 67 68 68
REMARK SMILES IDX 86 69 53 70 54 71 67 73 87 74 56 75 41 76 42 77 50 78 43 79
REMARK SMILES IDX 49 80 44 81 45 82 46 83 47 84 48 85 71 86 72 87 80 88 73 89
REMARK SMILES IDX 79 90 74 91 75 92 76 93 77 94 78 95 57 96 58 97 66 98 59 99
REMARK SMILES IDX 65 100 60 101 61 102 62 103 63 104 64 105
REMARK H PARENT 20 8 14 13 3 18 17 35 23 38 85 61 55 72
REMARK Flexibility Score: inf
ROOT
ATOM      1  O   UNL A   1      34.375  28.477  26.655  1.00  0.00    -0.460 OA
ENDROOT
BRANCH   1   2
ATOM      2  C   UNL A   1      33.621  29.206  25.781  1.00  0.00     0.331 C 
ATOM      3  O   UNL A   1      33.609  30.429  25.713  1.00  0.00    -0.250 OA
BRANCH   2   4
ATOM      4  C   UNL A   1      32.683  28.300  24.958  1.00  0.00     0.218 C 
BRANCH   4   5
ATOM      5  N   UNL A   1      31.332  28.255  25.542  1.00  0.00    -0.339 N 
ATOM      6  C   UNL A   1      30.832  27.194  26.248  1.00  0.00     0.244 C 
ATOM      7  O   UNL A   1      30.565  27.404  27.434  1.00  0.00    -0.273 OA
ATOM      8  H   UNL A   1      30.749  29.038  25.416  1.00  0.00     0.164 HD
BRANCH   6   9
ATOM      9  C   UNL A   1      30.709  25.770  25.645  1.00  0.00     0.181 C 
BRANCH   9  10
ATOM     10  N   UNL A   1      30.071  24.781  26.511  1.00  0.00    -0.342 N 
ATOM     11  C   UNL A   1      30.379  23.482  26.767  1.00  0.00     0.243 C 
ATOM     12  O   UNL A   1      29.621  22.895  27.550  1.00  0.00    -0.273 OA
ATOM     13  H   UNL A   1      29.279  25.115  26.992  1.00  0.00     0.164 HD
BRANCH  11  14
ATOM     14  C   UNL A   1      31.673  22.777  26.286  1.00  0.00     0.176 C 
BRANCH  14  15
ATOM     15  N   UNL A   1      32.548  22.239  27.331  1.00  0.00    -0.340 N 
ATOM     16  O   UNL A   1      34.394  21.361  28.242  1.00  0.00    -0.269 OA
ATOM     17  C   UNL A   1      33.895  21.973  27.303  1.00  0.00     0.251 C 
ATOM     18  H   UNL A   1      32.101  22.036  28.185  1.00  0.00     0.164 HD
BRANCH  17  19
ATOM     19  C   UNL A   1      34.721  22.334  26.130  1.00  0.00     0.040 A 
ATOM     20  C   UNL A   1      35.115  21.379  25.184  1.00  0.00     0.017 A 
ATOM     21  C   UNL A   1      35.101  23.674  25.977  1.00  0.00     0.017 A 
ATOM     22  C   UNL A   1      35.958  21.752  24.134  1.00  0.00     0.040 A 
ATOM     23  C   UNL A   1      35.937  24.045  24.921  1.00  0.00     0.040 A 
ATOM     24  C   UNL A   1      36.370  23.077  24.020  1.00  0.00     0.123 A 
ATOM     25  F   UNL A   1      37.201  23.424  23.027  1.00  0.00    -0.207 F 
ENDBRANCH  17  19
ENDBRANCH  14  15
BRANCH  14  26
ATOM     26  C   UNL A   1      31.405  21.772  25.148  1.00  0.00     0.070 C 
BRANCH  26  27
ATOM     27  C   UNL A   1      31.956  22.131  23.790  1.00  0.00    -0.045 A 
ATOM     28  C   UNL A   1      31.904  21.214  22.731  1.00  0.00     0.004 A 
ATOM     29  C   UNL A   1      32.512  23.399  23.566  1.00  0.00     0.004 A 
ATOM     30  C   UNL A   1      32.371  21.570  21.465  1.00  0.00     0.000 A 
ATOM     31  C   UNL A   1      32.989  23.749  22.303  1.00  0.00     0.000 A 
ATOM     32  C   UNL A   1      32.913  22.836  21.252  1.00  0.00     0.000 A 
ENDBRANCH  26  27
ENDBRANCH  14  26
ENDBRANCH  11  14
ENDBRANCH   9  10
BRANCH   9  33
ATOM     33  C   UNL A   1      30.137  25.810  24.224  1.00  0.00     0.101 C 
BRANCH  33  34
ATOM     34  S   UNL A   1      28.472  26.549  24.076  1.00  0.00    -0.177 SA
ATOM     35  H   UNL A   1      28.420  27.332  22.966  1.00  0.00     0.102 HD
ENDBRANCH  33  34
ENDBRANCH   9  33
ENDBRANCH   6   9
ENDBRANCH   4   5
BRANCH   4  36
ATOM     36  C   UNL A   1      32.655  28.841  23.527  1.00  0.00     0.193 C 
BRANCH  36  37
ATOM     37  O   UNL A   1      33.927  29.367  23.140  1.00  0.00    -0.394 OA
ATOM     38  H   UNL A   1      34.538  28.635  22.961  1.00  0.00     0.210 HD
ENDBRANCH  36  37
ENDBRANCH   4  36
ENDBRANCH   2   4
ENDBRANCH   1   2
BRANCH   1  39
ATOM     39  C   UNL A   1      34.721  29.104  27.909  1.00  0.00     0.274 C 
BRANCH  39  40
ATOM     40  C   UNL A   1      36.236  29.290  27.974  1.00  0.00     0.275 C 
BRANCH  40  41
ATOM     41  O   UNL A   1      36.553  30.513  27.294  1.00  0.00    -0.458 OA
BRANCH  41  42
ATOM     42  C   UNL A   1      36.133  31.655  27.886  1.00  0.00     0.338 C 
ATOM     43  O   UNL A   1      35.011  32.137  27.808  1.00  0.00    -0.246 OA
BRANCH  42  44
ATOM     44  C   UNL A   1      37.246  32.232  28.686  1.00  0.00     0.060 A 
ATOM     45  C   UNL A   1      38.209  31.414  29.273  1.00  0.00     0.016 A 
ATOM     46  C   UNL A   1      37.301  33.610  28.923  1.00  0.00     0.016 A 
ATOM     47  C   UNL A   1      39.145  31.958  30.158  1.00  0.00     0.010 A 
ATOM     48  C   UNL A   1      38.305  34.154  29.747  1.00  0.00     0.010 A 
ATOM     49  C   UNL A   1      39.225  33.333  30.421  1.00  0.00    -0.014 A 
BRANCH  49  50
ATOM     50  C   UNL A   1      40.209  33.883  31.423  1.00  0.00     0.031 A 
ATOM     51  C   UNL A   1      40.010  33.665  32.912  1.00  0.00     0.074 A 
ATOM     52  C   UNL A   1      41.326  34.546  31.048  1.00  0.00     0.049 A 
ATOM     53  N   UNL A   1      40.553  34.302  33.922  1.00  0.00    -0.248 NA
ATOM     54  C   UNL A   1      39.066  32.611  33.315  1.00  0.00     0.031 C 
ATOM     55  C   UNL A   1      41.754  34.804  29.672  1.00  0.00     0.029 A 
ATOM     56  N   UNL A   1      42.334  35.107  31.804  1.00  0.00    -0.354 N 
ATOM     57  C   UNL A   1      39.942  33.799  35.068  1.00  0.00     0.074 A 
ATOM     58  C   UNL A   1      39.006  32.786  34.629  1.00  0.00     0.031 C 
ATOM     59  C   UNL A   1      42.971  35.362  29.679  1.00  0.00     0.029 A 
ATOM     60  C   UNL A   1      43.340  35.672  31.054  1.00  0.00     0.049 A 
ATOM     61  H   UNL A   1      42.332  35.104  32.788  1.00  0.00     0.167 HD
ATOM     62  C   UNL A   1      40.130  34.157  36.363  1.00  0.00     0.031 A 
ATOM     63  C   UNL A   1      44.402  36.430  31.397  1.00  0.00     0.031 A 
ATOM     64  C   UNL A   1      41.140  35.083  36.815  1.00  0.00     0.049 A 
ATOM     65  C   UNL A   1      44.582  36.850  32.824  1.00  0.00     0.074 A 
ATOM     66  C   UNL A   1      41.407  35.505  38.108  1.00  0.00     0.029 A 
ATOM     67  N   UNL A   1      42.076  35.696  35.999  1.00  0.00    -0.354 N 
ATOM     68  N   UNL A   1      43.875  36.516  33.874  1.00  0.00    -0.248 NA
ATOM     69  C   UNL A   1      45.670  37.798  33.101  1.00  0.00     0.031 C 
ATOM     70  C   UNL A   1      42.483  36.400  38.068  1.00  0.00     0.029 A 
ATOM     71  C   UNL A   1      42.914  36.500  36.757  1.00  0.00     0.049 A 
ATOM     72  H   UNL A   1      42.137  35.577  35.023  1.00  0.00     0.167 HD
ATOM     73  C   UNL A   1      44.416  37.232  34.935  1.00  0.00     0.074 A 
ATOM     74  C   UNL A   1      45.534  37.986  34.407  1.00  0.00     0.031 C 
ATOM     75  C   UNL A   1      44.007  37.270  36.225  1.00  0.00     0.031 A 
BRANCH  62  76
ATOM     76  C   UNL A   1      39.180  33.601  37.395  1.00  0.00    -0.014 A 
ATOM     77  C   UNL A   1      39.626  33.015  38.591  1.00  0.00     0.010 A 
ATOM     78  C   UNL A   1      37.794  33.730  37.174  1.00  0.00     0.010 A 
ATOM     79  C   UNL A   1      38.704  32.536  39.529  1.00  0.00     0.020 A 
ATOM     80  C   UNL A   1      36.870  33.276  38.119  1.00  0.00     0.020 A 
ATOM     81  C   UNL A   1      37.332  32.666  39.285  1.00  0.00     0.054 A 
BRANCH  81  82
ATOM     82  S   UNL A   1      36.156  32.059  40.527  1.00  0.00     0.124 S 
ATOM     83  O   UNL A   1      37.010  31.226  41.370  1.00  0.00    -0.237 OA
ATOM     84  O   UNL A   1      35.676  33.291  41.148  1.00  0.00    -0.237 OA
ATOM     85  O   UNL A   1      35.161  31.334  39.741  1.00  0.00    -0.744 OA
ENDBRANCH  81  82
ENDBRANCH  62  76
BRANCH  63  86
ATOM     86  C   UNL A   1      45.305  36.942  30.328  1.00  0.00    -0.014 A 
ATOM     87  C   UNL A   1      46.401  36.183  29.889  1.00  0.00     0.010 A 
ATOM     88  C   UNL A   1      45.019  38.166  29.695  1.00  0.00     0.010 A 
ATOM     89  C   UNL A   1      47.178  36.625  28.812  1.00  0.00     0.020 A 
ATOM     90  C   UNL A   1      45.769  38.592  28.597  1.00  0.00     0.020 A 
ATOM     91  C   UNL A   1      46.844  37.818  28.162  1.00  0.00     0.054 A 
BRANCH  91  92
ATOM     92  S   UNL A   1      47.767  38.306  26.677  1.00  0.00     0.124 S 
ATOM     93  O   UNL A   1      47.999  39.727  26.917  1.00  0.00    -0.237 OA
ATOM     94  O   UNL A   1      48.951  37.453  26.739  1.00  0.00    -0.237 OA
ATOM     95  O   UNL A   1      46.844  37.993  25.588  1.00  0.00    -0.744 OA
ENDBRANCH  91  92
ENDBRANCH  63  86
BRANCH  75  96
ATOM     96  C   UNL A   1      44.778  38.163  37.158  1.00  0.00    -0.014 A 
ATOM     97  C   UNL A   1      45.909  37.682  37.842  1.00  0.00     0.010 A 
ATOM     98  C   UNL A   1      44.375  39.496  37.347  1.00  0.00     0.010 A 
ATOM     99  C   UNL A   1      46.603  38.511  38.729  1.00  0.00     0.020 A 
ATOM    100  C   UNL A   1      45.078  40.333  38.217  1.00  0.00     0.020 A 
ATOM    101  C   UNL A   1      46.178  39.829  38.917  1.00  0.00     0.054 A 
BRANCH 101 102
ATOM    102  S   UNL A   1      47.098  40.890  40.065  1.00  0.00     0.124 S 
ATOM    103  O   UNL A   1      46.052  41.780  40.560  1.00  0.00    -0.237 OA
ATOM    104  O   UNL A   1      47.622  39.934  41.039  1.00  0.00    -0.237 OA
ATOM    105  O   UNL A   1      48.107  41.523  39.219  1.00  0.00    -0.744 OA
ENDBRANCH 101 102
ENDBRANCH  75  96
ENDBRANCH  49  50
ENDBRANCH  42  44
ENDBRANCH  41  42
ENDBRANCH  40  41
ENDBRANCH  39  40
ENDBRANCH   1  39
TORSDOF 26
ENDMDL
MODEL 3
REMARK VINA RESULT:      -8.9      9.174     15.541
REMARK SMILES O=C(N[C@@H](Cc1ccccc1)C(=O)N[C@@H](CS)C(=O)N[C@@H](CO)C(=O)OCCOC(=O)c1ccc(-c2c3nc(c(-c4ccc(S(=O)(=O)[O-])cc4)c4ccc([nH]4)c(-c4ccc(S(=O)(=O)[O-])cc4)c4nc(c(-c5ccc(S(=O)(=O)[O-])cc5)c5ccc2[nH]5)C=C4)C=C3)cc1)c1ccc(F)cc1
REMARK SMILES IDX 26 1 24 2 25 3 21 4 20 5 18 6 19 7 15 9 14 10 12 11 13 12
REMARK SMILES IDX 4 14 3 15 1 16 2 17 92 19 93 20 98 21 94 22 97 23 95 24
REMARK SMILES IDX 96 25 5 26 6 27 7 28 11 29 8 30 10 31 9 32 16 33 17 34 22 36
REMARK SMILES IDX 23 37 27 39 28 40 29 41 30 42 31 43 32 44 33 45 91 46 34 47
REMARK SMILES IDX 90 48 35 49 36 50 37 51 84 52 38 53 89 54 83 55 85 56 39 57
REMARK SMILES IDX 88 58 82 59 81 60 40 62 70 63 51 64 69 65 52 66 55 67 68 68
REMARK SMILES IDX 86 69 53 70 54 71 67 73 87 74 56 75 41 76 42 77 50 78 43 79
REMARK SMILES IDX 49 80 44 81 45 82 46 83 47 84 48 85 71 86 72 87 80 88 73 89
REMARK SMILES IDX 79 90 74 91 75 92 76 93 77 94 78 95 57 96 58 97 66 98 59 99
REMARK SMILES IDX 65 100 60 101 61 102 62 103 63 104 64 105
REMARK H PARENT 20 8 14 13 3 18 17 35 23 38 85 61 55 72
REMARK Flexibility Score: inf
ROOT
ATOM      1  O   UNL A   1      43.128  41.664  30.235  1.00  0.00    -0.460 OA
ENDROOT
BRANCH   1   2
ATOM      2  C   UNL A   1      43.153  42.501  31.314  1.00  0.00     0.331 C 
ATOM      3  O   UNL A   1      42.651  43.617  31.350  1.00  0.00    -0.250 OA
BRANCH   2   4
ATOM      4  C   UNL A   1      44.002  41.913  32.460  1.00  0.00     0.218 C 
BRANCH   4   5
ATOM      5  N   UNL A   1      45.411  42.326  32.349  1.00  0.00    -0.339 N 
ATOM      6  C   UNL A   1      46.213  42.053  31.274  1.00  0.00     0.244 C 
ATOM      7  O   UNL A   1      46.619  43.027  30.634  1.00  0.00    -0.273 OA
ATOM      8  H   UNL A   1      45.804  42.830  33.098  1.00  0.00     0.164 HD
BRANCH   6   9
ATOM      9  C   UNL A   1      46.512  40.607  30.797  1.00  0.00     0.181 C 
BRANCH   9  10
ATOM     10  N   UNL A   1      47.615  40.482  29.849  1.00  0.00    -0.342 N 
ATOM     11  C   UNL A   1      47.693  39.865  28.639  1.00  0.00     0.243 C 
ATOM     12  O   UNL A   1      48.793  39.923  28.076  1.00  0.00    -0.273 OA
ATOM     13  H   UNL A   1      48.449  40.919  30.136  1.00  0.00     0.164 HD
BRANCH  11  14
ATOM     14  C   UNL A   1      46.479  39.268  27.881  1.00  0.00     0.176 C 
BRANCH  14  15
ATOM     15  N   UNL A   1      46.439  39.496  26.435  1.00  0.00    -0.340 N 
ATOM     16  O   UNL A   1      46.060  40.585  24.516  1.00  0.00    -0.269 OA
ATOM     17  C   UNL A   1      46.221  40.655  25.730  1.00  0.00     0.251 C 
ATOM     18  H   UNL A   1      46.590  38.695  25.882  1.00  0.00     0.164 HD
BRANCH  17  19
ATOM     19  C   UNL A   1      46.095  41.957  26.422  1.00  0.00     0.040 A 
ATOM     20  C   UNL A   1      44.969  42.275  27.193  1.00  0.00     0.017 A 
ATOM     21  C   UNL A   1      47.144  42.877  26.294  1.00  0.00     0.017 A 
ATOM     22  C   UNL A   1      44.860  43.546  27.764  1.00  0.00     0.040 A 
ATOM     23  C   UNL A   1      47.034  44.143  26.875  1.00  0.00     0.040 A 
ATOM     24  C   UNL A   1      45.886  44.470  27.590  1.00  0.00     0.123 A 
ATOM     25  F   UNL A   1      45.764  45.696  28.117  1.00  0.00    -0.207 F 
ENDBRANCH  17  19
ENDBRANCH  14  15
BRANCH  14  26
ATOM     26  C   UNL A   1      46.212  37.800  28.267  1.00  0.00     0.070 C 
BRANCH  26  27
ATOM     27  C   UNL A   1      46.733  36.749  27.318  1.00  0.00    -0.045 A 
ATOM     28  C   UNL A   1      45.851  35.975  26.550  1.00  0.00     0.004 A 
ATOM     29  C   UNL A   1      48.114  36.546  27.178  1.00  0.00     0.004 A 
ATOM     30  C   UNL A   1      46.343  35.039  25.639  1.00  0.00     0.000 A 
ATOM     31  C   UNL A   1      48.603  35.601  26.276  1.00  0.00     0.000 A 
ATOM     32  C   UNL A   1      47.717  34.853  25.503  1.00  0.00     0.000 A 
ENDBRANCH  26  27
ENDBRANCH  14  26
ENDBRANCH  11  14
ENDBRANCH   9  10
BRANCH   9  33
ATOM     33  C   UNL A   1      46.595  39.634  31.978  1.00  0.00     0.101 C 
BRANCH  33  34
ATOM     34  S   UNL A   1      45.241  38.411  32.077  1.00  0.00    -0.177 SA
ATOM     35  H   UNL A   1      45.256  37.627  30.966  1.00  0.00     0.102 HD
ENDBRANCH  33  34
ENDBRANCH   9  33
ENDBRANCH   6   9
ENDBRANCH   4   5
BRANCH   4  36
ATOM     36  C   UNL A   1      43.385  42.381  33.780  1.00  0.00     0.193 C 
BRANCH  36  37
ATOM     37  O   UNL A   1      41.961  42.244  33.770  1.00  0.00    -0.394 OA
ATOM     38  H   UNL A   1      41.581  42.780  34.483  1.00  0.00     0.210 HD
ENDBRANCH  36  37
ENDBRANCH   4  36
ENDBRANCH   2   4
ENDBRANCH   1   2
BRANCH   1  39
ATOM     39  C   UNL A   1      41.907  40.932  29.996  1.00  0.00     0.274 C 
BRANCH  39  40
ATOM     40  C   UNL A   1      41.827  40.562  28.516  1.00  0.00     0.275 C 
BRANCH  40  41
ATOM     41  O   UNL A   1      42.596  39.366  28.325  1.00  0.00    -0.458 OA
BRANCH  41  42
ATOM     42  C   UNL A   1      42.128  38.491  27.405  1.00  0.00     0.338 C 
ATOM     43  O   UNL A   1      41.532  38.778  26.376  1.00  0.00    -0.246 OA
BRANCH  42  44
ATOM     44  C   UNL A   1      42.479  37.107  27.819  1.00  0.00     0.060 A 
ATOM     45  C   UNL A   1      42.266  36.025  26.966  1.00  0.00     0.016 A 
ATOM     46  C   UNL A   1      42.965  36.859  29.107  1.00  0.00     0.016 A 
ATOM     47  C   UNL A   1      42.442  34.720  27.433  1.00  0.00     0.010 A 
ATOM     48  C   UNL A   1      43.222  35.542  29.533  1.00  0.00     0.010 A 
ATOM     49  C   UNL A   1      42.924  34.436  28.719  1.00  0.00    -0.014 A 
BRANCH  49  50
ATOM     50  C   UNL A   1      43.050  33.017  29.213  1.00  0.00     0.031 A 
ATOM     51  C   UNL A   1      42.249  32.533  30.408  1.00  0.00     0.074 A 
ATOM     52  C   UNL A   1      43.835  32.105  28.595  1.00  0.00     0.049 A 
ATOM     53  N   UNL A   1      42.442  31.475  31.160  1.00  0.00    -0.248 NA
ATOM     54  C   UNL A   1      41.099  33.352  30.823  1.00  0.00     0.031 C 
ATOM     55  C   UNL A   1      44.632  32.332  27.389  1.00  0.00     0.029 A 
ATOM     56  N   UNL A   1      44.070  30.779  28.887  1.00  0.00    -0.354 N 
ATOM     57  C   UNL A   1      41.507  31.560  32.189  1.00  0.00     0.074 A 
ATOM     58  C   UNL A   1      40.732  32.758  31.950  1.00  0.00     0.031 C 
ATOM     59  C   UNL A   1      45.170  31.174  26.985  1.00  0.00     0.029 A 
ATOM     60  C   UNL A   1      44.912  30.156  27.995  1.00  0.00     0.049 A 
ATOM     61  H   UNL A   1      43.674  30.320  29.663  1.00  0.00     0.167 HD
ATOM     62  C   UNL A   1      41.321  30.726  33.245  1.00  0.00     0.031 A 
ATOM     63  C   UNL A   1      45.495  28.940  28.004  1.00  0.00     0.031 A 
ATOM     64  C   UNL A   1      42.013  29.473  33.426  1.00  0.00     0.049 A 
ATOM     65  C   UNL A   1      45.313  28.041  29.189  1.00  0.00     0.074 A 
ATOM     66  C   UNL A   1      41.888  28.561  34.463  1.00  0.00     0.029 A 
ATOM     67  N   UNL A   1      42.924  28.934  32.533  1.00  0.00    -0.354 N 
ATOM     68  N   UNL A   1      44.569  28.222  30.251  1.00  0.00    -0.248 NA
ATOM     69  C   UNL A   1      46.097  26.798  29.201  1.00  0.00     0.031 C 
ATOM     70  C   UNL A   1      42.751  27.487  34.213  1.00  0.00     0.029 A 
ATOM     71  C   UNL A   1      43.377  27.709  32.999  1.00  0.00     0.049 A 
ATOM     72  H   UNL A   1      43.207  29.358  31.692  1.00  0.00     0.167 HD
ATOM     73  C   UNL A   1      44.814  27.129  31.072  1.00  0.00     0.074 A 
ATOM     74  C   UNL A   1      45.743  26.271  30.366  1.00  0.00     0.031 C 
ATOM     75  C   UNL A   1      44.323  26.872  32.308  1.00  0.00     0.031 A 
BRANCH  62  76
ATOM     76  C   UNL A   1      40.376  31.167  34.335  1.00  0.00    -0.014 A 
ATOM     77  C   UNL A   1      39.024  30.787  34.358  1.00  0.00     0.010 A 
ATOM     78  C   UNL A   1      40.885  31.940  35.398  1.00  0.00     0.010 A 
ATOM     79  C   UNL A   1      38.192  31.201  35.404  1.00  0.00     0.020 A 
ATOM     80  C   UNL A   1      40.065  32.333  36.458  1.00  0.00     0.020 A 
ATOM     81  C   UNL A   1      38.716  31.975  36.446  1.00  0.00     0.054 A 
BRANCH  81  82
ATOM     82  S   UNL A   1      37.624  32.479  37.805  1.00  0.00     0.124 S 
ATOM     83  O   UNL A   1      38.534  33.243  38.655  1.00  0.00    -0.237 OA
ATOM     84  O   UNL A   1      36.599  33.264  37.122  1.00  0.00    -0.237 OA
ATOM     85  O   UNL A   1      37.161  31.213  38.368  1.00  0.00    -0.744 OA
ENDBRANCH  81  82
ENDBRANCH  62  76
BRANCH  63  86
ATOM     86  C   UNL A   1      46.414  28.565  26.893  1.00  0.00    -0.014 A 
ATOM     87  C   UNL A   1      47.802  28.732  27.021  1.00  0.00     0.010 A 
ATOM     88  C   UNL A   1      45.900  27.969  25.726  1.00  0.00     0.010 A 
ATOM     89  C   UNL A   1      48.663  28.277  26.016  1.00  0.00     0.020 A 
ATOM     90  C   UNL A   1      46.757  27.482  24.738  1.00  0.00     0.020 A 
ATOM     91  C   UNL A   1      48.134  27.638  24.890  1.00  0.00     0.054 A 
BRANCH  91  92
ATOM     92  S   UNL A   1      49.265  26.924  23.663  1.00  0.00     0.124 S 
ATOM     93  O   UNL A   1      49.761  28.113  22.978  1.00  0.00    -0.237 OA
ATOM     94  O   UNL A   1      50.238  26.220  24.495  1.00  0.00    -0.237 OA
ATOM     95  O   UNL A   1      48.397  26.056  22.870  1.00  0.00    -0.744 OA
ENDBRANCH  91  92
ENDBRANCH  63  86
BRANCH  75  96
ATOM     96  C   UNL A   1      44.785  25.607  32.977  1.00  0.00    -0.014 A 
ATOM     97  C   UNL A   1      44.122  24.388  32.746  1.00  0.00     0.010 A 
ATOM     98  C   UNL A   1      45.897  25.633  33.836  1.00  0.00     0.010 A 
ATOM     99  C   UNL A   1      44.543  23.222  33.393  1.00  0.00     0.020 A 
ATOM    100  C   UNL A   1      46.332  24.466  34.469  1.00  0.00     0.020 A 
ATOM    101  C   UNL A   1      45.640  23.271  34.257  1.00  0.00     0.054 A 
BRANCH 101 102
ATOM    102  S   UNL A   1      46.174  21.745  35.081  1.00  0.00     0.124 S 
ATOM    103  O   UNL A   1      46.313  22.181  36.467  1.00  0.00    -0.237 OA
ATOM    104  O   UNL A   1      45.065  20.831  34.819  1.00  0.00    -0.237 OA
ATOM    105  O   UNL A   1      47.424  21.406  34.405  1.00  0.00    -0.744 OA
ENDBRANCH 101 102
ENDBRANCH  75  96
ENDBRANCH  49  50
ENDBRANCH  42  44
ENDBRANCH  41  42
ENDBRANCH  40  41
ENDBRANCH  39  40
ENDBRANCH   1  39
TORSDOF 26
ENDMDL
