MODEL 1
REMARK VINA RESULT:     -11.0      0.000      0.000
REMARK SMILES CC[C@@](C)(NC(=O)Nc1ccccc1C#N)C(=O)OCCOC(=O)c1ccc(-c2c3nc(c(-c4ccc(S(=O)(=O)[O-])cc4)c4ccc([nH]4)c(-c4ccc(S(=O)(=O)[O-])cc4)c4nc(c(-c5ccc(S(=O)(=O)[O-])cc5)c5ccc2[nH]5)C=C4)C=C3)cc1
REMARK SMILES IDX 20 1 19 2 17 3 18 4 3 5 4 6 2 7 1 8 5 9 6 10 7 12 8 13 9 15
REMARK SMILES IDX 10 16 14 17 11 18 13 19 12 20 15 21 16 22 21 23 22 24 23 25
REMARK SMILES IDX 24 26 25 27 26 28 84 29 27 30 83 31 28 32 29 33 30 34 77 35
REMARK SMILES IDX 31 36 82 37 76 38 78 39 32 40 81 41 75 42 74 43 33 45 63 46
REMARK SMILES IDX 44 47 62 48 45 49 48 50 61 51 79 52 46 53 47 54 60 56 80 57
REMARK SMILES IDX 49 58 34 59 35 60 43 61 36 62 42 63 37 64 38 65 39 66 40 67
REMARK SMILES IDX 41 68 64 69 65 70 73 71 66 72 72 73 67 74 68 75 69 76 70 77
REMARK SMILES IDX 71 78 50 79 51 80 59 81 52 82 58 83 53 84 54 85 55 86 56 87
REMARK SMILES IDX 57 88
REMARK H PARENT 5 11 8 14 78 44 48 55
REMARK Flexibility Score: inf
ROOT
ATOM      1  C   UNL A   1      35.549  20.629  25.194  1.00  0.00     0.274 C 
ENDROOT
BRANCH   1   2
ATOM      2  O   UNL A   1      34.131  21.141  25.823  1.00  0.00    -0.460 OA
BRANCH   2   3
ATOM      3  C   UNL A   1      32.702  21.125  25.520  1.00  0.00     0.331 C 
ATOM      4  O   UNL A   1      32.076  20.122  25.173  1.00  0.00    -0.249 OA
BRANCH   3   5
ATOM      5  C   UNL A   1      31.995  22.534  25.321  1.00  0.00     0.136 C 
ATOM      6  C   UNL A   1      33.017  23.548  25.844  1.00  0.00     0.047 C 
BRANCH   5   7
ATOM      7  C   UNL A   1      31.257  23.246  24.127  1.00  0.00     0.037 C 
ATOM      8  C   UNL A   1      31.986  23.790  22.930  1.00  0.00     0.007 C 
ENDBRANCH   5   7
BRANCH   5   9
ATOM      9  N   UNL A   1      30.918  22.205  26.149  1.00  0.00    -0.322 N 
ATOM     10  C   UNL A   1      30.368  23.219  26.833  1.00  0.00     0.320 C 
ATOM     11  H   UNL A   1      30.582  21.282  26.225  1.00  0.00     0.166 HD
ATOM     12  O   UNL A   1      29.682  22.836  27.785  1.00  0.00    -0.248 OA
ATOM     13  N   UNL A   1      30.585  24.589  26.579  1.00  0.00    -0.307 N 
ATOM     14  H   UNL A   1      30.399  24.960  27.471  1.00  0.00     0.171 HD
BRANCH  13  15
ATOM     15  C   UNL A   1      30.912  25.843  25.841  1.00  0.00     0.060 A 
ATOM     16  C   UNL A   1      31.861  26.601  26.588  1.00  0.00     0.027 A 
ATOM     17  C   UNL A   1      30.436  26.573  24.708  1.00  0.00     0.076 A 
ATOM     18  C   UNL A   1      32.433  27.816  26.190  1.00  0.00     0.002 A 
ATOM     19  C   UNL A   1      31.137  27.715  24.222  1.00  0.00     0.021 A 
ATOM     20  C   UNL A   1      32.131  28.334  24.956  1.00  0.00     0.002 A 
BRANCH  17  21
ATOM     21  C   UNL A   1      29.104  26.622  24.116  1.00  0.00     0.101 C 
ATOM     22  N   UNL A   1      28.043  26.808  23.698  1.00  0.00    -0.192 NA
ENDBRANCH  17  21
ENDBRANCH  13  15
ENDBRANCH   5   9
ENDBRANCH   3   5
ENDBRANCH   2   3
ENDBRANCH   1   2
BRANCH   1  23
ATOM     23  C   UNL A   1      37.027  21.424  24.749  1.00  0.00     0.275 C 
BRANCH  23  24
ATOM     24  O   UNL A   1      37.763  22.414  25.656  1.00  0.00    -0.458 OA
BRANCH  24  25
ATOM     25  C   UNL A   1      39.035  22.208  26.196  1.00  0.00     0.338 C 
ATOM     26  O   UNL A   1      39.640  21.151  26.112  1.00  0.00    -0.246 OA
BRANCH  25  27
ATOM     27  C   UNL A   1      39.644  23.468  26.912  1.00  0.00     0.060 A 
ATOM     28  C   UNL A   1      39.380  24.800  26.526  1.00  0.00     0.016 A 
ATOM     29  C   UNL A   1      40.611  23.356  27.912  1.00  0.00     0.016 A 
ATOM     30  C   UNL A   1      39.935  25.953  27.103  1.00  0.00     0.010 A 
ATOM     31  C   UNL A   1      41.226  24.518  28.486  1.00  0.00     0.010 A 
ATOM     32  C   UNL A   1      40.904  25.833  28.077  1.00  0.00    -0.014 A 
BRANCH  32  33
ATOM     33  C   UNL A   1      41.729  27.034  28.436  1.00  0.00     0.031 A 
ATOM     34  C   UNL A   1      41.016  28.227  29.030  1.00  0.00     0.074 A 
ATOM     35  C   UNL A   1      43.078  27.080  28.359  1.00  0.00     0.049 A 
ATOM     36  N   UNL A   1      41.440  29.450  29.215  1.00  0.00    -0.248 NA
ATOM     37  C   UNL A   1      39.632  27.994  29.473  1.00  0.00     0.031 C 
ATOM     38  C   UNL A   1      43.958  25.967  28.004  1.00  0.00     0.029 A 
ATOM     39  N   UNL A   1      43.950  28.130  28.568  1.00  0.00    -0.354 N 
ATOM     40  C   UNL A   1      40.349  30.153  29.720  1.00  0.00     0.074 A 
ATOM     41  C   UNL A   1      39.252  29.215  29.816  1.00  0.00     0.031 C 
ATOM     42  C   UNL A   1      45.233  26.400  27.985  1.00  0.00     0.029 A 
ATOM     43  C   UNL A   1      45.260  27.836  28.255  1.00  0.00     0.049 A 
ATOM     44  H   UNL A   1      43.662  29.008  28.909  1.00  0.00     0.167 HD
ATOM     45  C   UNL A   1      40.261  31.463  30.056  1.00  0.00     0.031 A 
ATOM     46  C   UNL A   1      46.346  28.635  28.142  1.00  0.00     0.031 A 
ATOM     47  C   UNL A   1      41.361  32.390  29.979  1.00  0.00     0.049 A 
ATOM     48  C   UNL A   1      46.208  30.119  28.390  1.00  0.00     0.074 A 
ATOM     49  C   UNL A   1      41.369  33.742  30.277  1.00  0.00     0.029 A 
ATOM     50  N   UNL A   1      42.648  32.063  29.581  1.00  0.00    -0.354 N 
ATOM     51  N   UNL A   1      45.152  30.798  28.774  1.00  0.00    -0.248 NA
ATOM     52  C   UNL A   1      47.407  30.947  28.183  1.00  0.00     0.031 C 
ATOM     53  C   UNL A   1      42.642  34.246  29.988  1.00  0.00     0.029 A 
ATOM     54  C   UNL A   1      43.451  33.192  29.595  1.00  0.00     0.049 A 
ATOM     55  H   UNL A   1      42.948  31.160  29.326  1.00  0.00     0.167 HD
ATOM     56  C   UNL A   1      45.569  32.122  28.888  1.00  0.00     0.074 A 
ATOM     57  C   UNL A   1      46.975  32.149  28.542  1.00  0.00     0.031 C 
ATOM     58  C   UNL A   1      44.852  33.215  29.253  1.00  0.00     0.031 A 
BRANCH  45  59
ATOM     59  C   UNL A   1      38.903  31.989  30.450  1.00  0.00    -0.014 A 
ATOM     60  C   UNL A   1      38.427  31.923  31.772  1.00  0.00     0.010 A 
ATOM     61  C   UNL A   1      38.082  32.564  29.460  1.00  0.00     0.010 A 
ATOM     62  C   UNL A   1      37.138  32.366  32.083  1.00  0.00     0.020 A 
ATOM     63  C   UNL A   1      36.809  33.044  29.774  1.00  0.00     0.020 A 
ATOM     64  C   UNL A   1      36.336  32.920  31.080  1.00  0.00     0.054 A 
BRANCH  64  65
ATOM     65  S   UNL A   1      34.667  33.485  31.513  1.00  0.00     0.124 S 
ATOM     66  O   UNL A   1      34.015  33.527  30.206  1.00  0.00    -0.237 OA
ATOM     67  O   UNL A   1      34.199  32.435  32.414  1.00  0.00    -0.237 OA
ATOM     68  O   UNL A   1      34.891  34.786  32.138  1.00  0.00    -0.744 OA
ENDBRANCH  64  65
ENDBRANCH  45  59
BRANCH  46  69
ATOM     69  C   UNL A   1      47.659  28.066  27.710  1.00  0.00    -0.014 A 
ATOM     70  C   UNL A   1      48.543  27.496  28.645  1.00  0.00     0.010 A 
ATOM     71  C   UNL A   1      48.040  28.100  26.355  1.00  0.00     0.010 A 
ATOM     72  C   UNL A   1      49.774  26.968  28.233  1.00  0.00     0.020 A 
ATOM     73  C   UNL A   1      49.254  27.545  25.934  1.00  0.00     0.020 A 
ATOM     74  C   UNL A   1      50.114  26.983  26.878  1.00  0.00     0.054 A 
BRANCH  74  75
ATOM     75  S   UNL A   1      51.674  26.211  26.359  1.00  0.00     0.124 S 
ATOM     76  O   UNL A   1      51.353  25.747  25.013  1.00  0.00    -0.237 OA
ATOM     77  O   UNL A   1      52.615  27.325  26.438  1.00  0.00    -0.237 OA
ATOM     78  O   UNL A   1      51.881  25.159  27.351  1.00  0.00    -0.744 OA
ENDBRANCH  74  75
ENDBRANCH  46  69
BRANCH  58  79
ATOM     79  C   UNL A   1      45.578  34.534  29.359  1.00  0.00    -0.014 A 
ATOM     80  C   UNL A   1      46.313  34.887  30.503  1.00  0.00     0.010 A 
ATOM     81  C   UNL A   1      45.572  35.411  28.256  1.00  0.00     0.010 A 
ATOM     82  C   UNL A   1      47.003  36.103  30.556  1.00  0.00     0.020 A 
ATOM     83  C   UNL A   1      46.288  36.611  28.291  1.00  0.00     0.020 A 
ATOM     84  C   UNL A   1      46.987  36.957  29.448  1.00  0.00     0.054 A 
BRANCH  84  85
ATOM     85  S   UNL A   1      47.925  38.507  29.526  1.00  0.00     0.124 S 
ATOM     86  O   UNL A   1      49.175  38.140  28.864  1.00  0.00    -0.237 OA
ATOM     87  O   UNL A   1      47.072  39.434  28.788  1.00  0.00    -0.237 OA
ATOM     88  O   UNL A   1      48.037  38.775  30.958  1.00  0.00    -0.744 OA
ENDBRANCH  84  85
ENDBRANCH  58  79
ENDBRANCH  32  33
ENDBRANCH  25  27
ENDBRANCH  24  25
ENDBRANCH  23  24
ENDBRANCH   1  23
TORSDOF 18
ENDMDL
MODEL 2
REMARK VINA RESULT:     -10.7      2.959      8.504
REMARK SMILES CC[C@@](C)(NC(=O)Nc1ccccc1C#N)C(=O)OCCOC(=O)c1ccc(-c2c3nc(c(-c4ccc(S(=O)(=O)[O-])cc4)c4ccc([nH]4)c(-c4ccc(S(=O)(=O)[O-])cc4)c4nc(c(-c5ccc(S(=O)(=O)[O-])cc5)c5ccc2[nH]5)C=C4)C=C3)cc1
REMARK SMILES IDX 20 1 19 2 17 3 18 4 3 5 4 6 2 7 1 8 5 9 6 10 7 12 8 13 9 15
REMARK SMILES IDX 10 16 14 17 11 18 13 19 12 20 15 21 16 22 21 23 22 24 23 25
REMARK SMILES IDX 24 26 25 27 26 28 84 29 27 30 83 31 28 32 29 33 30 34 77 35
REMARK SMILES IDX 31 36 82 37 76 38 78 39 32 40 81 41 75 42 74 43 33 45 63 46
REMARK SMILES IDX 44 47 62 48 45 49 48 50 61 51 79 52 46 53 47 54 60 56 80 57
REMARK SMILES IDX 49 58 34 59 35 60 43 61 36 62 42 63 37 64 38 65 39 66 40 67
REMARK SMILES IDX 41 68 64 69 65 70 73 71 66 72 72 73 67 74 68 75 69 76 70 77
REMARK SMILES IDX 71 78 50 79 51 80 59 81 52 82 58 83 53 84 54 85 55 86 56 87
REMARK SMILES IDX 57 88
REMARK H PARENT 5 11 8 14 78 44 48 55
REMARK Flexibility Score: inf
ROOT
ATOM      1  C   UNL A   1      32.495  28.224  27.100  1.00  0.00     0.274 C 
ENDROOT
BRANCH   1   2
ATOM      2  O   UNL A   1      31.598  27.647  25.863  1.00  0.00    -0.460 OA
BRANCH   2   3
ATOM      3  C   UNL A   1      31.745  27.255  24.463  1.00  0.00     0.331 C 
ATOM      4  O   UNL A   1      31.324  27.911  23.509  1.00  0.00    -0.249 OA
BRANCH   3   5
ATOM      5  C   UNL A   1      32.186  25.755  24.181  1.00  0.00     0.136 C 
ATOM      6  C   UNL A   1      33.534  25.615  24.895  1.00  0.00     0.047 C 
BRANCH   5   7
ATOM      7  C   UNL A   1      31.487  24.350  24.308  1.00  0.00     0.037 C 
ATOM      8  C   UNL A   1      30.760  23.914  25.550  1.00  0.00     0.007 C 
ENDBRANCH   5   7
BRANCH   5   9
ATOM      9  N   UNL A   1      32.195  25.930  22.795  1.00  0.00    -0.322 N 
ATOM     10  C   UNL A   1      33.093  25.203  22.114  1.00  0.00     0.320 C 
ATOM     11  H   UNL A   1      31.577  26.550  22.344  1.00  0.00     0.166 HD
ATOM     12  O   UNL A   1      33.300  25.640  20.978  1.00  0.00    -0.248 OA
ATOM     13  N   UNL A   1      33.808  24.099  22.625  1.00  0.00    -0.307 N 
ATOM     14  H   UNL A   1      34.602  24.126  22.044  1.00  0.00     0.171 HD
BRANCH  13  15
ATOM     15  C   UNL A   1      34.145  22.918  23.470  1.00  0.00     0.060 A 
ATOM     16  C   UNL A   1      33.044  22.011  23.481  1.00  0.00     0.027 A 
ATOM     17  C   UNL A   1      35.161  22.515  24.390  1.00  0.00     0.076 A 
ATOM     18  C   UNL A   1      33.010  20.773  24.134  1.00  0.00     0.002 A 
ATOM     19  C   UNL A   1      35.197  21.189  24.913  1.00  0.00     0.021 A 
ATOM     20  C   UNL A   1      34.130  20.321  24.786  1.00  0.00     0.002 A 
BRANCH  17  21
ATOM     21  C   UNL A   1      36.022  23.321  25.249  1.00  0.00     0.101 C 
ATOM     22  N   UNL A   1      36.823  23.893  25.855  1.00  0.00    -0.192 NA
ENDBRANCH  17  21
ENDBRANCH  13  15
ENDBRANCH   5   9
ENDBRANCH   3   5
ENDBRANCH   2   3
ENDBRANCH   1   2
BRANCH   1  23
ATOM     23  C   UNL A   1      33.588  29.562  27.275  1.00  0.00     0.275 C 
BRANCH  23  24
ATOM     24  O   UNL A   1      35.080  29.403  27.580  1.00  0.00    -0.458 OA
BRANCH  24  25
ATOM     25  C   UNL A   1      35.755  30.047  28.621  1.00  0.00     0.338 C 
ATOM     26  O   UNL A   1      35.192  30.684  29.497  1.00  0.00    -0.246 OA
BRANCH  25  27
ATOM     27  C   UNL A   1      37.316  29.867  28.586  1.00  0.00     0.060 A 
ATOM     28  C   UNL A   1      38.065  29.693  27.402  1.00  0.00     0.016 A 
ATOM     29  C   UNL A   1      38.072  29.730  29.752  1.00  0.00     0.016 A 
ATOM     30  C   UNL A   1      39.451  29.483  27.324  1.00  0.00     0.010 A 
ATOM     31  C   UNL A   1      39.481  29.470  29.698  1.00  0.00     0.010 A 
ATOM     32  C   UNL A   1      40.186  29.329  28.480  1.00  0.00    -0.014 A 
BRANCH  32  33
ATOM     33  C   UNL A   1      41.575  28.769  28.391  1.00  0.00     0.031 A 
ATOM     34  C   UNL A   1      42.733  29.714  28.614  1.00  0.00     0.074 A 
ATOM     35  C   UNL A   1      41.855  27.456  28.227  1.00  0.00     0.049 A 
ATOM     36  N   UNL A   1      44.008  29.549  28.376  1.00  0.00    -0.248 NA
ATOM     37  C   UNL A   1      42.390  31.026  29.186  1.00  0.00     0.031 C 
ATOM     38  C   UNL A   1      40.881  26.365  28.195  1.00  0.00     0.029 A 
ATOM     39  N   UNL A   1      43.065  26.817  28.041  1.00  0.00    -0.354 N 
ATOM     40  C   UNL A   1      44.609  30.764  28.692  1.00  0.00     0.074 A 
ATOM     41  C   UNL A   1      43.558  31.649  29.144  1.00  0.00     0.031 C 
ATOM     42  C   UNL A   1      41.525  25.204  27.966  1.00  0.00     0.029 A 
ATOM     43  C   UNL A   1      42.948  25.471  27.763  1.00  0.00     0.049 A 
ATOM     44  H   UNL A   1      43.932  27.280  28.100  1.00  0.00     0.167 HD
ATOM     45  C   UNL A   1      45.914  31.119  28.599  1.00  0.00     0.031 A 
ATOM     46  C   UNL A   1      43.862  24.570  27.341  1.00  0.00     0.031 A 
ATOM     47  C   UNL A   1      46.962  30.229  28.168  1.00  0.00     0.049 A 
ATOM     48  C   UNL A   1      45.290  25.008  27.111  1.00  0.00     0.074 A 
ATOM     49  C   UNL A   1      48.312  30.498  28.020  1.00  0.00     0.029 A 
ATOM     50  N   UNL A   1      46.781  28.899  27.823  1.00  0.00    -0.354 N 
ATOM     51  N   UNL A   1      45.837  26.183  27.319  1.00  0.00    -0.248 NA
ATOM     52  C   UNL A   1      46.223  24.000  26.584  1.00  0.00     0.031 C 
ATOM     53  C   UNL A   1      48.933  29.352  27.514  1.00  0.00     0.029 A 
ATOM     54  C   UNL A   1      47.988  28.342  27.431  1.00  0.00     0.049 A 
ATOM     55  H   UNL A   1      45.921  28.420  27.852  1.00  0.00     0.167 HD
ATOM     56  C   UNL A   1      47.181  26.044  26.982  1.00  0.00     0.074 A 
ATOM     57  C   UNL A   1      47.368  24.670  26.566  1.00  0.00     0.031 C 
ATOM     58  C   UNL A   1      48.172  26.972  27.020  1.00  0.00     0.031 A 
BRANCH  45  59
ATOM     59  C   UNL A   1      46.264  32.559  28.881  1.00  0.00    -0.014 A 
ATOM     60  C   UNL A   1      46.640  33.002  30.162  1.00  0.00     0.010 A 
ATOM     61  C   UNL A   1      46.210  33.493  27.827  1.00  0.00     0.010 A 
ATOM     62  C   UNL A   1      46.897  34.357  30.395  1.00  0.00     0.020 A 
ATOM     63  C   UNL A   1      46.504  34.840  28.047  1.00  0.00     0.020 A 
ATOM     64  C   UNL A   1      46.822  35.268  29.336  1.00  0.00     0.054 A 
BRANCH  64  65
ATOM     65  S   UNL A   1      47.158  37.019  29.668  1.00  0.00     0.124 S 
ATOM     66  O   UNL A   1      46.936  37.622  28.356  1.00  0.00    -0.237 OA
ATOM     67  O   UNL A   1      46.164  37.346  30.686  1.00  0.00    -0.237 OA
ATOM     68  O   UNL A   1      48.544  37.026  30.129  1.00  0.00    -0.744 OA
ENDBRANCH  64  65
ENDBRANCH  45  59
BRANCH  46  69
ATOM     69  C   UNL A   1      43.452  23.164  27.038  1.00  0.00    -0.014 A 
ATOM     70  C   UNL A   1      43.417  22.689  25.715  1.00  0.00     0.010 A 
ATOM     71  C   UNL A   1      43.083  22.289  28.079  1.00  0.00     0.010 A 
ATOM     72  C   UNL A   1      43.029  21.372  25.439  1.00  0.00     0.020 A 
ATOM     73  C   UNL A   1      42.726  20.963  27.812  1.00  0.00     0.020 A 
ATOM     74  C   UNL A   1      42.698  20.514  26.491  1.00  0.00     0.054 A 
BRANCH  74  75
ATOM     75  S   UNL A   1      42.286  18.786  26.114  1.00  0.00     0.124 S 
ATOM     76  O   UNL A   1      43.223  18.474  25.038  1.00  0.00    -0.237 OA
ATOM     77  O   UNL A   1      42.540  18.120  27.389  1.00  0.00    -0.237 OA
ATOM     78  O   UNL A   1      40.880  18.847  25.721  1.00  0.00    -0.744 OA
ENDBRANCH  74  75
ENDBRANCH  46  69
BRANCH  58  79
ATOM     79  C   UNL A   1      49.569  26.529  26.659  1.00  0.00    -0.014 A 
ATOM     80  C   UNL A   1      50.418  25.916  27.596  1.00  0.00     0.010 A 
ATOM     81  C   UNL A   1      50.014  26.676  25.331  1.00  0.00     0.010 A 
ATOM     82  C   UNL A   1      51.696  25.487  27.220  1.00  0.00     0.020 A 
ATOM     83  C   UNL A   1      51.277  26.218  24.943  1.00  0.00     0.020 A 
ATOM     84  C   UNL A   1      52.116  25.640  25.894  1.00  0.00     0.054 A 
BRANCH  84  85
ATOM     85  S   UNL A   1      53.760  25.035  25.424  1.00  0.00     0.124 S 
ATOM     86  O   UNL A   1      54.571  25.432  26.572  1.00  0.00    -0.237 OA
ATOM     87  O   UNL A   1      53.541  23.599  25.275  1.00  0.00    -0.237 OA
ATOM     88  O   UNL A   1      54.051  25.748  24.182  1.00  0.00    -0.744 OA
ENDBRANCH  84  85
ENDBRANCH  58  79
ENDBRANCH  32  33
ENDBRANCH  25  27
ENDBRANCH  24  25
ENDBRANCH  23  24
ENDBRANCH   1  23
TORSDOF 18
ENDMDL
MODEL 3
REMARK VINA RESULT:     -10.6      1.272      8.405
REMARK SMILES CC[C@@](C)(NC(=O)Nc1ccccc1C#N)C(=O)OCCOC(=O)c1ccc(-c2c3nc(c(-c4ccc(S(=O)(=O)[O-])cc4)c4ccc([nH]4)c(-c4ccc(S(=O)(=O)[O-])cc4)c4nc(c(-c5ccc(S(=O)(=O)[O-])cc5)c5ccc2[nH]5)C=C4)C=C3)cc1
REMARK SMILES IDX 20 1 19 2 17 3 18 4 3 5 4 6 2 7 1 8 5 9 6 10 7 12 8 13 9 15
REMARK SMILES IDX 10 16 14 17 11 18 13 19 12 20 15 21 16 22 21 23 22 24 23 25
REMARK SMILES IDX 24 26 25 27 26 28 84 29 27 30 83 31 28 32 29 33 30 34 77 35
REMARK SMILES IDX 31 36 82 37 76 38 78 39 32 40 81 41 75 42 74 43 33 45 63 46
REMARK SMILES IDX 44 47 62 48 45 49 48 50 61 51 79 52 46 53 47 54 60 56 80 57
REMARK SMILES IDX 49 58 34 59 35 60 43 61 36 62 42 63 37 64 38 65 39 66 40 67
REMARK SMILES IDX 41 68 64 69 65 70 73 71 66 72 72 73 67 74 68 75 69 76 70 77
REMARK SMILES IDX 71 78 50 79 51 80 59 81 52 82 58 83 53 84 54 85 55 86 56 87
REMARK SMILES IDX 57 88
REMARK H PARENT 5 11 8 14 78 44 48 55
REMARK Flexibility Score: inf
ROOT
ATOM      1  C   UNL A   1      36.797  22.591  24.138  1.00  0.00     0.274 C 
ENDROOT
BRANCH   1   2
ATOM      2  O   UNL A   1      35.458  23.406  24.597  1.00  0.00    -0.460 OA
BRANCH   2   3
ATOM      3  C   UNL A   1      34.081  23.150  25.012  1.00  0.00     0.331 C 
ATOM      4  O   UNL A   1      33.605  22.028  25.190  1.00  0.00    -0.249 OA
BRANCH   3   5
ATOM      5  C   UNL A   1      33.067  24.369  24.919  1.00  0.00     0.136 C 
ATOM      6  C   UNL A   1      33.770  25.507  25.665  1.00  0.00     0.047 C 
BRANCH   5   7
ATOM      7  C   UNL A   1      32.261  25.055  23.753  1.00  0.00     0.037 C 
ATOM      8  C   UNL A   1      32.925  25.852  22.666  1.00  0.00     0.007 C 
ENDBRANCH   5   7
BRANCH   5   9
ATOM      9  N   UNL A   1      32.048  23.682  25.585  1.00  0.00    -0.322 N 
ATOM     10  C   UNL A   1      31.315  24.402  26.447  1.00  0.00     0.320 C 
ATOM     11  H   UNL A   1      31.878  22.724  25.430  1.00  0.00     0.166 HD
ATOM     12  O   UNL A   1      30.689  23.700  27.245  1.00  0.00    -0.248 OA
ATOM     13  N   UNL A   1      31.293  25.810  26.523  1.00  0.00    -0.307 N 
ATOM     14  H   UNL A   1      31.027  25.927  27.462  1.00  0.00     0.171 HD
BRANCH  13  15
ATOM     15  C   UNL A   1      31.408  27.238  26.107  1.00  0.00     0.060 A 
ATOM     16  C   UNL A   1      31.771  28.033  27.235  1.00  0.00     0.027 A 
ATOM     17  C   UNL A   1      31.104  28.051  24.972  1.00  0.00     0.076 A 
ATOM     18  C   UNL A   1      32.010  29.413  27.220  1.00  0.00     0.002 A 
ATOM     19  C   UNL A   1      31.510  29.416  24.915  1.00  0.00     0.021 A 
ATOM     20  C   UNL A   1      31.962  30.095  26.030  1.00  0.00     0.002 A 
BRANCH  17  21
ATOM     21  C   UNL A   1      30.088  27.877  23.940  1.00  0.00     0.101 C 
ATOM     22  N   UNL A   1      29.396  27.675  23.037  1.00  0.00    -0.192 NA
ENDBRANCH  17  21
ENDBRANCH  13  15
ENDBRANCH   5   9
ENDBRANCH   3   5
ENDBRANCH   2   3
ENDBRANCH   1   2
BRANCH   1  23
ATOM     23  C   UNL A   1      37.850  21.459  24.930  1.00  0.00     0.275 C 
BRANCH  23  24
ATOM     24  O   UNL A   1      38.481  21.706  26.302  1.00  0.00    -0.458 OA
BRANCH  24  25
ATOM     25  C   UNL A   1      39.843  21.928  26.526  1.00  0.00     0.338 C 
ATOM     26  O   UNL A   1      40.713  21.122  26.239  1.00  0.00    -0.246 OA
BRANCH  25  27
ATOM     27  C   UNL A   1      40.172  23.325  27.166  1.00  0.00     0.060 A 
ATOM     28  C   UNL A   1      39.445  24.506  26.902  1.00  0.00     0.016 A 
ATOM     29  C   UNL A   1      41.307  23.531  27.952  1.00  0.00     0.016 A 
ATOM     30  C   UNL A   1      39.728  25.783  27.412  1.00  0.00     0.010 A 
ATOM     31  C   UNL A   1      41.643  24.834  28.447  1.00  0.00     0.010 A 
ATOM     32  C   UNL A   1      40.863  25.981  28.171  1.00  0.00    -0.014 A 
BRANCH  32  33
ATOM     33  C   UNL A   1      41.339  27.383  28.416  1.00  0.00     0.031 A 
ATOM     34  C   UNL A   1      42.798  27.686  28.165  1.00  0.00     0.074 A 
ATOM     35  C   UNL A   1      40.529  28.413  28.747  1.00  0.00     0.049 A 
ATOM     36  N   UNL A   1      43.508  28.730  28.505  1.00  0.00    -0.248 NA
ATOM     37  C   UNL A   1      43.549  26.659  27.425  1.00  0.00     0.031 C 
ATOM     38  C   UNL A   1      39.069  28.367  28.839  1.00  0.00     0.029 A 
ATOM     39  N   UNL A   1      40.834  29.717  29.085  1.00  0.00    -0.354 N 
ATOM     40  C   UNL A   1      44.808  28.450  28.092  1.00  0.00     0.074 A 
ATOM     41  C   UNL A   1      44.781  27.143  27.473  1.00  0.00     0.031 C 
ATOM     42  C   UNL A   1      38.613  29.568  29.241  1.00  0.00     0.029 A 
ATOM     43  C   UNL A   1      39.746  30.453  29.506  1.00  0.00     0.049 A 
ATOM     44  H   UNL A   1      41.745  30.087  29.031  1.00  0.00     0.167 HD
ATOM     45  C   UNL A   1      45.927  29.202  28.231  1.00  0.00     0.031 A 
ATOM     46  C   UNL A   1      39.671  31.670  30.089  1.00  0.00     0.031 A 
ATOM     47  C   UNL A   1      45.948  30.513  28.829  1.00  0.00     0.049 A 
ATOM     48  C   UNL A   1      40.939  32.446  30.362  1.00  0.00     0.074 A 
ATOM     49  C   UNL A   1      47.032  31.347  29.036  1.00  0.00     0.029 A 
ATOM     50  N   UNL A   1      44.833  31.182  29.311  1.00  0.00    -0.354 N 
ATOM     51  N   UNL A   1      42.177  32.137  30.058  1.00  0.00    -0.248 NA
ATOM     52  C   UNL A   1      40.799  33.732  31.062  1.00  0.00     0.031 C 
ATOM     53  C   UNL A   1      46.584  32.488  29.709  1.00  0.00     0.029 A 
ATOM     54  C   UNL A   1      45.208  32.405  29.844  1.00  0.00     0.049 A 
ATOM     55  H   UNL A   1      43.911  30.838  29.280  1.00  0.00     0.167 HD
ATOM     56  C   UNL A   1      42.957  33.204  30.498  1.00  0.00     0.074 A 
ATOM     57  C   UNL A   1      42.051  34.172  31.080  1.00  0.00     0.031 C 
ATOM     58  C   UNL A   1      44.302  33.368  30.420  1.00  0.00     0.031 A 
BRANCH  45  59
ATOM     59  C   UNL A   1      47.237  28.583  27.810  1.00  0.00    -0.014 A 
ATOM     60  C   UNL A   1      47.772  28.763  26.522  1.00  0.00     0.010 A 
ATOM     61  C   UNL A   1      47.948  27.796  28.737  1.00  0.00     0.010 A 
ATOM     62  C   UNL A   1      48.958  28.122  26.152  1.00  0.00     0.020 A 
ATOM     63  C   UNL A   1      49.153  27.185  28.385  1.00  0.00     0.020 A 
ATOM     64  C   UNL A   1      49.639  27.333  27.085  1.00  0.00     0.054 A 
BRANCH  64  65
ATOM     65  S   UNL A   1      51.174  26.511  26.577  1.00  0.00     0.124 S 
ATOM     66  O   UNL A   1      50.704  25.625  25.515  1.00  0.00    -0.237 OA
ATOM     67  O   UNL A   1      52.004  27.630  26.140  1.00  0.00    -0.237 OA
ATOM     68  O   UNL A   1      51.628  25.839  27.792  1.00  0.00    -0.744 OA
ENDBRANCH  64  65
ENDBRANCH  45  59
BRANCH  46  69
ATOM     69  C   UNL A   1      38.349  32.219  30.522  1.00  0.00    -0.014 A 
ATOM     70  C   UNL A   1      37.838  31.949  31.805  1.00  0.00     0.010 A 
ATOM     71  C   UNL A   1      37.584  33.012  29.644  1.00  0.00     0.010 A 
ATOM     72  C   UNL A   1      36.598  32.464  32.202  1.00  0.00     0.020 A 
ATOM     73  C   UNL A   1      36.359  33.556  30.048  1.00  0.00     0.020 A 
ATOM     74  C   UNL A   1      35.873  33.275  31.325  1.00  0.00     0.054 A 
BRANCH  74  75
ATOM     75  S   UNL A   1      34.311  34.004  31.897  1.00  0.00     0.124 S 
ATOM     76  O   UNL A   1      33.689  34.420  30.643  1.00  0.00    -0.237 OA
ATOM     77  O   UNL A   1      33.674  32.881  32.579  1.00  0.00    -0.237 OA
ATOM     78  O   UNL A   1      34.742  35.092  32.773  1.00  0.00    -0.744 OA
ENDBRANCH  74  75
ENDBRANCH  46  69
BRANCH  58  79
ATOM     79  C   UNL A   1      44.886  34.667  30.921  1.00  0.00    -0.014 A 
ATOM     80  C   UNL A   1      45.361  34.809  32.236  1.00  0.00     0.010 A 
ATOM     81  C   UNL A   1      45.017  35.750  30.030  1.00  0.00     0.010 A 
ATOM     82  C   UNL A   1      45.927  36.016  32.659  1.00  0.00     0.020 A 
ATOM     83  C   UNL A   1      45.613  36.946  30.438  1.00  0.00     0.020 A 
ATOM     84  C   UNL A   1      46.051  37.077  31.756  1.00  0.00     0.054 A 
BRANCH  84  85
ATOM     85  S   UNL A   1      46.829  38.616  32.318  1.00  0.00     0.124 S 
ATOM     86  O   UNL A   1      45.813  39.162  33.214  1.00  0.00    -0.237 OA
ATOM     87  O   UNL A   1      48.048  38.140  32.966  1.00  0.00    -0.237 OA
ATOM     88  O   UNL A   1      47.039  39.371  31.084  1.00  0.00    -0.744 OA
ENDBRANCH  84  85
ENDBRANCH  58  79
ENDBRANCH  32  33
ENDBRANCH  25  27
ENDBRANCH  24  25
ENDBRANCH  23  24
ENDBRANCH   1  23
TORSDOF 18
ENDMDL
