MODEL 1
REMARK VINA RESULT:     -10.7      0.000      0.000
REMARK SMILES C[NH2+][C@]1(C(=O)OCCOC(=O)c2ccc(-c3c4nc(c(-c5ccc(S(=O)(=O)[O-])cc5)c5ccc([nH]5)c(-c5ccc(S(=O)(=O)[O-])cc5)c5nc(c(-c6ccc(S(=O)(=O)[O-])cc6)c6ccc3[nH]6)C=C5)C=C4)cc2)CCC[C@H](Oc2ccc(C)cc2)C1
REMARK SMILES IDX 8 1 7 2 6 3 4 4 5 5 3 6 72 7 84 8 73 9 75 10 74 11 2 12 1 13
REMARK SMILES IDX 76 16 77 17 78 18 83 19 79 20 82 21 80 22 81 23 9 24 10 25
REMARK SMILES IDX 11 26 12 27 13 28 71 29 14 30 70 31 15 32 16 33 17 34 64 35
REMARK SMILES IDX 18 36 69 37 63 38 65 39 19 40 68 41 62 42 61 43 20 45 50 46
REMARK SMILES IDX 31 47 49 48 32 49 35 50 48 51 66 52 33 53 34 54 47 56 67 57
REMARK SMILES IDX 36 58 21 59 22 60 30 61 23 62 29 63 24 64 25 65 26 66 27 67
REMARK SMILES IDX 28 68 51 69 52 70 60 71 53 72 59 73 54 74 55 75 56 76 57 77
REMARK SMILES IDX 58 78 37 79 38 80 46 81 39 82 45 83 40 84 41 85 42 86 43 87
REMARK SMILES IDX 44 88
REMARK H PARENT 2 14 2 15 65 44 35 55
REMARK Flexibility Score: inf
ROOT
ATOM      1  C   UNL A   1      32.761  29.280  26.011  1.00  0.00     0.275 C 
ENDROOT
BRANCH   1   2
ATOM      2  C   UNL A   1      31.689  28.282  26.441  1.00  0.00     0.274 C 
BRANCH   2   3
ATOM      3  O   UNL A   1      31.654  27.206  25.482  1.00  0.00    -0.457 OA
BRANCH   3   4
ATOM      4  C   UNL A   1      31.369  25.955  25.946  1.00  0.00     0.368 C 
ATOM      5  O   UNL A   1      30.396  25.690  26.643  1.00  0.00    -0.245 OA
BRANCH   4   6
ATOM      6  C   UNL A   1      32.442  24.908  25.508  1.00  0.00     0.197 C 
ATOM      7  C   UNL A   1      33.863  25.543  25.559  1.00  0.00     0.081 C 
ATOM      8  C   UNL A   1      32.411  23.724  26.515  1.00  0.00     0.126 C 
ATOM      9  C   UNL A   1      35.013  24.548  25.404  1.00  0.00     0.011 C 
ATOM     10  C   UNL A   1      33.521  22.682  26.265  1.00  0.00     0.180 C 
ATOM     11  C   UNL A   1      34.881  23.382  26.380  1.00  0.00     0.046 C 
BRANCH   6  12
ATOM     12  N   UNL A   1      32.206  24.482  24.096  1.00  0.00    -0.334 N 
ATOM     13  C   UNL A   1      30.823  24.147  23.758  1.00  0.00     0.331 C 
ATOM     14  H   UNL A   1      32.503  25.243  23.486  1.00  0.00     0.347 HD
ATOM     15  H   UNL A   1      32.739  23.621  23.973  1.00  0.00     0.347 HD
ENDBRANCH   6  12
BRANCH  10  16
ATOM     16  O   UNL A   1      33.288  22.148  24.959  1.00  0.00    -0.490 OA
BRANCH  16  17
ATOM     17  C   UNL A   1      33.496  20.835  24.676  1.00  0.00     0.119 A 
ATOM     18  C   UNL A   1      34.642  20.105  24.968  1.00  0.00     0.047 A 
ATOM     19  C   UNL A   1      32.419  20.208  24.043  1.00  0.00     0.047 A 
ATOM     20  C   UNL A   1      34.722  18.761  24.589  1.00  0.00     0.007 A 
ATOM     21  C   UNL A   1      32.497  18.869  23.665  1.00  0.00     0.007 A 
ATOM     22  C   UNL A   1      33.654  18.133  23.933  1.00  0.00    -0.051 A 
ATOM     23  C   UNL A   1      33.762  16.701  23.508  1.00  0.00     0.044 C 
ENDBRANCH  16  17
ENDBRANCH  10  16
ENDBRANCH   4   6
ENDBRANCH   3   4
ENDBRANCH   2   3
ENDBRANCH   1   2
BRANCH   1  24
ATOM     24  O   UNL A   1      33.899  29.097  26.869  1.00  0.00    -0.458 OA
BRANCH  24  25
ATOM     25  C   UNL A   1      34.289  30.173  27.586  1.00  0.00     0.338 C 
ATOM     26  O   UNL A   1      33.626  31.152  27.892  1.00  0.00    -0.246 OA
BRANCH  25  27
ATOM     27  C   UNL A   1      35.667  29.932  28.027  1.00  0.00     0.060 A 
ATOM     28  C   UNL A   1      36.686  30.061  27.084  1.00  0.00     0.016 A 
ATOM     29  C   UNL A   1      35.958  29.543  29.332  1.00  0.00     0.016 A 
ATOM     30  C   UNL A   1      38.008  29.804  27.435  1.00  0.00     0.010 A 
ATOM     31  C   UNL A   1      37.291  29.305  29.692  1.00  0.00     0.010 A 
ATOM     32  C   UNL A   1      38.325  29.425  28.743  1.00  0.00    -0.014 A 
BRANCH  32  33
ATOM     33  C   UNL A   1      39.722  29.053  29.086  1.00  0.00     0.031 A 
ATOM     34  C   UNL A   1      40.597  30.056  29.783  1.00  0.00     0.074 A 
ATOM     35  C   UNL A   1      40.197  27.820  28.827  1.00  0.00     0.049 A 
ATOM     36  N   UNL A   1      41.875  29.994  30.052  1.00  0.00    -0.248 NA
ATOM     37  C   UNL A   1      39.941  31.290  30.243  1.00  0.00     0.031 C 
ATOM     38  C   UNL A   1      39.428  26.715  28.254  1.00  0.00     0.029 A 
ATOM     39  N   UNL A   1      41.451  27.289  29.019  1.00  0.00    -0.354 N 
ATOM     40  C   UNL A   1      42.185  31.191  30.686  1.00  0.00     0.074 A 
ATOM     41  C   UNL A   1      40.960  31.961  30.759  1.00  0.00     0.031 C 
ATOM     42  C   UNL A   1      40.225  25.638  28.143  1.00  0.00     0.029 A 
ATOM     43  C   UNL A   1      41.575  25.993  28.578  1.00  0.00     0.049 A 
ATOM     44  H   UNL A   1      42.190  27.790  29.433  1.00  0.00     0.167 HD
ATOM     45  C   UNL A   1      43.381  31.614  31.158  1.00  0.00     0.031 A 
ATOM     46  C   UNL A   1      42.659  25.196  28.493  1.00  0.00     0.031 A 
ATOM     47  C   UNL A   1      44.598  30.850  31.084  1.00  0.00     0.049 A 
ATOM     48  C   UNL A   1      44.001  25.725  28.928  1.00  0.00     0.074 A 
ATOM     49  C   UNL A   1      45.868  31.213  31.496  1.00  0.00     0.029 A 
ATOM     50  N   UNL A   1      44.694  29.567  30.570  1.00  0.00    -0.354 N 
ATOM     51  N   UNL A   1      44.296  26.888  29.460  1.00  0.00    -0.248 NA
ATOM     52  C   UNL A   1      45.160  24.841  28.735  1.00  0.00     0.031 C 
ATOM     53  C   UNL A   1      46.742  30.163  31.191  1.00  0.00     0.029 A 
ATOM     54  C   UNL A   1      46.005  29.128  30.637  1.00  0.00     0.049 A 
ATOM     55  H   UNL A   1      43.942  29.045  30.209  1.00  0.00     0.167 HD
ATOM     56  C   UNL A   1      45.670  26.868  29.678  1.00  0.00     0.074 A 
ATOM     57  C   UNL A   1      46.146  25.573  29.237  1.00  0.00     0.031 C 
ATOM     58  C   UNL A   1      46.466  27.837  30.195  1.00  0.00     0.031 A 
BRANCH  45  59
ATOM     59  C   UNL A   1      43.436  33.000  31.739  1.00  0.00    -0.014 A 
ATOM     60  C   UNL A   1      43.615  34.130  30.921  1.00  0.00     0.010 A 
ATOM     61  C   UNL A   1      43.298  33.171  33.128  1.00  0.00     0.010 A 
ATOM     62  C   UNL A   1      43.697  35.404  31.489  1.00  0.00     0.020 A 
ATOM     63  C   UNL A   1      43.358  34.445  33.697  1.00  0.00     0.020 A 
ATOM     64  C   UNL A   1      43.577  35.553  32.875  1.00  0.00     0.054 A 
BRANCH  64  65
ATOM     65  S   UNL A   1      43.689  37.216  33.590  1.00  0.00     0.124 S 
ATOM     66  O   UNL A   1      44.951  37.143  34.323  1.00  0.00    -0.237 OA
ATOM     67  O   UNL A   1      43.697  38.075  32.409  1.00  0.00    -0.237 OA
ATOM     68  O   UNL A   1      42.491  37.316  34.422  1.00  0.00    -0.744 OA
ENDBRANCH  64  65
ENDBRANCH  45  59
BRANCH  46  69
ATOM     69  C   UNL A   1      42.539  23.830  27.909  1.00  0.00    -0.014 A 
ATOM     70  C   UNL A   1      42.374  22.705  28.735  1.00  0.00     0.010 A 
ATOM     71  C   UNL A   1      42.601  23.650  26.514  1.00  0.00     0.010 A 
ATOM     72  C   UNL A   1      42.287  21.424  28.178  1.00  0.00     0.020 A 
ATOM     73  C   UNL A   1      42.487  22.376  25.953  1.00  0.00     0.020 A 
ATOM     74  C   UNL A   1      42.343  21.269  26.790  1.00  0.00     0.054 A 
BRANCH  74  75
ATOM     75  S   UNL A   1      42.180  19.606  26.082  1.00  0.00     0.124 S 
ATOM     76  O   UNL A   1      40.755  19.548  25.769  1.00  0.00    -0.237 OA
ATOM     77  O   UNL A   1      43.079  19.660  24.932  1.00  0.00    -0.237 OA
ATOM     78  O   UNL A   1      42.620  18.730  27.165  1.00  0.00    -0.744 OA
ENDBRANCH  74  75
ENDBRANCH  46  69
BRANCH  58  79
ATOM     79  C   UNL A   1      47.932  27.528  30.340  1.00  0.00    -0.014 A 
ATOM     80  C   UNL A   1      48.435  26.919  31.503  1.00  0.00     0.010 A 
ATOM     81  C   UNL A   1      48.807  27.796  29.271  1.00  0.00     0.010 A 
ATOM     82  C   UNL A   1      49.793  26.604  31.603  1.00  0.00     0.020 A 
ATOM     83  C   UNL A   1      50.161  27.461  29.359  1.00  0.00     0.020 A 
ATOM     84  C   UNL A   1      50.648  26.879  30.531  1.00  0.00     0.054 A 
BRANCH  84  85
ATOM     85  S   UNL A   1      52.398  26.415  30.662  1.00  0.00     0.124 S 
ATOM     86  O   UNL A   1      52.776  26.254  29.261  1.00  0.00    -0.237 OA
ATOM     87  O   UNL A   1      52.987  27.567  31.343  1.00  0.00    -0.237 OA
ATOM     88  O   UNL A   1      52.372  25.183  31.447  1.00  0.00    -0.744 OA
ENDBRANCH  84  85
ENDBRANCH  58  79
ENDBRANCH  32  33
ENDBRANCH  25  27
ENDBRANCH  24  25
ENDBRANCH   1  24
TORSDOF 17
ENDMDL
MODEL 2
REMARK VINA RESULT:     -10.3      3.134      9.676
REMARK SMILES C[NH2+][C@]1(C(=O)OCCOC(=O)c2ccc(-c3c4nc(c(-c5ccc(S(=O)(=O)[O-])cc5)c5ccc([nH]5)c(-c5ccc(S(=O)(=O)[O-])cc5)c5nc(c(-c6ccc(S(=O)(=O)[O-])cc6)c6ccc3[nH]6)C=C5)C=C4)cc2)CCC[C@H](Oc2ccc(C)cc2)C1
REMARK SMILES IDX 8 1 7 2 6 3 4 4 5 5 3 6 72 7 84 8 73 9 75 10 74 11 2 12 1 13
REMARK SMILES IDX 76 16 77 17 78 18 83 19 79 20 82 21 80 22 81 23 9 24 10 25
REMARK SMILES IDX 11 26 12 27 13 28 71 29 14 30 70 31 15 32 16 33 17 34 64 35
REMARK SMILES IDX 18 36 69 37 63 38 65 39 19 40 68 41 62 42 61 43 20 45 50 46
REMARK SMILES IDX 31 47 49 48 32 49 35 50 48 51 66 52 33 53 34 54 47 56 67 57
REMARK SMILES IDX 36 58 21 59 22 60 30 61 23 62 29 63 24 64 25 65 26 66 27 67
REMARK SMILES IDX 28 68 51 69 52 70 60 71 53 72 59 73 54 74 55 75 56 76 57 77
REMARK SMILES IDX 58 78 37 79 38 80 46 81 39 82 45 83 40 84 41 85 42 86 43 87
REMARK SMILES IDX 44 88
REMARK H PARENT 2 14 2 15 65 44 35 55
REMARK Flexibility Score: inf
ROOT
ATOM      1  C   UNL A   1      36.428  23.616  25.613  1.00  0.00     0.275 C 
ENDROOT
BRANCH   1   2
ATOM      2  C   UNL A   1      35.755  22.358  25.071  1.00  0.00     0.274 C 
BRANCH   2   3
ATOM      3  O   UNL A   1      34.379  22.667  24.773  1.00  0.00    -0.457 OA
BRANCH   3   4
ATOM      4  C   UNL A   1      34.137  23.636  23.843  1.00  0.00     0.368 C 
ATOM      5  O   UNL A   1      34.738  23.729  22.779  1.00  0.00    -0.245 OA
BRANCH   4   6
ATOM      6  C   UNL A   1      33.022  24.628  24.307  1.00  0.00     0.197 C 
ATOM      7  C   UNL A   1      32.685  24.392  25.810  1.00  0.00     0.081 C 
ATOM      8  C   UNL A   1      33.565  26.078  24.161  1.00  0.00     0.126 C 
ATOM      9  C   UNL A   1      31.802  25.468  26.442  1.00  0.00     0.011 C 
ATOM     10  C   UNL A   1      32.601  27.149  24.715  1.00  0.00     0.180 C 
ATOM     11  C   UNL A   1      32.364  26.866  26.204  1.00  0.00     0.046 C 
BRANCH   6  12
ATOM     12  N   UNL A   1      31.765  24.394  23.537  1.00  0.00    -0.334 N 
ATOM     13  C   UNL A   1      31.250  23.025  23.565  1.00  0.00     0.331 C 
ATOM     14  H   UNL A   1      31.045  25.008  23.918  1.00  0.00     0.347 HD
ATOM     15  H   UNL A   1      31.996  24.584  22.561  1.00  0.00     0.347 HD
ENDBRANCH   6  12
BRANCH  10  16
ATOM     16  O   UNL A   1      31.403  27.053  23.940  1.00  0.00    -0.490 OA
BRANCH  16  17
ATOM     17  C   UNL A   1      30.586  28.122  23.753  1.00  0.00     0.119 A 
ATOM     18  C   UNL A   1      30.860  29.436  24.113  1.00  0.00     0.047 A 
ATOM     19  C   UNL A   1      29.375  27.815  23.127  1.00  0.00     0.047 A 
ATOM     20  C   UNL A   1      29.905  30.432  23.881  1.00  0.00     0.007 A 
ATOM     21  C   UNL A   1      28.422  28.805  22.895  1.00  0.00     0.007 A 
ATOM     22  C   UNL A   1      28.679  30.125  23.273  1.00  0.00    -0.051 A 
ATOM     23  C   UNL A   1      27.653  31.195  23.054  1.00  0.00     0.044 C 
ENDBRANCH  16  17
ENDBRANCH  10  16
ENDBRANCH   4   6
ENDBRANCH   3   4
ENDBRANCH   2   3
ENDBRANCH   1   2
BRANCH   1  24
ATOM     24  O   UNL A   1      37.744  23.690  25.041  1.00  0.00    -0.458 OA
BRANCH  24  25
ATOM     25  C   UNL A   1      38.754  23.199  25.792  1.00  0.00     0.338 C 
ATOM     26  O   UNL A   1      39.239  22.079  25.757  1.00  0.00    -0.246 OA
BRANCH  25  27
ATOM     27  C   UNL A   1      39.250  24.294  26.633  1.00  0.00     0.060 A 
ATOM     28  C   UNL A   1      38.863  24.314  27.973  1.00  0.00     0.016 A 
ATOM     29  C   UNL A   1      40.045  25.311  26.113  1.00  0.00     0.016 A 
ATOM     30  C   UNL A   1      39.269  25.351  28.808  1.00  0.00     0.010 A 
ATOM     31  C   UNL A   1      40.472  26.344  26.958  1.00  0.00     0.010 A 
ATOM     32  C   UNL A   1      40.079  26.376  28.310  1.00  0.00    -0.014 A 
BRANCH  32  33
ATOM     33  C   UNL A   1      40.424  27.532  29.177  1.00  0.00     0.031 A 
ATOM     34  C   UNL A   1      41.709  27.506  29.954  1.00  0.00     0.074 A 
ATOM     35  C   UNL A   1      39.629  28.617  29.239  1.00  0.00     0.049 A 
ATOM     36  N   UNL A   1      42.141  28.337  30.867  1.00  0.00    -0.248 NA
ATOM     37  C   UNL A   1      42.634  26.401  29.656  1.00  0.00     0.031 C 
ATOM     38  C   UNL A   1      38.409  28.823  28.459  1.00  0.00     0.029 A 
ATOM     39  N   UNL A   1      39.737  29.759  29.998  1.00  0.00    -0.354 N 
ATOM     40  C   UNL A   1      43.372  27.839  31.276  1.00  0.00     0.074 A 
ATOM     41  C   UNL A   1      43.618  26.634  30.512  1.00  0.00     0.031 C 
ATOM     42  C   UNL A   1      37.882  30.019  28.776  1.00  0.00     0.029 A 
ATOM     43  C   UNL A   1      38.691  30.635  29.827  1.00  0.00     0.049 A 
ATOM     44  H   UNL A   1      40.491  29.932  30.606  1.00  0.00     0.167 HD
ATOM     45  C   UNL A   1      44.220  28.337  32.208  1.00  0.00     0.031 A 
ATOM     46  C   UNL A   1      38.395  31.782  30.471  1.00  0.00     0.031 A 
ATOM     47  C   UNL A   1      43.976  29.533  32.968  1.00  0.00     0.049 A 
ATOM     48  C   UNL A   1      39.298  32.263  31.577  1.00  0.00     0.074 A 
ATOM     49  C   UNL A   1      44.755  30.093  33.966  1.00  0.00     0.029 A 
ATOM     50  N   UNL A   1      42.873  30.357  32.811  1.00  0.00    -0.354 N 
ATOM     51  N   UNL A   1      40.425  31.745  32.005  1.00  0.00    -0.248 NA
ATOM     52  C   UNL A   1      38.881  33.474  32.298  1.00  0.00     0.031 C 
ATOM     53  C   UNL A   1      44.101  31.235  34.441  1.00  0.00     0.029 A 
ATOM     54  C   UNL A   1      42.940  31.413  33.705  1.00  0.00     0.049 A 
ATOM     55  H   UNL A   1      42.148  30.214  32.161  1.00  0.00     0.167 HD
ATOM     56  C   UNL A   1      40.857  32.575  33.035  1.00  0.00     0.074 A 
ATOM     57  C   UNL A   1      39.881  33.638  33.154  1.00  0.00     0.031 C 
ATOM     58  C   UNL A   1      41.962  32.465  33.813  1.00  0.00     0.031 A 
BRANCH  45  59
ATOM     59  C   UNL A   1      45.462  27.541  32.497  1.00  0.00    -0.014 A 
ATOM     60  C   UNL A   1      46.675  27.812  31.840  1.00  0.00     0.010 A 
ATOM     61  C   UNL A   1      45.412  26.507  33.450  1.00  0.00     0.010 A 
ATOM     62  C   UNL A   1      47.806  27.033  32.101  1.00  0.00     0.020 A 
ATOM     63  C   UNL A   1      46.546  25.742  33.730  1.00  0.00     0.020 A 
ATOM     64  C   UNL A   1      47.732  25.997  33.038  1.00  0.00     0.054 A 
BRANCH  64  65
ATOM     65  S   UNL A   1      49.212  24.999  33.359  1.00  0.00     0.124 S 
ATOM     66  O   UNL A   1      48.644  23.819  34.005  1.00  0.00    -0.237 OA
ATOM     67  O   UNL A   1      49.753  24.784  32.020  1.00  0.00    -0.237 OA
ATOM     68  O   UNL A   1      50.023  25.853  34.225  1.00  0.00    -0.744 OA
ENDBRANCH  64  65
ENDBRANCH  45  59
BRANCH  46  69
ATOM     69  C   UNL A   1      37.148  32.526  30.136  1.00  0.00    -0.014 A 
ATOM     70  C   UNL A   1      35.948  32.270  30.822  1.00  0.00     0.010 A 
ATOM     71  C   UNL A   1      37.156  33.493  29.112  1.00  0.00     0.010 A 
ATOM     72  C   UNL A   1      34.777  32.957  30.483  1.00  0.00     0.020 A 
ATOM     73  C   UNL A   1      35.996  34.200  28.789  1.00  0.00     0.020 A 
ATOM     74  C   UNL A   1      34.810  33.919  29.468  1.00  0.00     0.054 A 
BRANCH  74  75
ATOM     75  S   UNL A   1      33.294  34.835  29.074  1.00  0.00     0.124 S 
ATOM     76  O   UNL A   1      33.825  36.080  28.528  1.00  0.00    -0.237 OA
ATOM     77  O   UNL A   1      32.630  33.956  28.115  1.00  0.00    -0.237 OA
ATOM     78  O   UNL A   1      32.621  34.953  30.366  1.00  0.00    -0.744 OA
ENDBRANCH  74  75
ENDBRANCH  46  69
BRANCH  58  79
ATOM     79  C   UNL A   1      42.194  33.534  34.847  1.00  0.00    -0.014 A 
ATOM     80  C   UNL A   1      42.757  34.773  34.497  1.00  0.00     0.010 A 
ATOM     81  C   UNL A   1      41.784  33.316  36.175  1.00  0.00     0.010 A 
ATOM     82  C   UNL A   1      42.929  35.768  35.464  1.00  0.00     0.020 A 
ATOM     83  C   UNL A   1      41.933  34.316  37.139  1.00  0.00     0.020 A 
ATOM     84  C   UNL A   1      42.517  35.533  36.780  1.00  0.00     0.054 A 
BRANCH  84  85
ATOM     85  S   UNL A   1      42.702  36.857  38.007  1.00  0.00     0.124 S 
ATOM     86  O   UNL A   1      43.475  36.194  39.054  1.00  0.00    -0.237 OA
ATOM     87  O   UNL A   1      43.414  37.892  37.261  1.00  0.00    -0.237 OA
ATOM     88  O   UNL A   1      41.326  37.192  38.366  1.00  0.00    -0.744 OA
ENDBRANCH  84  85
ENDBRANCH  58  79
ENDBRANCH  32  33
ENDBRANCH  25  27
ENDBRANCH  24  25
ENDBRANCH   1  24
TORSDOF 17
ENDMDL
MODEL 3
REMARK VINA RESULT:     -10.2      3.815     10.831
REMARK SMILES C[NH2+][C@]1(C(=O)OCCOC(=O)c2ccc(-c3c4nc(c(-c5ccc(S(=O)(=O)[O-])cc5)c5ccc([nH]5)c(-c5ccc(S(=O)(=O)[O-])cc5)c5nc(c(-c6ccc(S(=O)(=O)[O-])cc6)c6ccc3[nH]6)C=C5)C=C4)cc2)CCC[C@H](Oc2ccc(C)cc2)C1
REMARK SMILES IDX 8 1 7 2 6 3 4 4 5 5 3 6 72 7 84 8 73 9 75 10 74 11 2 12 1 13
REMARK SMILES IDX 76 16 77 17 78 18 83 19 79 20 82 21 80 22 81 23 9 24 10 25
REMARK SMILES IDX 11 26 12 27 13 28 71 29 14 30 70 31 15 32 16 33 17 34 64 35
REMARK SMILES IDX 18 36 69 37 63 38 65 39 19 40 68 41 62 42 61 43 20 45 50 46
REMARK SMILES IDX 31 47 49 48 32 49 35 50 48 51 66 52 33 53 34 54 47 56 67 57
REMARK SMILES IDX 36 58 21 59 22 60 30 61 23 62 29 63 24 64 25 65 26 66 27 67
REMARK SMILES IDX 28 68 51 69 52 70 60 71 53 72 59 73 54 74 55 75 56 76 57 77
REMARK SMILES IDX 58 78 37 79 38 80 46 81 39 82 45 83 40 84 41 85 42 86 43 87
REMARK SMILES IDX 44 88
REMARK H PARENT 2 14 2 15 65 44 35 55
REMARK Flexibility Score: inf
ROOT
ATOM      1  C   UNL A   1      38.906  20.911  25.772  1.00  0.00     0.275 C 
ENDROOT
BRANCH   1   2
ATOM      2  C   UNL A   1      40.021  19.897  26.014  1.00  0.00     0.274 C 
BRANCH   2   3
ATOM      3  O   UNL A   1      41.272  20.487  25.609  1.00  0.00    -0.457 OA
BRANCH   3   4
ATOM      4  C   UNL A   1      42.306  20.448  26.498  1.00  0.00     0.368 C 
ATOM      5  O   UNL A   1      42.412  19.609  27.387  1.00  0.00    -0.245 OA
BRANCH   4   6
ATOM      6  C   UNL A   1      43.322  21.611  26.268  1.00  0.00     0.197 C 
ATOM      7  C   UNL A   1      44.599  21.075  25.553  1.00  0.00     0.081 C 
ATOM      8  C   UNL A   1      42.659  22.665  25.337  1.00  0.00     0.126 C 
ATOM      9  C   UNL A   1      45.547  22.160  25.045  1.00  0.00     0.011 C 
ATOM     10  C   UNL A   1      43.616  23.804  24.927  1.00  0.00     0.180 C 
ATOM     11  C   UNL A   1      44.815  23.192  24.191  1.00  0.00     0.046 C 
BRANCH   6  12
ATOM     12  N   UNL A   1      43.764  22.182  27.576  1.00  0.00    -0.334 N 
ATOM     13  C   UNL A   1      42.697  22.698  28.434  1.00  0.00     0.331 C 
ATOM     14  H   UNL A   1      44.252  21.448  28.089  1.00  0.00     0.347 HD
ATOM     15  H   UNL A   1      44.349  22.985  27.346  1.00  0.00     0.347 HD
ENDBRANCH   6  12
BRANCH  10  16
ATOM     16  O   UNL A   1      43.994  24.469  26.134  1.00  0.00    -0.490 OA
BRANCH  16  17
ATOM     17  C   UNL A   1      44.842  25.530  26.131  1.00  0.00     0.119 A 
ATOM     18  C   UNL A   1      44.652  26.729  25.453  1.00  0.00     0.047 A 
ATOM     19  C   UNL A   1      45.990  25.349  26.907  1.00  0.00     0.047 A 
ATOM     20  C   UNL A   1      45.631  27.727  25.521  1.00  0.00     0.007 A 
ATOM     21  C   UNL A   1      46.967  26.342  26.976  1.00  0.00     0.007 A 
ATOM     22  C   UNL A   1      46.795  27.540  26.280  1.00  0.00    -0.051 A 
ATOM     23  C   UNL A   1      47.849  28.605  26.324  1.00  0.00     0.044 C 
ENDBRANCH  16  17
ENDBRANCH  10  16
ENDBRANCH   4   6
ENDBRANCH   3   4
ENDBRANCH   2   3
ENDBRANCH   1   2
BRANCH   1  24
ATOM     24  O   UNL A   1      39.299  22.150  26.385  1.00  0.00    -0.458 OA
BRANCH  24  25
ATOM     25  C   UNL A   1      38.529  23.226  26.114  1.00  0.00     0.338 C 
ATOM     26  O   UNL A   1      37.475  23.259  25.498  1.00  0.00    -0.246 OA
BRANCH  25  27
ATOM     27  C   UNL A   1      39.144  24.384  26.772  1.00  0.00     0.060 A 
ATOM     28  C   UNL A   1      38.808  24.632  28.102  1.00  0.00     0.016 A 
ATOM     29  C   UNL A   1      40.002  25.242  26.089  1.00  0.00     0.016 A 
ATOM     30  C   UNL A   1      39.328  25.740  28.766  1.00  0.00     0.010 A 
ATOM     31  C   UNL A   1      40.543  26.345  26.762  1.00  0.00     0.010 A 
ATOM     32  C   UNL A   1      40.202  26.608  28.103  1.00  0.00    -0.014 A 
BRANCH  32  33
ATOM     33  C   UNL A   1      40.672  27.842  28.782  1.00  0.00     0.031 A 
ATOM     34  C   UNL A   1      42.091  27.914  29.271  1.00  0.00     0.074 A 
ATOM     35  C   UNL A   1      39.864  28.910  28.921  1.00  0.00     0.049 A 
ATOM     36  N   UNL A   1      42.669  28.831  30.002  1.00  0.00    -0.248 NA
ATOM     37  C   UNL A   1      42.978  26.808  28.875  1.00  0.00     0.031 C 
ATOM     38  C   UNL A   1      38.502  29.020  28.400  1.00  0.00     0.029 A 
ATOM     39  N   UNL A   1      40.081  30.117  29.545  1.00  0.00    -0.354 N 
ATOM     40  C   UNL A   1      43.978  28.400  30.181  1.00  0.00     0.074 A 
ATOM     41  C   UNL A   1      44.108  27.138  29.483  1.00  0.00     0.031 C 
ATOM     42  C   UNL A   1      38.005  30.227  28.724  1.00  0.00     0.029 A 
ATOM     43  C   UNL A   1      38.988  30.951  29.527  1.00  0.00     0.049 A 
ATOM     44  H   UNL A   1      40.938  30.360  29.965  1.00  0.00     0.167 HD
ATOM     45  C   UNL A   1      44.979  28.997  30.871  1.00  0.00     0.031 A 
ATOM     46  C   UNL A   1      38.786  32.143  30.124  1.00  0.00     0.031 A 
ATOM     47  C   UNL A   1      44.851  30.249  31.566  1.00  0.00     0.049 A 
ATOM     48  C   UNL A   1      39.878  32.739  30.972  1.00  0.00     0.074 A 
ATOM     49  C   UNL A   1      45.796  30.912  32.328  1.00  0.00     0.029 A 
ATOM     50  N   UNL A   1      43.707  31.031  31.578  1.00  0.00    -0.354 N 
ATOM     51  N   UNL A   1      41.090  32.287  31.194  1.00  0.00    -0.248 NA
ATOM     52  C   UNL A   1      39.571  33.999  31.665  1.00  0.00     0.031 C 
ATOM     53  C   UNL A   1      45.209  32.076  32.837  1.00  0.00     0.029 A 
ATOM     54  C   UNL A   1      43.915  32.162  32.349  1.00  0.00     0.049 A 
ATOM     55  H   UNL A   1      42.869  30.814  31.108  1.00  0.00     0.167 HD
ATOM     56  C   UNL A   1      41.692  33.213  32.040  1.00  0.00     0.074 A 
ATOM     57  C   UNL A   1      40.720  34.260  32.275  1.00  0.00     0.031 C 
ATOM     58  C   UNL A   1      42.938  33.197  32.575  1.00  0.00     0.031 A 
BRANCH  45  59
ATOM     59  C   UNL A   1      46.286  28.257  30.956  1.00  0.00    -0.014 A 
ATOM     60  C   UNL A   1      46.522  27.302  31.959  1.00  0.00     0.010 A 
ATOM     61  C   UNL A   1      47.291  28.523  30.008  1.00  0.00     0.010 A 
ATOM     62  C   UNL A   1      47.759  26.654  32.038  1.00  0.00     0.020 A 
ATOM     63  C   UNL A   1      48.519  27.862  30.070  1.00  0.00     0.020 A 
ATOM     64  C   UNL A   1      48.752  26.945  31.097  1.00  0.00     0.054 A 
BRANCH  64  65
ATOM     65  S   UNL A   1      50.349  26.093  31.220  1.00  0.00     0.124 S 
ATOM     66  O   UNL A   1      51.128  27.030  32.027  1.00  0.00    -0.237 OA
ATOM     67  O   UNL A   1      49.997  24.838  31.878  1.00  0.00    -0.237 OA
ATOM     68  O   UNL A   1      50.779  25.964  29.829  1.00  0.00    -0.744 OA
ENDBRANCH  64  65
ENDBRANCH  45  59
BRANCH  46  69
ATOM     69  C   UNL A   1      37.468  32.826  29.999  1.00  0.00    -0.014 A 
ATOM     70  C   UNL A   1      37.117  33.509  28.821  1.00  0.00     0.010 A 
ATOM     71  C   UNL A   1      36.557  32.806  31.073  1.00  0.00     0.010 A 
ATOM     72  C   UNL A   1      35.887  34.169  28.723  1.00  0.00     0.020 A 
ATOM     73  C   UNL A   1      35.317  33.440  30.969  1.00  0.00     0.020 A 
ATOM     74  C   UNL A   1      34.995  34.129  29.799  1.00  0.00     0.054 A 
BRANCH  74  75
ATOM     75  S   UNL A   1      33.384  34.949  29.637  1.00  0.00     0.124 S 
ATOM     76  O   UNL A   1      32.890  34.919  31.010  1.00  0.00    -0.237 OA
ATOM     77  O   UNL A   1      33.747  36.267  29.123  1.00  0.00    -0.237 OA
ATOM     78  O   UNL A   1      32.662  34.099  28.693  1.00  0.00    -0.744 OA
ENDBRANCH  74  75
ENDBRANCH  46  69
BRANCH  58  79
ATOM     79  C   UNL A   1      43.336  34.358  33.446  1.00  0.00    -0.014 A 
ATOM     80  C   UNL A   1      43.909  35.518  32.896  1.00  0.00     0.010 A 
ATOM     81  C   UNL A   1      43.076  34.310  34.828  1.00  0.00     0.010 A 
ATOM     82  C   UNL A   1      44.236  36.601  33.717  1.00  0.00     0.020 A 
ATOM     83  C   UNL A   1      43.380  35.400  35.648  1.00  0.00     0.020 A 
ATOM     84  C   UNL A   1      43.971  36.534  35.088  1.00  0.00     0.054 A 
BRANCH  84  85
ATOM     85  S   UNL A   1      44.356  37.972  36.127  1.00  0.00     0.124 S 
ATOM     86  O   UNL A   1      43.943  39.083  35.273  1.00  0.00    -0.237 OA
ATOM     87  O   UNL A   1      43.528  37.747  37.310  1.00  0.00    -0.237 OA
ATOM     88  O   UNL A   1      45.795  37.861  36.352  1.00  0.00    -0.744 OA
ENDBRANCH  84  85
ENDBRANCH  58  79
ENDBRANCH  32  33
ENDBRANCH  25  27
ENDBRANCH  24  25
ENDBRANCH   1  24
TORSDOF 17
ENDMDL
