MODEL 1
REMARK VINA RESULT:     -10.0      0.000      0.000
REMARK SMILES O=C(OCCOC(=O)c1cncc(OCCCc2ccccc2)n1)c1ccc(-c2c3nc(c(-c4ccc(S(=O)(=O)[O-])cc4)c4ccc([nH]4)c(-c4ccc(S(=O)(=O)[O-])cc4)c4nc(c(-c5ccc(S(=O)(=O)[O-])cc5)c5ccc2[nH]5)C=C4)C=C3)cc1
REMARK SMILES IDX 5 1 4 2 3 3 2 4 1 5 25 6 26 7 84 8 27 9 83 10 28 11 29 12
REMARK SMILES IDX 30 13 77 14 31 15 82 16 76 17 78 18 32 19 81 20 75 21 74 22
REMARK SMILES IDX 33 24 63 25 44 26 62 27 45 28 48 29 61 30 79 31 46 32 47 33
REMARK SMILES IDX 60 35 80 36 49 37 34 38 35 39 43 40 36 41 42 42 37 43 38 44
REMARK SMILES IDX 39 45 40 46 41 47 64 48 65 49 73 50 66 51 72 52 67 53 68 54
REMARK SMILES IDX 69 55 70 56 71 57 50 58 51 59 59 60 52 61 58 62 53 63 54 64
REMARK SMILES IDX 55 65 56 66 57 67 6 68 7 69 8 70 9 71 10 72 24 73 11 74
REMARK SMILES IDX 13 75 12 76 14 77 15 78 16 79 17 80 18 81 19 82 23 83 20 84
REMARK SMILES IDX 22 85 21 86
REMARK H PARENT 78 23 48 34
REMARK Flexibility Score: inf
ROOT
ATOM      1  C   UNL A   1      41.141  19.912  26.560  1.00  0.00     0.275 C 
ENDROOT
BRANCH   1   2
ATOM      2  C   UNL A   1      39.954  20.856  26.270  1.00  0.00     0.275 C 
BRANCH   2   3
ATOM      3  O   UNL A   1      40.150  22.281  26.261  1.00  0.00    -0.458 OA
BRANCH   3   4
ATOM      4  C   UNL A   1      39.044  23.044  26.144  1.00  0.00     0.338 C 
ATOM      5  O   UNL A   1      38.068  22.722  25.495  1.00  0.00    -0.246 OA
BRANCH   4   6
ATOM      6  C   UNL A   1      39.280  24.363  26.795  1.00  0.00     0.060 A 
ATOM      7  C   UNL A   1      38.905  24.589  28.129  1.00  0.00     0.016 A 
ATOM      8  C   UNL A   1      40.033  25.322  26.126  1.00  0.00     0.016 A 
ATOM      9  C   UNL A   1      39.329  25.728  28.801  1.00  0.00     0.010 A 
ATOM     10  C   UNL A   1      40.458  26.469  26.793  1.00  0.00     0.010 A 
ATOM     11  C   UNL A   1      40.119  26.664  28.136  1.00  0.00    -0.014 A 
BRANCH  11  12
ATOM     12  C   UNL A   1      40.495  27.916  28.810  1.00  0.00     0.031 A 
ATOM     13  C   UNL A   1      41.809  27.954  29.515  1.00  0.00     0.074 A 
ATOM     14  C   UNL A   1      39.659  28.968  28.798  1.00  0.00     0.049 A 
ATOM     15  N   UNL A   1      42.379  28.948  30.134  1.00  0.00    -0.248 NA
ATOM     16  C   UNL A   1      42.591  26.705  29.513  1.00  0.00     0.031 C 
ATOM     17  C   UNL A   1      38.362  29.004  28.126  1.00  0.00     0.029 A 
ATOM     18  N   UNL A   1      39.757  30.195  29.396  1.00  0.00    -0.354 N 
ATOM     19  C   UNL A   1      43.605  28.458  30.562  1.00  0.00     0.074 A 
ATOM     20  C   UNL A   1      43.664  27.061  30.200  1.00  0.00     0.031 C 
ATOM     21  C   UNL A   1      37.751  30.167  28.404  1.00  0.00     0.029 A 
ATOM     22  C   UNL A   1      38.624  30.964  29.259  1.00  0.00     0.049 A 
ATOM     23  H   UNL A   1      40.560  30.500  29.877  1.00  0.00     0.167 HD
ATOM     24  C   UNL A   1      44.601  29.132  31.179  1.00  0.00     0.031 A 
ATOM     25  C   UNL A   1      38.330  32.170  29.781  1.00  0.00     0.031 A 
ATOM     26  C   UNL A   1      44.474  30.502  31.589  1.00  0.00     0.049 A 
ATOM     27  C   UNL A   1      39.409  32.878  30.553  1.00  0.00     0.074 A 
ATOM     28  C   UNL A   1      45.401  31.309  32.216  1.00  0.00     0.029 A 
ATOM     29  N   UNL A   1      43.316  31.258  31.429  1.00  0.00    -0.354 N 
ATOM     30  N   UNL A   1      40.609  32.442  30.868  1.00  0.00    -0.248 NA
ATOM     31  C   UNL A   1      39.127  34.246  30.998  1.00  0.00     0.031 C 
ATOM     32  C   UNL A   1      44.786  32.538  32.482  1.00  0.00     0.029 A 
ATOM     33  C   UNL A   1      43.496  32.516  31.968  1.00  0.00     0.049 A 
ATOM     34  H   UNL A   1      42.491  30.941  30.996  1.00  0.00     0.167 HD
ATOM     35  C   UNL A   1      41.247  33.501  31.497  1.00  0.00     0.074 A 
ATOM     36  C   UNL A   1      40.289  34.593  31.537  1.00  0.00     0.031 C 
ATOM     37  C   UNL A   1      42.514  33.576  31.974  1.00  0.00     0.031 A 
BRANCH  24  38
ATOM     38  C   UNL A   1      45.862  28.361  31.457  1.00  0.00    -0.014 A 
ATOM     39  C   UNL A   1      46.940  28.394  30.550  1.00  0.00     0.010 A 
ATOM     40  C   UNL A   1      45.948  27.536  32.590  1.00  0.00     0.010 A 
ATOM     41  C   UNL A   1      48.045  27.559  30.730  1.00  0.00     0.020 A 
ATOM     42  C   UNL A   1      47.065  26.720  32.790  1.00  0.00     0.020 A 
ATOM     43  C   UNL A   1      48.092  26.714  31.843  1.00  0.00     0.054 A 
BRANCH  43  44
ATOM     44  S   UNL A   1      49.511  25.599  32.028  1.00  0.00     0.124 S 
ATOM     45  O   UNL A   1      49.727  25.159  30.651  1.00  0.00    -0.237 OA
ATOM     46  O   UNL A   1      50.542  26.477  32.574  1.00  0.00    -0.237 OA
ATOM     47  O   UNL A   1      49.025  24.569  32.942  1.00  0.00    -0.744 OA
ENDBRANCH  43  44
ENDBRANCH  24  38
BRANCH  25  48
ATOM     48  C   UNL A   1      36.987  32.766  29.545  1.00  0.00    -0.014 A 
ATOM     49  C   UNL A   1      35.980  32.694  30.521  1.00  0.00     0.010 A 
ATOM     50  C   UNL A   1      36.737  33.489  28.362  1.00  0.00     0.010 A 
ATOM     51  C   UNL A   1      34.750  33.335  30.323  1.00  0.00     0.020 A 
ATOM     52  C   UNL A   1      35.516  34.146  28.168  1.00  0.00     0.020 A 
ATOM     53  C   UNL A   1      34.529  34.065  29.151  1.00  0.00     0.054 A 
BRANCH  53  54
ATOM     54  S   UNL A   1      32.959  34.956  28.959  1.00  0.00     0.124 S 
ATOM     55  O   UNL A   1      33.402  36.255  28.460  1.00  0.00    -0.237 OA
ATOM     56  O   UNL A   1      32.241  34.122  28.000  1.00  0.00    -0.237 OA
ATOM     57  O   UNL A   1      32.399  34.963  30.309  1.00  0.00    -0.744 OA
ENDBRANCH  53  54
ENDBRANCH  25  48
BRANCH  37  58
ATOM     58  C   UNL A   1      42.966  34.897  32.528  1.00  0.00    -0.014 A 
ATOM     59  C   UNL A   1      42.867  35.185  33.899  1.00  0.00     0.010 A 
ATOM     60  C   UNL A   1      43.616  35.805  31.672  1.00  0.00     0.010 A 
ATOM     61  C   UNL A   1      43.415  36.364  34.406  1.00  0.00     0.020 A 
ATOM     62  C   UNL A   1      44.187  36.972  32.181  1.00  0.00     0.020 A 
ATOM     63  C   UNL A   1      44.081  37.245  33.546  1.00  0.00     0.054 A 
BRANCH  63  64
ATOM     64  S   UNL A   1      44.877  38.714  34.247  1.00  0.00     0.124 S 
ATOM     65  O   UNL A   1      45.570  38.159  35.406  1.00  0.00    -0.237 OA
ATOM     66  O   UNL A   1      45.736  39.165  33.155  1.00  0.00    -0.237 OA
ATOM     67  O   UNL A   1      43.757  39.600  34.556  1.00  0.00    -0.744 OA
ENDBRANCH  63  64
ENDBRANCH  37  58
ENDBRANCH  11  12
ENDBRANCH   4   6
ENDBRANCH   3   4
ENDBRANCH   2   3
ENDBRANCH   1   2
BRANCH   1  68
ATOM     68  O   UNL A   1      41.851  19.478  25.383  1.00  0.00    -0.457 OA
BRANCH  68  69
ATOM     69  C   UNL A   1      42.858  18.590  25.642  1.00  0.00     0.358 C 
ATOM     70  O   UNL A   1      42.729  17.476  26.126  1.00  0.00    -0.244 OA
BRANCH  69  71
ATOM     71  C   UNL A   1      44.165  19.156  25.255  1.00  0.00     0.170 A 
ATOM     72  C   UNL A   1      45.328  18.454  25.505  1.00  0.00     0.147 A 
ATOM     73  N   UNL A   1      44.165  20.362  24.632  1.00  0.00    -0.203 NA
ATOM     74  N   UNL A   1      46.548  18.942  25.164  1.00  0.00    -0.257 NA
ATOM     75  C   UNL A   1      45.376  20.871  24.322  1.00  0.00     0.233 A 
ATOM     76  C   UNL A   1      46.549  20.182  24.602  1.00  0.00     0.179 A 
BRANCH  75  77
ATOM     77  O   UNL A   1      45.392  22.221  24.104  1.00  0.00    -0.477 OA
BRANCH  77  78
ATOM     78  C   UNL A   1      46.123  22.989  25.042  1.00  0.00     0.232 C 
BRANCH  78  79
ATOM     79  C   UNL A   1      45.873  24.502  25.038  1.00  0.00     0.046 C 
BRANCH  79  80
ATOM     80  C   UNL A   1      45.390  25.227  26.299  1.00  0.00     0.039 C 
BRANCH  80  81
ATOM     81  C   UNL A   1      44.668  24.536  27.431  1.00  0.00    -0.048 A 
ATOM     82  C   UNL A   1      43.345  24.126  27.169  1.00  0.00     0.004 A 
ATOM     83  C   UNL A   1      45.235  24.171  28.654  1.00  0.00     0.004 A 
ATOM     84  C   UNL A   1      42.639  23.314  28.056  1.00  0.00     0.000 A 
ATOM     85  C   UNL A   1      44.525  23.354  29.547  1.00  0.00     0.000 A 
ATOM     86  C   UNL A   1      43.238  22.912  29.242  1.00  0.00     0.000 A 
ENDBRANCH  80  81
ENDBRANCH  79  80
ENDBRANCH  78  79
ENDBRANCH  77  78
ENDBRANCH  75  77
ENDBRANCH  69  71
ENDBRANCH  68  69
ENDBRANCH   1  68
TORSDOF 19
ENDMDL
MODEL 2
REMARK VINA RESULT:      -9.9      1.063      2.017
REMARK SMILES O=C(OCCOC(=O)c1cncc(OCCCc2ccccc2)n1)c1ccc(-c2c3nc(c(-c4ccc(S(=O)(=O)[O-])cc4)c4ccc([nH]4)c(-c4ccc(S(=O)(=O)[O-])cc4)c4nc(c(-c5ccc(S(=O)(=O)[O-])cc5)c5ccc2[nH]5)C=C4)C=C3)cc1
REMARK SMILES IDX 5 1 4 2 3 3 2 4 1 5 25 6 26 7 84 8 27 9 83 10 28 11 29 12
REMARK SMILES IDX 30 13 77 14 31 15 82 16 76 17 78 18 32 19 81 20 75 21 74 22
REMARK SMILES IDX 33 24 63 25 44 26 62 27 45 28 48 29 61 30 79 31 46 32 47 33
REMARK SMILES IDX 60 35 80 36 49 37 34 38 35 39 43 40 36 41 42 42 37 43 38 44
REMARK SMILES IDX 39 45 40 46 41 47 64 48 65 49 73 50 66 51 72 52 67 53 68 54
REMARK SMILES IDX 69 55 70 56 71 57 50 58 51 59 59 60 52 61 58 62 53 63 54 64
REMARK SMILES IDX 55 65 56 66 57 67 6 68 7 69 8 70 9 71 10 72 24 73 11 74
REMARK SMILES IDX 13 75 12 76 14 77 15 78 16 79 17 80 18 81 19 82 23 83 20 84
REMARK SMILES IDX 22 85 21 86
REMARK H PARENT 78 23 48 34
REMARK Flexibility Score: inf
ROOT
ATOM      1  C   UNL A   1      40.678  19.780  26.136  1.00  0.00     0.275 C 
ENDROOT
BRANCH   1   2
ATOM      2  C   UNL A   1      39.929  21.026  26.657  1.00  0.00     0.275 C 
BRANCH   2   3
ATOM      3  O   UNL A   1      39.754  22.172  25.804  1.00  0.00    -0.458 OA
BRANCH   3   4
ATOM      4  C   UNL A   1      38.756  23.020  26.127  1.00  0.00     0.338 C 
ATOM      5  O   UNL A   1      37.604  22.875  25.765  1.00  0.00    -0.246 OA
BRANCH   4   6
ATOM      6  C   UNL A   1      39.319  24.200  26.841  1.00  0.00     0.060 A 
ATOM      7  C   UNL A   1      40.095  25.154  26.162  1.00  0.00     0.016 A 
ATOM      8  C   UNL A   1      38.931  24.445  28.153  1.00  0.00     0.016 A 
ATOM      9  C   UNL A   1      40.424  26.359  26.767  1.00  0.00     0.010 A 
ATOM     10  C   UNL A   1      39.262  25.652  28.767  1.00  0.00     0.010 A 
ATOM     11  C   UNL A   1      39.995  26.615  28.068  1.00  0.00    -0.014 A 
BRANCH  11  12
ATOM     12  C   UNL A   1      40.415  27.849  28.748  1.00  0.00     0.031 A 
ATOM     13  C   UNL A   1      41.750  27.850  29.416  1.00  0.00     0.074 A 
ATOM     14  C   UNL A   1      39.602  28.919  28.774  1.00  0.00     0.049 A 
ATOM     15  N   UNL A   1      42.357  28.824  30.032  1.00  0.00    -0.248 NA
ATOM     16  C   UNL A   1      42.505  26.586  29.375  1.00  0.00     0.031 C 
ATOM     17  C   UNL A   1      38.288  28.990  28.139  1.00  0.00     0.029 A 
ATOM     18  N   UNL A   1      39.742  30.135  29.385  1.00  0.00    -0.354 N 
ATOM     19  C   UNL A   1      43.584  28.303  30.419  1.00  0.00     0.074 A 
ATOM     20  C   UNL A   1      43.604  26.910  30.036  1.00  0.00     0.031 C 
ATOM     21  C   UNL A   1      37.709  30.162  28.450  1.00  0.00     0.029 A 
ATOM     22  C   UNL A   1      38.622  30.928  29.291  1.00  0.00     0.049 A 
ATOM     23  H   UNL A   1      40.564  30.416  29.848  1.00  0.00     0.167 HD
ATOM     24  C   UNL A   1      44.610  28.947  31.017  1.00  0.00     0.031 A 
ATOM     25  C   UNL A   1      38.368  32.133  29.837  1.00  0.00     0.031 A 
ATOM     26  C   UNL A   1      44.523  30.314  31.449  1.00  0.00     0.049 A 
ATOM     27  C   UNL A   1      39.482  32.808  30.588  1.00  0.00     0.074 A 
ATOM     28  C   UNL A   1      45.484  31.093  32.060  1.00  0.00     0.029 A 
ATOM     29  N   UNL A   1      43.378  31.096  31.332  1.00  0.00    -0.354 N 
ATOM     30  N   UNL A   1      40.681  32.343  30.863  1.00  0.00    -0.248 NA
ATOM     31  C   UNL A   1      39.242  34.175  31.060  1.00  0.00     0.031 C 
ATOM     32  C   UNL A   1      44.903  32.330  32.360  1.00  0.00     0.029 A 
ATOM     33  C   UNL A   1      43.599  32.342  31.882  1.00  0.00     0.049 A 
ATOM     34  H   UNL A   1      42.534  30.802  30.918  1.00  0.00     0.167 HD
ATOM     35  C   UNL A   1      41.358  33.380  31.488  1.00  0.00     0.074 A 
ATOM     36  C   UNL A   1      40.426  34.490  31.570  1.00  0.00     0.031 C 
ATOM     37  C   UNL A   1      42.640  33.422  31.930  1.00  0.00     0.031 A 
BRANCH  24  38
ATOM     38  C   UNL A   1      45.863  28.147  31.248  1.00  0.00    -0.014 A 
ATOM     39  C   UNL A   1      46.066  27.462  32.463  1.00  0.00     0.010 A 
ATOM     40  C   UNL A   1      46.882  28.140  30.281  1.00  0.00     0.010 A 
ATOM     41  C   UNL A   1      47.291  26.851  32.737  1.00  0.00     0.020 A 
ATOM     42  C   UNL A   1      48.100  27.505  30.541  1.00  0.00     0.020 A 
ATOM     43  C   UNL A   1      48.308  26.892  31.779  1.00  0.00     0.054 A 
BRANCH  43  44
ATOM     44  S   UNL A   1      49.908  26.139  32.177  1.00  0.00     0.124 S 
ATOM     45  O   UNL A   1      50.544  27.190  32.970  1.00  0.00    -0.237 OA
ATOM     46  O   UNL A   1      49.526  24.940  32.919  1.00  0.00    -0.237 OA
ATOM     47  O   UNL A   1      50.512  25.894  30.870  1.00  0.00    -0.744 OA
ENDBRANCH  43  44
ENDBRANCH  24  38
BRANCH  25  48
ATOM     48  C   UNL A   1      37.032  32.759  29.647  1.00  0.00    -0.014 A 
ATOM     49  C   UNL A   1      36.118  32.856  30.710  1.00  0.00     0.010 A 
ATOM     50  C   UNL A   1      36.698  33.344  28.409  1.00  0.00     0.010 A 
ATOM     51  C   UNL A   1      34.900  33.527  30.541  1.00  0.00     0.020 A 
ATOM     52  C   UNL A   1      35.490  34.030  28.242  1.00  0.00     0.020 A 
ATOM     53  C   UNL A   1      34.597  34.118  29.310  1.00  0.00     0.054 A 
BRANCH  53  54
ATOM     54  S   UNL A   1      33.049  35.053  29.147  1.00  0.00     0.124 S 
ATOM     55  O   UNL A   1      33.531  36.379  28.773  1.00  0.00    -0.237 OA
ATOM     56  O   UNL A   1      32.348  34.317  28.100  1.00  0.00    -0.237 OA
ATOM     57  O   UNL A   1      32.447  34.958  30.476  1.00  0.00    -0.744 OA
ENDBRANCH  53  54
ENDBRANCH  25  48
BRANCH  37  58
ATOM     58  C   UNL A   1      43.135  34.725  32.489  1.00  0.00    -0.014 A 
ATOM     59  C   UNL A   1      43.731  35.693  31.665  1.00  0.00     0.010 A 
ATOM     60  C   UNL A   1      42.877  35.026  33.839  1.00  0.00     0.010 A 
ATOM     61  C   UNL A   1      44.061  36.946  32.184  1.00  0.00     0.020 A 
ATOM     62  C   UNL A   1      43.182  36.285  34.354  1.00  0.00     0.020 A 
ATOM     63  C   UNL A   1      43.774  37.238  33.523  1.00  0.00     0.054 A 
BRANCH  63  64
ATOM     64  S   UNL A   1      44.112  38.907  34.143  1.00  0.00     0.124 S 
ATOM     65  O   UNL A   1      45.391  39.213  33.510  1.00  0.00    -0.237 OA
ATOM     66  O   UNL A   1      42.967  39.669  33.650  1.00  0.00    -0.237 OA
ATOM     67  O   UNL A   1      44.159  38.734  35.593  1.00  0.00    -0.744 OA
ENDBRANCH  63  64
ENDBRANCH  37  58
ENDBRANCH  11  12
ENDBRANCH   4   6
ENDBRANCH   3   4
ENDBRANCH   2   3
ENDBRANCH   1   2
BRANCH   1  68
ATOM     68  O   UNL A   1      41.979  19.586  26.723  1.00  0.00    -0.457 OA
BRANCH  68  69
ATOM     69  C   UNL A   1      42.814  18.808  25.970  1.00  0.00     0.358 C 
ATOM     70  O   UNL A   1      42.656  17.625  25.710  1.00  0.00    -0.244 OA
BRANCH  69  71
ATOM     71  C   UNL A   1      43.970  19.592  25.494  1.00  0.00     0.170 A 
ATOM     72  C   UNL A   1      45.074  18.952  24.966  1.00  0.00     0.147 A 
ATOM     73  N   UNL A   1      43.885  20.945  25.577  1.00  0.00    -0.203 NA
ATOM     74  N   UNL A   1      46.156  19.640  24.518  1.00  0.00    -0.257 NA
ATOM     75  C   UNL A   1      44.970  21.634  25.167  1.00  0.00     0.233 A 
ATOM     76  C   UNL A   1      46.095  20.991  24.666  1.00  0.00     0.179 A 
BRANCH  75  77
ATOM     77  O   UNL A   1      45.049  22.915  25.641  1.00  0.00    -0.477 OA
BRANCH  77  78
ATOM     78  C   UNL A   1      43.829  23.629  25.696  1.00  0.00     0.232 C 
BRANCH  78  79
ATOM     79  C   UNL A   1      43.816  25.022  25.055  1.00  0.00     0.046 C 
BRANCH  79  80
ATOM     80  C   UNL A   1      44.742  26.134  25.561  1.00  0.00     0.039 C 
BRANCH  80  81
ATOM     81  C   UNL A   1      44.242  27.437  26.137  1.00  0.00    -0.048 A 
ATOM     82  C   UNL A   1      45.168  28.178  26.897  1.00  0.00     0.004 A 
ATOM     83  C   UNL A   1      42.996  28.013  25.881  1.00  0.00     0.004 A 
ATOM     84  C   UNL A   1      44.896  29.479  27.321  1.00  0.00     0.000 A 
ATOM     85  C   UNL A   1      42.721  29.321  26.307  1.00  0.00     0.000 A 
ATOM     86  C   UNL A   1      43.673  30.059  27.009  1.00  0.00     0.000 A 
ENDBRANCH  80  81
ENDBRANCH  79  80
ENDBRANCH  78  79
ENDBRANCH  77  78
ENDBRANCH  75  77
ENDBRANCH  69  71
ENDBRANCH  68  69
ENDBRANCH   1  68
TORSDOF 19
ENDMDL
MODEL 3
REMARK VINA RESULT:      -9.4      3.445      4.064
REMARK SMILES O=C(OCCOC(=O)c1cncc(OCCCc2ccccc2)n1)c1ccc(-c2c3nc(c(-c4ccc(S(=O)(=O)[O-])cc4)c4ccc([nH]4)c(-c4ccc(S(=O)(=O)[O-])cc4)c4nc(c(-c5ccc(S(=O)(=O)[O-])cc5)c5ccc2[nH]5)C=C4)C=C3)cc1
REMARK SMILES IDX 5 1 4 2 3 3 2 4 1 5 25 6 26 7 84 8 27 9 83 10 28 11 29 12
REMARK SMILES IDX 30 13 77 14 31 15 82 16 76 17 78 18 32 19 81 20 75 21 74 22
REMARK SMILES IDX 33 24 63 25 44 26 62 27 45 28 48 29 61 30 79 31 46 32 47 33
REMARK SMILES IDX 60 35 80 36 49 37 34 38 35 39 43 40 36 41 42 42 37 43 38 44
REMARK SMILES IDX 39 45 40 46 41 47 64 48 65 49 73 50 66 51 72 52 67 53 68 54
REMARK SMILES IDX 69 55 70 56 71 57 50 58 51 59 59 60 52 61 58 62 53 63 54 64
REMARK SMILES IDX 55 65 56 66 57 67 6 68 7 69 8 70 9 71 10 72 24 73 11 74
REMARK SMILES IDX 13 75 12 76 14 77 15 78 16 79 17 80 18 81 19 82 23 83 20 84
REMARK SMILES IDX 22 85 21 86
REMARK H PARENT 78 23 48 34
REMARK Flexibility Score: inf
ROOT
ATOM      1  C   UNL A   1      41.424  21.373  27.207  1.00  0.00     0.275 C 
ENDROOT
BRANCH   1   2
ATOM      2  C   UNL A   1      41.612  22.834  27.669  1.00  0.00     0.275 C 
BRANCH   2   3
ATOM      3  O   UNL A   1      40.909  23.898  27.004  1.00  0.00    -0.458 OA
BRANCH   3   4
ATOM      4  C   UNL A   1      41.596  25.040  26.792  1.00  0.00     0.338 C 
ATOM      5  O   UNL A   1      42.316  25.224  25.830  1.00  0.00    -0.246 OA
BRANCH   4   6
ATOM      6  C   UNL A   1      41.446  25.935  27.973  1.00  0.00     0.060 A 
ATOM      7  C   UNL A   1      42.446  26.861  28.310  1.00  0.00     0.016 A 
ATOM      8  C   UNL A   1      40.230  25.969  28.646  1.00  0.00     0.016 A 
ATOM      9  C   UNL A   1      42.210  27.844  29.262  1.00  0.00     0.010 A 
ATOM     10  C   UNL A   1      39.988  26.950  29.606  1.00  0.00     0.010 A 
ATOM     11  C   UNL A   1      40.973  27.898  29.902  1.00  0.00    -0.014 A 
BRANCH  11  12
ATOM     12  C   UNL A   1      40.746  28.876  30.975  1.00  0.00     0.031 A 
ATOM     13  C   UNL A   1      41.516  28.705  32.242  1.00  0.00     0.074 A 
ATOM     14  C   UNL A   1      39.855  29.869  30.809  1.00  0.00     0.049 A 
ATOM     15  N   UNL A   1      41.527  29.460  33.304  1.00  0.00    -0.248 NA
ATOM     16  C   UNL A   1      42.403  27.531  32.317  1.00  0.00     0.031 C 
ATOM     17  C   UNL A   1      39.071  30.100  29.598  1.00  0.00     0.029 A 
ATOM     18  N   UNL A   1      39.433  30.846  31.670  1.00  0.00    -0.354 N 
ATOM     19  C   UNL A   1      42.450  28.874  34.160  1.00  0.00     0.074 A 
ATOM     20  C   UNL A   1      42.921  27.664  33.527  1.00  0.00     0.031 C 
ATOM     21  C   UNL A   1      38.211  31.109  29.813  1.00  0.00     0.029 A 
ATOM     22  C   UNL A   1      38.399  31.604  31.173  1.00  0.00     0.049 A 
ATOM     23  H   UNL A   1      39.830  30.992  32.558  1.00  0.00     0.167 HD
ATOM     24  C   UNL A   1      42.880  29.330  35.356  1.00  0.00     0.031 A 
ATOM     25  C   UNL A   1      37.682  32.581  31.761  1.00  0.00     0.031 A 
ATOM     26  C   UNL A   1      42.332  30.499  35.985  1.00  0.00     0.049 A 
ATOM     27  C   UNL A   1      38.102  33.021  33.136  1.00  0.00     0.074 A 
ATOM     28  C   UNL A   1      42.677  31.078  37.189  1.00  0.00     0.029 A 
ATOM     29  N   UNL A   1      41.291  31.253  35.453  1.00  0.00    -0.354 N 
ATOM     30  N   UNL A   1      39.048  32.523  33.902  1.00  0.00    -0.248 NA
ATOM     31  C   UNL A   1      37.405  34.176  33.713  1.00  0.00     0.031 C 
ATOM     32  C   UNL A   1      41.807  32.152  37.410  1.00  0.00     0.029 A 
ATOM     33  C   UNL A   1      40.962  32.279  36.316  1.00  0.00     0.049 A 
ATOM     34  H   UNL A   1      40.853  31.080  34.588  1.00  0.00     0.167 HD
ATOM     35  C   UNL A   1      39.101  33.336  35.024  1.00  0.00     0.074 A 
ATOM     36  C   UNL A   1      38.073  34.348  34.847  1.00  0.00     0.031 C 
ATOM     37  C   UNL A   1      39.936  33.272  36.090  1.00  0.00     0.031 A 
BRANCH  24  38
ATOM     38  C   UNL A   1      43.955  28.526  36.035  1.00  0.00    -0.014 A 
ATOM     39  C   UNL A   1      45.316  28.777  35.771  1.00  0.00     0.010 A 
ATOM     40  C   UNL A   1      43.608  27.461  36.883  1.00  0.00     0.010 A 
ATOM     41  C   UNL A   1      46.305  27.932  36.279  1.00  0.00     0.020 A 
ATOM     42  C   UNL A   1      44.598  26.630  37.416  1.00  0.00     0.020 A 
ATOM     43  C   UNL A   1      45.937  26.852  37.086  1.00  0.00     0.054 A 
BRANCH  43  44
ATOM     44  S   UNL A   1      47.232  25.736  37.690  1.00  0.00     0.124 S 
ATOM     45  O   UNL A   1      46.614  24.426  37.494  1.00  0.00    -0.237 OA
ATOM     46  O   UNL A   1      48.356  26.036  36.806  1.00  0.00    -0.237 OA
ATOM     47  O   UNL A   1      47.414  26.137  39.082  1.00  0.00    -0.744 OA
ENDBRANCH  43  44
ENDBRANCH  24  38
BRANCH  25  48
ATOM     48  C   UNL A   1      36.547  33.205  31.029  1.00  0.00    -0.014 A 
ATOM     49  C   UNL A   1      35.267  33.279  31.601  1.00  0.00     0.010 A 
ATOM     50  C   UNL A   1      36.767  33.810  29.775  1.00  0.00     0.010 A 
ATOM     51  C   UNL A   1      34.229  33.948  30.939  1.00  0.00     0.020 A 
ATOM     52  C   UNL A   1      35.738  34.494  29.119  1.00  0.00     0.020 A 
ATOM     53  C   UNL A   1      34.474  34.559  29.705  1.00  0.00     0.054 A 
BRANCH  53  54
ATOM     54  S   UNL A   1      33.132  35.490  28.911  1.00  0.00     0.124 S 
ATOM     55  O   UNL A   1      33.866  36.517  28.177  1.00  0.00    -0.237 OA
ATOM     56  O   UNL A   1      32.485  34.469  28.092  1.00  0.00    -0.237 OA
ATOM     57  O   UNL A   1      32.335  35.975  30.036  1.00  0.00    -0.744 OA
ENDBRANCH  53  54
ENDBRANCH  25  48
BRANCH  37  58
ATOM     58  C   UNL A   1      39.821  34.355  37.124  1.00  0.00    -0.014 A 
ATOM     59  C   UNL A   1      39.003  34.200  38.255  1.00  0.00     0.010 A 
ATOM     60  C   UNL A   1      40.648  35.488  37.015  1.00  0.00     0.010 A 
ATOM     61  C   UNL A   1      39.017  35.164  39.265  1.00  0.00     0.020 A 
ATOM     62  C   UNL A   1      40.682  36.440  38.033  1.00  0.00     0.020 A 
ATOM     63  C   UNL A   1      39.864  36.272  39.152  1.00  0.00     0.054 A 
BRANCH  63  64
ATOM     64  S   UNL A   1      39.943  37.452  40.526  1.00  0.00     0.124 S 
ATOM     65  O   UNL A   1      41.378  37.518  40.786  1.00  0.00    -0.237 OA
ATOM     66  O   UNL A   1      39.351  38.656  39.948  1.00  0.00    -0.237 OA
ATOM     67  O   UNL A   1      39.148  36.816  41.574  1.00  0.00    -0.744 OA
ENDBRANCH  63  64
ENDBRANCH  37  58
ENDBRANCH  11  12
ENDBRANCH   4   6
ENDBRANCH   3   4
ENDBRANCH   2   3
ENDBRANCH   1   2
BRANCH   1  68
ATOM     68  O   UNL A   1      41.879  21.115  25.865  1.00  0.00    -0.457 OA
BRANCH  68  69
ATOM     69  C   UNL A   1      42.311  19.834  25.664  1.00  0.00     0.358 C 
ATOM     70  O   UNL A   1      41.618  18.828  25.684  1.00  0.00    -0.244 OA
BRANCH  69  71
ATOM     71  C   UNL A   1      43.766  19.807  25.415  1.00  0.00     0.170 A 
ATOM     72  C   UNL A   1      44.414  18.605  25.208  1.00  0.00     0.147 A 
ATOM     73  N   UNL A   1      44.416  20.998  25.374  1.00  0.00    -0.203 NA
ATOM     74  N   UNL A   1      45.750  18.541  24.976  1.00  0.00    -0.257 NA
ATOM     75  C   UNL A   1      45.750  20.941  25.180  1.00  0.00     0.233 A 
ATOM     76  C   UNL A   1      46.409  19.731  25.005  1.00  0.00     0.179 A 
BRANCH  75  77
ATOM     77  O   UNL A   1      46.434  22.062  25.563  1.00  0.00    -0.477 OA
BRANCH  77  78
ATOM     78  C   UNL A   1      45.647  23.123  26.069  1.00  0.00     0.232 C 
BRANCH  78  79
ATOM     79  C   UNL A   1      46.398  24.279  26.742  1.00  0.00     0.046 C 
BRANCH  79  80
ATOM     80  C   UNL A   1      45.696  25.200  27.745  1.00  0.00     0.039 C 
BRANCH  80  81
ATOM     81  C   UNL A   1      45.335  24.781  29.150  1.00  0.00    -0.048 A 
ATOM     82  C   UNL A   1      45.914  25.532  30.193  1.00  0.00     0.004 A 
ATOM     83  C   UNL A   1      44.399  23.803  29.492  1.00  0.00     0.004 A 
ATOM     84  C   UNL A   1      45.518  25.372  31.520  1.00  0.00     0.000 A 
ATOM     85  C   UNL A   1      43.999  23.642  30.827  1.00  0.00     0.000 A 
ATOM     86  C   UNL A   1      44.543  24.435  31.836  1.00  0.00     0.000 A 
ENDBRANCH  80  81
ENDBRANCH  79  80
ENDBRANCH  78  79
ENDBRANCH  77  78
ENDBRANCH  75  77
ENDBRANCH  69  71
ENDBRANCH  68  69
ENDBRANCH   1  68
TORSDOF 19
ENDMDL
