MODEL 1
REMARK VINA RESULT:     -11.6      0.000      0.000
REMARK SMILES C/C=C(\C)[C@@H]1C(C)=C[C@@H]2[C@H]([C@@H]1/C=C/C=C/C(=O)OCCOC(=O)c1ccc(-c3c4nc(c(-c5ccc(S(=O)(=O)[O-])cc5)c5ccc([nH]5)c(-c5ccc(S(=O)(=O)[O-])cc5)c5nc(c(-c6ccc(S(=O)(=O)[O-])cc6)c6ccc3[nH]6)C=C5)C=C4)cc1)[C@@H](C)CC[C@@H]2O
REMARK SMILES IDX 19 1 18 2 16 3 17 4 15 5 14 6 13 7 12 8 11 9 5 10 6 11 7 12
REMARK SMILES IDX 8 13 10 14 9 15 84 16 88 17 85 18 86 19 87 20 3 21 1 22 2 23
REMARK SMILES IDX 4 24 89 25 20 27 21 28 22 29 23 30 24 31 25 32 83 33 26 34
REMARK SMILES IDX 82 35 27 36 28 37 29 38 76 39 30 40 81 41 75 42 77 43 31 44
REMARK SMILES IDX 80 45 74 46 73 47 32 49 62 50 43 51 61 52 44 53 47 54 60 55
REMARK SMILES IDX 78 56 45 57 46 58 59 60 79 61 48 62 33 63 34 64 42 65 35 66
REMARK SMILES IDX 41 67 36 68 37 69 38 70 39 71 40 72 63 73 64 74 72 75 65 76
REMARK SMILES IDX 71 77 66 78 67 79 68 80 69 81 70 82 49 83 50 84 58 85 51 86
REMARK SMILES IDX 57 87 52 88 53 89 54 90 55 91 56 92
REMARK H PARENT 89 26 77 48 47 59
REMARK Flexibility Score: inf
ROOT
ATOM      1  C   UNL A   1      40.102  21.429  26.134  1.00  0.00     0.275 C 
ENDROOT
BRANCH   1   2
ATOM      2  O   UNL A   1      38.806  22.049  26.144  1.00  0.00    -0.459 OA
BRANCH   2   3
ATOM      3  C   UNL A   1      37.857  21.442  25.392  1.00  0.00     0.330 C 
ATOM      4  O   UNL A   1      37.888  20.295  24.973  1.00  0.00    -0.247 OA
BRANCH   3   5
ATOM      5  C   UNL A   1      36.727  22.339  25.088  1.00  0.00     0.093 C 
ATOM      6  C   UNL A   1      36.409  23.431  25.797  1.00  0.00     0.007 C 
BRANCH   6   7
ATOM      7  C   UNL A   1      35.350  24.321  25.381  1.00  0.00    -0.004 C 
ATOM      8  C   UNL A   1      34.220  24.450  26.093  1.00  0.00    -0.022 C 
BRANCH   8   9
ATOM      9  C   UNL A   1      33.211  25.559  25.857  1.00  0.00     0.027 C 
ATOM     10  C   UNL A   1      31.713  25.042  25.690  1.00  0.00     0.047 C 
ATOM     11  C   UNL A   1      30.945  25.772  24.594  1.00  0.00    -0.069 C 
ATOM     12  C   UNL A   1      29.466  25.961  24.795  1.00  0.00     0.040 C 
ATOM     13  C   UNL A   1      31.570  26.240  23.502  1.00  0.00    -0.021 C 
ATOM     14  C   UNL A   1      33.724  26.516  24.719  1.00  0.00     0.009 C 
ATOM     15  C   UNL A   1      33.074  26.142  23.360  1.00  0.00     0.044 C 
ATOM     16  C   UNL A   1      33.523  28.044  25.015  1.00  0.00    -0.010 C 
ATOM     17  C   UNL A   1      33.656  27.020  22.234  1.00  0.00     0.121 C 
ATOM     18  C   UNL A   1      34.259  28.512  26.279  1.00  0.00     0.008 C 
ATOM     19  C   UNL A   1      34.014  28.913  23.833  1.00  0.00     0.006 C 
ATOM     20  C   UNL A   1      33.428  28.503  22.488  1.00  0.00     0.033 C 
BRANCH  10  21
ATOM     21  C   UNL A   1      31.414  23.525  25.575  1.00  0.00    -0.070 C 
ATOM     22  C   UNL A   1      31.879  21.308  24.419  1.00  0.00     0.035 C 
ATOM     23  C   UNL A   1      32.021  22.784  24.619  1.00  0.00    -0.031 C 
ATOM     24  C   UNL A   1      30.523  22.858  26.594  1.00  0.00     0.040 C 
ENDBRANCH  10  21
BRANCH  17  25
ATOM     25  O   UNL A   1      33.144  26.651  20.953  1.00  0.00    -0.393 OA
ATOM     26  H   UNL A   1      32.796  25.746  20.993  1.00  0.00     0.210 HD
ENDBRANCH  17  25
ENDBRANCH   8   9
ENDBRANCH   6   7
ENDBRANCH   3   5
ENDBRANCH   2   3
ENDBRANCH   1   2
BRANCH   1  27
ATOM     27  C   UNL A   1      41.203  22.451  26.425  1.00  0.00     0.275 C 
BRANCH  27  28
ATOM     28  O   UNL A   1      40.682  23.790  26.500  1.00  0.00    -0.458 OA
BRANCH  28  29
ATOM     29  C   UNL A   1      41.598  24.778  26.359  1.00  0.00     0.338 C 
ATOM     30  O   UNL A   1      42.376  24.938  25.427  1.00  0.00    -0.246 OA
BRANCH  29  31
ATOM     31  C   UNL A   1      41.440  25.745  27.455  1.00  0.00     0.060 A 
ATOM     32  C   UNL A   1      42.385  26.766  27.584  1.00  0.00     0.016 A 
ATOM     33  C   UNL A   1      40.386  25.632  28.365  1.00  0.00     0.016 A 
ATOM     34  C   UNL A   1      42.266  27.701  28.610  1.00  0.00     0.010 A 
ATOM     35  C   UNL A   1      40.274  26.566  29.399  1.00  0.00     0.010 A 
ATOM     36  C   UNL A   1      41.209  27.607  29.524  1.00  0.00    -0.014 A 
BRANCH  36  37
ATOM     37  C   UNL A   1      41.072  28.605  30.611  1.00  0.00     0.031 A 
ATOM     38  C   UNL A   1      41.957  28.526  31.820  1.00  0.00     0.074 A 
ATOM     39  C   UNL A   1      40.141  29.572  30.509  1.00  0.00     0.049 A 
ATOM     40  N   UNL A   1      41.920  29.241  32.914  1.00  0.00    -0.248 NA
ATOM     41  C   UNL A   1      43.023  27.513  31.794  1.00  0.00     0.031 C 
ATOM     42  C   UNL A   1      39.257  29.774  29.360  1.00  0.00     0.029 A 
ATOM     43  N   UNL A   1      39.774  30.556  31.392  1.00  0.00    -0.354 N 
ATOM     44  C   UNL A   1      42.945  28.756  33.717  1.00  0.00     0.074 A 
ATOM     45  C   UNL A   1      43.579  27.678  32.987  1.00  0.00     0.031 C 
ATOM     46  C   UNL A   1      38.445  30.814  29.612  1.00  0.00     0.029 A 
ATOM     47  C   UNL A   1      38.715  31.315  30.957  1.00  0.00     0.049 A 
ATOM     48  H   UNL A   1      40.227  30.705  32.253  1.00  0.00     0.167 HD
ATOM     49  C   UNL A   1      43.319  29.173  34.950  1.00  0.00     0.031 A 
ATOM     50  C   UNL A   1      38.011  32.278  31.585  1.00  0.00     0.031 A 
ATOM     51  C   UNL A   1      42.673  30.236  35.673  1.00  0.00     0.049 A 
ATOM     52  C   UNL A   1      38.382  32.653  32.994  1.00  0.00     0.074 A 
ATOM     53  C   UNL A   1      42.991  30.748  36.920  1.00  0.00     0.029 A 
ATOM     54  N   UNL A   1      41.568  30.943  35.222  1.00  0.00    -0.354 N 
ATOM     55  N   UNL A   1      39.365  32.199  33.734  1.00  0.00    -0.248 NA
ATOM     56  C   UNL A   1      37.542  33.660  33.657  1.00  0.00     0.031 C 
ATOM     57  C   UNL A   1      42.042  31.723  37.246  1.00  0.00     0.029 A 
ATOM     58  C   UNL A   1      41.165  31.857  36.182  1.00  0.00     0.049 A 
ATOM     59  H   UNL A   1      41.133  30.814  34.348  1.00  0.00     0.167 HD
ATOM     60  C   UNL A   1      39.265  32.868  34.949  1.00  0.00     0.074 A 
ATOM     61  C   UNL A   1      38.139  33.773  34.836  1.00  0.00     0.031 C 
ATOM     62  C   UNL A   1      40.032  32.739  36.059  1.00  0.00     0.031 A 
BRANCH  49  63
ATOM     63  C   UNL A   1      44.455  28.444  35.616  1.00  0.00    -0.014 A 
ATOM     64  C   UNL A   1      45.789  28.849  35.435  1.00  0.00     0.010 A 
ATOM     65  C   UNL A   1      44.177  27.360  36.470  1.00  0.00     0.010 A 
ATOM     66  C   UNL A   1      46.828  28.158  36.066  1.00  0.00     0.020 A 
ATOM     67  C   UNL A   1      45.212  26.681  37.120  1.00  0.00     0.020 A 
ATOM     68  C   UNL A   1      46.533  27.076  36.901  1.00  0.00     0.054 A 
BRANCH  68  69
ATOM     69  S   UNL A   1      47.901  26.207  37.718  1.00  0.00     0.124 S 
ATOM     70  O   UNL A   1      47.350  25.966  39.050  1.00  0.00    -0.237 OA
ATOM     71  O   UNL A   1      48.071  25.020  36.885  1.00  0.00    -0.237 OA
ATOM     72  O   UNL A   1      49.002  27.166  37.665  1.00  0.00    -0.744 OA
ENDBRANCH  68  69
ENDBRANCH  49  63
BRANCH  50  73
ATOM     73  C   UNL A   1      36.850  32.910  30.904  1.00  0.00    -0.014 A 
ATOM     74  C   UNL A   1      35.538  32.497  31.190  1.00  0.00     0.010 A 
ATOM     75  C   UNL A   1      37.055  33.947  29.973  1.00  0.00     0.010 A 
ATOM     76  C   UNL A   1      34.451  33.107  30.555  1.00  0.00     0.020 A 
ATOM     77  C   UNL A   1      35.971  34.576  29.357  1.00  0.00     0.020 A 
ATOM     78  C   UNL A   1      34.675  34.145  29.644  1.00  0.00     0.054 A 
BRANCH  78  79
ATOM     79  S   UNL A   1      33.248  34.966  28.880  1.00  0.00     0.124 S 
ATOM     80  O   UNL A   1      32.740  33.925  27.992  1.00  0.00    -0.237 OA
ATOM     81  O   UNL A   1      32.408  35.279  30.033  1.00  0.00    -0.237 OA
ATOM     82  O   UNL A   1      33.837  36.126  28.216  1.00  0.00    -0.744 OA
ENDBRANCH  78  79
ENDBRANCH  50  73
BRANCH  62  83
ATOM     83  C   UNL A   1      39.681  33.595  37.245  1.00  0.00    -0.014 A 
ATOM     84  C   UNL A   1      38.866  33.096  38.276  1.00  0.00     0.010 A 
ATOM     85  C   UNL A   1      40.229  34.885  37.365  1.00  0.00     0.010 A 
ATOM     86  C   UNL A   1      38.595  33.878  39.402  1.00  0.00     0.020 A 
ATOM     87  C   UNL A   1      39.978  35.661  38.499  1.00  0.00     0.020 A 
ATOM     88  C   UNL A   1      39.154  35.155  39.508  1.00  0.00     0.054 A 
BRANCH  88  89
ATOM     89  S   UNL A   1      38.840  36.123  41.009  1.00  0.00     0.124 S 
ATOM     90  O   UNL A   1      37.686  35.435  41.579  1.00  0.00    -0.237 OA
ATOM     91  O   UNL A   1      40.089  35.978  41.753  1.00  0.00    -0.237 OA
ATOM     92  O   UNL A   1      38.576  37.469  40.505  1.00  0.00    -0.744 OA
ENDBRANCH  88  89
ENDBRANCH  62  83
ENDBRANCH  36  37
ENDBRANCH  29  31
ENDBRANCH  28  29
ENDBRANCH  27  28
ENDBRANCH   1  27
TORSDOF 18
ENDMDL
MODEL 2
REMARK VINA RESULT:     -11.5      6.019     11.773
REMARK SMILES C/C=C(\C)[C@@H]1C(C)=C[C@@H]2[C@H]([C@@H]1/C=C/C=C/C(=O)OCCOC(=O)c1ccc(-c3c4nc(c(-c5ccc(S(=O)(=O)[O-])cc5)c5ccc([nH]5)c(-c5ccc(S(=O)(=O)[O-])cc5)c5nc(c(-c6ccc(S(=O)(=O)[O-])cc6)c6ccc3[nH]6)C=C5)C=C4)cc1)[C@@H](C)CC[C@@H]2O
REMARK SMILES IDX 19 1 18 2 16 3 17 4 15 5 14 6 13 7 12 8 11 9 5 10 6 11 7 12
REMARK SMILES IDX 8 13 10 14 9 15 84 16 88 17 85 18 86 19 87 20 3 21 1 22 2 23
REMARK SMILES IDX 4 24 89 25 20 27 21 28 22 29 23 30 24 31 25 32 83 33 26 34
REMARK SMILES IDX 82 35 27 36 28 37 29 38 76 39 30 40 81 41 75 42 77 43 31 44
REMARK SMILES IDX 80 45 74 46 73 47 32 49 62 50 43 51 61 52 44 53 47 54 60 55
REMARK SMILES IDX 78 56 45 57 46 58 59 60 79 61 48 62 33 63 34 64 42 65 35 66
REMARK SMILES IDX 41 67 36 68 37 69 38 70 39 71 40 72 63 73 64 74 72 75 65 76
REMARK SMILES IDX 71 77 66 78 67 79 68 80 69 81 70 82 49 83 50 84 58 85 51 86
REMARK SMILES IDX 57 87 52 88 53 89 54 90 55 91 56 92
REMARK H PARENT 89 26 77 48 47 59
REMARK Flexibility Score: inf
ROOT
ATOM      1  C   UNL A   1      33.760  32.135  28.054  1.00  0.00     0.275 C 
ENDROOT
BRANCH   1   2
ATOM      2  O   UNL A   1      33.785  30.938  27.259  1.00  0.00    -0.459 OA
BRANCH   2   3
ATOM      3  C   UNL A   1      32.593  30.543  26.752  1.00  0.00     0.330 C 
ATOM      4  O   UNL A   1      31.583  31.224  26.660  1.00  0.00    -0.247 OA
BRANCH   3   5
ATOM      5  C   UNL A   1      32.612  29.135  26.312  1.00  0.00     0.093 C 
ATOM      6  C   UNL A   1      33.689  28.340  26.350  1.00  0.00     0.007 C 
BRANCH   6   7
ATOM      7  C   UNL A   1      33.611  26.941  26.000  1.00  0.00    -0.004 C 
ATOM      8  C   UNL A   1      33.761  26.524  24.733  1.00  0.00    -0.022 C 
BRANCH   8   9
ATOM      9  C   UNL A   1      33.963  25.068  24.356  1.00  0.00     0.027 C 
ATOM     10  C   UNL A   1      32.837  24.492  23.386  1.00  0.00     0.047 C 
ATOM     11  C   UNL A   1      32.405  23.074  23.744  1.00  0.00    -0.069 C 
ATOM     12  C   UNL A   1      31.988  22.173  22.613  1.00  0.00     0.040 C 
ATOM     13  C   UNL A   1      32.413  22.646  25.016  1.00  0.00    -0.021 C 
ATOM     14  C   UNL A   1      34.239  24.214  25.649  1.00  0.00     0.009 C 
ATOM     15  C   UNL A   1      32.937  23.523  26.133  1.00  0.00     0.044 C 
ATOM     16  C   UNL A   1      35.391  23.158  25.495  1.00  0.00    -0.010 C 
ATOM     17  C   UNL A   1      33.195  22.769  27.453  1.00  0.00     0.121 C 
ATOM     18  C   UNL A   1      36.745  23.792  25.149  1.00  0.00     0.008 C 
ATOM     19  C   UNL A   1      35.571  22.334  26.791  1.00  0.00     0.006 C 
ATOM     20  C   UNL A   1      34.279  21.711  27.305  1.00  0.00     0.033 C 
BRANCH  10  21
ATOM     21  C   UNL A   1      31.570  25.329  23.069  1.00  0.00    -0.070 C 
ATOM     22  C   UNL A   1      29.292  26.176  23.818  1.00  0.00     0.035 C 
ATOM     23  C   UNL A   1      30.548  25.373  23.954  1.00  0.00    -0.031 C 
ATOM     24  C   UNL A   1      31.523  26.171  21.819  1.00  0.00     0.040 C 
ENDBRANCH  10  21
BRANCH  17  25
ATOM     25  O   UNL A   1      32.001  22.188  27.976  1.00  0.00    -0.393 OA
ATOM     26  H   UNL A   1      32.224  21.608  28.722  1.00  0.00     0.210 HD
ENDBRANCH  17  25
ENDBRANCH   8   9
ENDBRANCH   6   7
ENDBRANCH   3   5
ENDBRANCH   2   3
ENDBRANCH   1   2
BRANCH   1  27
ATOM     27  C   UNL A   1      35.028  32.259  28.901  1.00  0.00     0.275 C 
BRANCH  27  28
ATOM     28  O   UNL A   1      35.578  30.970  29.230  1.00  0.00    -0.458 OA
BRANCH  28  29
ATOM     29  C   UNL A   1      36.372  30.941  30.327  1.00  0.00     0.338 C 
ATOM     30  O   UNL A   1      36.034  31.122  31.490  1.00  0.00    -0.246 OA
BRANCH  29  31
ATOM     31  C   UNL A   1      37.724  30.518  29.935  1.00  0.00     0.060 A 
ATOM     32  C   UNL A   1      38.696  30.386  30.931  1.00  0.00     0.016 A 
ATOM     33  C   UNL A   1      38.042  30.280  28.596  1.00  0.00     0.016 A 
ATOM     34  C   UNL A   1      39.987  29.985  30.596  1.00  0.00     0.010 A 
ATOM     35  C   UNL A   1      39.341  29.888  28.261  1.00  0.00     0.010 A 
ATOM     36  C   UNL A   1      40.318  29.732  29.259  1.00  0.00    -0.014 A 
BRANCH  36  37
ATOM     37  C   UNL A   1      41.688  29.296  28.899  1.00  0.00     0.031 A 
ATOM     38  C   UNL A   1      42.809  30.294  28.860  1.00  0.00     0.074 A 
ATOM     39  C   UNL A   1      41.914  28.005  28.595  1.00  0.00     0.049 A 
ATOM     40  N   UNL A   1      44.046  30.126  28.472  1.00  0.00    -0.248 NA
ATOM     41  C   UNL A   1      42.498  31.656  29.320  1.00  0.00     0.031 C 
ATOM     42  C   UNL A   1      40.911  26.939  28.644  1.00  0.00     0.029 A 
ATOM     43  N   UNL A   1      43.055  27.372  28.172  1.00  0.00    -0.354 N 
ATOM     44  C   UNL A   1      44.661  31.363  28.623  1.00  0.00     0.074 A 
ATOM     45  C   UNL A   1      43.656  32.275  29.129  1.00  0.00     0.031 C 
ATOM     46  C   UNL A   1      41.482  25.786  28.258  1.00  0.00     0.029 A 
ATOM     47  C   UNL A   1      42.870  26.042  27.886  1.00  0.00     0.049 A 
ATOM     48  H   UNL A   1      43.924  27.828  28.083  1.00  0.00     0.167 HD
ATOM     49  C   UNL A   1      45.945  31.703  28.361  1.00  0.00     0.031 A 
ATOM     50  C   UNL A   1      43.710  25.137  27.344  1.00  0.00     0.031 A 
ATOM     51  C   UNL A   1      46.932  30.792  27.845  1.00  0.00     0.049 A 
ATOM     52  C   UNL A   1      45.102  25.566  26.967  1.00  0.00     0.074 A 
ATOM     53  C   UNL A   1      48.267  31.035  27.567  1.00  0.00     0.029 A 
ATOM     54  N   UNL A   1      46.691  29.466  27.515  1.00  0.00    -0.354 N 
ATOM     55  N   UNL A   1      45.676  26.734  27.133  1.00  0.00    -0.248 NA
ATOM     56  C   UNL A   1      45.955  24.561  26.319  1.00  0.00     0.031 C 
ATOM     57  C   UNL A   1      48.816  29.873  27.014  1.00  0.00     0.029 A 
ATOM     58  C   UNL A   1      47.839  28.890  26.997  1.00  0.00     0.049 A 
ATOM     59  H   UNL A   1      45.830  29.003  27.632  1.00  0.00     0.167 HD
ATOM     60  C   UNL A   1      46.959  26.603  26.613  1.00  0.00     0.074 A 
ATOM     61  C   UNL A   1      47.084  25.237  26.148  1.00  0.00     0.031 C 
ATOM     62  C   UNL A   1      47.941  27.532  26.524  1.00  0.00     0.031 A 
BRANCH  49  63
ATOM     63  C   UNL A   1      46.344  33.137  28.586  1.00  0.00    -0.014 A 
ATOM     64  C   UNL A   1      46.274  34.085  27.551  1.00  0.00     0.010 A 
ATOM     65  C   UNL A   1      46.758  33.547  29.867  1.00  0.00     0.010 A 
ATOM     66  C   UNL A   1      46.648  35.412  27.784  1.00  0.00     0.020 A 
ATOM     67  C   UNL A   1      47.110  34.879  30.109  1.00  0.00     0.020 A 
ATOM     68  C   UNL A   1      47.068  35.799  29.060  1.00  0.00     0.054 A 
BRANCH  68  69
ATOM     69  S   UNL A   1      47.533  37.532  29.337  1.00  0.00     0.124 S 
ATOM     70  O   UNL A   1      48.702  37.671  28.472  1.00  0.00    -0.237 OA
ATOM     71  O   UNL A   1      46.343  38.257  28.904  1.00  0.00    -0.237 OA
ATOM     72  O   UNL A   1      47.810  37.592  30.771  1.00  0.00    -0.744 OA
ENDBRANCH  68  69
ENDBRANCH  49  63
BRANCH  50  73
ATOM     73  C   UNL A   1      43.235  23.754  27.075  1.00  0.00    -0.014 A 
ATOM     74  C   UNL A   1      42.939  23.339  25.765  1.00  0.00     0.010 A 
ATOM     75  C   UNL A   1      43.094  22.836  28.133  1.00  0.00     0.010 A 
ATOM     76  C   UNL A   1      42.506  22.032  25.520  1.00  0.00     0.020 A 
ATOM     77  C   UNL A   1      42.687  21.523  27.888  1.00  0.00     0.020 A 
ATOM     78  C   UNL A   1      42.386  21.130  26.582  1.00  0.00     0.054 A 
BRANCH  78  79
ATOM     79  S   UNL A   1      41.885  19.422  26.233  1.00  0.00     0.124 S 
ATOM     80  O   UNL A   1      40.461  19.575  25.953  1.00  0.00    -0.237 OA
ATOM     81  O   UNL A   1      42.721  19.074  25.087  1.00  0.00    -0.237 OA
ATOM     82  O   UNL A   1      42.209  18.712  27.468  1.00  0.00    -0.744 OA
ENDBRANCH  78  79
ENDBRANCH  50  73
BRANCH  62  83
ATOM     83  C   UNL A   1      49.241  27.106  25.898  1.00  0.00    -0.014 A 
ATOM     84  C   UNL A   1      49.446  27.229  24.513  1.00  0.00     0.010 A 
ATOM     85  C   UNL A   1      50.293  26.647  26.711  1.00  0.00     0.010 A 
ATOM     86  C   UNL A   1      50.678  26.886  23.948  1.00  0.00     0.020 A 
ATOM     87  C   UNL A   1      51.533  26.324  26.154  1.00  0.00     0.020 A 
ATOM     88  C   UNL A   1      51.715  26.438  24.773  1.00  0.00     0.054 A 
BRANCH  88  89
ATOM     89  S   UNL A   1      53.324  26.063  24.025  1.00  0.00     0.124 S 
ATOM     90  O   UNL A   1      53.677  24.806  24.678  1.00  0.00    -0.237 OA
ATOM     91  O   UNL A   1      53.002  25.963  22.603  1.00  0.00    -0.237 OA
ATOM     92  O   UNL A   1      54.152  27.209  24.390  1.00  0.00    -0.744 OA
ENDBRANCH  88  89
ENDBRANCH  62  83
ENDBRANCH  36  37
ENDBRANCH  29  31
ENDBRANCH  28  29
ENDBRANCH  27  28
ENDBRANCH   1  27
TORSDOF 18
ENDMDL
MODEL 3
REMARK VINA RESULT:     -11.3      6.304     11.562
REMARK SMILES C/C=C(\C)[C@@H]1C(C)=C[C@@H]2[C@H]([C@@H]1/C=C/C=C/C(=O)OCCOC(=O)c1ccc(-c3c4nc(c(-c5ccc(S(=O)(=O)[O-])cc5)c5ccc([nH]5)c(-c5ccc(S(=O)(=O)[O-])cc5)c5nc(c(-c6ccc(S(=O)(=O)[O-])cc6)c6ccc3[nH]6)C=C5)C=C4)cc1)[C@@H](C)CC[C@@H]2O
REMARK SMILES IDX 19 1 18 2 16 3 17 4 15 5 14 6 13 7 12 8 11 9 5 10 6 11 7 12
REMARK SMILES IDX 8 13 10 14 9 15 84 16 88 17 85 18 86 19 87 20 3 21 1 22 2 23
REMARK SMILES IDX 4 24 89 25 20 27 21 28 22 29 23 30 24 31 25 32 83 33 26 34
REMARK SMILES IDX 82 35 27 36 28 37 29 38 76 39 30 40 81 41 75 42 77 43 31 44
REMARK SMILES IDX 80 45 74 46 73 47 32 49 62 50 43 51 61 52 44 53 47 54 60 55
REMARK SMILES IDX 78 56 45 57 46 58 59 60 79 61 48 62 33 63 34 64 42 65 35 66
REMARK SMILES IDX 41 67 36 68 37 69 38 70 39 71 40 72 63 73 64 74 72 75 65 76
REMARK SMILES IDX 71 77 66 78 67 79 68 80 69 81 70 82 49 83 50 84 58 85 51 86
REMARK SMILES IDX 57 87 52 88 53 89 54 90 55 91 56 92
REMARK H PARENT 89 26 77 48 47 59
REMARK Flexibility Score: inf
ROOT
ATOM      1  C   UNL A   1      34.221  31.901  28.188  1.00  0.00     0.275 C 
ENDROOT
BRANCH   1   2
ATOM      2  O   UNL A   1      34.133  30.806  27.262  1.00  0.00    -0.459 OA
BRANCH   2   3
ATOM      3  C   UNL A   1      32.883  30.469  26.866  1.00  0.00     0.330 C 
ATOM      4  O   UNL A   1      31.895  31.187  26.894  1.00  0.00    -0.247 OA
BRANCH   3   5
ATOM      5  C   UNL A   1      32.805  29.076  26.387  1.00  0.00     0.093 C 
ATOM      6  C   UNL A   1      33.852  28.245  26.288  1.00  0.00     0.007 C 
BRANCH   6   7
ATOM      7  C   UNL A   1      33.686  26.861  25.909  1.00  0.00    -0.004 C 
ATOM      8  C   UNL A   1      33.925  26.442  24.657  1.00  0.00    -0.022 C 
BRANCH   8   9
ATOM      9  C   UNL A   1      34.035  24.977  24.278  1.00  0.00     0.027 C 
ATOM     10  C   UNL A   1      32.845  24.459  23.352  1.00  0.00     0.047 C 
ATOM     11  C   UNL A   1      32.353  23.067  23.730  1.00  0.00    -0.069 C 
ATOM     12  C   UNL A   1      31.847  22.188  22.619  1.00  0.00     0.040 C 
ATOM     13  C   UNL A   1      32.385  22.641  25.003  1.00  0.00    -0.021 C 
ATOM     14  C   UNL A   1      34.314  24.111  25.562  1.00  0.00     0.009 C 
ATOM     15  C   UNL A   1      32.996  23.491  26.096  1.00  0.00     0.044 C 
ATOM     16  C   UNL A   1      35.402  22.995  25.369  1.00  0.00    -0.010 C 
ATOM     17  C   UNL A   1      33.263  22.726  27.409  1.00  0.00     0.121 C 
ATOM     18  C   UNL A   1      36.774  23.557  24.972  1.00  0.00     0.008 C 
ATOM     19  C   UNL A   1      35.586  22.165  26.661  1.00  0.00     0.006 C 
ATOM     20  C   UNL A   1      34.284  21.612  27.225  1.00  0.00     0.033 C 
BRANCH  10  21
ATOM     21  C   UNL A   1      31.614  25.361  23.079  1.00  0.00    -0.070 C 
ATOM     22  C   UNL A   1      29.437  26.369  23.927  1.00  0.00     0.035 C 
ATOM     23  C   UNL A   1      30.650  25.496  24.019  1.00  0.00    -0.031 C 
ATOM     24  C   UNL A   1      31.543  26.167  21.806  1.00  0.00     0.040 C 
ENDBRANCH  10  21
BRANCH  17  25
ATOM     25  O   UNL A   1      32.060  22.210  27.978  1.00  0.00    -0.393 OA
ATOM     26  H   UNL A   1      31.374  22.160  27.294  1.00  0.00     0.210 HD
ENDBRANCH  17  25
ENDBRANCH   8   9
ENDBRANCH   6   7
ENDBRANCH   3   5
ENDBRANCH   2   3
ENDBRANCH   1   2
BRANCH   1  27
ATOM     27  C   UNL A   1      35.299  31.643  29.244  1.00  0.00     0.275 C 
BRANCH  27  28
ATOM     28  O   UNL A   1      36.006  30.414  28.995  1.00  0.00    -0.458 OA
BRANCH  28  29
ATOM     29  C   UNL A   1      36.727  29.939  30.039  1.00  0.00     0.338 C 
ATOM     30  O   UNL A   1      36.319  29.687  31.166  1.00  0.00    -0.246 OA
BRANCH  29  31
ATOM     31  C   UNL A   1      38.090  29.629  29.585  1.00  0.00     0.060 A 
ATOM     32  C   UNL A   1      38.336  29.562  28.211  1.00  0.00     0.016 A 
ATOM     33  C   UNL A   1      39.113  29.380  30.503  1.00  0.00     0.016 A 
ATOM     34  C   UNL A   1      39.616  29.273  27.744  1.00  0.00     0.010 A 
ATOM     35  C   UNL A   1      40.395  29.081  30.033  1.00  0.00     0.010 A 
ATOM     36  C   UNL A   1      40.655  29.031  28.653  1.00  0.00    -0.014 A 
BRANCH  36  37
ATOM     37  C   UNL A   1      42.021  28.734  28.161  1.00  0.00     0.031 A 
ATOM     38  C   UNL A   1      42.390  27.333  27.767  1.00  0.00     0.074 A 
ATOM     39  C   UNL A   1      42.928  29.725  28.086  1.00  0.00     0.049 A 
ATOM     40  N   UNL A   1      43.555  26.858  27.413  1.00  0.00    -0.248 NA
ATOM     41  C   UNL A   1      41.305  26.339  27.769  1.00  0.00     0.031 C 
ATOM     42  C   UNL A   1      42.669  31.131  28.398  1.00  0.00     0.029 A 
ATOM     43  N   UNL A   1      44.254  29.697  27.735  1.00  0.00    -0.354 N 
ATOM     44  C   UNL A   1      43.353  25.506  27.166  1.00  0.00     0.074 A 
ATOM     45  C   UNL A   1      41.954  25.235  27.421  1.00  0.00     0.031 C 
ATOM     46  C   UNL A   1      43.804  31.831  28.232  1.00  0.00     0.029 A 
ATOM     47  C   UNL A   1      44.878  30.916  27.854  1.00  0.00     0.049 A 
ATOM     48  H   UNL A   1      44.715  28.884  27.427  1.00  0.00     0.167 HD
ATOM     49  C   UNL A   1      44.255  24.579  26.765  1.00  0.00     0.031 A 
ATOM     50  C   UNL A   1      46.175  31.253  27.717  1.00  0.00     0.031 A 
ATOM     51  C   UNL A   1      45.647  24.857  26.528  1.00  0.00     0.049 A 
ATOM     52  C   UNL A   1      47.176  30.184  27.370  1.00  0.00     0.074 A 
ATOM     53  C   UNL A   1      46.637  23.990  26.098  1.00  0.00     0.029 A 
ATOM     54  N   UNL A   1      46.252  26.091  26.714  1.00  0.00    -0.354 N 
ATOM     55  N   UNL A   1      46.967  28.913  27.121  1.00  0.00    -0.248 NA
ATOM     56  C   UNL A   1      48.586  30.591  27.299  1.00  0.00     0.031 C 
ATOM     57  C   UNL A   1      47.850  24.686  26.081  1.00  0.00     0.029 A 
ATOM     58  C   UNL A   1      47.608  26.000  26.448  1.00  0.00     0.049 A 
ATOM     59  H   UNL A   1      45.784  26.912  26.993  1.00  0.00     0.167 HD
ATOM     60  C   UNL A   1      48.220  28.369  26.859  1.00  0.00     0.074 A 
ATOM     61  C   UNL A   1      49.176  29.453  26.958  1.00  0.00     0.031 C 
ATOM     62  C   UNL A   1      48.548  27.087  26.568  1.00  0.00     0.031 A 
BRANCH  49  63
ATOM     63  C   UNL A   1      43.771  23.163  26.601  1.00  0.00    -0.014 A 
ATOM     64  C   UNL A   1      43.919  22.478  25.382  1.00  0.00     0.010 A 
ATOM     65  C   UNL A   1      43.195  22.497  27.698  1.00  0.00     0.010 A 
ATOM     66  C   UNL A   1      43.464  21.162  25.253  1.00  0.00     0.020 A 
ATOM     67  C   UNL A   1      42.760  21.173  27.579  1.00  0.00     0.020 A 
ATOM     68  C   UNL A   1      42.884  20.520  26.351  1.00  0.00     0.054 A 
BRANCH  68  69
ATOM     69  S   UNL A   1      42.315  18.807  26.160  1.00  0.00     0.124 S 
ATOM     70  O   UNL A   1      43.203  18.311  25.111  1.00  0.00    -0.237 OA
ATOM     71  O   UNL A   1      42.538  18.244  27.488  1.00  0.00    -0.237 OA
ATOM     72  O   UNL A   1      40.913  18.947  25.773  1.00  0.00    -0.744 OA
ENDBRANCH  68  69
ENDBRANCH  49  63
BRANCH  50  73
ATOM     73  C   UNL A   1      46.606  32.655  27.967  1.00  0.00    -0.014 A 
ATOM     74  C   UNL A   1      46.656  33.588  26.918  1.00  0.00     0.010 A 
ATOM     75  C   UNL A   1      46.951  33.067  29.269  1.00  0.00     0.010 A 
ATOM     76  C   UNL A   1      47.048  34.908  27.165  1.00  0.00     0.020 A 
ATOM     77  C   UNL A   1      47.318  34.391  29.523  1.00  0.00     0.020 A 
ATOM     78  C   UNL A   1      47.373  35.302  28.467  1.00  0.00     0.054 A 
BRANCH  78  79
ATOM     79  S   UNL A   1      47.817  37.034  28.776  1.00  0.00     0.124 S 
ATOM     80  O   UNL A   1      48.843  36.904  29.806  1.00  0.00    -0.237 OA
ATOM     81  O   UNL A   1      48.288  37.478  27.467  1.00  0.00    -0.237 OA
ATOM     82  O   UNL A   1      46.560  37.635  29.214  1.00  0.00    -0.744 OA
ENDBRANCH  78  79
ENDBRANCH  50  73
BRANCH  62  83
ATOM     83  C   UNL A   1      50.003  26.780  26.337  1.00  0.00    -0.014 A 
ATOM     84  C   UNL A   1      50.883  26.617  27.421  1.00  0.00     0.010 A 
ATOM     85  C   UNL A   1      50.478  26.582  25.029  1.00  0.00     0.010 A 
ATOM     86  C   UNL A   1      52.220  26.274  27.199  1.00  0.00     0.020 A 
ATOM     87  C   UNL A   1      51.808  26.218  24.804  1.00  0.00     0.020 A 
ATOM     88  C   UNL A   1      52.673  26.074  25.891  1.00  0.00     0.054 A 
BRANCH  88  89
ATOM     89  S   UNL A   1      54.395  25.565  25.633  1.00  0.00     0.124 S 
ATOM     90  O   UNL A   1      54.722  26.225  24.373  1.00  0.00    -0.237 OA
ATOM     91  O   UNL A   1      55.068  26.099  26.815  1.00  0.00    -0.237 OA
ATOM     92  O   UNL A   1      54.320  24.107  25.573  1.00  0.00    -0.744 OA
ENDBRANCH  88  89
ENDBRANCH  62  83
ENDBRANCH  36  37
ENDBRANCH  29  31
ENDBRANCH  28  29
ENDBRANCH  27  28
ENDBRANCH   1  27
TORSDOF 18
ENDMDL
