MODEL 1
REMARK VINA RESULT:     -11.6      0.000      0.000
REMARK SMILES CCC(=O)Nc1cc(NC(=O)/C=C/C(=O)OCCOC(=O)c2ccc(-c3c4nc(c(-c5ccc(S(=O)(=O)[O-])cc5)c5ccc([nH]5)c(-c5ccc(S(=O)(=O)[O-])cc5)c5nc(c(-c6ccc(S(=O)(=O)[O-])cc6)c6ccc3[nH]6)C=C5)C=C4)cc2)ccc1C
REMARK SMILES IDX 17 1 16 2 14 3 15 4 13 5 12 6 10 7 9 8 11 10 8 11 6 12 7 13
REMARK SMILES IDX 84 14 83 15 85 16 82 17 5 18 3 19 4 20 2 22 1 23 18 24 19 25
REMARK SMILES IDX 20 26 21 27 22 28 23 29 81 30 24 31 80 32 25 33 26 34 27 35
REMARK SMILES IDX 74 36 28 37 79 38 73 39 75 40 29 41 78 42 72 43 71 44 30 46
REMARK SMILES IDX 60 47 41 48 59 49 42 50 45 51 58 52 76 53 43 54 44 55 57 57
REMARK SMILES IDX 77 58 46 59 31 60 32 61 40 62 33 63 39 64 34 65 35 66 36 67
REMARK SMILES IDX 37 68 38 69 61 70 62 71 70 72 63 73 69 74 64 75 65 76 66 77
REMARK SMILES IDX 67 78 68 79 47 80 48 81 56 82 49 83 55 84 50 85 51 86 52 87
REMARK SMILES IDX 53 88 54 89
REMARK H PARENT 9 9 5 21 75 45 45 56
REMARK Flexibility Score: inf
ROOT
ATOM      1  C   UNL A   1      36.046  22.634  24.063  1.00  0.00     0.275 C 
ENDROOT
BRANCH   1   2
ATOM      2  O   UNL A   1      35.396  21.587  24.854  1.00  0.00    -0.459 OA
BRANCH   2   3
ATOM      3  C   UNL A   1      34.035  21.584  24.839  1.00  0.00     0.331 C 
ATOM      4  O   UNL A   1      33.376  20.623  24.429  1.00  0.00    -0.247 OA
BRANCH   3   5
ATOM      5  C   UNL A   1      33.384  22.670  25.664  1.00  0.00     0.099 C 
ATOM      6  C   UNL A   1      32.480  23.635  25.469  1.00  0.00     0.079 C 
BRANCH   6   7
ATOM      7  C   UNL A   1      31.725  24.471  26.492  1.00  0.00     0.248 C 
ATOM      8  N   UNL A   1      31.375  25.788  26.620  1.00  0.00    -0.322 N 
ATOM      9  H   UNL A   1      30.655  25.799  27.291  1.00  0.00     0.170 HD
ATOM     10  O   UNL A   1      31.116  23.756  27.316  1.00  0.00    -0.270 OA
BRANCH   8  11
ATOM     11  C   UNL A   1      31.557  27.155  26.246  1.00  0.00     0.043 A 
ATOM     12  C   UNL A   1      31.563  29.169  24.825  1.00  0.00     0.046 A 
ATOM     13  C   UNL A   1      31.514  27.749  24.994  1.00  0.00     0.052 A 
ATOM     14  C   UNL A   1      31.625  30.015  25.924  1.00  0.00    -0.027 A 
ATOM     15  C   UNL A   1      31.987  29.435  27.129  1.00  0.00     0.008 A 
ATOM     16  C   UNL A   1      31.148  31.447  25.871  1.00  0.00     0.046 C 
ATOM     17  C   UNL A   1      31.959  28.030  27.278  1.00  0.00     0.026 A 
BRANCH  12  18
ATOM     18  N   UNL A   1      31.161  29.729  23.612  1.00  0.00    -0.326 N 
ATOM     19  C   UNL A   1      30.018  29.484  22.882  1.00  0.00     0.224 C 
ATOM     20  O   UNL A   1      30.045  29.126  21.703  1.00  0.00    -0.275 OA
ATOM     21  H   UNL A   1      31.780  30.389  23.223  1.00  0.00     0.169 HD
BRANCH  19  22
ATOM     22  C   UNL A   1      28.685  29.781  23.504  1.00  0.00     0.097 C 
ATOM     23  C   UNL A   1      27.936  30.674  22.553  1.00  0.00     0.014 C 
ENDBRANCH  19  22
ENDBRANCH  12  18
ENDBRANCH   8  11
ENDBRANCH   6   7
ENDBRANCH   3   5
ENDBRANCH   2   3
ENDBRANCH   1   2
BRANCH   1  24
ATOM     24  C   UNL A   1      37.295  23.239  24.771  1.00  0.00     0.275 C 
BRANCH  24  25
ATOM     25  O   UNL A   1      37.772  22.674  26.013  1.00  0.00    -0.458 OA
BRANCH  25  26
ATOM     26  C   UNL A   1      39.051  22.907  26.394  1.00  0.00     0.338 C 
ATOM     27  O   UNL A   1      39.982  22.175  26.093  1.00  0.00    -0.246 OA
BRANCH  26  28
ATOM     28  C   UNL A   1      39.194  24.271  26.962  1.00  0.00     0.060 A 
ATOM     29  C   UNL A   1      38.771  24.511  28.264  1.00  0.00     0.016 A 
ATOM     30  C   UNL A   1      39.952  25.219  26.302  1.00  0.00     0.016 A 
ATOM     31  C   UNL A   1      39.207  25.645  28.966  1.00  0.00     0.010 A 
ATOM     32  C   UNL A   1      40.536  26.207  27.035  1.00  0.00     0.010 A 
ATOM     33  C   UNL A   1      40.093  26.489  28.327  1.00  0.00    -0.014 A 
BRANCH  33  34
ATOM     34  C   UNL A   1      40.646  27.712  28.898  1.00  0.00     0.031 A 
ATOM     35  C   UNL A   1      39.782  28.923  28.661  1.00  0.00     0.074 A 
ATOM     36  C   UNL A   1      41.710  27.389  29.706  1.00  0.00     0.049 A 
ATOM     37  N   UNL A   1      40.130  30.160  28.658  1.00  0.00    -0.248 NA
ATOM     38  C   UNL A   1      38.360  28.867  28.242  1.00  0.00     0.031 C 
ATOM     39  C   UNL A   1      42.402  27.946  30.853  1.00  0.00     0.029 A 
ATOM     40  N   UNL A   1      42.541  26.277  29.487  1.00  0.00    -0.354 N 
ATOM     41  C   UNL A   1      38.970  30.831  29.057  1.00  0.00     0.074 A 
ATOM     42  C   UNL A   1      37.894  30.101  28.476  1.00  0.00     0.031 C 
ATOM     43  C   UNL A   1      43.683  27.504  30.901  1.00  0.00     0.029 A 
ATOM     44  C   UNL A   1      43.868  26.585  29.800  1.00  0.00     0.049 A 
ATOM     45  H   UNL A   1      42.232  25.402  29.158  1.00  0.00     0.167 HD
ATOM     46  C   UNL A   1      39.046  31.630  30.161  1.00  0.00     0.031 A 
ATOM     47  C   UNL A   1      44.748  26.705  28.758  1.00  0.00     0.031 A 
ATOM     48  C   UNL A   1      40.420  31.564  30.653  1.00  0.00     0.049 A 
ATOM     49  C   UNL A   1      44.861  28.200  28.472  1.00  0.00     0.074 A 
ATOM     50  C   UNL A   1      40.997  30.876  31.700  1.00  0.00     0.029 A 
ATOM     51  N   UNL A   1      41.442  31.880  29.773  1.00  0.00    -0.354 N 
ATOM     52  N   UNL A   1      43.885  29.068  28.611  1.00  0.00    -0.248 NA
ATOM     53  C   UNL A   1      46.164  28.835  28.300  1.00  0.00     0.031 C 
ATOM     54  C   UNL A   1      42.395  30.801  31.428  1.00  0.00     0.029 A 
ATOM     55  C   UNL A   1      42.619  31.262  30.141  1.00  0.00     0.049 A 
ATOM     56  H   UNL A   1      41.341  32.467  28.989  1.00  0.00     0.167 HD
ATOM     57  C   UNL A   1      44.432  30.317  28.797  1.00  0.00     0.074 A 
ATOM     58  C   UNL A   1      45.854  30.118  28.542  1.00  0.00     0.031 C 
ATOM     59  C   UNL A   1      43.789  31.425  29.291  1.00  0.00     0.031 A 
BRANCH  46  60
ATOM     60  C   UNL A   1      37.944  32.229  31.013  1.00  0.00    -0.014 A 
ATOM     61  C   UNL A   1      38.064  33.605  31.322  1.00  0.00     0.010 A 
ATOM     62  C   UNL A   1      36.795  31.585  31.510  1.00  0.00     0.010 A 
ATOM     63  C   UNL A   1      37.121  34.308  32.073  1.00  0.00     0.020 A 
ATOM     64  C   UNL A   1      35.823  32.288  32.267  1.00  0.00     0.020 A 
ATOM     65  C   UNL A   1      35.994  33.649  32.537  1.00  0.00     0.054 A 
BRANCH  65  66
ATOM     66  S   UNL A   1      34.771  34.630  33.450  1.00  0.00     0.124 S 
ATOM     67  O   UNL A   1      35.072  35.992  33.016  1.00  0.00    -0.237 OA
ATOM     68  O   UNL A   1      33.505  34.088  32.965  1.00  0.00    -0.237 OA
ATOM     69  O   UNL A   1      35.070  34.347  34.852  1.00  0.00    -0.744 OA
ENDBRANCH  65  66
ENDBRANCH  46  60
BRANCH  47  70
ATOM     70  C   UNL A   1      44.459  25.581  27.791  1.00  0.00    -0.014 A 
ATOM     71  C   UNL A   1      44.157  25.898  26.429  1.00  0.00     0.010 A 
ATOM     72  C   UNL A   1      45.129  24.392  28.027  1.00  0.00     0.010 A 
ATOM     73  C   UNL A   1      44.657  25.144  25.340  1.00  0.00     0.020 A 
ATOM     74  C   UNL A   1      45.728  23.760  26.932  1.00  0.00     0.020 A 
ATOM     75  C   UNL A   1      45.499  24.086  25.597  1.00  0.00     0.054 A 
BRANCH  75  76
ATOM     76  S   UNL A   1      46.108  22.999  24.249  1.00  0.00     0.124 S 
ATOM     77  O   UNL A   1      47.221  23.732  23.661  1.00  0.00    -0.237 OA
ATOM     78  O   UNL A   1      46.482  21.787  24.971  1.00  0.00    -0.237 OA
ATOM     79  O   UNL A   1      44.936  22.870  23.378  1.00  0.00    -0.744 OA
ENDBRANCH  75  76
ENDBRANCH  47  70
BRANCH  59  80
ATOM     80  C   UNL A   1      44.268  32.844  29.087  1.00  0.00    -0.014 A 
ATOM     81  C   UNL A   1      44.933  33.580  30.069  1.00  0.00     0.010 A 
ATOM     82  C   UNL A   1      44.167  33.448  27.804  1.00  0.00     0.010 A 
ATOM     83  C   UNL A   1      45.335  34.892  29.838  1.00  0.00     0.020 A 
ATOM     84  C   UNL A   1      44.669  34.713  27.525  1.00  0.00     0.020 A 
ATOM     85  C   UNL A   1      45.199  35.449  28.569  1.00  0.00     0.054 A 
BRANCH  85  86
ATOM     86  S   UNL A   1      45.736  37.144  28.315  1.00  0.00     0.124 S 
ATOM     87  O   UNL A   1      46.905  36.956  27.459  1.00  0.00    -0.237 OA
ATOM     88  O   UNL A   1      44.572  37.744  27.666  1.00  0.00    -0.237 OA
ATOM     89  O   UNL A   1      46.017  37.630  29.662  1.00  0.00    -0.744 OA
ENDBRANCH  85  86
ENDBRANCH  59  80
ENDBRANCH  33  34
ENDBRANCH  26  28
ENDBRANCH  25  26
ENDBRANCH  24  25
ENDBRANCH   1  24
TORSDOF 18
ENDMDL
MODEL 2
REMARK VINA RESULT:     -11.5      1.934      2.613
REMARK SMILES CCC(=O)Nc1cc(NC(=O)/C=C/C(=O)OCCOC(=O)c2ccc(-c3c4nc(c(-c5ccc(S(=O)(=O)[O-])cc5)c5ccc([nH]5)c(-c5ccc(S(=O)(=O)[O-])cc5)c5nc(c(-c6ccc(S(=O)(=O)[O-])cc6)c6ccc3[nH]6)C=C5)C=C4)cc2)ccc1C
REMARK SMILES IDX 17 1 16 2 14 3 15 4 13 5 12 6 10 7 9 8 11 10 8 11 6 12 7 13
REMARK SMILES IDX 84 14 83 15 85 16 82 17 5 18 3 19 4 20 2 22 1 23 18 24 19 25
REMARK SMILES IDX 20 26 21 27 22 28 23 29 81 30 24 31 80 32 25 33 26 34 27 35
REMARK SMILES IDX 74 36 28 37 79 38 73 39 75 40 29 41 78 42 72 43 71 44 30 46
REMARK SMILES IDX 60 47 41 48 59 49 42 50 45 51 58 52 76 53 43 54 44 55 57 57
REMARK SMILES IDX 77 58 46 59 31 60 32 61 40 62 33 63 39 64 34 65 35 66 36 67
REMARK SMILES IDX 37 68 38 69 61 70 62 71 70 72 63 73 69 74 64 75 65 76 66 77
REMARK SMILES IDX 67 78 68 79 47 80 48 81 56 82 49 83 55 84 50 85 51 86 52 87
REMARK SMILES IDX 53 88 54 89
REMARK H PARENT 9 9 5 21 75 45 45 56
REMARK Flexibility Score: inf
ROOT
ATOM      1  C   UNL A   1      35.532  23.140  23.765  1.00  0.00     0.275 C 
ENDROOT
BRANCH   1   2
ATOM      2  O   UNL A   1      34.370  22.290  24.034  1.00  0.00    -0.459 OA
BRANCH   2   3
ATOM      3  C   UNL A   1      33.185  22.716  23.515  1.00  0.00     0.331 C 
ATOM      4  O   UNL A   1      32.687  22.220  22.500  1.00  0.00    -0.247 OA
BRANCH   3   5
ATOM      5  C   UNL A   1      32.357  23.580  24.439  1.00  0.00     0.099 C 
ATOM      6  C   UNL A   1      31.271  23.429  25.203  1.00  0.00     0.079 C 
BRANCH   6   7
ATOM      7  C   UNL A   1      30.729  24.336  26.298  1.00  0.00     0.248 C 
ATOM      8  N   UNL A   1      30.632  25.686  26.499  1.00  0.00    -0.322 N 
ATOM      9  H   UNL A   1      29.957  25.793  27.207  1.00  0.00     0.170 HD
ATOM     10  O   UNL A   1      30.037  23.702  27.125  1.00  0.00    -0.270 OA
BRANCH   8  11
ATOM     11  C   UNL A   1      31.043  27.015  26.172  1.00  0.00     0.043 A 
ATOM     12  C   UNL A   1      31.402  29.044  24.820  1.00  0.00     0.046 A 
ATOM     13  C   UNL A   1      31.115  27.647  24.941  1.00  0.00     0.052 A 
ATOM     14  C   UNL A   1      31.592  29.832  25.946  1.00  0.00    -0.027 A 
ATOM     15  C   UNL A   1      31.839  29.161  27.133  1.00  0.00     0.008 A 
ATOM     16  C   UNL A   1      31.361  31.325  25.939  1.00  0.00     0.046 C 
ATOM     17  C   UNL A   1      31.574  27.777  27.235  1.00  0.00     0.026 A 
BRANCH  12  18
ATOM     18  N   UNL A   1      31.113  29.701  23.623  1.00  0.00    -0.326 N 
ATOM     19  C   UNL A   1      29.999  29.589  22.820  1.00  0.00     0.224 C 
ATOM     20  O   UNL A   1      30.067  29.298  21.625  1.00  0.00    -0.275 OA
ATOM     21  H   UNL A   1      31.801  30.332  23.308  1.00  0.00     0.169 HD
BRANCH  19  22
ATOM     22  C   UNL A   1      28.659  29.952  23.388  1.00  0.00     0.097 C 
ATOM     23  C   UNL A   1      27.707  28.841  23.037  1.00  0.00     0.014 C 
ENDBRANCH  19  22
ENDBRANCH  12  18
ENDBRANCH   8  11
ENDBRANCH   6   7
ENDBRANCH   3   5
ENDBRANCH   2   3
ENDBRANCH   1   2
BRANCH   1  24
ATOM     24  C   UNL A   1      36.883  22.443  24.105  1.00  0.00     0.275 C 
BRANCH  24  25
ATOM     25  O   UNL A   1      37.129  21.944  25.440  1.00  0.00    -0.458 OA
BRANCH  25  26
ATOM     26  C   UNL A   1      38.396  21.638  25.805  1.00  0.00     0.338 C 
ATOM     27  O   UNL A   1      39.014  20.690  25.344  1.00  0.00    -0.246 OA
BRANCH  26  28
ATOM     28  C   UNL A   1      39.000  22.738  26.598  1.00  0.00     0.060 A 
ATOM     29  C   UNL A   1      39.999  22.442  27.518  1.00  0.00     0.016 A 
ATOM     30  C   UNL A   1      38.749  24.054  26.258  1.00  0.00     0.016 A 
ATOM     31  C   UNL A   1      40.844  23.448  28.013  1.00  0.00     0.010 A 
ATOM     32  C   UNL A   1      39.682  24.994  26.573  1.00  0.00     0.010 A 
ATOM     33  C   UNL A   1      40.665  24.727  27.527  1.00  0.00    -0.014 A 
BRANCH  33  34
ATOM     34  C   UNL A   1      41.443  25.894  27.929  1.00  0.00     0.031 A 
ATOM     35  C   UNL A   1      40.625  27.155  28.013  1.00  0.00     0.074 A 
ATOM     36  C   UNL A   1      42.685  25.480  28.349  1.00  0.00     0.049 A 
ATOM     37  N   UNL A   1      41.029  28.372  27.936  1.00  0.00    -0.248 NA
ATOM     38  C   UNL A   1      39.142  27.189  28.063  1.00  0.00     0.031 C 
ATOM     39  C   UNL A   1      43.735  25.948  29.235  1.00  0.00     0.029 A 
ATOM     40  N   UNL A   1      43.336  24.341  27.847  1.00  0.00    -0.354 N 
ATOM     41  C   UNL A   1      40.097  29.080  28.700  1.00  0.00     0.074 A 
ATOM     42  C   UNL A   1      38.851  28.432  28.469  1.00  0.00     0.031 C 
ATOM     43  C   UNL A   1      44.936  25.442  28.863  1.00  0.00     0.029 A 
ATOM     44  C   UNL A   1      44.710  24.568  27.733  1.00  0.00     0.049 A 
ATOM     45  H   UNL A   1      42.885  23.498  27.607  1.00  0.00     0.167 HD
ATOM     46  C   UNL A   1      40.564  29.821  29.747  1.00  0.00     0.031 A 
ATOM     47  C   UNL A   1      45.224  24.693  26.471  1.00  0.00     0.031 A 
ATOM     48  C   UNL A   1      42.017  29.665  29.777  1.00  0.00     0.049 A 
ATOM     49  C   UNL A   1      45.333  26.193  26.208  1.00  0.00     0.074 A 
ATOM     50  C   UNL A   1      42.850  28.900  30.568  1.00  0.00     0.029 A 
ATOM     51  N   UNL A   1      42.728  29.971  28.630  1.00  0.00    -0.354 N 
ATOM     52  N   UNL A   1      44.505  27.100  26.673  1.00  0.00    -0.248 NA
ATOM     53  C   UNL A   1      46.553  26.771  25.651  1.00  0.00     0.031 C 
ATOM     54  C   UNL A   1      44.085  28.769  29.866  1.00  0.00     0.029 A 
ATOM     55  C   UNL A   1      43.921  29.279  28.588  1.00  0.00     0.049 A 
ATOM     56  H   UNL A   1      42.423  30.599  27.935  1.00  0.00     0.167 HD
ATOM     57  C   UNL A   1      45.159  28.311  26.713  1.00  0.00     0.074 A 
ATOM     58  C   UNL A   1      46.414  28.054  26.016  1.00  0.00     0.031 C 
ATOM     59  C   UNL A   1      44.773  29.424  27.418  1.00  0.00     0.031 A 
BRANCH  46  60
ATOM     60  C   UNL A   1      39.825  30.433  30.921  1.00  0.00    -0.014 A 
ATOM     61  C   UNL A   1      39.205  31.684  30.691  1.00  0.00     0.010 A 
ATOM     62  C   UNL A   1      39.654  29.888  32.207  1.00  0.00     0.010 A 
ATOM     63  C   UNL A   1      38.466  32.363  31.661  1.00  0.00     0.020 A 
ATOM     64  C   UNL A   1      38.898  30.562  33.201  1.00  0.00     0.020 A 
ATOM     65  C   UNL A   1      38.305  31.795  32.915  1.00  0.00     0.054 A 
BRANCH  65  66
ATOM     66  S   UNL A   1      37.278  32.693  34.112  1.00  0.00     0.124 S 
ATOM     67  O   UNL A   1      37.867  34.030  34.091  1.00  0.00    -0.237 OA
ATOM     68  O   UNL A   1      35.945  32.589  33.525  1.00  0.00    -0.237 OA
ATOM     69  O   UNL A   1      37.466  31.953  35.358  1.00  0.00    -0.744 OA
ENDBRANCH  65  66
ENDBRANCH  46  60
BRANCH  47  70
ATOM     70  C   UNL A   1      44.578  23.631  25.612  1.00  0.00    -0.014 A 
ATOM     71  C   UNL A   1      45.145  23.334  24.333  1.00  0.00     0.010 A 
ATOM     72  C   UNL A   1      43.976  22.586  26.292  1.00  0.00     0.010 A 
ATOM     73  C   UNL A   1      45.259  22.012  23.836  1.00  0.00     0.020 A 
ATOM     74  C   UNL A   1      44.236  21.288  25.843  1.00  0.00     0.020 A 
ATOM     75  C   UNL A   1      44.841  20.968  24.629  1.00  0.00     0.054 A 
BRANCH  75  76
ATOM     76  S   UNL A   1      44.860  19.237  24.018  1.00  0.00     0.124 S 
ATOM     77  O   UNL A   1      44.418  19.332  22.634  1.00  0.00    -0.237 OA
ATOM     78  O   UNL A   1      46.259  18.860  24.194  1.00  0.00    -0.237 OA
ATOM     79  O   UNL A   1      43.915  18.564  24.914  1.00  0.00    -0.744 OA
ENDBRANCH  75  76
ENDBRANCH  47  70
BRANCH  59  80
ATOM     80  C   UNL A   1      45.250  30.827  27.114  1.00  0.00    -0.014 A 
ATOM     81  C   UNL A   1      44.458  31.790  26.490  1.00  0.00     0.010 A 
ATOM     82  C   UNL A   1      46.519  31.260  27.588  1.00  0.00     0.010 A 
ATOM     83  C   UNL A   1      44.953  33.061  26.214  1.00  0.00     0.020 A 
ATOM     84  C   UNL A   1      46.980  32.560  27.424  1.00  0.00     0.020 A 
ATOM     85  C   UNL A   1      46.210  33.437  26.681  1.00  0.00     0.054 A 
BRANCH  85  86
ATOM     86  S   UNL A   1      46.806  35.089  26.307  1.00  0.00     0.124 S 
ATOM     87  O   UNL A   1      47.533  34.863  25.060  1.00  0.00    -0.237 OA
ATOM     88  O   UNL A   1      45.562  35.845  26.181  1.00  0.00    -0.237 OA
ATOM     89  O   UNL A   1      47.631  35.435  27.460  1.00  0.00    -0.744 OA
ENDBRANCH  85  86
ENDBRANCH  59  80
ENDBRANCH  33  34
ENDBRANCH  26  28
ENDBRANCH  25  26
ENDBRANCH  24  25
ENDBRANCH   1  24
TORSDOF 18
ENDMDL
MODEL 3
REMARK VINA RESULT:     -10.8      1.438      2.030
REMARK SMILES CCC(=O)Nc1cc(NC(=O)/C=C/C(=O)OCCOC(=O)c2ccc(-c3c4nc(c(-c5ccc(S(=O)(=O)[O-])cc5)c5ccc([nH]5)c(-c5ccc(S(=O)(=O)[O-])cc5)c5nc(c(-c6ccc(S(=O)(=O)[O-])cc6)c6ccc3[nH]6)C=C5)C=C4)cc2)ccc1C
REMARK SMILES IDX 17 1 16 2 14 3 15 4 13 5 12 6 10 7 9 8 11 10 8 11 6 12 7 13
REMARK SMILES IDX 84 14 83 15 85 16 82 17 5 18 3 19 4 20 2 22 1 23 18 24 19 25
REMARK SMILES IDX 20 26 21 27 22 28 23 29 81 30 24 31 80 32 25 33 26 34 27 35
REMARK SMILES IDX 74 36 28 37 79 38 73 39 75 40 29 41 78 42 72 43 71 44 30 46
REMARK SMILES IDX 60 47 41 48 59 49 42 50 45 51 58 52 76 53 43 54 44 55 57 57
REMARK SMILES IDX 77 58 46 59 31 60 32 61 40 62 33 63 39 64 34 65 35 66 36 67
REMARK SMILES IDX 37 68 38 69 61 70 62 71 70 72 63 73 69 74 64 75 65 76 66 77
REMARK SMILES IDX 67 78 68 79 47 80 48 81 56 82 49 83 55 84 50 85 51 86 52 87
REMARK SMILES IDX 53 88 54 89
REMARK H PARENT 9 9 5 21 75 45 45 56
REMARK Flexibility Score: inf
ROOT
ATOM      1  C   UNL A   1      36.004  22.066  24.237  1.00  0.00     0.275 C 
ENDROOT
BRANCH   1   2
ATOM      2  O   UNL A   1      35.473  21.035  25.131  1.00  0.00    -0.459 OA
BRANCH   2   3
ATOM      3  C   UNL A   1      34.308  20.447  24.740  1.00  0.00     0.331 C 
ATOM      4  O   UNL A   1      34.201  19.228  24.575  1.00  0.00    -0.247 OA
BRANCH   3   5
ATOM      5  C   UNL A   1      33.080  21.321  24.858  1.00  0.00     0.099 C 
ATOM      6  C   UNL A   1      31.950  21.325  25.571  1.00  0.00     0.079 C 
BRANCH   6   7
ATOM      7  C   UNL A   1      30.938  22.444  25.768  1.00  0.00     0.248 C 
ATOM      8  N   UNL A   1      30.748  23.699  25.257  1.00  0.00    -0.322 N 
ATOM      9  H   UNL A   1      29.813  23.924  25.468  1.00  0.00     0.170 HD
ATOM     10  O   UNL A   1      29.936  22.055  26.406  1.00  0.00    -0.270 OA
BRANCH   8  11
ATOM     11  C   UNL A   1      31.258  24.841  24.565  1.00  0.00     0.043 A 
ATOM     12  C   UNL A   1      32.441  26.972  24.205  1.00  0.00     0.046 A 
ATOM     13  C   UNL A   1      31.840  25.996  25.062  1.00  0.00     0.052 A 
ATOM     14  C   UNL A   1      32.489  26.780  22.831  1.00  0.00    -0.027 A 
ATOM     15  C   UNL A   1      31.645  25.812  22.314  1.00  0.00     0.008 A 
ATOM     16  C   UNL A   1      33.529  27.443  21.957  1.00  0.00     0.046 C 
ATOM     17  C   UNL A   1      31.037  24.867  23.171  1.00  0.00     0.026 A 
BRANCH  12  18
ATOM     18  N   UNL A   1      33.314  27.916  24.748  1.00  0.00    -0.326 N 
ATOM     19  C   UNL A   1      33.131  28.737  25.840  1.00  0.00     0.224 C 
ATOM     20  O   UNL A   1      33.243  29.963  25.776  1.00  0.00    -0.275 OA
ATOM     21  H   UNL A   1      34.180  28.008  24.288  1.00  0.00     0.169 HD
BRANCH  19  22
ATOM     22  C   UNL A   1      32.907  28.113  27.185  1.00  0.00     0.097 C 
ATOM     23  C   UNL A   1      31.487  28.409  27.585  1.00  0.00     0.014 C 
ENDBRANCH  19  22
ENDBRANCH  12  18
ENDBRANCH   8  11
ENDBRANCH   6   7
ENDBRANCH   3   5
ENDBRANCH   2   3
ENDBRANCH   1   2
BRANCH   1  24
ATOM     24  C   UNL A   1      37.409  22.579  24.673  1.00  0.00     0.275 C 
BRANCH  24  25
ATOM     25  O   UNL A   1      37.763  22.628  26.074  1.00  0.00    -0.458 OA
BRANCH  25  26
ATOM     26  C   UNL A   1      39.047  22.882  26.420  1.00  0.00     0.338 C 
ATOM     27  O   UNL A   1      39.980  22.156  26.109  1.00  0.00    -0.246 OA
BRANCH  26  28
ATOM     28  C   UNL A   1      39.187  24.258  26.961  1.00  0.00     0.060 A 
ATOM     29  C   UNL A   1      38.723  24.533  28.242  1.00  0.00     0.016 A 
ATOM     30  C   UNL A   1      39.979  25.182  26.305  1.00  0.00     0.016 A 
ATOM     31  C   UNL A   1      39.148  25.679  28.932  1.00  0.00     0.010 A 
ATOM     32  C   UNL A   1      40.549  26.180  27.035  1.00  0.00     0.010 A 
ATOM     33  C   UNL A   1      40.065  26.497  28.304  1.00  0.00    -0.014 A 
BRANCH  33  34
ATOM     34  C   UNL A   1      40.613  27.728  28.865  1.00  0.00     0.031 A 
ATOM     35  C   UNL A   1      39.733  28.928  28.638  1.00  0.00     0.074 A 
ATOM     36  C   UNL A   1      41.692  27.417  29.659  1.00  0.00     0.049 A 
ATOM     37  N   UNL A   1      40.068  30.169  28.628  1.00  0.00    -0.248 NA
ATOM     38  C   UNL A   1      38.306  28.857  28.238  1.00  0.00     0.031 C 
ATOM     39  C   UNL A   1      42.393  27.983  30.795  1.00  0.00     0.029 A 
ATOM     40  N   UNL A   1      42.532  26.314  29.431  1.00  0.00    -0.354 N 
ATOM     41  C   UNL A   1      38.907  30.828  29.041  1.00  0.00     0.074 A 
ATOM     42  C   UNL A   1      37.831  30.086  28.477  1.00  0.00     0.031 C 
ATOM     43  C   UNL A   1      43.679  27.555  30.826  1.00  0.00     0.029 A 
ATOM     44  C   UNL A   1      43.860  26.636  29.725  1.00  0.00     0.049 A 
ATOM     45  H   UNL A   1      42.227  25.435  29.107  1.00  0.00     0.167 HD
ATOM     46  C   UNL A   1      38.989  31.630  30.143  1.00  0.00     0.031 A 
ATOM     47  C   UNL A   1      44.724  26.763  28.671  1.00  0.00     0.031 A 
ATOM     48  C   UNL A   1      40.371  31.580  30.616  1.00  0.00     0.049 A 
ATOM     49  C   UNL A   1      44.816  28.259  28.380  1.00  0.00     0.074 A 
ATOM     50  C   UNL A   1      40.969  30.900  31.657  1.00  0.00     0.029 A 
ATOM     51  N   UNL A   1      41.377  31.905  29.722  1.00  0.00    -0.354 N 
ATOM     52  N   UNL A   1      43.833  29.117  28.531  1.00  0.00    -0.248 NA
ATOM     53  C   UNL A   1      46.110  28.908  28.189  1.00  0.00     0.031 C 
ATOM     54  C   UNL A   1      42.365  30.839  31.366  1.00  0.00     0.029 A 
ATOM     55  C   UNL A   1      42.565  31.300  30.074  1.00  0.00     0.049 A 
ATOM     56  H   UNL A   1      41.259  32.489  28.938  1.00  0.00     0.167 HD
ATOM     57  C   UNL A   1      44.370  30.372  28.707  1.00  0.00     0.074 A 
ATOM     58  C   UNL A   1      45.790  30.188  28.433  1.00  0.00     0.031 C 
ATOM     59  C   UNL A   1      43.722  31.473  29.209  1.00  0.00     0.031 A 
BRANCH  46  60
ATOM     60  C   UNL A   1      37.893  32.219  31.009  1.00  0.00    -0.014 A 
ATOM     61  C   UNL A   1      36.999  33.114  30.372  1.00  0.00     0.010 A 
ATOM     62  C   UNL A   1      37.637  31.957  32.368  1.00  0.00     0.010 A 
ATOM     63  C   UNL A   1      35.925  33.718  31.025  1.00  0.00     0.020 A 
ATOM     64  C   UNL A   1      36.543  32.557  33.043  1.00  0.00     0.020 A 
ATOM     65  C   UNL A   1      35.691  33.430  32.361  1.00  0.00     0.054 A 
BRANCH  65  66
ATOM     66  S   UNL A   1      34.240  34.194  33.138  1.00  0.00     0.124 S 
ATOM     67  O   UNL A   1      33.858  35.211  32.160  1.00  0.00    -0.237 OA
ATOM     68  O   UNL A   1      33.317  33.069  33.258  1.00  0.00    -0.237 OA
ATOM     69  O   UNL A   1      34.752  34.714  34.403  1.00  0.00    -0.744 OA
ENDBRANCH  65  66
ENDBRANCH  46  60
BRANCH  47  70
ATOM     70  C   UNL A   1      44.434  25.634  27.710  1.00  0.00    -0.014 A 
ATOM     71  C   UNL A   1      44.186  25.940  26.334  1.00  0.00     0.010 A 
ATOM     72  C   UNL A   1      45.059  24.430  27.984  1.00  0.00     0.010 A 
ATOM     73  C   UNL A   1      44.699  25.157  25.272  1.00  0.00     0.020 A 
ATOM     74  C   UNL A   1      45.675  23.765  26.918  1.00  0.00     0.020 A 
ATOM     75  C   UNL A   1      45.500  24.078  25.572  1.00  0.00     0.054 A 
BRANCH  75  76
ATOM     76  S   UNL A   1      46.120  22.954  24.259  1.00  0.00     0.124 S 
ATOM     77  O   UNL A   1      46.516  21.745  24.969  1.00  0.00    -0.237 OA
ATOM     78  O   UNL A   1      44.952  22.807  23.397  1.00  0.00    -0.237 OA
ATOM     79  O   UNL A   1      47.233  23.711  23.679  1.00  0.00    -0.744 OA
ENDBRANCH  75  76
ENDBRANCH  47  70
BRANCH  59  80
ATOM     80  C   UNL A   1      44.183  32.898  28.996  1.00  0.00    -0.014 A 
ATOM     81  C   UNL A   1      44.501  33.767  30.040  1.00  0.00     0.010 A 
ATOM     82  C   UNL A   1      44.439  33.369  27.679  1.00  0.00     0.010 A 
ATOM     83  C   UNL A   1      44.900  35.077  29.790  1.00  0.00     0.020 A 
ATOM     84  C   UNL A   1      44.950  34.635  27.418  1.00  0.00     0.020 A 
ATOM     85  C   UNL A   1      45.121  35.501  28.482  1.00  0.00     0.054 A 
BRANCH  85  86
ATOM     86  S   UNL A   1      45.642  37.198  28.208  1.00  0.00     0.124 S 
ATOM     87  O   UNL A   1      44.645  37.659  27.244  1.00  0.00    -0.237 OA
ATOM     88  O   UNL A   1      45.536  37.774  29.546  1.00  0.00    -0.237 OA
ATOM     89  O   UNL A   1      47.001  37.069  27.691  1.00  0.00    -0.744 OA
ENDBRANCH  85  86
ENDBRANCH  59  80
ENDBRANCH  33  34
ENDBRANCH  26  28
ENDBRANCH  25  26
ENDBRANCH  24  25
ENDBRANCH   1  24
TORSDOF 18
ENDMDL
