MODEL 1
REMARK VINA RESULT:     -10.2      0.000      0.000
REMARK SMILES O=C(OCCOC(=O)c1ncoc1-c1cc(F)cc(F)c1)c1ccc(-c2c3nc(c(-c4ccc(S(=O)(=O)[O-])cc4)c4ccc([nH]4)c(-c4ccc(S(=O)(=O)[O-])cc4)c4nc(c(-c5ccc(S(=O)(=O)[O-])cc5)c5ccc2[nH]5)C=C4)C=C3)cc1
REMARK SMILES IDX 4 1 3 2 2 3 1 4 22 5 23 6 81 7 24 8 80 9 25 10 26 11 27 12
REMARK SMILES IDX 74 13 28 14 79 15 73 16 75 17 29 18 78 19 72 20 71 21 30 23
REMARK SMILES IDX 60 24 41 25 59 26 42 27 45 28 58 29 76 30 43 31 44 32 57 34
REMARK SMILES IDX 77 35 46 36 31 37 32 38 40 39 33 40 39 41 34 42 35 43 36 44
REMARK SMILES IDX 37 45 38 46 61 47 62 48 70 49 63 50 69 51 64 52 65 53 66 54
REMARK SMILES IDX 67 55 68 56 47 57 48 58 56 59 49 60 55 61 50 62 51 63 52 64
REMARK SMILES IDX 53 65 54 66 5 67 6 68 7 69 8 70 9 71 10 72 13 73 11 74 12 75
REMARK SMILES IDX 14 76 15 77 21 78 16 79 19 80 17 81 18 82 20 83
REMARK H PARENT 75 22 45 33
REMARK Flexibility Score: inf
ROOT
ATOM      1  C   UNL A   1      33.319  32.328  27.649  1.00  0.00     0.275 C 
ENDROOT
BRANCH   1   2
ATOM      2  O   UNL A   1      34.090  31.451  28.500  1.00  0.00    -0.458 OA
BRANCH   2   3
ATOM      3  C   UNL A   1      34.559  30.266  28.054  1.00  0.00     0.338 C 
ATOM      4  O   UNL A   1      33.898  29.540  27.325  1.00  0.00    -0.246 OA
BRANCH   3   5
ATOM      5  C   UNL A   1      35.971  29.939  28.412  1.00  0.00     0.060 A 
ATOM      6  C   UNL A   1      36.355  29.450  29.661  1.00  0.00     0.016 A 
ATOM      7  C   UNL A   1      36.944  30.082  27.414  1.00  0.00     0.016 A 
ATOM      8  C   UNL A   1      37.672  29.060  29.889  1.00  0.00     0.010 A 
ATOM      9  C   UNL A   1      38.250  29.644  27.615  1.00  0.00     0.010 A 
ATOM     10  C   UNL A   1      38.625  29.156  28.870  1.00  0.00    -0.014 A 
BRANCH  10  11
ATOM     11  C   UNL A   1      40.046  28.926  29.189  1.00  0.00     0.031 A 
ATOM     12  C   UNL A   1      40.637  27.587  28.848  1.00  0.00     0.074 A 
ATOM     13  C   UNL A   1      40.790  29.918  29.712  1.00  0.00     0.049 A 
ATOM     14  N   UNL A   1      41.877  27.189  28.926  1.00  0.00    -0.248 NA
ATOM     15  C   UNL A   1      39.705  26.557  28.352  1.00  0.00     0.031 C 
ATOM     16  C   UNL A   1      40.294  31.249  30.076  1.00  0.00     0.029 A 
ATOM     17  N   UNL A   1      42.125  29.967  30.013  1.00  0.00    -0.354 N 
ATOM     18  C   UNL A   1      41.872  25.871  28.481  1.00  0.00     0.074 A 
ATOM     19  C   UNL A   1      40.501  25.511  28.208  1.00  0.00     0.031 C 
ATOM     20  C   UNL A   1      41.318  31.987  30.541  1.00  0.00     0.029 A 
ATOM     21  C   UNL A   1      42.536  31.184  30.505  1.00  0.00     0.049 A 
ATOM     22  H   UNL A   1      42.734  29.204  29.887  1.00  0.00     0.167 HD
ATOM     23  C   UNL A   1      42.924  25.046  28.279  1.00  0.00     0.031 A 
ATOM     24  C   UNL A   1      43.767  31.600  30.862  1.00  0.00     0.031 A 
ATOM     25  C   UNL A   1      44.279  25.426  28.554  1.00  0.00     0.049 A 
ATOM     26  C   UNL A   1      44.922  30.658  30.650  1.00  0.00     0.074 A 
ATOM     27  C   UNL A   1      45.437  24.694  28.381  1.00  0.00     0.029 A 
ATOM     28  N   UNL A   1      44.652  26.662  29.065  1.00  0.00    -0.354 N 
ATOM     29  N   UNL A   1      44.908  29.435  30.170  1.00  0.00    -0.248 NA
ATOM     30  C   UNL A   1      46.259  31.158  30.995  1.00  0.00     0.031 C 
ATOM     31  C   UNL A   1      46.509  25.477  28.822  1.00  0.00     0.029 A 
ATOM     32  C   UNL A   1      46.023  26.713  29.226  1.00  0.00     0.049 A 
ATOM     33  H   UNL A   1      44.030  27.395  29.282  1.00  0.00     0.167 HD
ATOM     34  C   UNL A   1      46.236  29.029  30.128  1.00  0.00     0.074 A 
ATOM     35  C   UNL A   1      47.026  30.141  30.621  1.00  0.00     0.031 C 
ATOM     36  C   UNL A   1      46.762  27.848  29.717  1.00  0.00     0.031 A 
BRANCH  23  37
ATOM     37  C   UNL A   1      42.622  23.671  27.742  1.00  0.00    -0.014 A 
ATOM     38  C   UNL A   1      42.496  22.569  28.609  1.00  0.00     0.010 A 
ATOM     39  C   UNL A   1      42.504  23.468  26.357  1.00  0.00     0.010 A 
ATOM     40  C   UNL A   1      42.319  21.280  28.098  1.00  0.00     0.020 A 
ATOM     41  C   UNL A   1      42.297  22.183  25.842  1.00  0.00     0.020 A 
ATOM     42  C   UNL A   1      42.230  21.095  26.716  1.00  0.00     0.054 A 
BRANCH  42  43
ATOM     43  S   UNL A   1      42.013  19.411  26.076  1.00  0.00     0.124 S 
ATOM     44  O   UNL A   1      40.579  19.378  25.799  1.00  0.00    -0.237 OA
ATOM     45  O   UNL A   1      42.879  19.400  24.901  1.00  0.00    -0.237 OA
ATOM     46  O   UNL A   1      42.455  18.562  27.180  1.00  0.00    -0.744 OA
ENDBRANCH  42  43
ENDBRANCH  23  37
BRANCH  24  47
ATOM     47  C   UNL A   1      43.964  32.972  31.409  1.00  0.00    -0.014 A 
ATOM     48  C   UNL A   1      44.169  34.071  30.557  1.00  0.00     0.010 A 
ATOM     49  C   UNL A   1      43.929  33.189  32.800  1.00  0.00     0.010 A 
ATOM     50  C   UNL A   1      44.350  35.355  31.083  1.00  0.00     0.020 A 
ATOM     51  C   UNL A   1      44.087  34.475  33.328  1.00  0.00     0.020 A 
ATOM     52  C   UNL A   1      44.307  35.550  32.466  1.00  0.00     0.054 A 
BRANCH  52  53
ATOM     53  S   UNL A   1      44.494  37.232  33.124  1.00  0.00     0.124 S 
ATOM     54  O   UNL A   1      43.189  37.468  33.733  1.00  0.00    -0.237 OA
ATOM     55  O   UNL A   1      45.610  37.083  34.056  1.00  0.00    -0.237 OA
ATOM     56  O   UNL A   1      44.786  38.033  31.937  1.00  0.00    -0.744 OA
ENDBRANCH  52  53
ENDBRANCH  24  47
BRANCH  36  57
ATOM     57  C   UNL A   1      48.257  27.715  29.759  1.00  0.00    -0.014 A 
ATOM     58  C   UNL A   1      48.901  27.159  30.876  1.00  0.00     0.010 A 
ATOM     59  C   UNL A   1      49.015  28.082  28.632  1.00  0.00     0.010 A 
ATOM     60  C   UNL A   1      50.286  26.992  30.875  1.00  0.00     0.020 A 
ATOM     61  C   UNL A   1      50.397  27.893  28.617  1.00  0.00     0.020 A 
ATOM     62  C   UNL A   1      51.025  27.359  29.745  1.00  0.00     0.054 A 
BRANCH  62  63
ATOM     63  S   UNL A   1      52.816  27.077  29.745  1.00  0.00     0.124 S 
ATOM     64  O   UNL A   1      53.020  26.428  28.454  1.00  0.00    -0.237 OA
ATOM     65  O   UNL A   1      53.355  28.431  29.862  1.00  0.00    -0.237 OA
ATOM     66  O   UNL A   1      53.031  26.226  30.913  1.00  0.00    -0.744 OA
ENDBRANCH  62  63
ENDBRANCH  36  57
ENDBRANCH  10  11
ENDBRANCH   3   5
ENDBRANCH   2   3
ENDBRANCH   1   2
BRANCH   1  67
ATOM     67  C   UNL A   1      33.572  33.839  27.725  1.00  0.00     0.275 C 
BRANCH  67  68
ATOM     68  O   UNL A   1      32.772  34.486  28.725  1.00  0.00    -0.457 OA
BRANCH  68  69
ATOM     69  C   UNL A   1      33.295  35.639  29.249  1.00  0.00     0.361 C 
ATOM     70  O   UNL A   1      33.848  36.510  28.584  1.00  0.00    -0.244 OA
BRANCH  69  71
ATOM     71  C   UNL A   1      33.085  35.756  30.682  1.00  0.00     0.194 A 
ATOM     72  N   UNL A   1      31.991  36.360  31.283  1.00  0.00    -0.209 NA
ATOM     73  C   UNL A   1      33.945  35.295  31.662  1.00  0.00     0.169 A 
ATOM     74  C   UNL A   1      32.222  36.211  32.570  1.00  0.00     0.309 A 
ATOM     75  O   UNL A   1      33.386  35.576  32.879  1.00  0.00    -0.443 OA
BRANCH  73  76
ATOM     76  C   UNL A   1      35.263  34.691  31.693  1.00  0.00     0.026 A 
ATOM     77  C   UNL A   1      35.683  33.856  30.652  1.00  0.00     0.051 A 
ATOM     78  C   UNL A   1      36.140  34.926  32.753  1.00  0.00     0.051 A 
ATOM     79  C   UNL A   1      36.948  33.282  30.663  1.00  0.00     0.126 A 
ATOM     80  C   UNL A   1      37.400  34.326  32.755  1.00  0.00     0.126 A 
ATOM     81  F   UNL A   1      37.329  32.506  29.640  1.00  0.00    -0.207 F 
ATOM     82  C   UNL A   1      37.817  33.507  31.714  1.00  0.00     0.078 A 
ATOM     83  F   UNL A   1      38.229  34.546  33.783  1.00  0.00    -0.207 F 
ENDBRANCH  73  76
ENDBRANCH  69  71
ENDBRANCH  68  69
ENDBRANCH  67  68
ENDBRANCH   1  67
TORSDOF 15
ENDMDL
MODEL 2
REMARK VINA RESULT:     -10.1      5.354     10.396
REMARK SMILES O=C(OCCOC(=O)c1ncoc1-c1cc(F)cc(F)c1)c1ccc(-c2c3nc(c(-c4ccc(S(=O)(=O)[O-])cc4)c4ccc([nH]4)c(-c4ccc(S(=O)(=O)[O-])cc4)c4nc(c(-c5ccc(S(=O)(=O)[O-])cc5)c5ccc2[nH]5)C=C4)C=C3)cc1
REMARK SMILES IDX 4 1 3 2 2 3 1 4 22 5 23 6 81 7 24 8 80 9 25 10 26 11 27 12
REMARK SMILES IDX 74 13 28 14 79 15 73 16 75 17 29 18 78 19 72 20 71 21 30 23
REMARK SMILES IDX 60 24 41 25 59 26 42 27 45 28 58 29 76 30 43 31 44 32 57 34
REMARK SMILES IDX 77 35 46 36 31 37 32 38 40 39 33 40 39 41 34 42 35 43 36 44
REMARK SMILES IDX 37 45 38 46 61 47 62 48 70 49 63 50 69 51 64 52 65 53 66 54
REMARK SMILES IDX 67 55 68 56 47 57 48 58 56 59 49 60 55 61 50 62 51 63 52 64
REMARK SMILES IDX 53 65 54 66 5 67 6 68 7 69 8 70 9 71 10 72 13 73 11 74 12 75
REMARK SMILES IDX 14 76 15 77 21 78 16 79 19 80 17 81 18 82 20 83
REMARK H PARENT 75 22 45 33
REMARK Flexibility Score: inf
ROOT
ATOM      1  C   UNL A   1      32.563  30.294  26.896  1.00  0.00     0.275 C 
ENDROOT
BRANCH   1   2
ATOM      2  O   UNL A   1      33.915  30.777  26.731  1.00  0.00    -0.458 OA
BRANCH   2   3
ATOM      3  C   UNL A   1      34.498  31.574  27.653  1.00  0.00     0.338 C 
ATOM      4  O   UNL A   1      34.006  32.640  27.994  1.00  0.00    -0.246 OA
BRANCH   3   5
ATOM      5  C   UNL A   1      35.723  31.032  28.312  1.00  0.00     0.060 A 
ATOM      6  C   UNL A   1      35.820  29.732  28.809  1.00  0.00     0.016 A 
ATOM      7  C   UNL A   1      36.847  31.865  28.380  1.00  0.00     0.016 A 
ATOM      8  C   UNL A   1      37.029  29.257  29.309  1.00  0.00     0.010 A 
ATOM      9  C   UNL A   1      38.074  31.384  28.829  1.00  0.00     0.010 A 
ATOM     10  C   UNL A   1      38.160  30.080  29.323  1.00  0.00    -0.014 A 
BRANCH  10  11
ATOM     11  C   UNL A   1      39.370  29.629  30.035  1.00  0.00     0.031 A 
ATOM     12  C   UNL A   1      39.611  30.159  31.420  1.00  0.00     0.074 A 
ATOM     13  C   UNL A   1      40.190  28.723  29.468  1.00  0.00     0.049 A 
ATOM     14  N   UNL A   1      40.535  29.828  32.281  1.00  0.00    -0.248 NA
ATOM     15  C   UNL A   1      38.689  31.205  31.901  1.00  0.00     0.031 C 
ATOM     16  C   UNL A   1      40.030  28.159  28.125  1.00  0.00     0.029 A 
ATOM     17  N   UNL A   1      41.309  28.105  29.958  1.00  0.00    -0.354 N 
ATOM     18  C   UNL A   1      40.295  30.615  33.402  1.00  0.00     0.074 A 
ATOM     19  C   UNL A   1      39.194  31.492  33.089  1.00  0.00     0.031 C 
ATOM     20  C   UNL A   1      41.012  27.267  27.904  1.00  0.00     0.029 A 
ATOM     21  C   UNL A   1      41.864  27.198  29.087  1.00  0.00     0.049 A 
ATOM     22  H   UNL A   1      41.680  28.292  30.850  1.00  0.00     0.167 HD
ATOM     23  C   UNL A   1      40.915  30.580  34.604  1.00  0.00     0.031 A 
ATOM     24  C   UNL A   1      42.929  26.388  29.245  1.00  0.00     0.031 A 
ATOM     25  C   UNL A   1      42.007  29.697  34.894  1.00  0.00     0.049 A 
ATOM     26  C   UNL A   1      43.620  26.381  30.583  1.00  0.00     0.074 A 
ATOM     27  C   UNL A   1      42.714  29.550  36.071  1.00  0.00     0.029 A 
ATOM     28  N   UNL A   1      42.549  28.803  33.980  1.00  0.00    -0.354 N 
ATOM     29  N   UNL A   1      43.342  27.088  31.655  1.00  0.00    -0.248 NA
ATOM     30  C   UNL A   1      44.742  25.448  30.747  1.00  0.00     0.031 C 
ATOM     31  C   UNL A   1      43.708  28.589  35.858  1.00  0.00     0.029 A 
ATOM     32  C   UNL A   1      43.590  28.106  34.562  1.00  0.00     0.049 A 
ATOM     33  H   UNL A   1      42.238  28.684  33.054  1.00  0.00     0.167 HD
ATOM     34  C   UNL A   1      44.237  26.665  32.631  1.00  0.00     0.074 A 
ATOM     35  C   UNL A   1      45.056  25.634  32.023  1.00  0.00     0.031 C 
ATOM     36  C   UNL A   1      44.372  27.084  33.914  1.00  0.00     0.031 A 
BRANCH  23  37
ATOM     37  C   UNL A   1      40.412  31.528  35.661  1.00  0.00    -0.014 A 
ATOM     38  C   UNL A   1      41.177  32.642  36.055  1.00  0.00     0.010 A 
ATOM     39  C   UNL A   1      39.184  31.282  36.298  1.00  0.00     0.010 A 
ATOM     40  C   UNL A   1      40.752  33.458  37.107  1.00  0.00     0.020 A 
ATOM     41  C   UNL A   1      38.741  32.113  37.332  1.00  0.00     0.020 A 
ATOM     42  C   UNL A   1      39.540  33.183  37.745  1.00  0.00     0.054 A 
BRANCH  42  43
ATOM     43  S   UNL A   1      39.018  34.248  39.117  1.00  0.00     0.124 S 
ATOM     44  O   UNL A   1      38.917  35.551  38.464  1.00  0.00    -0.237 OA
ATOM     45  O   UNL A   1      37.749  33.651  39.524  1.00  0.00    -0.237 OA
ATOM     46  O   UNL A   1      40.103  34.120  40.088  1.00  0.00    -0.744 OA
ENDBRANCH  42  43
ENDBRANCH  23  37
BRANCH  24  47
ATOM     47  C   UNL A   1      43.370  25.502  28.131  1.00  0.00    -0.014 A 
ATOM     48  C   UNL A   1      42.909  24.178  28.032  1.00  0.00     0.010 A 
ATOM     49  C   UNL A   1      44.247  25.992  27.145  1.00  0.00     0.010 A 
ATOM     50  C   UNL A   1      43.328  23.357  26.978  1.00  0.00     0.020 A 
ATOM     51  C   UNL A   1      44.650  25.181  26.078  1.00  0.00     0.020 A 
ATOM     52  C   UNL A   1      44.195  23.864  26.006  1.00  0.00     0.054 A 
BRANCH  52  53
ATOM     53  S   UNL A   1      44.686  22.796  24.622  1.00  0.00     0.124 S 
ATOM     54  O   UNL A   1      45.694  23.611  23.951  1.00  0.00    -0.237 OA
ATOM     55  O   UNL A   1      45.187  21.605  25.305  1.00  0.00    -0.237 OA
ATOM     56  O   UNL A   1      43.442  22.603  23.881  1.00  0.00    -0.744 OA
ENDBRANCH  52  53
ENDBRANCH  24  47
BRANCH  36  57
ATOM     57  C   UNL A   1      45.423  26.406  34.746  1.00  0.00    -0.014 A 
ATOM     58  C   UNL A   1      46.731  26.915  34.811  1.00  0.00     0.010 A 
ATOM     59  C   UNL A   1      45.071  25.292  35.530  1.00  0.00     0.010 A 
ATOM     60  C   UNL A   1      47.679  26.305  35.633  1.00  0.00     0.020 A 
ATOM     61  C   UNL A   1      46.010  24.696  36.372  1.00  0.00     0.020 A 
ATOM     62  C   UNL A   1      47.312  25.200  36.409  1.00  0.00     0.054 A 
BRANCH  62  63
ATOM     63  S   UNL A   1      48.546  24.462  37.513  1.00  0.00     0.124 S 
ATOM     64  O   UNL A   1      49.529  23.946  36.566  1.00  0.00    -0.237 OA
ATOM     65  O   UNL A   1      48.982  25.601  38.317  1.00  0.00    -0.237 OA
ATOM     66  O   UNL A   1      47.790  23.446  38.244  1.00  0.00    -0.744 OA
ENDBRANCH  62  63
ENDBRANCH  36  57
ENDBRANCH  10  11
ENDBRANCH   3   5
ENDBRANCH   2   3
ENDBRANCH   1   2
BRANCH   1  67
ATOM     67  C   UNL A   1      31.708  30.056  25.646  1.00  0.00     0.275 C 
BRANCH  67  68
ATOM     68  O   UNL A   1      32.059  28.847  24.956  1.00  0.00    -0.457 OA
BRANCH  68  69
ATOM     69  C   UNL A   1      31.570  28.728  23.682  1.00  0.00     0.361 C 
ATOM     70  O   UNL A   1      32.199  29.022  22.671  1.00  0.00    -0.244 OA
BRANCH  69  71
ATOM     71  C   UNL A   1      30.230  28.165  23.641  1.00  0.00     0.194 A 
ATOM     72  N   UNL A   1      29.897  26.868  24.001  1.00  0.00    -0.209 NA
ATOM     73  C   UNL A   1      29.090  28.829  23.228  1.00  0.00     0.169 A 
ATOM     74  C   UNL A   1      28.595  26.820  23.821  1.00  0.00     0.309 A 
ATOM     75  O   UNL A   1      28.033  27.969  23.355  1.00  0.00    -0.443 OA
BRANCH  73  76
ATOM     76  C   UNL A   1      28.789  30.124  22.649  1.00  0.00     0.026 A 
ATOM     77  C   UNL A   1      29.028  31.296  23.376  1.00  0.00     0.051 A 
ATOM     78  C   UNL A   1      28.261  30.234  21.362  1.00  0.00     0.051 A 
ATOM     79  C   UNL A   1      28.757  32.543  22.828  1.00  0.00     0.126 A 
ATOM     80  C   UNL A   1      27.979  31.496  20.836  1.00  0.00     0.126 A 
ATOM     81  F   UNL A   1      29.018  33.647  23.541  1.00  0.00    -0.207 F 
ATOM     82  C   UNL A   1      28.227  32.656  21.557  1.00  0.00     0.078 A 
ATOM     83  F   UNL A   1      27.458  31.592  19.607  1.00  0.00    -0.207 F 
ENDBRANCH  73  76
ENDBRANCH  69  71
ENDBRANCH  68  69
ENDBRANCH  67  68
ENDBRANCH   1  67
TORSDOF 15
ENDMDL
MODEL 3
REMARK VINA RESULT:     -10.1      3.874     10.357
REMARK SMILES O=C(OCCOC(=O)c1ncoc1-c1cc(F)cc(F)c1)c1ccc(-c2c3nc(c(-c4ccc(S(=O)(=O)[O-])cc4)c4ccc([nH]4)c(-c4ccc(S(=O)(=O)[O-])cc4)c4nc(c(-c5ccc(S(=O)(=O)[O-])cc5)c5ccc2[nH]5)C=C4)C=C3)cc1
REMARK SMILES IDX 4 1 3 2 2 3 1 4 22 5 23 6 81 7 24 8 80 9 25 10 26 11 27 12
REMARK SMILES IDX 74 13 28 14 79 15 73 16 75 17 29 18 78 19 72 20 71 21 30 23
REMARK SMILES IDX 60 24 41 25 59 26 42 27 45 28 58 29 76 30 43 31 44 32 57 34
REMARK SMILES IDX 77 35 46 36 31 37 32 38 40 39 33 40 39 41 34 42 35 43 36 44
REMARK SMILES IDX 37 45 38 46 61 47 62 48 70 49 63 50 69 51 64 52 65 53 66 54
REMARK SMILES IDX 67 55 68 56 47 57 48 58 56 59 49 60 55 61 50 62 51 63 52 64
REMARK SMILES IDX 53 65 54 66 5 67 6 68 7 69 8 70 9 71 10 72 13 73 11 74 12 75
REMARK SMILES IDX 14 76 15 77 21 78 16 79 19 80 17 81 18 82 20 83
REMARK H PARENT 75 22 45 33
REMARK Flexibility Score: inf
ROOT
ATOM      1  C   UNL A   1      32.961  29.985  26.306  1.00  0.00     0.275 C 
ENDROOT
BRANCH   1   2
ATOM      2  O   UNL A   1      33.685  29.810  27.543  1.00  0.00    -0.458 OA
BRANCH   2   3
ATOM      3  C   UNL A   1      34.562  30.737  27.986  1.00  0.00     0.338 C 
ATOM      4  O   UNL A   1      34.238  31.903  28.167  1.00  0.00    -0.246 OA
BRANCH   3   5
ATOM      5  C   UNL A   1      35.923  30.239  28.345  1.00  0.00     0.060 A 
ATOM      6  C   UNL A   1      36.236  29.674  29.581  1.00  0.00     0.016 A 
ATOM      7  C   UNL A   1      36.917  30.297  27.358  1.00  0.00     0.016 A 
ATOM      8  C   UNL A   1      37.496  29.129  29.808  1.00  0.00     0.010 A 
ATOM      9  C   UNL A   1      38.161  29.706  27.556  1.00  0.00     0.010 A 
ATOM     10  C   UNL A   1      38.464  29.143  28.798  1.00  0.00    -0.014 A 
BRANCH  10  11
ATOM     11  C   UNL A   1      39.847  28.742  29.120  1.00  0.00     0.031 A 
ATOM     12  C   UNL A   1      40.690  29.699  29.915  1.00  0.00     0.074 A 
ATOM     13  C   UNL A   1      40.300  27.527  28.757  1.00  0.00     0.049 A 
ATOM     14  N   UNL A   1      41.885  29.528  30.412  1.00  0.00    -0.248 NA
ATOM     15  C   UNL A   1      40.112  31.028  30.185  1.00  0.00     0.031 C 
ATOM     16  C   UNL A   1      39.546  26.538  27.982  1.00  0.00     0.029 A 
ATOM     17  N   UNL A   1      41.497  26.912  29.008  1.00  0.00    -0.354 N 
ATOM     18  C   UNL A   1      42.191  30.720  31.059  1.00  0.00     0.074 A 
ATOM     19  C   UNL A   1      41.097  31.632  30.828  1.00  0.00     0.031 C 
ATOM     20  C   UNL A   1      40.298  25.433  27.831  1.00  0.00     0.029 A 
ATOM     21  C   UNL A   1      41.580  25.637  28.499  1.00  0.00     0.049 A 
ATOM     22  H   UNL A   1      42.229  27.341  29.507  1.00  0.00     0.167 HD
ATOM     23  C   UNL A   1      43.273  31.015  31.814  1.00  0.00     0.031 A 
ATOM     24  C   UNL A   1      42.575  24.734  28.588  1.00  0.00     0.031 A 
ATOM     25  C   UNL A   1      44.348  30.091  32.033  1.00  0.00     0.049 A 
ATOM     26  C   UNL A   1      43.782  25.091  29.416  1.00  0.00     0.074 A 
ATOM     27  C   UNL A   1      45.493  30.257  32.787  1.00  0.00     0.029 A 
ATOM     28  N   UNL A   1      44.401  28.815  31.488  1.00  0.00    -0.354 N 
ATOM     29  N   UNL A   1      44.029  26.201  30.072  1.00  0.00    -0.248 NA
ATOM     30  C   UNL A   1      44.827  24.067  29.542  1.00  0.00     0.031 C 
ATOM     31  C   UNL A   1      46.257  29.090  32.668  1.00  0.00     0.029 A 
ATOM     32  C   UNL A   1      45.565  28.183  31.879  1.00  0.00     0.049 A 
ATOM     33  H   UNL A   1      43.710  28.420  30.908  1.00  0.00     0.167 HD
ATOM     34  C   UNL A   1      45.245  26.000  30.715  1.00  0.00     0.074 A 
ATOM     35  C   UNL A   1      45.675  24.657  30.375  1.00  0.00     0.031 C 
ATOM     36  C   UNL A   1      45.945  26.840  31.516  1.00  0.00     0.031 A 
BRANCH  23  37
ATOM     37  C   UNL A   1      43.320  32.386  32.437  1.00  0.00    -0.014 A 
ATOM     38  C   UNL A   1      43.912  33.467  31.758  1.00  0.00     0.010 A 
ATOM     39  C   UNL A   1      42.806  32.589  33.729  1.00  0.00     0.010 A 
ATOM     40  C   UNL A   1      44.045  34.711  32.382  1.00  0.00     0.020 A 
ATOM     41  C   UNL A   1      42.911  33.840  34.347  1.00  0.00     0.020 A 
ATOM     42  C   UNL A   1      43.551  34.886  33.677  1.00  0.00     0.054 A 
BRANCH  42  43
ATOM     43  S   UNL A   1      43.747  36.505  34.471  1.00  0.00     0.124 S 
ATOM     44  O   UNL A   1      43.567  36.172  35.882  1.00  0.00    -0.237 OA
ATOM     45  O   UNL A   1      45.101  36.891  34.086  1.00  0.00    -0.237 OA
ATOM     46  O   UNL A   1      42.681  37.312  33.881  1.00  0.00    -0.744 OA
ENDBRANCH  42  43
ENDBRANCH  23  37
BRANCH  24  47
ATOM     47  C   UNL A   1      42.450  23.411  27.915  1.00  0.00    -0.014 A 
ATOM     48  C   UNL A   1      43.096  23.155  26.694  1.00  0.00     0.010 A 
ATOM     49  C   UNL A   1      41.691  22.386  28.510  1.00  0.00     0.010 A 
ATOM     50  C   UNL A   1      42.973  21.906  26.072  1.00  0.00     0.020 A 
ATOM     51  C   UNL A   1      41.585  21.129  27.904  1.00  0.00     0.020 A 
ATOM     52  C   UNL A   1      42.219  20.900  26.682  1.00  0.00     0.054 A 
BRANCH  52  53
ATOM     53  S   UNL A   1      42.115  19.273  25.883  1.00  0.00     0.124 S 
ATOM     54  O   UNL A   1      40.686  19.160  25.607  1.00  0.00    -0.237 OA
ATOM     55  O   UNL A   1      42.973  19.440  24.713  1.00  0.00    -0.237 OA
ATOM     56  O   UNL A   1      42.631  18.359  26.899  1.00  0.00    -0.744 OA
ENDBRANCH  52  53
ENDBRANCH  24  47
BRANCH  36  57
ATOM     57  C   UNL A   1      47.228  26.320  32.097  1.00  0.00    -0.014 A 
ATOM     58  C   UNL A   1      47.242  25.652  33.334  1.00  0.00     0.010 A 
ATOM     59  C   UNL A   1      48.419  26.435  31.357  1.00  0.00     0.010 A 
ATOM     60  C   UNL A   1      48.434  25.126  33.832  1.00  0.00     0.020 A 
ATOM     61  C   UNL A   1      49.607  25.889  31.841  1.00  0.00     0.020 A 
ATOM     62  C   UNL A   1      49.609  25.248  33.082  1.00  0.00     0.054 A 
BRANCH  62  63
ATOM     63  S   UNL A   1      51.133  24.504  33.723  1.00  0.00     0.124 S 
ATOM     64  O   UNL A   1      52.015  25.663  33.825  1.00  0.00    -0.237 OA
ATOM     65  O   UNL A   1      50.700  23.928  34.994  1.00  0.00    -0.237 OA
ATOM     66  O   UNL A   1      51.499  23.529  32.698  1.00  0.00    -0.744 OA
ENDBRANCH  62  63
ENDBRANCH  36  57
ENDBRANCH  10  11
ENDBRANCH   3   5
ENDBRANCH   2   3
ENDBRANCH   1   2
BRANCH   1  67
ATOM     67  C   UNL A   1      33.139  28.944  25.194  1.00  0.00     0.275 C 
BRANCH  67  68
ATOM     68  O   UNL A   1      32.856  27.608  25.635  1.00  0.00    -0.457 OA
BRANCH  68  69
ATOM     69  C   UNL A   1      31.689  27.063  25.167  1.00  0.00     0.361 C 
ATOM     70  O   UNL A   1      30.691  26.873  25.855  1.00  0.00    -0.244 OA
BRANCH  69  71
ATOM     71  C   UNL A   1      31.731  26.772  23.743  1.00  0.00     0.194 A 
ATOM     72  N   UNL A   1      32.659  25.948  23.124  1.00  0.00    -0.209 NA
ATOM     73  C   UNL A   1      30.864  27.276  22.792  1.00  0.00     0.169 A 
ATOM     74  C   UNL A   1      32.298  25.969  21.859  1.00  0.00     0.309 A 
ATOM     75  O   UNL A   1      31.219  26.751  21.579  1.00  0.00    -0.443 OA
BRANCH  73  76
ATOM     76  C   UNL A   1      29.780  28.239  22.774  1.00  0.00     0.026 A 
ATOM     77  C   UNL A   1      28.490  27.858  23.155  1.00  0.00     0.051 A 
ATOM     78  C   UNL A   1      29.997  29.561  22.382  1.00  0.00     0.051 A 
ATOM     79  C   UNL A   1      27.446  28.774  23.155  1.00  0.00     0.126 A 
ATOM     80  C   UNL A   1      28.931  30.462  22.373  1.00  0.00     0.126 A 
ATOM     81  F   UNL A   1      26.226  28.384  23.548  1.00  0.00    -0.207 F 
ATOM     82  C   UNL A   1      27.654  30.083  22.761  1.00  0.00     0.078 A 
ATOM     83  F   UNL A   1      29.145  31.725  21.981  1.00  0.00    -0.207 F 
ENDBRANCH  73  76
ENDBRANCH  69  71
ENDBRANCH  68  69
ENDBRANCH  67  68
ENDBRANCH   1  67
TORSDOF 15
ENDMDL
