MODEL 1
REMARK VINA RESULT:     -11.2      0.000      0.000
REMARK SMILES CCn1c(C(=O)OCCOC(=O)c2ccc(-c3c4nc(c(-c5ccc(S(=O)(=O)[O-])cc5)c5ccc([nH]5)c(-c5ccc(S(=O)(=O)[O-])cc5)c5nc(c(-c6ccc(S(=O)(=O)[O-])cc6)c6ccc3[nH]6)C=C5)C=C4)cc2)c(C[NH2+]Cc2ccccc2Cl)c2ccc(C)cc21
REMARK SMILES IDX 8 1 7 2 5 3 6 4 4 5 3 6 90 7 73 8 84 9 89 10 85 11 87 12
REMARK SMILES IDX 86 13 88 14 2 15 1 16 74 17 75 18 76 21 77 22 78 23 82 24
REMARK SMILES IDX 79 25 81 26 83 27 80 28 9 29 10 30 11 31 12 32 13 33 14 34
REMARK SMILES IDX 72 35 15 36 71 37 16 38 17 39 18 40 65 41 19 42 70 43 64 44
REMARK SMILES IDX 66 45 20 46 69 47 63 48 62 49 21 51 51 52 32 53 50 54 33 55
REMARK SMILES IDX 36 56 49 57 67 58 34 59 35 60 48 62 68 63 37 64 22 65 23 66
REMARK SMILES IDX 31 67 24 68 30 69 25 70 26 71 27 72 28 73 29 74 52 75 53 76
REMARK SMILES IDX 61 77 54 78 60 79 55 80 56 81 57 82 58 83 59 84 38 85 39 86
REMARK SMILES IDX 47 87 40 88 46 89 41 90 42 91 43 92 44 93 45 94
REMARK H PARENT 75 19 75 20 66 50 36 61
REMARK Flexibility Score: inf
ROOT
ATOM      1  C   UNL A   1      34.204  28.048  25.291  1.00  0.00     0.275 C 
ENDROOT
BRANCH   1   2
ATOM      2  O   UNL A   1      33.333  28.236  24.147  1.00  0.00    -0.457 OA
BRANCH   2   3
ATOM      3  C   UNL A   1      33.321  27.200  23.267  1.00  0.00     0.355 C 
ATOM      4  O   UNL A   1      33.743  27.307  22.124  1.00  0.00    -0.244 OA
BRANCH   3   5
ATOM      5  C   UNL A   1      32.660  26.010  23.772  1.00  0.00     0.137 A 
ATOM      6  N   UNL A   1      31.438  25.960  24.407  1.00  0.00    -0.335 N 
ATOM      7  C   UNL A   1      31.315  24.810  25.152  1.00  0.00     0.049 A 
ATOM      8  C   UNL A   1      33.183  24.720  23.866  1.00  0.00     0.047 A 
ATOM      9  C   UNL A   1      32.306  23.943  24.704  1.00  0.00     0.009 A 
ATOM     10  C   UNL A   1      30.378  24.454  26.132  1.00  0.00     0.030 A 
ATOM     11  C   UNL A   1      32.263  22.611  25.174  1.00  0.00     0.011 A 
ATOM     12  C   UNL A   1      30.307  23.123  26.544  1.00  0.00    -0.049 A 
ATOM     13  C   UNL A   1      31.240  22.209  26.057  1.00  0.00     0.004 A 
ATOM     14  C   UNL A   1      29.205  22.730  27.489  1.00  0.00     0.044 C 
BRANCH   6  15
ATOM     15  C   UNL A   1      30.389  26.948  24.282  1.00  0.00     0.119 C 
ATOM     16  C   UNL A   1      29.090  26.493  23.620  1.00  0.00     0.027 C 
ENDBRANCH   6  15
BRANCH   8  17
ATOM     17  C   UNL A   1      34.463  24.280  23.237  1.00  0.00     0.300 C 
BRANCH  17  18
ATOM     18  N   UNL A   1      35.396  24.094  24.345  1.00  0.00    -0.339 N 
ATOM     19  H   UNL A   1      34.858  24.047  25.210  1.00  0.00     0.346 HD
ATOM     20  H   UNL A   1      36.040  24.885  24.317  1.00  0.00     0.346 HD
BRANCH  18  21
ATOM     21  C   UNL A   1      36.209  22.897  24.253  1.00  0.00     0.299 C 
BRANCH  21  22
ATOM     22  C   UNL A   1      37.381  22.834  25.208  1.00  0.00     0.025 A 
ATOM     23  C   UNL A   1      37.813  23.965  25.932  1.00  0.00     0.011 A 
ATOM     24  C   UNL A   1      38.079  21.631  25.395  1.00  0.00     0.049 A 
ATOM     25  C   UNL A   1      38.964  23.927  26.715  1.00  0.00     0.001 A 
ATOM     26  C   UNL A   1      39.224  21.590  26.195  1.00  0.00     0.021 A 
ATOM     27  Cl  UNL A   1      37.564  20.152  24.660  1.00  0.00    -0.084 Cl
ATOM     28  C   UNL A   1      39.678  22.743  26.834  1.00  0.00     0.002 A 
ENDBRANCH  21  22
ENDBRANCH  18  21
ENDBRANCH  17  18
ENDBRANCH   8  17
ENDBRANCH   3   5
ENDBRANCH   2   3
ENDBRANCH   1   2
BRANCH   1  29
ATOM     29  C   UNL A   1      33.574  28.498  26.614  1.00  0.00     0.275 C 
BRANCH  29  30
ATOM     30  O   UNL A   1      34.621  28.842  27.533  1.00  0.00    -0.458 OA
BRANCH  30  31
ATOM     31  C   UNL A   1      34.827  30.171  27.741  1.00  0.00     0.338 C 
ATOM     32  O   UNL A   1      33.998  31.037  27.765  1.00  0.00    -0.246 OA
BRANCH  31  33
ATOM     33  C   UNL A   1      36.197  30.272  28.315  1.00  0.00     0.060 A 
ATOM     34  C   UNL A   1      37.317  30.608  27.542  1.00  0.00     0.016 A 
ATOM     35  C   UNL A   1      36.363  29.697  29.568  1.00  0.00     0.016 A 
ATOM     36  C   UNL A   1      38.580  30.118  27.902  1.00  0.00     0.010 A 
ATOM     37  C   UNL A   1      37.634  29.276  29.941  1.00  0.00     0.010 A 
ATOM     38  C   UNL A   1      38.716  29.325  29.044  1.00  0.00    -0.014 A 
BRANCH  38  39
ATOM     39  C   UNL A   1      39.965  28.598  29.356  1.00  0.00     0.031 A 
ATOM     40  C   UNL A   1      40.303  28.560  30.793  1.00  0.00     0.074 A 
ATOM     41  C   UNL A   1      40.777  27.823  28.592  1.00  0.00     0.049 A 
ATOM     42  N   UNL A   1      40.991  29.448  31.425  1.00  0.00    -0.248 NA
ATOM     43  C   UNL A   1      39.758  27.491  31.641  1.00  0.00     0.031 C 
ATOM     44  C   UNL A   1      40.618  27.315  27.231  1.00  0.00     0.029 A 
ATOM     45  N   UNL A   1      41.977  27.258  28.967  1.00  0.00    -0.354 N 
ATOM     46  C   UNL A   1      41.131  28.955  32.708  1.00  0.00     0.074 A 
ATOM     47  C   UNL A   1      40.168  27.890  32.846  1.00  0.00     0.031 C 
ATOM     48  C   UNL A   1      41.547  26.359  26.972  1.00  0.00     0.029 A 
ATOM     49  C   UNL A   1      42.511  26.357  28.055  1.00  0.00     0.049 A 
ATOM     50  H   UNL A   1      42.422  27.477  29.818  1.00  0.00     0.167 HD
ATOM     51  C   UNL A   1      42.203  29.267  33.481  1.00  0.00     0.031 A 
ATOM     52  C   UNL A   1      43.725  25.757  28.105  1.00  0.00     0.031 A 
ATOM     53  C   UNL A   1      43.090  30.194  32.828  1.00  0.00     0.049 A 
ATOM     54  C   UNL A   1      44.635  26.653  28.851  1.00  0.00     0.074 A 
ATOM     55  C   UNL A   1      43.065  31.528  32.487  1.00  0.00     0.029 A 
ATOM     56  N   UNL A   1      44.079  29.605  32.075  1.00  0.00    -0.354 N 
ATOM     57  N   UNL A   1      44.946  27.854  28.449  1.00  0.00    -0.248 NA
ATOM     58  C   UNL A   1      45.082  26.311  30.195  1.00  0.00     0.031 C 
ATOM     59  C   UNL A   1      43.895  31.662  31.333  1.00  0.00     0.029 A 
ATOM     60  C   UNL A   1      44.407  30.407  31.005  1.00  0.00     0.049 A 
ATOM     61  H   UNL A   1      44.493  28.734  32.273  1.00  0.00     0.167 HD
ATOM     62  C   UNL A   1      45.226  28.541  29.610  1.00  0.00     0.074 A 
ATOM     63  C   UNL A   1      45.487  27.515  30.607  1.00  0.00     0.031 C 
ATOM     64  C   UNL A   1      44.889  29.854  29.749  1.00  0.00     0.031 A 
BRANCH  51  65
ATOM     65  C   UNL A   1      42.643  28.465  34.666  1.00  0.00    -0.014 A 
ATOM     66  C   UNL A   1      42.774  27.062  34.645  1.00  0.00     0.010 A 
ATOM     67  C   UNL A   1      43.121  29.144  35.802  1.00  0.00     0.010 A 
ATOM     68  C   UNL A   1      43.280  26.356  35.736  1.00  0.00     0.020 A 
ATOM     69  C   UNL A   1      43.677  28.449  36.882  1.00  0.00     0.020 A 
ATOM     70  C   UNL A   1      43.733  27.056  36.848  1.00  0.00     0.054 A 
BRANCH  70  71
ATOM     71  S   UNL A   1      44.471  26.118  38.207  1.00  0.00     0.124 S 
ATOM     72  O   UNL A   1      44.156  24.743  37.828  1.00  0.00    -0.237 OA
ATOM     73  O   UNL A   1      45.881  26.489  38.117  1.00  0.00    -0.237 OA
ATOM     74  O   UNL A   1      43.771  26.618  39.388  1.00  0.00    -0.744 OA
ENDBRANCH  70  71
ENDBRANCH  51  65
BRANCH  52  75
ATOM     75  C   UNL A   1      44.177  24.412  27.677  1.00  0.00    -0.014 A 
ATOM     76  C   UNL A   1      45.396  24.284  26.986  1.00  0.00     0.010 A 
ATOM     77  C   UNL A   1      43.261  23.343  27.608  1.00  0.00     0.010 A 
ATOM     78  C   UNL A   1      45.640  23.180  26.155  1.00  0.00     0.020 A 
ATOM     79  C   UNL A   1      43.500  22.235  26.781  1.00  0.00     0.020 A 
ATOM     80  C   UNL A   1      44.669  22.186  26.021  1.00  0.00     0.054 A 
BRANCH  80  81
ATOM     81  S   UNL A   1      44.911  20.894  24.765  1.00  0.00     0.124 S 
ATOM     82  O   UNL A   1      43.834  19.959  25.080  1.00  0.00    -0.237 OA
ATOM     83  O   UNL A   1      44.753  21.632  23.515  1.00  0.00    -0.237 OA
ATOM     84  O   UNL A   1      46.260  20.400  25.027  1.00  0.00    -0.744 OA
ENDBRANCH  80  81
ENDBRANCH  52  75
BRANCH  64  85
ATOM     85  C   UNL A   1      44.763  30.705  28.504  1.00  0.00    -0.014 A 
ATOM     86  C   UNL A   1      45.698  31.742  28.328  1.00  0.00     0.010 A 
ATOM     87  C   UNL A   1      43.714  30.590  27.572  1.00  0.00     0.010 A 
ATOM     88  C   UNL A   1      45.568  32.663  27.286  1.00  0.00     0.020 A 
ATOM     89  C   UNL A   1      43.592  31.496  26.506  1.00  0.00     0.020 A 
ATOM     90  C   UNL A   1      44.506  32.546  26.388  1.00  0.00     0.054 A 
BRANCH  90  91
ATOM     91  S   UNL A   1      44.337  33.794  25.082  1.00  0.00     0.124 S 
ATOM     92  O   UNL A   1      43.364  34.718  25.661  1.00  0.00    -0.237 OA
ATOM     93  O   UNL A   1      45.695  34.320  24.957  1.00  0.00    -0.237 OA
ATOM     94  O   UNL A   1      43.863  33.037  23.927  1.00  0.00    -0.744 OA
ENDBRANCH  90  91
ENDBRANCH  64  85
ENDBRANCH  38  39
ENDBRANCH  31  33
ENDBRANCH  30  31
ENDBRANCH  29  30
ENDBRANCH   1  29
TORSDOF 19
ENDMDL
MODEL 2
REMARK VINA RESULT:     -11.1      3.140      9.391
REMARK SMILES CCn1c(C(=O)OCCOC(=O)c2ccc(-c3c4nc(c(-c5ccc(S(=O)(=O)[O-])cc5)c5ccc([nH]5)c(-c5ccc(S(=O)(=O)[O-])cc5)c5nc(c(-c6ccc(S(=O)(=O)[O-])cc6)c6ccc3[nH]6)C=C5)C=C4)cc2)c(C[NH2+]Cc2ccccc2Cl)c2ccc(C)cc21
REMARK SMILES IDX 8 1 7 2 5 3 6 4 4 5 3 6 90 7 73 8 84 9 89 10 85 11 87 12
REMARK SMILES IDX 86 13 88 14 2 15 1 16 74 17 75 18 76 21 77 22 78 23 82 24
REMARK SMILES IDX 79 25 81 26 83 27 80 28 9 29 10 30 11 31 12 32 13 33 14 34
REMARK SMILES IDX 72 35 15 36 71 37 16 38 17 39 18 40 65 41 19 42 70 43 64 44
REMARK SMILES IDX 66 45 20 46 69 47 63 48 62 49 21 51 51 52 32 53 50 54 33 55
REMARK SMILES IDX 36 56 49 57 67 58 34 59 35 60 48 62 68 63 37 64 22 65 23 66
REMARK SMILES IDX 31 67 24 68 30 69 25 70 26 71 27 72 28 73 29 74 52 75 53 76
REMARK SMILES IDX 61 77 54 78 60 79 55 80 56 81 57 82 58 83 59 84 38 85 39 86
REMARK SMILES IDX 47 87 40 88 46 89 41 90 42 91 43 92 44 93 45 94
REMARK H PARENT 75 19 75 20 66 50 36 61
REMARK Flexibility Score: inf
ROOT
ATOM      1  C   UNL A   1      35.473  24.177  24.653  1.00  0.00     0.275 C 
ENDROOT
BRANCH   1   2
ATOM      2  O   UNL A   1      34.494  25.242  24.751  1.00  0.00    -0.457 OA
BRANCH   2   3
ATOM      3  C   UNL A   1      33.764  25.447  23.624  1.00  0.00     0.355 C 
ATOM      4  O   UNL A   1      34.084  24.977  22.541  1.00  0.00    -0.244 OA
BRANCH   3   5
ATOM      5  C   UNL A   1      32.651  26.362  23.806  1.00  0.00     0.137 A 
ATOM      6  N   UNL A   1      31.319  26.020  23.908  1.00  0.00    -0.335 N 
ATOM      7  C   UNL A   1      30.510  27.092  23.609  1.00  0.00     0.049 A 
ATOM      8  C   UNL A   1      32.676  27.756  23.753  1.00  0.00     0.047 A 
ATOM      9  C   UNL A   1      31.315  28.223  23.675  1.00  0.00     0.009 A 
ATOM     10  C   UNL A   1      29.133  27.150  23.348  1.00  0.00     0.030 A 
ATOM     11  C   UNL A   1      30.673  29.481  23.605  1.00  0.00     0.011 A 
ATOM     12  C   UNL A   1      28.502  28.394  23.340  1.00  0.00    -0.049 A 
ATOM     13  C   UNL A   1      29.271  29.549  23.478  1.00  0.00     0.004 A 
ATOM     14  C   UNL A   1      27.005  28.430  23.201  1.00  0.00     0.044 C 
BRANCH   6  15
ATOM     15  C   UNL A   1      30.816  24.729  24.322  1.00  0.00     0.119 C 
ATOM     16  C   UNL A   1      30.512  23.722  23.215  1.00  0.00     0.027 C 
ENDBRANCH   6  15
BRANCH   8  17
ATOM     17  C   UNL A   1      33.921  28.577  23.727  1.00  0.00     0.300 C 
BRANCH  17  18
ATOM     18  N   UNL A   1      34.420  28.568  25.099  1.00  0.00    -0.339 N 
ATOM     19  H   UNL A   1      35.089  29.332  25.200  1.00  0.00     0.346 HD
ATOM     20  H   UNL A   1      34.838  27.650  25.249  1.00  0.00     0.346 HD
BRANCH  18  21
ATOM     21  C   UNL A   1      33.397  28.725  26.114  1.00  0.00     0.299 C 
BRANCH  21  22
ATOM     22  C   UNL A   1      33.309  30.100  26.740  1.00  0.00     0.025 A 
ATOM     23  C   UNL A   1      32.140  30.884  26.652  1.00  0.00     0.011 A 
ATOM     24  C   UNL A   1      34.408  30.636  27.428  1.00  0.00     0.049 A 
ATOM     25  C   UNL A   1      32.110  32.194  27.126  1.00  0.00     0.001 A 
ATOM     26  C   UNL A   1      34.370  31.944  27.919  1.00  0.00     0.021 A 
ATOM     27  Cl  UNL A   1      35.848  29.718  27.708  1.00  0.00    -0.084 Cl
ATOM     28  C   UNL A   1      33.231  32.729  27.746  1.00  0.00     0.002 A 
ENDBRANCH  21  22
ENDBRANCH  18  21
ENDBRANCH  17  18
ENDBRANCH   8  17
ENDBRANCH   3   5
ENDBRANCH   2   3
ENDBRANCH   1   2
BRANCH   1  29
ATOM     29  C   UNL A   1      36.352  24.042  25.902  1.00  0.00     0.275 C 
BRANCH  29  30
ATOM     30  O   UNL A   1      37.730  24.137  25.512  1.00  0.00    -0.458 OA
BRANCH  30  31
ATOM     31  C   UNL A   1      38.591  23.286  26.135  1.00  0.00     0.338 C 
ATOM     32  O   UNL A   1      38.857  22.162  25.814  1.00  0.00    -0.246 OA
BRANCH  31  33
ATOM     33  C   UNL A   1      39.415  24.146  27.029  1.00  0.00     0.060 A 
ATOM     34  C   UNL A   1      39.080  24.379  28.370  1.00  0.00     0.016 A 
ATOM     35  C   UNL A   1      40.335  24.965  26.389  1.00  0.00     0.016 A 
ATOM     36  C   UNL A   1      39.453  25.586  28.977  1.00  0.00     0.010 A 
ATOM     37  C   UNL A   1      40.749  26.125  27.030  1.00  0.00     0.010 A 
ATOM     38  C   UNL A   1      40.180  26.532  28.251  1.00  0.00    -0.014 A 
BRANCH  38  39
ATOM     39  C   UNL A   1      40.412  27.904  28.752  1.00  0.00     0.031 A 
ATOM     40  C   UNL A   1      41.579  28.580  28.152  1.00  0.00     0.074 A 
ATOM     41  C   UNL A   1      39.664  28.719  29.539  1.00  0.00     0.049 A 
ATOM     42  N   UNL A   1      42.790  28.516  28.590  1.00  0.00    -0.248 NA
ATOM     43  C   UNL A   1      41.422  29.328  26.896  1.00  0.00     0.031 C 
ATOM     44  C   UNL A   1      38.300  28.579  30.044  1.00  0.00     0.029 A 
ATOM     45  N   UNL A   1      40.019  29.961  30.021  1.00  0.00    -0.354 N 
ATOM     46  C   UNL A   1      43.515  29.369  27.781  1.00  0.00     0.074 A 
ATOM     47  C   UNL A   1      42.690  29.646  26.631  1.00  0.00     0.031 C 
ATOM     48  C   UNL A   1      37.866  29.756  30.564  1.00  0.00     0.029 A 
ATOM     49  C   UNL A   1      38.996  30.661  30.646  1.00  0.00     0.049 A 
ATOM     50  H   UNL A   1      40.930  30.323  29.928  1.00  0.00     0.167 HD
ATOM     51  C   UNL A   1      44.629  30.004  28.229  1.00  0.00     0.031 A 
ATOM     52  C   UNL A   1      39.092  31.835  31.316  1.00  0.00     0.031 A 
ATOM     53  C   UNL A   1      44.964  29.624  29.577  1.00  0.00     0.049 A 
ATOM     54  C   UNL A   1      40.467  31.930  31.855  1.00  0.00     0.074 A 
ATOM     55  C   UNL A   1      45.465  28.504  30.202  1.00  0.00     0.029 A 
ATOM     56  N   UNL A   1      44.390  30.407  30.551  1.00  0.00    -0.354 N 
ATOM     57  N   UNL A   1      40.956  31.087  32.721  1.00  0.00    -0.248 NA
ATOM     58  C   UNL A   1      41.427  32.868  31.288  1.00  0.00     0.031 C 
ATOM     59  C   UNL A   1      44.952  28.527  31.534  1.00  0.00     0.029 A 
ATOM     60  C   UNL A   1      44.157  29.662  31.685  1.00  0.00     0.049 A 
ATOM     61  H   UNL A   1      44.177  31.363  30.451  1.00  0.00     0.167 HD
ATOM     62  C   UNL A   1      42.312  31.100  32.482  1.00  0.00     0.074 A 
ATOM     63  C   UNL A   1      42.559  32.333  31.751  1.00  0.00     0.031 C 
ATOM     64  C   UNL A   1      43.058  29.964  32.590  1.00  0.00     0.031 A 
BRANCH  51  65
ATOM     65  C   UNL A   1      45.204  31.233  27.596  1.00  0.00    -0.014 A 
ATOM     66  C   UNL A   1      44.573  32.493  27.638  1.00  0.00     0.010 A 
ATOM     67  C   UNL A   1      46.515  31.182  27.089  1.00  0.00     0.010 A 
ATOM     68  C   UNL A   1      45.182  33.637  27.124  1.00  0.00     0.020 A 
ATOM     69  C   UNL A   1      47.155  32.333  26.616  1.00  0.00     0.020 A 
ATOM     70  C   UNL A   1      46.474  33.550  26.618  1.00  0.00     0.054 A 
BRANCH  70  71
ATOM     71  S   UNL A   1      47.272  35.069  26.046  1.00  0.00     0.124 S 
ATOM     72  O   UNL A   1      48.137  34.569  24.981  1.00  0.00    -0.237 OA
ATOM     73  O   UNL A   1      46.137  35.877  25.610  1.00  0.00    -0.237 OA
ATOM     74  O   UNL A   1      47.964  35.560  27.235  1.00  0.00    -0.744 OA
ENDBRANCH  70  71
ENDBRANCH  51  65
BRANCH  52  75
ATOM     75  C   UNL A   1      38.151  32.972  31.451  1.00  0.00    -0.014 A 
ATOM     76  C   UNL A   1      38.014  33.606  32.699  1.00  0.00     0.010 A 
ATOM     77  C   UNL A   1      37.140  33.175  30.490  1.00  0.00     0.010 A 
ATOM     78  C   UNL A   1      36.848  34.319  33.020  1.00  0.00     0.020 A 
ATOM     79  C   UNL A   1      35.974  33.890  30.803  1.00  0.00     0.020 A 
ATOM     80  C   UNL A   1      35.816  34.416  32.086  1.00  0.00     0.054 A 
BRANCH  80  81
ATOM     81  S   UNL A   1      34.233  35.140  32.608  1.00  0.00     0.124 S 
ATOM     82  O   UNL A   1      34.622  35.896  33.795  1.00  0.00    -0.237 OA
ATOM     83  O   UNL A   1      33.853  35.945  31.450  1.00  0.00    -0.237 OA
ATOM     84  O   UNL A   1      33.383  33.979  32.860  1.00  0.00    -0.744 OA
ENDBRANCH  80  81
ENDBRANCH  52  75
BRANCH  64  85
ATOM     85  C   UNL A   1      42.570  28.864  33.506  1.00  0.00    -0.014 A 
ATOM     86  C   UNL A   1      43.202  28.731  34.756  1.00  0.00     0.010 A 
ATOM     87  C   UNL A   1      41.602  27.907  33.146  1.00  0.00     0.010 A 
ATOM     88  C   UNL A   1      42.915  27.656  35.601  1.00  0.00     0.020 A 
ATOM     89  C   UNL A   1      41.289  26.838  34.001  1.00  0.00     0.020 A 
ATOM     90  C   UNL A   1      41.971  26.704  35.212  1.00  0.00     0.054 A 
BRANCH  90  91
ATOM     91  S   UNL A   1      41.666  25.292  36.310  1.00  0.00     0.124 S 
ATOM     92  O   UNL A   1      42.860  25.292  37.152  1.00  0.00    -0.237 OA
ATOM     93  O   UNL A   1      40.427  25.667  36.988  1.00  0.00    -0.237 OA
ATOM     94  O   UNL A   1      41.549  24.154  35.401  1.00  0.00    -0.744 OA
ENDBRANCH  90  91
ENDBRANCH  64  85
ENDBRANCH  38  39
ENDBRANCH  31  33
ENDBRANCH  30  31
ENDBRANCH  29  30
ENDBRANCH   1  29
TORSDOF 19
ENDMDL
MODEL 3
REMARK VINA RESULT:     -11.1      3.147      9.524
REMARK SMILES CCn1c(C(=O)OCCOC(=O)c2ccc(-c3c4nc(c(-c5ccc(S(=O)(=O)[O-])cc5)c5ccc([nH]5)c(-c5ccc(S(=O)(=O)[O-])cc5)c5nc(c(-c6ccc(S(=O)(=O)[O-])cc6)c6ccc3[nH]6)C=C5)C=C4)cc2)c(C[NH2+]Cc2ccccc2Cl)c2ccc(C)cc21
REMARK SMILES IDX 8 1 7 2 5 3 6 4 4 5 3 6 90 7 73 8 84 9 89 10 85 11 87 12
REMARK SMILES IDX 86 13 88 14 2 15 1 16 74 17 75 18 76 21 77 22 78 23 82 24
REMARK SMILES IDX 79 25 81 26 83 27 80 28 9 29 10 30 11 31 12 32 13 33 14 34
REMARK SMILES IDX 72 35 15 36 71 37 16 38 17 39 18 40 65 41 19 42 70 43 64 44
REMARK SMILES IDX 66 45 20 46 69 47 63 48 62 49 21 51 51 52 32 53 50 54 33 55
REMARK SMILES IDX 36 56 49 57 67 58 34 59 35 60 48 62 68 63 37 64 22 65 23 66
REMARK SMILES IDX 31 67 24 68 30 69 25 70 26 71 27 72 28 73 29 74 52 75 53 76
REMARK SMILES IDX 61 77 54 78 60 79 55 80 56 81 57 82 58 83 59 84 38 85 39 86
REMARK SMILES IDX 47 87 40 88 46 89 41 90 42 91 43 92 44 93 45 94
REMARK H PARENT 75 19 75 20 66 50 36 61
REMARK Flexibility Score: inf
ROOT
ATOM      1  C   UNL A   1      36.755  21.612  25.666  1.00  0.00     0.275 C 
ENDROOT
BRANCH   1   2
ATOM      2  O   UNL A   1      36.268  22.978  25.671  1.00  0.00    -0.457 OA
BRANCH   2   3
ATOM      3  C   UNL A   1      34.939  23.104  25.930  1.00  0.00     0.355 C 
ATOM      4  O   UNL A   1      34.405  22.571  26.892  1.00  0.00    -0.244 OA
BRANCH   3   5
ATOM      5  C   UNL A   1      34.209  23.825  24.902  1.00  0.00     0.137 A 
ATOM      6  N   UNL A   1      33.765  23.312  23.702  1.00  0.00    -0.335 N 
ATOM      7  C   UNL A   1      33.541  24.316  22.789  1.00  0.00     0.049 A 
ATOM      8  C   UNL A   1      33.953  25.195  24.840  1.00  0.00     0.047 A 
ATOM      9  C   UNL A   1      33.484  25.501  23.513  1.00  0.00     0.009 A 
ATOM     10  C   UNL A   1      33.326  24.258  21.404  1.00  0.00     0.030 A 
ATOM     11  C   UNL A   1      33.059  26.661  22.826  1.00  0.00     0.011 A 
ATOM     12  C   UNL A   1      32.851  25.394  20.748  1.00  0.00    -0.049 A 
ATOM     13  C   UNL A   1      32.711  26.584  21.462  1.00  0.00     0.004 A 
ATOM     14  C   UNL A   1      32.492  25.276  19.293  1.00  0.00     0.044 C 
BRANCH   6  15
ATOM     15  C   UNL A   1      33.514  21.913  23.431  1.00  0.00     0.119 C 
ATOM     16  C   UNL A   1      32.444  21.229  24.279  1.00  0.00     0.027 C 
ENDBRANCH   6  15
BRANCH   8  17
ATOM     17  C   UNL A   1      34.192  26.149  25.962  1.00  0.00     0.300 C 
BRANCH  17  18
ATOM     18  N   UNL A   1      32.961  26.139  26.748  1.00  0.00    -0.339 N 
ATOM     19  H   UNL A   1      33.202  25.920  27.715  1.00  0.00     0.346 HD
ATOM     20  H   UNL A   1      32.350  25.442  26.321  1.00  0.00     0.346 HD
BRANCH  18  21
ATOM     21  C   UNL A   1      32.228  27.390  26.737  1.00  0.00     0.299 C 
BRANCH  21  22
ATOM     22  C   UNL A   1      31.222  27.543  25.618  1.00  0.00     0.025 A 
ATOM     23  C   UNL A   1      30.362  26.489  25.241  1.00  0.00     0.011 A 
ATOM     24  C   UNL A   1      31.122  28.753  24.914  1.00  0.00     0.049 A 
ATOM     25  C   UNL A   1      29.524  26.599  24.133  1.00  0.00     0.001 A 
ATOM     26  C   UNL A   1      30.269  28.867  23.814  1.00  0.00     0.021 A 
ATOM     27  Cl  UNL A   1      32.034  30.152  25.368  1.00  0.00    -0.084 Cl
ATOM     28  C   UNL A   1      29.490  27.784  23.410  1.00  0.00     0.002 A 
ENDBRANCH  21  22
ENDBRANCH  18  21
ENDBRANCH  17  18
ENDBRANCH   8  17
ENDBRANCH   3   5
ENDBRANCH   2   3
ENDBRANCH   1   2
BRANCH   1  29
ATOM     29  C   UNL A   1      38.286  21.514  25.653  1.00  0.00     0.275 C 
BRANCH  29  30
ATOM     30  O   UNL A   1      38.835  22.822  25.872  1.00  0.00    -0.458 OA
BRANCH  30  31
ATOM     31  C   UNL A   1      40.086  22.867  26.407  1.00  0.00     0.338 C 
ATOM     32  O   UNL A   1      41.104  22.482  25.902  1.00  0.00    -0.246 OA
BRANCH  31  33
ATOM     33  C   UNL A   1      39.996  23.829  27.539  1.00  0.00     0.060 A 
ATOM     34  C   UNL A   1      38.830  24.556  27.821  1.00  0.00     0.016 A 
ATOM     35  C   UNL A   1      41.208  24.218  28.092  1.00  0.00     0.016 A 
ATOM     36  C   UNL A   1      38.929  25.818  28.423  1.00  0.00     0.010 A 
ATOM     37  C   UNL A   1      41.278  25.441  28.746  1.00  0.00     0.010 A 
ATOM     38  C   UNL A   1      40.185  26.326  28.765  1.00  0.00    -0.014 A 
BRANCH  38  39
ATOM     39  C   UNL A   1      40.378  27.728  29.194  1.00  0.00     0.031 A 
ATOM     40  C   UNL A   1      41.526  28.405  28.560  1.00  0.00     0.074 A 
ATOM     41  C   UNL A   1      39.607  28.561  29.940  1.00  0.00     0.049 A 
ATOM     42  N   UNL A   1      42.738  28.398  28.998  1.00  0.00    -0.248 NA
ATOM     43  C   UNL A   1      41.348  29.083  27.267  1.00  0.00     0.031 C 
ATOM     44  C   UNL A   1      38.248  28.409  30.454  1.00  0.00     0.029 A 
ATOM     45  N   UNL A   1      39.927  29.835  30.357  1.00  0.00    -0.354 N 
ATOM     46  C   UNL A   1      43.439  29.228  28.145  1.00  0.00     0.074 A 
ATOM     47  C   UNL A   1      42.605  29.422  26.984  1.00  0.00     0.031 C 
ATOM     48  C   UNL A   1      37.781  29.598  30.913  1.00  0.00     0.029 A 
ATOM     49  C   UNL A   1      38.885  30.538  30.948  1.00  0.00     0.049 A 
ATOM     50  H   UNL A   1      40.828  30.218  30.244  1.00  0.00     0.167 HD
ATOM     51  C   UNL A   1      44.534  29.916  28.558  1.00  0.00     0.031 A 
ATOM     52  C   UNL A   1      38.948  31.747  31.556  1.00  0.00     0.031 A 
ATOM     53  C   UNL A   1      44.880  29.615  29.924  1.00  0.00     0.049 A 
ATOM     54  C   UNL A   1      40.319  31.908  32.087  1.00  0.00     0.074 A 
ATOM     55  C   UNL A   1      45.412  28.543  30.605  1.00  0.00     0.029 A 
ATOM     56  N   UNL A   1      44.284  30.431  30.857  1.00  0.00    -0.354 N 
ATOM     57  N   UNL A   1      40.832  31.125  32.995  1.00  0.00    -0.248 NA
ATOM     58  C   UNL A   1      41.253  32.843  31.472  1.00  0.00     0.031 C 
ATOM     59  C   UNL A   1      44.898  28.620  31.935  1.00  0.00     0.029 A 
ATOM     60  C   UNL A   1      44.072  29.739  32.028  1.00  0.00     0.049 A 
ATOM     61  H   UNL A   1      44.044  31.374  30.708  1.00  0.00     0.167 HD
ATOM     62  C   UNL A   1      42.188  31.164  32.753  1.00  0.00     0.074 A 
ATOM     63  C   UNL A   1      42.400  32.364  31.960  1.00  0.00     0.031 C 
ATOM     64  C   UNL A   1      42.965  30.056  32.919  1.00  0.00     0.031 A 
BRANCH  51  65
ATOM     65  C   UNL A   1      45.074  31.127  27.863  1.00  0.00    -0.014 A 
ATOM     66  C   UNL A   1      44.507  32.411  27.992  1.00  0.00     0.010 A 
ATOM     67  C   UNL A   1      46.306  31.027  27.191  1.00  0.00     0.010 A 
ATOM     68  C   UNL A   1      45.092  33.534  27.408  1.00  0.00     0.020 A 
ATOM     69  C   UNL A   1      46.928  32.156  26.645  1.00  0.00     0.020 A 
ATOM     70  C   UNL A   1      46.304  33.399  26.741  1.00  0.00     0.054 A 
BRANCH  70  71
ATOM     71  S   UNL A   1      47.086  34.890  26.078  1.00  0.00     0.124 S 
ATOM     72  O   UNL A   1      47.661  35.486  27.281  1.00  0.00    -0.237 OA
ATOM     73  O   UNL A   1      48.047  34.343  25.123  1.00  0.00    -0.237 OA
ATOM     74  O   UNL A   1      45.972  35.625  25.485  1.00  0.00    -0.744 OA
ENDBRANCH  70  71
ENDBRANCH  51  65
BRANCH  52  75
ATOM     75  C   UNL A   1      37.975  32.862  31.634  1.00  0.00    -0.014 A 
ATOM     76  C   UNL A   1      37.220  33.035  32.808  1.00  0.00     0.010 A 
ATOM     77  C   UNL A   1      37.527  33.497  30.458  1.00  0.00     0.010 A 
ATOM     78  C   UNL A   1      35.993  33.715  32.781  1.00  0.00     0.020 A 
ATOM     79  C   UNL A   1      36.302  34.182  30.425  1.00  0.00     0.020 A 
ATOM     80  C   UNL A   1      35.520  34.244  31.579  1.00  0.00     0.054 A 
BRANCH  80  81
ATOM     81  S   UNL A   1      33.830  34.912  31.525  1.00  0.00     0.124 S 
ATOM     82  O   UNL A   1      33.348  34.412  30.240  1.00  0.00    -0.237 OA
ATOM     83  O   UNL A   1      33.211  34.308  32.703  1.00  0.00    -0.237 OA
ATOM     84  O   UNL A   1      34.023  36.357  31.599  1.00  0.00    -0.744 OA
ENDBRANCH  80  81
ENDBRANCH  52  75
BRANCH  64  85
ATOM     85  C   UNL A   1      42.508  28.991  33.890  1.00  0.00    -0.014 A 
ATOM     86  C   UNL A   1      43.068  29.005  35.181  1.00  0.00     0.010 A 
ATOM     87  C   UNL A   1      41.643  27.932  33.553  1.00  0.00     0.010 A 
ATOM     88  C   UNL A   1      42.814  27.977  36.092  1.00  0.00     0.020 A 
ATOM     89  C   UNL A   1      41.362  26.908  34.472  1.00  0.00     0.020 A 
ATOM     90  C   UNL A   1      41.974  26.923  35.727  1.00  0.00     0.054 A 
BRANCH  90  91
ATOM     91  S   UNL A   1      41.713  25.577  36.915  1.00  0.00     0.124 S 
ATOM     92  O   UNL A   1      42.926  25.641  37.727  1.00  0.00    -0.237 OA
ATOM     93  O   UNL A   1      40.485  25.979  37.600  1.00  0.00    -0.237 OA
ATOM     94  O   UNL A   1      41.588  24.385  36.080  1.00  0.00    -0.744 OA
ENDBRANCH  90  91
ENDBRANCH  64  85
ENDBRANCH  38  39
ENDBRANCH  31  33
ENDBRANCH  30  31
ENDBRANCH  29  30
ENDBRANCH   1  29
TORSDOF 19
ENDMDL
