MODEL 1
REMARK VINA RESULT:     -12.0      0.000      0.000
REMARK SMILES CN1N[C@H](C(=O)N[C@@H](CC2=c3ccccc3=NC2)C(=O)OCCOC(=O)c2ccc(-c3c4nc(c(-c5ccc(S(=O)(=O)[O-])cc5)c5ccc([nH]5)c(-c5ccc(S(=O)(=O)[O-])cc5)c5nc(c(-c6ccc(S(=O)(=O)[O-])cc6)c6ccc3[nH]6)C=C5)C=C4)cc2)c2ccccc2C1=O
REMARK SMILES IDX 23 1 22 2 21 3 19 4 20 5 8 6 7 7 5 8 6 9 4 11 1 12 2 13 3 14
REMARK SMILES IDX 93 15 92 17 94 18 87 19 91 20 88 21 90 22 89 23 9 24 10 25
REMARK SMILES IDX 11 26 18 27 12 28 16 29 17 30 13 31 15 32 14 33 24 34 25 35
REMARK SMILES IDX 26 36 27 37 28 38 86 39 29 40 85 41 30 42 31 43 32 44 79 45
REMARK SMILES IDX 33 46 84 47 78 48 80 49 34 50 83 51 77 52 76 53 35 55 65 56
REMARK SMILES IDX 46 57 64 58 47 59 50 60 63 61 81 62 48 63 49 64 62 66 82 67
REMARK SMILES IDX 51 68 36 69 37 70 45 71 38 72 44 73 39 74 40 75 41 76 42 77
REMARK SMILES IDX 43 78 66 79 67 80 75 81 68 82 74 83 69 84 70 85 71 86 72 87
REMARK SMILES IDX 73 88 52 89 53 90 61 91 54 92 60 93 55 94 56 95 57 96 58 97
REMARK SMILES IDX 59 98
REMARK H PARENT 7 10 3 16 80 54 50 65
REMARK Flexibility Score: inf
ROOT
ATOM      1  C   UNL A   1      32.393  28.948  27.625  1.00  0.00     0.275 C 
ENDROOT
BRANCH   1   2
ATOM      2  C   UNL A   1      31.787  28.056  26.541  1.00  0.00     0.274 C 
BRANCH   2   3
ATOM      3  O   UNL A   1      31.915  26.654  26.857  1.00  0.00    -0.461 OA
BRANCH   3   4
ATOM      4  C   UNL A   1      32.825  25.983  26.103  1.00  0.00     0.329 C 
ATOM      5  O   UNL A   1      33.842  26.489  25.640  1.00  0.00    -0.250 OA
BRANCH   4   6
ATOM      6  C   UNL A   1      32.432  24.533  25.805  1.00  0.00     0.196 C 
BRANCH   6   7
ATOM      7  N   UNL A   1      32.593  23.543  26.879  1.00  0.00    -0.341 N 
ATOM      8  C   UNL A   1      33.191  22.315  26.893  1.00  0.00     0.244 C 
ATOM      9  O   UNL A   1      32.883  21.558  27.823  1.00  0.00    -0.273 OA
ATOM     10  H   UNL A   1      32.201  23.812  27.740  1.00  0.00     0.164 HD
BRANCH   8  11
ATOM     11  C   UNL A   1      34.295  21.895  25.888  1.00  0.00     0.195 C 
ATOM     12  C   UNL A   1      37.919  22.156  25.527  1.00  0.00     0.169 C 
ATOM     13  N   UNL A   1      36.663  21.449  25.707  1.00  0.00    -0.276 N 
ATOM     14  N   UNL A   1      35.634  22.043  26.498  1.00  0.00    -0.215 NA
ATOM     15  C   UNL A   1      36.517  20.164  25.171  1.00  0.00     0.268 C 
ATOM     16  H   UNL A   1      35.836  23.037  26.605  1.00  0.00     0.149 HD
ATOM     17  C   UNL A   1      35.119  19.703  24.966  1.00  0.00     0.046 A 
ATOM     18  O   UNL A   1      37.453  19.469  24.809  1.00  0.00    -0.268 OA
ATOM     19  C   UNL A   1      34.041  20.526  25.303  1.00  0.00    -0.007 A 
ATOM     20  C   UNL A   1      34.902  18.479  24.324  1.00  0.00     0.014 A 
ATOM     21  C   UNL A   1      32.742  20.107  24.962  1.00  0.00     0.007 A 
ATOM     22  C   UNL A   1      33.605  18.059  24.031  1.00  0.00     0.001 A 
ATOM     23  C   UNL A   1      32.528  18.876  24.345  1.00  0.00     0.000 A 
ENDBRANCH   8  11
ENDBRANCH   6   7
BRANCH   6  24
ATOM     24  C   UNL A   1      30.972  24.593  25.277  1.00  0.00     0.070 C 
BRANCH  24  25
ATOM     25  C   UNL A   1      30.636  25.392  24.039  1.00  0.00    -0.037 C 
ATOM     26  C   UNL A   1      31.382  25.919  23.066  1.00  0.00     0.001 A 
ATOM     27  C   UNL A   1      29.291  26.065  23.997  1.00  0.00     0.174 C 
ATOM     28  C   UNL A   1      32.612  25.683  22.377  1.00  0.00     0.010 A 
ATOM     29  C   UNL A   1      30.805  27.289  23.106  1.00  0.00     0.065 A 
ATOM     30  N   UNL A   1      29.609  27.444  23.592  1.00  0.00    -0.280 NA
ATOM     31  C   UNL A   1      33.291  26.725  21.869  1.00  0.00     0.001 A 
ATOM     32  C   UNL A   1      31.722  28.390  22.742  1.00  0.00     0.028 A 
ATOM     33  C   UNL A   1      32.904  28.089  22.180  1.00  0.00     0.002 A 
ENDBRANCH  24  25
ENDBRANCH   6  24
ENDBRANCH   4   6
ENDBRANCH   3   4
ENDBRANCH   2   3
ENDBRANCH   1   2
BRANCH   1  34
ATOM     34  O   UNL A   1      33.831  28.955  27.571  1.00  0.00    -0.458 OA
BRANCH  34  35
ATOM     35  C   UNL A   1      34.390  30.162  27.808  1.00  0.00     0.338 C 
ATOM     36  O   UNL A   1      33.829  31.246  27.743  1.00  0.00    -0.246 OA
BRANCH  35  37
ATOM     37  C   UNL A   1      35.784  30.007  28.247  1.00  0.00     0.060 A 
ATOM     38  C   UNL A   1      36.080  29.644  29.563  1.00  0.00     0.016 A 
ATOM     39  C   UNL A   1      36.793  30.062  27.288  1.00  0.00     0.016 A 
ATOM     40  C   UNL A   1      37.400  29.326  29.911  1.00  0.00     0.010 A 
ATOM     41  C   UNL A   1      38.093  29.695  27.626  1.00  0.00     0.010 A 
ATOM     42  C   UNL A   1      38.416  29.320  28.940  1.00  0.00    -0.014 A 
BRANCH  42  43
ATOM     43  C   UNL A   1      39.811  28.895  29.246  1.00  0.00     0.031 A 
ATOM     44  C   UNL A   1      40.786  29.876  29.840  1.00  0.00     0.074 A 
ATOM     45  C   UNL A   1      40.245  27.666  28.896  1.00  0.00     0.049 A 
ATOM     46  N   UNL A   1      42.033  29.686  30.187  1.00  0.00    -0.248 NA
ATOM     47  C   UNL A   1      40.303  31.248  30.067  1.00  0.00     0.031 C 
ATOM     48  C   UNL A   1      39.435  26.633  28.251  1.00  0.00     0.029 A 
ATOM     49  N   UNL A   1      41.488  27.086  28.996  1.00  0.00    -0.354 N 
ATOM     50  C   UNL A   1      42.467  30.900  30.704  1.00  0.00     0.074 A 
ATOM     51  C   UNL A   1      41.395  31.850  30.512  1.00  0.00     0.031 C 
ATOM     52  C   UNL A   1      40.204  25.570  27.970  1.00  0.00     0.029 A 
ATOM     53  C   UNL A   1      41.557  25.823  28.454  1.00  0.00     0.049 A 
ATOM     54  H   UNL A   1      42.257  27.532  29.419  1.00  0.00     0.167 HD
ATOM     55  C   UNL A   1      43.619  31.182  31.356  1.00  0.00     0.031 A 
ATOM     56  C   UNL A   1      42.577  24.945  28.383  1.00  0.00     0.031 A 
ATOM     57  C   UNL A   1      44.683  30.235  31.544  1.00  0.00     0.049 A 
ATOM     58  C   UNL A   1      43.870  25.273  29.076  1.00  0.00     0.074 A 
ATOM     59  C   UNL A   1      45.859  30.391  32.254  1.00  0.00     0.029 A 
ATOM     60  N   UNL A   1      44.700  28.953  31.013  1.00  0.00    -0.354 N 
ATOM     61  N   UNL A   1      44.207  26.376  29.699  1.00  0.00    -0.248 NA
ATOM     62  C   UNL A   1      44.894  24.220  29.118  1.00  0.00     0.031 C 
ATOM     63  C   UNL A   1      46.602  29.214  32.125  1.00  0.00     0.029 A 
ATOM     64  C   UNL A   1      45.868  28.308  31.377  1.00  0.00     0.049 A 
ATOM     65  H   UNL A   1      43.986  28.561  30.461  1.00  0.00     0.167 HD
ATOM     66  C   UNL A   1      45.457  26.133  30.254  1.00  0.00     0.074 A 
ATOM     67  C   UNL A   1      45.823  24.780  29.883  1.00  0.00     0.031 C 
ATOM     68  C   UNL A   1      46.217  26.954  31.017  1.00  0.00     0.031 A 
BRANCH  55  69
ATOM     69  C   UNL A   1      43.733  32.542  31.992  1.00  0.00    -0.014 A 
ATOM     70  C   UNL A   1      44.341  33.614  31.318  1.00  0.00     0.010 A 
ATOM     71  C   UNL A   1      43.253  32.743  33.303  1.00  0.00     0.010 A 
ATOM     72  C   UNL A   1      44.455  34.864  31.936  1.00  0.00     0.020 A 
ATOM     73  C   UNL A   1      43.335  33.997  33.909  1.00  0.00     0.020 A 
ATOM     74  C   UNL A   1      43.947  35.048  33.226  1.00  0.00     0.054 A 
BRANCH  74  75
ATOM     75  S   UNL A   1      44.048  36.686  33.999  1.00  0.00     0.124 S 
ATOM     76  O   UNL A   1      44.948  36.444  35.121  1.00  0.00    -0.237 OA
ATOM     77  O   UNL A   1      44.585  37.518  32.924  1.00  0.00    -0.237 OA
ATOM     78  O   UNL A   1      42.661  36.978  34.359  1.00  0.00    -0.744 OA
ENDBRANCH  74  75
ENDBRANCH  55  69
BRANCH  56  79
ATOM     79  C   UNL A   1      42.341  23.614  27.760  1.00  0.00    -0.014 A 
ATOM     80  C   UNL A   1      41.787  22.554  28.503  1.00  0.00     0.010 A 
ATOM     81  C   UNL A   1      42.771  23.374  26.443  1.00  0.00     0.010 A 
ATOM     82  C   UNL A   1      41.703  21.271  27.949  1.00  0.00     0.020 A 
ATOM     83  C   UNL A   1      42.673  22.098  25.882  1.00  0.00     0.020 A 
ATOM     84  C   UNL A   1      42.162  21.048  26.647  1.00  0.00     0.054 A 
BRANCH  84  85
ATOM     85  S   UNL A   1      42.110  19.363  25.975  1.00  0.00     0.124 S 
ATOM     86  O   UNL A   1      42.994  19.473  24.818  1.00  0.00    -0.237 OA
ATOM     87  O   UNL A   1      42.621  18.562  27.085  1.00  0.00    -0.237 OA
ATOM     88  O   UNL A   1      40.698  19.159  25.663  1.00  0.00    -0.744 OA
ENDBRANCH  84  85
ENDBRANCH  56  79
BRANCH  68  89
ATOM     89  C   UNL A   1      47.526  26.433  31.545  1.00  0.00    -0.014 A 
ATOM     90  C   UNL A   1      48.672  26.487  30.729  1.00  0.00     0.010 A 
ATOM     91  C   UNL A   1      47.584  25.742  32.767  1.00  0.00     0.010 A 
ATOM     92  C   UNL A   1      49.836  25.812  31.096  1.00  0.00     0.020 A 
ATOM     93  C   UNL A   1      48.757  25.086  33.151  1.00  0.00     0.020 A 
ATOM     94  C   UNL A   1      49.864  25.098  32.297  1.00  0.00     0.054 A 
BRANCH  94  95
ATOM     95  S   UNL A   1      51.355  24.156  32.720  1.00  0.00     0.124 S 
ATOM     96  O   UNL A   1      52.396  24.895  32.011  1.00  0.00    -0.237 OA
ATOM     97  O   UNL A   1      51.396  24.252  34.178  1.00  0.00    -0.237 OA
ATOM     98  O   UNL A   1      51.075  22.819  32.202  1.00  0.00    -0.744 OA
ENDBRANCH  94  95
ENDBRANCH  68  89
ENDBRANCH  42  43
ENDBRANCH  35  37
ENDBRANCH  34  35
ENDBRANCH   1  34
TORSDOF 18
ENDMDL
MODEL 2
REMARK VINA RESULT:     -11.9      1.513      2.149
REMARK SMILES CN1N[C@H](C(=O)N[C@@H](CC2=c3ccccc3=NC2)C(=O)OCCOC(=O)c2ccc(-c3c4nc(c(-c5ccc(S(=O)(=O)[O-])cc5)c5ccc([nH]5)c(-c5ccc(S(=O)(=O)[O-])cc5)c5nc(c(-c6ccc(S(=O)(=O)[O-])cc6)c6ccc3[nH]6)C=C5)C=C4)cc2)c2ccccc2C1=O
REMARK SMILES IDX 23 1 22 2 21 3 19 4 20 5 8 6 7 7 5 8 6 9 4 11 1 12 2 13 3 14
REMARK SMILES IDX 93 15 92 17 94 18 87 19 91 20 88 21 90 22 89 23 9 24 10 25
REMARK SMILES IDX 11 26 18 27 12 28 16 29 17 30 13 31 15 32 14 33 24 34 25 35
REMARK SMILES IDX 26 36 27 37 28 38 86 39 29 40 85 41 30 42 31 43 32 44 79 45
REMARK SMILES IDX 33 46 84 47 78 48 80 49 34 50 83 51 77 52 76 53 35 55 65 56
REMARK SMILES IDX 46 57 64 58 47 59 50 60 63 61 81 62 48 63 49 64 62 66 82 67
REMARK SMILES IDX 51 68 36 69 37 70 45 71 38 72 44 73 39 74 40 75 41 76 42 77
REMARK SMILES IDX 43 78 66 79 67 80 75 81 68 82 74 83 69 84 70 85 71 86 72 87
REMARK SMILES IDX 73 88 52 89 53 90 61 91 54 92 60 93 55 94 56 95 57 96 58 97
REMARK SMILES IDX 59 98
REMARK H PARENT 7 10 3 16 80 54 50 65
REMARK Flexibility Score: inf
ROOT
ATOM      1  C   UNL A   1      33.081  29.960  27.107  1.00  0.00     0.275 C 
ENDROOT
BRANCH   1   2
ATOM      2  C   UNL A   1      33.486  28.494  26.953  1.00  0.00     0.274 C 
BRANCH   2   3
ATOM      3  O   UNL A   1      32.624  27.786  26.039  1.00  0.00    -0.461 OA
BRANCH   3   4
ATOM      4  C   UNL A   1      31.614  27.096  26.630  1.00  0.00     0.329 C 
ATOM      5  O   UNL A   1      31.019  27.473  27.635  1.00  0.00    -0.250 OA
BRANCH   4   6
ATOM      6  C   UNL A   1      31.322  25.743  25.974  1.00  0.00     0.196 C 
BRANCH   6   7
ATOM      7  N   UNL A   1      31.094  24.588  26.853  1.00  0.00    -0.341 N 
ATOM      8  C   UNL A   1      31.197  23.246  26.625  1.00  0.00     0.244 C 
ATOM      9  O   UNL A   1      30.620  22.499  27.427  1.00  0.00    -0.273 OA
ATOM     10  H   UNL A   1      30.818  24.823  27.768  1.00  0.00     0.164 HD
BRANCH   8  11
ATOM     11  C   UNL A   1      32.080  22.638  25.504  1.00  0.00     0.195 C 
ATOM     12  C   UNL A   1      31.779  21.665  21.998  1.00  0.00     0.169 C 
ATOM     13  N   UNL A   1      32.289  22.457  23.104  1.00  0.00    -0.276 N 
ATOM     14  N   UNL A   1      31.420  22.781  24.189  1.00  0.00    -0.215 NA
ATOM     15  C   UNL A   1      33.595  22.955  23.044  1.00  0.00     0.268 C 
ATOM     16  H   UNL A   1      30.613  22.160  24.159  1.00  0.00     0.149 HD
ATOM     17  C   UNL A   1      34.207  23.324  24.347  1.00  0.00     0.046 A 
ATOM     18  O   UNL A   1      34.250  23.023  22.017  1.00  0.00    -0.268 OA
ATOM     19  C   UNL A   1      33.492  23.173  25.539  1.00  0.00    -0.007 A 
ATOM     20  C   UNL A   1      35.551  23.716  24.373  1.00  0.00     0.014 A 
ATOM     21  C   UNL A   1      34.157  23.400  26.757  1.00  0.00     0.007 A 
ATOM     22  C   UNL A   1      36.183  23.978  25.587  1.00  0.00     0.001 A 
ATOM     23  C   UNL A   1      35.488  23.815  26.777  1.00  0.00     0.000 A 
ENDBRANCH   8  11
ENDBRANCH   6   7
BRANCH   6  24
ATOM     24  C   UNL A   1      30.128  25.992  25.010  1.00  0.00     0.070 C 
BRANCH  24  25
ATOM     25  C   UNL A   1      30.327  26.765  23.727  1.00  0.00    -0.037 C 
ATOM     26  C   UNL A   1      31.355  26.882  22.885  1.00  0.00     0.001 A 
ATOM     27  C   UNL A   1      29.388  27.911  23.461  1.00  0.00     0.174 C 
ATOM     28  C   UNL A   1      32.472  26.129  22.407  1.00  0.00     0.010 A 
ATOM     29  C   UNL A   1      31.378  28.367  22.818  1.00  0.00     0.065 A 
ATOM     30  N   UNL A   1      30.289  29.018  23.102  1.00  0.00    -0.280 NA
ATOM     31  C   UNL A   1      33.579  26.777  22.007  1.00  0.00     0.001 A 
ATOM     32  C   UNL A   1      32.703  28.986  22.600  1.00  0.00     0.028 A 
ATOM     33  C   UNL A   1      33.732  28.202  22.240  1.00  0.00     0.002 A 
ENDBRANCH  24  25
ENDBRANCH   6  24
ENDBRANCH   4   6
ENDBRANCH   3   4
ENDBRANCH   2   3
ENDBRANCH   1   2
BRANCH   1  34
ATOM     34  O   UNL A   1      34.218  30.840  27.041  1.00  0.00    -0.458 OA
BRANCH  34  35
ATOM     35  C   UNL A   1      34.747  31.156  28.244  1.00  0.00     0.338 C 
ATOM     36  O   UNL A   1      34.241  31.877  29.092  1.00  0.00    -0.246 OA
BRANCH  35  37
ATOM     37  C   UNL A   1      36.013  30.441  28.454  1.00  0.00     0.060 A 
ATOM     38  C   UNL A   1      36.871  30.183  27.382  1.00  0.00     0.016 A 
ATOM     39  C   UNL A   1      36.419  30.176  29.760  1.00  0.00     0.016 A 
ATOM     40  C   UNL A   1      38.150  29.663  27.631  1.00  0.00     0.010 A 
ATOM     41  C   UNL A   1      37.708  29.710  30.006  1.00  0.00     0.010 A 
ATOM     42  C   UNL A   1      38.593  29.449  28.947  1.00  0.00    -0.014 A 
BRANCH  42  43
ATOM     43  C   UNL A   1      39.976  28.991  29.260  1.00  0.00     0.031 A 
ATOM     44  C   UNL A   1      40.972  29.951  29.853  1.00  0.00     0.074 A 
ATOM     45  C   UNL A   1      40.381  27.751  28.915  1.00  0.00     0.049 A 
ATOM     46  N   UNL A   1      42.214  29.733  30.204  1.00  0.00    -0.248 NA
ATOM     47  C   UNL A   1      40.522  31.335  30.073  1.00  0.00     0.031 C 
ATOM     48  C   UNL A   1      39.549  26.736  28.271  1.00  0.00     0.029 A 
ATOM     49  N   UNL A   1      41.610  27.142  29.021  1.00  0.00    -0.354 N 
ATOM     50  C   UNL A   1      42.675  30.938  30.718  1.00  0.00     0.074 A 
ATOM     51  C   UNL A   1      41.627  31.913  30.520  1.00  0.00     0.031 C 
ATOM     52  C   UNL A   1      40.293  25.654  27.996  1.00  0.00     0.029 A 
ATOM     53  C   UNL A   1      41.650  25.876  28.484  1.00  0.00     0.049 A 
ATOM     54  H   UNL A   1      42.388  27.571  29.445  1.00  0.00     0.167 HD
ATOM     55  C   UNL A   1      43.832  31.194  31.373  1.00  0.00     0.031 A 
ATOM     56  C   UNL A   1      42.649  24.973  28.419  1.00  0.00     0.031 A 
ATOM     57  C   UNL A   1      44.872  30.222  31.567  1.00  0.00     0.049 A 
ATOM     58  C   UNL A   1      43.947  25.272  29.115  1.00  0.00     0.074 A 
ATOM     59  C   UNL A   1      46.049  30.352  32.280  1.00  0.00     0.029 A 
ATOM     60  N   UNL A   1      44.860  28.938  31.041  1.00  0.00    -0.354 N 
ATOM     61  N   UNL A   1      44.309  26.370  29.734  1.00  0.00    -0.248 NA
ATOM     62  C   UNL A   1      44.946  24.195  29.163  1.00  0.00     0.031 C 
ATOM     63  C   UNL A   1      46.764  29.158  32.158  1.00  0.00     0.029 A 
ATOM     64  C   UNL A   1      46.010  28.267  31.410  1.00  0.00     0.049 A 
ATOM     65  H   UNL A   1      44.138  28.561  30.488  1.00  0.00     0.167 HD
ATOM     66  C   UNL A   1      45.551  26.098  30.294  1.00  0.00     0.074 A 
ATOM     67  C   UNL A   1      45.886  24.736  29.929  1.00  0.00     0.031 C 
ATOM     68  C   UNL A   1      46.328  26.904  31.056  1.00  0.00     0.031 A 
BRANCH  55  69
ATOM     69  C   UNL A   1      43.977  32.554  32.004  1.00  0.00    -0.014 A 
ATOM     70  C   UNL A   1      44.624  33.604  31.334  1.00  0.00     0.010 A 
ATOM     71  C   UNL A   1      43.486  32.775  33.308  1.00  0.00     0.010 A 
ATOM     72  C   UNL A   1      44.766  34.853  31.947  1.00  0.00     0.020 A 
ATOM     73  C   UNL A   1      43.595  34.028  33.909  1.00  0.00     0.020 A 
ATOM     74  C   UNL A   1      44.247  35.058  33.230  1.00  0.00     0.054 A 
BRANCH  74  75
ATOM     75  S   UNL A   1      44.384  36.696  33.997  1.00  0.00     0.124 S 
ATOM     76  O   UNL A   1      45.105  36.401  35.230  1.00  0.00    -0.237 OA
ATOM     77  O   UNL A   1      45.127  37.460  32.996  1.00  0.00    -0.237 OA
ATOM     78  O   UNL A   1      42.992  37.109  34.167  1.00  0.00    -0.744 OA
ENDBRANCH  74  75
ENDBRANCH  55  69
BRANCH  56  79
ATOM     79  C   UNL A   1      42.383  23.646  27.800  1.00  0.00    -0.014 A 
ATOM     80  C   UNL A   1      41.838  22.590  28.555  1.00  0.00     0.010 A 
ATOM     81  C   UNL A   1      42.774  23.405  26.471  1.00  0.00     0.010 A 
ATOM     82  C   UNL A   1      41.726  21.309  28.001  1.00  0.00     0.020 A 
ATOM     83  C   UNL A   1      42.648  22.131  25.910  1.00  0.00     0.020 A 
ATOM     84  C   UNL A   1      42.147  21.084  26.687  1.00  0.00     0.054 A 
BRANCH  84  85
ATOM     85  S   UNL A   1      42.061  19.401  26.014  1.00  0.00     0.124 S 
ATOM     86  O   UNL A   1      42.572  18.605  27.126  1.00  0.00    -0.237 OA
ATOM     87  O   UNL A   1      40.636  19.245  25.729  1.00  0.00    -0.237 OA
ATOM     88  O   UNL A   1      42.924  19.456  24.837  1.00  0.00    -0.744 OA
ENDBRANCH  84  85
ENDBRANCH  56  79
BRANCH  68  89
ATOM     89  C   UNL A   1      47.623  26.353  31.591  1.00  0.00    -0.014 A 
ATOM     90  C   UNL A   1      48.767  26.360  30.771  1.00  0.00     0.010 A 
ATOM     91  C   UNL A   1      47.664  25.681  32.824  1.00  0.00     0.010 A 
ATOM     92  C   UNL A   1      49.912  25.657  31.147  1.00  0.00     0.020 A 
ATOM     93  C   UNL A   1      48.818  24.998  33.216  1.00  0.00     0.020 A 
ATOM     94  C   UNL A   1      49.922  24.962  32.360  1.00  0.00     0.054 A 
BRANCH  94  95
ATOM     95  S   UNL A   1      51.386  23.984  32.796  1.00  0.00     0.124 S 
ATOM     96  O   UNL A   1      51.038  22.664  32.278  1.00  0.00    -0.237 OA
ATOM     97  O   UNL A   1      52.460  24.676  32.086  1.00  0.00    -0.237 OA
ATOM     98  O   UNL A   1      51.447  24.089  34.252  1.00  0.00    -0.744 OA
ENDBRANCH  94  95
ENDBRANCH  68  89
ENDBRANCH  42  43
ENDBRANCH  35  37
ENDBRANCH  34  35
ENDBRANCH   1  34
TORSDOF 18
ENDMDL
MODEL 3
REMARK VINA RESULT:     -11.9      4.527     10.522
REMARK SMILES CN1N[C@H](C(=O)N[C@@H](CC2=c3ccccc3=NC2)C(=O)OCCOC(=O)c2ccc(-c3c4nc(c(-c5ccc(S(=O)(=O)[O-])cc5)c5ccc([nH]5)c(-c5ccc(S(=O)(=O)[O-])cc5)c5nc(c(-c6ccc(S(=O)(=O)[O-])cc6)c6ccc3[nH]6)C=C5)C=C4)cc2)c2ccccc2C1=O
REMARK SMILES IDX 23 1 22 2 21 3 19 4 20 5 8 6 7 7 5 8 6 9 4 11 1 12 2 13 3 14
REMARK SMILES IDX 93 15 92 17 94 18 87 19 91 20 88 21 90 22 89 23 9 24 10 25
REMARK SMILES IDX 11 26 18 27 12 28 16 29 17 30 13 31 15 32 14 33 24 34 25 35
REMARK SMILES IDX 26 36 27 37 28 38 86 39 29 40 85 41 30 42 31 43 32 44 79 45
REMARK SMILES IDX 33 46 84 47 78 48 80 49 34 50 83 51 77 52 76 53 35 55 65 56
REMARK SMILES IDX 46 57 64 58 47 59 50 60 63 61 81 62 48 63 49 64 62 66 82 67
REMARK SMILES IDX 51 68 36 69 37 70 45 71 38 72 44 73 39 74 40 75 41 76 42 77
REMARK SMILES IDX 43 78 66 79 67 80 75 81 68 82 74 83 69 84 70 85 71 86 72 87
REMARK SMILES IDX 73 88 52 89 53 90 61 91 54 92 60 93 55 94 56 95 57 96 58 97
REMARK SMILES IDX 59 98
REMARK H PARENT 7 10 3 16 80 54 50 65
REMARK Flexibility Score: inf
ROOT
ATOM      1  C   UNL A   1      39.428  23.373  26.895  1.00  0.00     0.275 C 
ENDROOT
BRANCH   1   2
ATOM      2  C   UNL A   1      38.653  22.674  25.778  1.00  0.00     0.274 C 
BRANCH   2   3
ATOM      3  O   UNL A   1      37.257  22.514  26.104  1.00  0.00    -0.461 OA
BRANCH   3   4
ATOM      4  C   UNL A   1      36.409  23.262  25.351  1.00  0.00     0.329 C 
ATOM      5  O   UNL A   1      36.561  24.458  25.126  1.00  0.00    -0.250 OA
BRANCH   4   6
ATOM      6  C   UNL A   1      35.179  22.493  24.858  1.00  0.00     0.196 C 
BRANCH   6   7
ATOM      7  N   UNL A   1      34.778  22.664  23.454  1.00  0.00    -0.341 N 
ATOM      8  C   UNL A   1      33.977  23.590  22.850  1.00  0.00     0.244 C 
ATOM      9  O   UNL A   1      33.539  23.299  21.729  1.00  0.00    -0.273 OA
ATOM     10  H   UNL A   1      35.155  21.993  22.841  1.00  0.00     0.164 HD
BRANCH   8  11
ATOM     11  C   UNL A   1      33.702  24.995  23.445  1.00  0.00     0.195 C 
ATOM     12  C   UNL A   1      34.068  28.500  22.485  1.00  0.00     0.169 C 
ATOM     13  N   UNL A   1      33.322  27.302  22.834  1.00  0.00    -0.276 N 
ATOM     14  N   UNL A   1      33.797  26.030  22.394  1.00  0.00    -0.215 NA
ATOM     15  C   UNL A   1      32.111  27.427  23.524  1.00  0.00     0.268 C 
ATOM     16  H   UNL A   1      34.774  26.124  22.115  1.00  0.00     0.149 HD
ATOM     17  C   UNL A   1      31.655  26.215  24.254  1.00  0.00     0.046 A 
ATOM     18  O   UNL A   1      31.482  28.469  23.609  1.00  0.00    -0.268 OA
ATOM     19  C   UNL A   1      32.412  25.040  24.228  1.00  0.00    -0.007 A 
ATOM     20  C   UNL A   1      30.515  26.305  25.061  1.00  0.00     0.014 A 
ATOM     21  C   UNL A   1      32.016  23.966  25.045  1.00  0.00     0.007 A 
ATOM     22  C   UNL A   1      30.112  25.217  25.833  1.00  0.00     0.001 A 
ATOM     23  C   UNL A   1      30.865  24.051  25.829  1.00  0.00     0.000 A 
ENDBRANCH   8  11
ENDBRANCH   6   7
BRANCH   6  24
ATOM     24  C   UNL A   1      35.442  21.004  25.215  1.00  0.00     0.070 C 
BRANCH  24  25
ATOM     25  C   UNL A   1      34.294  20.027  25.322  1.00  0.00    -0.037 C 
ATOM     26  C   UNL A   1      34.049  18.844  24.755  1.00  0.00     0.001 A 
ATOM     27  C   UNL A   1      32.990  20.552  25.860  1.00  0.00     0.174 C 
ATOM     28  C   UNL A   1      34.749  17.708  24.243  1.00  0.00     0.010 A 
ATOM     29  C   UNL A   1      32.672  19.143  24.281  1.00  0.00     0.065 A 
ATOM     30  N   UNL A   1      31.998  20.080  24.881  1.00  0.00    -0.280 NA
ATOM     31  C   UNL A   1      34.196  16.986  23.254  1.00  0.00     0.001 A 
ATOM     32  C   UNL A   1      32.250  18.457  23.041  1.00  0.00     0.028 A 
ATOM     33  C   UNL A   1      33.007  17.455  22.566  1.00  0.00     0.002 A 
ENDBRANCH  24  25
ENDBRANCH   6  24
ENDBRANCH   4   6
ENDBRANCH   3   4
ENDBRANCH   2   3
ENDBRANCH   1   2
BRANCH   1  34
ATOM     34  O   UNL A   1      39.094  24.770  26.986  1.00  0.00    -0.458 OA
BRANCH  34  35
ATOM     35  C   UNL A   1      40.160  25.590  27.113  1.00  0.00     0.338 C 
ATOM     36  O   UNL A   1      41.152  25.606  26.398  1.00  0.00    -0.246 OA
BRANCH  35  37
ATOM     37  C   UNL A   1      39.946  26.549  28.205  1.00  0.00     0.060 A 
ATOM     38  C   UNL A   1      39.076  26.249  29.256  1.00  0.00     0.016 A 
ATOM     39  C   UNL A   1      40.751  27.685  28.260  1.00  0.00     0.016 A 
ATOM     40  C   UNL A   1      39.024  27.095  30.373  1.00  0.00     0.010 A 
ATOM     41  C   UNL A   1      40.735  28.494  29.394  1.00  0.00     0.010 A 
ATOM     42  C   UNL A   1      39.874  28.211  30.467  1.00  0.00    -0.014 A 
BRANCH  42  43
ATOM     43  C   UNL A   1      39.921  29.079  31.677  1.00  0.00     0.031 A 
ATOM     44  C   UNL A   1      40.905  28.786  32.778  1.00  0.00     0.074 A 
ATOM     45  C   UNL A   1      39.014  30.064  31.849  1.00  0.00     0.049 A 
ATOM     46  N   UNL A   1      41.103  29.436  33.897  1.00  0.00    -0.248 NA
ATOM     47  C   UNL A   1      41.773  27.610  32.608  1.00  0.00     0.031 C 
ATOM     48  C   UNL A   1      37.959  30.418  30.902  1.00  0.00     0.029 A 
ATOM     49  N   UNL A   1      38.808  30.925  32.901  1.00  0.00    -0.354 N 
ATOM     50  C   UNL A   1      42.139  28.770  34.539  1.00  0.00     0.074 A 
ATOM     51  C   UNL A   1      42.443  27.598  33.750  1.00  0.00     0.031 C 
ATOM     52  C   UNL A   1      37.190  31.383  31.427  1.00  0.00     0.029 A 
ATOM     53  C   UNL A   1      37.721  31.753  32.735  1.00  0.00     0.049 A 
ATOM     54  H   UNL A   1      39.386  30.949  33.698  1.00  0.00     0.167 HD
ATOM     55  C   UNL A   1      42.833  29.141  35.640  1.00  0.00     0.031 A 
ATOM     56  C   UNL A   1      37.222  32.727  33.522  1.00  0.00     0.031 A 
ATOM     57  C   UNL A   1      42.527  30.306  36.423  1.00  0.00     0.049 A 
ATOM     58  C   UNL A   1      37.973  33.115  34.765  1.00  0.00     0.074 A 
ATOM     59  C   UNL A   1      43.210  30.817  37.510  1.00  0.00     0.029 A 
ATOM     60  N   UNL A   1      41.441  31.142  36.201  1.00  0.00    -0.354 N 
ATOM     61  N   UNL A   1      39.048  32.566  35.275  1.00  0.00    -0.248 NA
ATOM     62  C   UNL A   1      37.488  34.291  35.501  1.00  0.00     0.031 C 
ATOM     63  C   UNL A   1      42.520  31.943  37.966  1.00  0.00     0.029 A 
ATOM     64  C   UNL A   1      41.434  32.162  37.133  1.00  0.00     0.049 A 
ATOM     65  H   UNL A   1      40.776  31.025  35.484  1.00  0.00     0.167 HD
ATOM     66  C   UNL A   1      39.402  33.360  36.360  1.00  0.00     0.074 A 
ATOM     67  C   UNL A   1      38.418  34.421  36.439  1.00  0.00     0.031 C 
ATOM     68  C   UNL A   1      40.459  33.225  37.196  1.00  0.00     0.031 A 
BRANCH  55  69
ATOM     69  C   UNL A   1      44.047  28.323  35.994  1.00  0.00    -0.014 A 
ATOM     70  C   UNL A   1      45.301  28.594  35.423  1.00  0.00     0.010 A 
ATOM     71  C   UNL A   1      43.923  27.241  36.891  1.00  0.00     0.010 A 
ATOM     72  C   UNL A   1      46.411  27.808  35.751  1.00  0.00     0.020 A 
ATOM     73  C   UNL A   1      45.035  26.477  37.245  1.00  0.00     0.020 A 
ATOM     74  C   UNL A   1      46.271  26.757  36.663  1.00  0.00     0.054 A 
BRANCH  74  75
ATOM     75  S   UNL A   1      47.726  25.779  37.126  1.00  0.00     0.124 S 
ATOM     76  O   UNL A   1      48.230  25.340  35.829  1.00  0.00    -0.237 OA
ATOM     77  O   UNL A   1      48.559  26.751  37.833  1.00  0.00    -0.237 OA
ATOM     78  O   UNL A   1      47.171  24.724  37.974  1.00  0.00    -0.744 OA
ENDBRANCH  74  75
ENDBRANCH  55  69
BRANCH  56  79
ATOM     79  C   UNL A   1      36.035  33.494  33.055  1.00  0.00    -0.014 A 
ATOM     80  C   UNL A   1      36.177  34.768  32.475  1.00  0.00     0.010 A 
ATOM     81  C   UNL A   1      34.743  32.990  33.290  1.00  0.00     0.010 A 
ATOM     82  C   UNL A   1      35.048  35.538  32.172  1.00  0.00     0.020 A 
ATOM     83  C   UNL A   1      33.613  33.750  32.973  1.00  0.00     0.020 A 
ATOM     84  C   UNL A   1      33.773  35.030  32.439  1.00  0.00     0.054 A 
BRANCH  84  85
ATOM     85  S   UNL A   1      32.326  36.073  32.106  1.00  0.00     0.124 S 
ATOM     86  O   UNL A   1      32.400  36.237  30.657  1.00  0.00    -0.237 OA
ATOM     87  O   UNL A   1      31.221  35.249  32.591  1.00  0.00    -0.237 OA
ATOM     88  O   UNL A   1      32.585  37.281  32.884  1.00  0.00    -0.744 OA
ENDBRANCH  84  85
ENDBRANCH  56  79
BRANCH  68  89
ATOM     89  C   UNL A   1      40.655  34.257  38.274  1.00  0.00    -0.014 A 
ATOM     90  C   UNL A   1      39.919  34.153  39.470  1.00  0.00     0.010 A 
ATOM     91  C   UNL A   1      41.426  35.407  38.038  1.00  0.00     0.010 A 
ATOM     92  C   UNL A   1      39.906  35.205  40.387  1.00  0.00     0.020 A 
ATOM     93  C   UNL A   1      41.436  36.452  38.967  1.00  0.00     0.020 A 
ATOM     94  C   UNL A   1      40.649  36.358  40.118  1.00  0.00     0.054 A 
BRANCH  94  95
ATOM     95  S   UNL A   1      40.554  37.750  41.277  1.00  0.00     0.124 S 
ATOM     96  O   UNL A   1      39.948  38.793  40.454  1.00  0.00    -0.237 OA
ATOM     97  O   UNL A   1      39.711  37.222  42.347  1.00  0.00    -0.237 OA
ATOM     98  O   UNL A   1      41.948  37.980  41.651  1.00  0.00    -0.744 OA
ENDBRANCH  94  95
ENDBRANCH  68  89
ENDBRANCH  42  43
ENDBRANCH  35  37
ENDBRANCH  34  35
ENDBRANCH   1  34
TORSDOF 18
ENDMDL
