MODEL 1
REMARK VINA RESULT:     -11.8      0.000      0.000
REMARK SMILES O=C(COc1ccccc1/C=C1/SC(=S)N(c2ccc(F)c(Cl)c2)C1=O)OCCOC(=O)c1ccc(-c2c3nc(c(-c4ccc(S(=O)(=O)[O-])cc4)c4ccc([nH]4)c(-c4ccc(S(=O)(=O)[O-])cc4)c4nc(c(-c5ccc(S(=O)(=O)[O-])cc5)c5ccc2[nH]5)C=C4)C=C3)cc1
REMARK SMILES IDX 28 1 27 2 2 3 1 4 3 5 4 6 5 7 6 8 10 9 7 10 9 11 8 12 11 13
REMARK SMILES IDX 12 14 13 15 25 16 14 17 16 18 26 19 15 20 17 21 18 22 24 23
REMARK SMILES IDX 19 24 22 25 20 26 23 27 21 28 29 29 30 30 31 31 32 32 33 33
REMARK SMILES IDX 34 34 92 35 35 36 91 37 36 38 37 39 38 40 85 41 39 42 90 43
REMARK SMILES IDX 84 44 86 45 40 46 89 47 83 48 82 49 41 51 71 52 52 53 70 54
REMARK SMILES IDX 53 55 56 56 69 57 87 58 54 59 55 60 68 62 88 63 57 64 42 65
REMARK SMILES IDX 43 66 51 67 44 68 50 69 45 70 46 71 47 72 48 73 49 74 72 75
REMARK SMILES IDX 73 76 81 77 74 78 80 79 75 80 76 81 77 82 78 83 79 84 58 85
REMARK SMILES IDX 59 86 67 87 60 88 66 89 61 90 62 91 63 92 64 93 65 94
REMARK H PARENT 86 50 56 61
REMARK Flexibility Score: inf
ROOT
ATOM      1  C   UNL A   1      37.810  23.057  25.948  1.00  0.00     0.274 C 
ENDROOT
BRANCH   1   2
ATOM      2  O   UNL A   1      37.233  23.615  24.748  1.00  0.00    -0.460 OA
BRANCH   2   3
ATOM      3  C   UNL A   1      36.596  22.899  23.788  1.00  0.00     0.344 C 
ATOM      4  O   UNL A   1      36.758  23.177  22.600  1.00  0.00    -0.248 OA
BRANCH   3   5
ATOM      5  C   UNL A   1      35.753  21.713  24.216  1.00  0.00     0.352 C 
BRANCH   5   6
ATOM      6  O   UNL A   1      34.361  22.011  24.095  1.00  0.00    -0.481 OA
BRANCH   6   7
ATOM      7  C   UNL A   1      33.799  22.189  25.337  1.00  0.00     0.127 A 
ATOM      8  C   UNL A   1      34.348  21.463  26.397  1.00  0.00     0.047 A 
ATOM      9  C   UNL A   1      32.698  23.042  25.535  1.00  0.00     0.018 A 
ATOM     10  C   UNL A   1      33.847  21.636  27.686  1.00  0.00     0.004 A 
ATOM     11  C   UNL A   1      32.224  23.223  26.842  1.00  0.00     0.012 A 
ATOM     12  C   UNL A   1      32.796  22.525  27.910  1.00  0.00     0.001 A 
BRANCH   9  13
ATOM     13  C   UNL A   1      32.063  23.816  24.455  1.00  0.00     0.033 C 
ATOM     14  C   UNL A   1      32.099  25.147  24.300  1.00  0.00     0.081 C 
ATOM     15  S   UNL A   1      31.135  25.985  23.146  1.00  0.00    -0.054 SA
ATOM     16  C   UNL A   1      32.844  26.130  25.132  1.00  0.00     0.270 C 
ATOM     17  C   UNL A   1      31.368  27.541  23.949  1.00  0.00     0.152 C 
ATOM     18  N   UNL A   1      32.292  27.406  24.978  1.00  0.00    -0.261 N 
ATOM     19  O   UNL A   1      33.802  25.823  25.829  1.00  0.00    -0.268 OA
ATOM     20  S   UNL A   1      30.600  28.913  23.374  1.00  0.00    -0.051 S 
BRANCH  18  21
ATOM     21  C   UNL A   1      32.704  28.455  25.867  1.00  0.00     0.052 A 
ATOM     22  C   UNL A   1      31.766  29.389  26.339  1.00  0.00     0.030 A 
ATOM     23  C   UNL A   1      34.054  28.650  26.203  1.00  0.00     0.050 A 
ATOM     24  C   UNL A   1      32.160  30.492  27.102  1.00  0.00     0.043 A 
ATOM     25  C   UNL A   1      34.452  29.771  26.941  1.00  0.00     0.078 A 
ATOM     26  C   UNL A   1      33.504  30.684  27.388  1.00  0.00     0.141 A 
ATOM     27  Cl  UNL A   1      36.128  30.027  27.247  1.00  0.00    -0.081 Cl
ATOM     28  F   UNL A   1      33.868  31.767  28.089  1.00  0.00    -0.205 F 
ENDBRANCH  18  21
ENDBRANCH   9  13
ENDBRANCH   6   7
ENDBRANCH   5   6
ENDBRANCH   3   5
ENDBRANCH   2   3
ENDBRANCH   1   2
BRANCH   1  29
ATOM     29  C   UNL A   1      39.230  23.576  26.156  1.00  0.00     0.275 C 
BRANCH  29  30
ATOM     30  O   UNL A   1      39.153  24.972  26.459  1.00  0.00    -0.458 OA
BRANCH  30  31
ATOM     31  C   UNL A   1      40.336  25.632  26.387  1.00  0.00     0.338 C 
ATOM     32  O   UNL A   1      41.050  25.752  25.414  1.00  0.00    -0.246 OA
BRANCH  31  33
ATOM     33  C   UNL A   1      40.489  26.392  27.643  1.00  0.00     0.060 A 
ATOM     34  C   UNL A   1      39.622  26.097  28.702  1.00  0.00     0.016 A 
ATOM     35  C   UNL A   1      41.489  27.359  27.785  1.00  0.00     0.016 A 
ATOM     36  C   UNL A   1      39.711  26.817  29.887  1.00  0.00     0.010 A 
ATOM     37  C   UNL A   1      41.577  28.083  28.968  1.00  0.00     0.010 A 
ATOM     38  C   UNL A   1      40.649  27.851  29.996  1.00  0.00    -0.014 A 
BRANCH  38  39
ATOM     39  C   UNL A   1      40.474  28.876  31.041  1.00  0.00     0.031 A 
ATOM     40  C   UNL A   1      41.373  28.788  32.244  1.00  0.00     0.074 A 
ATOM     41  C   UNL A   1      39.551  29.842  30.923  1.00  0.00     0.049 A 
ATOM     42  N   UNL A   1      41.427  29.556  33.298  1.00  0.00    -0.248 NA
ATOM     43  C   UNL A   1      42.341  27.673  32.261  1.00  0.00     0.031 C 
ATOM     44  C   UNL A   1      38.651  30.024  29.784  1.00  0.00     0.029 A 
ATOM     45  N   UNL A   1      39.220  30.857  31.781  1.00  0.00    -0.354 N 
ATOM     46  C   UNL A   1      42.425  29.016  34.102  1.00  0.00     0.074 A 
ATOM     47  C   UNL A   1      42.925  27.837  33.436  1.00  0.00     0.031 C 
ATOM     48  C   UNL A   1      37.867  31.092  30.017  1.00  0.00     0.029 A 
ATOM     49  C   UNL A   1      38.199  31.652  31.326  1.00  0.00     0.049 A 
ATOM     50  H   UNL A   1      39.673  31.001  32.644  1.00  0.00     0.167 HD
ATOM     51  C   UNL A   1      42.888  29.469  35.289  1.00  0.00     0.031 A 
ATOM     52  C   UNL A   1      37.606  32.711  31.909  1.00  0.00     0.031 A 
ATOM     53  C   UNL A   1      42.363  30.631  35.950  1.00  0.00     0.049 A 
ATOM     54  C   UNL A   1      38.105  33.168  33.255  1.00  0.00     0.074 A 
ATOM     55  C   UNL A   1      42.761  31.196  37.146  1.00  0.00     0.029 A 
ATOM     56  N   UNL A   1      41.314  31.398  35.466  1.00  0.00    -0.354 N 
ATOM     57  N   UNL A   1      39.080  32.677  33.986  1.00  0.00    -0.248 NA
ATOM     58  C   UNL A   1      37.436  34.334  33.847  1.00  0.00     0.031 C 
ATOM     59  C   UNL A   1      41.915  32.278  37.413  1.00  0.00     0.029 A 
ATOM     60  C   UNL A   1      41.032  32.421  36.352  1.00  0.00     0.049 A 
ATOM     61  H   UNL A   1      40.841  31.239  34.618  1.00  0.00     0.167 HD
ATOM     62  C   UNL A   1      39.164  33.496  35.107  1.00  0.00     0.074 A 
ATOM     63  C   UNL A   1      38.147  34.517  34.952  1.00  0.00     0.031 C 
ATOM     64  C   UNL A   1      40.010  33.421  36.166  1.00  0.00     0.031 A 
BRANCH  51  65
ATOM     65  C   UNL A   1      43.982  28.674  35.950  1.00  0.00    -0.014 A 
ATOM     66  C   UNL A   1      45.339  28.973  35.732  1.00  0.00     0.010 A 
ATOM     67  C   UNL A   1      43.645  27.599  36.793  1.00  0.00     0.010 A 
ATOM     68  C   UNL A   1      46.339  28.185  36.309  1.00  0.00     0.020 A 
ATOM     69  C   UNL A   1      44.643  26.826  37.392  1.00  0.00     0.020 A 
ATOM     70  C   UNL A   1      45.983  27.112  37.130  1.00  0.00     0.054 A 
BRANCH  70  71
ATOM     71  S   UNL A   1      47.300  26.106  37.869  1.00  0.00     0.124 S 
ATOM     72  O   UNL A   1      47.563  26.821  39.115  1.00  0.00    -0.237 OA
ATOM     73  O   UNL A   1      46.662  24.799  38.016  1.00  0.00    -0.237 OA
ATOM     74  O   UNL A   1      48.374  26.162  36.880  1.00  0.00    -0.744 OA
ENDBRANCH  70  71
ENDBRANCH  51  65
BRANCH  52  75
ATOM     75  C   UNL A   1      36.496  33.422  31.218  1.00  0.00    -0.014 A 
ATOM     76  C   UNL A   1      35.294  33.696  31.894  1.00  0.00     0.010 A 
ATOM     77  C   UNL A   1      36.637  33.835  29.880  1.00  0.00     0.010 A 
ATOM     78  C   UNL A   1      34.247  34.355  31.240  1.00  0.00     0.020 A 
ATOM     79  C   UNL A   1      35.603  34.516  29.231  1.00  0.00     0.020 A 
ATOM     80  C   UNL A   1      34.410  34.762  29.914  1.00  0.00     0.054 A 
BRANCH  80  81
ATOM     81  S   UNL A   1      33.057  35.662  29.104  1.00  0.00     0.124 S 
ATOM     82  O   UNL A   1      32.270  36.119  30.244  1.00  0.00    -0.237 OA
ATOM     83  O   UNL A   1      33.768  36.703  28.365  1.00  0.00    -0.237 OA
ATOM     84  O   UNL A   1      32.422  34.643  28.270  1.00  0.00    -0.744 OA
ENDBRANCH  80  81
ENDBRANCH  52  75
BRANCH  64  85
ATOM     85  C   UNL A   1      39.897  34.495  37.213  1.00  0.00    -0.014 A 
ATOM     86  C   UNL A   1      40.609  35.702  37.105  1.00  0.00     0.010 A 
ATOM     87  C   UNL A   1      39.021  34.307  38.299  1.00  0.00     0.010 A 
ATOM     88  C   UNL A   1      40.479  36.685  38.088  1.00  0.00     0.020 A 
ATOM     89  C   UNL A   1      38.866  35.300  39.267  1.00  0.00     0.020 A 
ATOM     90  C   UNL A   1      39.611  36.476  39.165  1.00  0.00     0.054 A 
BRANCH  90  91
ATOM     91  S   UNL A   1      39.436  37.780  40.413  1.00  0.00     0.124 S 
ATOM     92  O   UNL A   1      39.273  37.004  41.639  1.00  0.00    -0.237 OA
ATOM     93  O   UNL A   1      40.696  38.510  40.294  1.00  0.00    -0.237 OA
ATOM     94  O   UNL A   1      38.252  38.518  39.980  1.00  0.00    -0.744 OA
ENDBRANCH  90  91
ENDBRANCH  64  85
ENDBRANCH  38  39
ENDBRANCH  31  33
ENDBRANCH  30  31
ENDBRANCH  29  30
ENDBRANCH   1  29
TORSDOF 18
ENDMDL
MODEL 2
REMARK VINA RESULT:     -11.8      1.386      1.790
REMARK SMILES O=C(COc1ccccc1/C=C1/SC(=S)N(c2ccc(F)c(Cl)c2)C1=O)OCCOC(=O)c1ccc(-c2c3nc(c(-c4ccc(S(=O)(=O)[O-])cc4)c4ccc([nH]4)c(-c4ccc(S(=O)(=O)[O-])cc4)c4nc(c(-c5ccc(S(=O)(=O)[O-])cc5)c5ccc2[nH]5)C=C4)C=C3)cc1
REMARK SMILES IDX 28 1 27 2 2 3 1 4 3 5 4 6 5 7 6 8 10 9 7 10 9 11 8 12 11 13
REMARK SMILES IDX 12 14 13 15 25 16 14 17 16 18 26 19 15 20 17 21 18 22 24 23
REMARK SMILES IDX 19 24 22 25 20 26 23 27 21 28 29 29 30 30 31 31 32 32 33 33
REMARK SMILES IDX 34 34 92 35 35 36 91 37 36 38 37 39 38 40 85 41 39 42 90 43
REMARK SMILES IDX 84 44 86 45 40 46 89 47 83 48 82 49 41 51 71 52 52 53 70 54
REMARK SMILES IDX 53 55 56 56 69 57 87 58 54 59 55 60 68 62 88 63 57 64 42 65
REMARK SMILES IDX 43 66 51 67 44 68 50 69 45 70 46 71 47 72 48 73 49 74 72 75
REMARK SMILES IDX 73 76 81 77 74 78 80 79 75 80 76 81 77 82 78 83 79 84 58 85
REMARK SMILES IDX 59 86 67 87 60 88 66 89 61 90 62 91 63 92 64 93 65 94
REMARK H PARENT 86 50 56 61
REMARK Flexibility Score: inf
ROOT
ATOM      1  C   UNL A   1      38.137  22.682  25.947  1.00  0.00     0.274 C 
ENDROOT
BRANCH   1   2
ATOM      2  O   UNL A   1      37.518  23.434  24.881  1.00  0.00    -0.460 OA
BRANCH   2   3
ATOM      3  C   UNL A   1      36.702  22.909  23.932  1.00  0.00     0.344 C 
ATOM      4  O   UNL A   1      36.767  23.311  22.771  1.00  0.00    -0.248 OA
BRANCH   3   5
ATOM      5  C   UNL A   1      35.780  21.772  24.327  1.00  0.00     0.352 C 
BRANCH   5   6
ATOM      6  O   UNL A   1      34.412  22.145  24.150  1.00  0.00    -0.481 OA
BRANCH   6   7
ATOM      7  C   UNL A   1      33.785  22.257  25.368  1.00  0.00     0.127 A 
ATOM      8  C   UNL A   1      34.304  21.508  26.427  1.00  0.00     0.047 A 
ATOM      9  C   UNL A   1      32.648  23.069  25.542  1.00  0.00     0.018 A 
ATOM     10  C   UNL A   1      33.735  21.616  27.694  1.00  0.00     0.004 A 
ATOM     11  C   UNL A   1      32.106  23.185  26.829  1.00  0.00     0.012 A 
ATOM     12  C   UNL A   1      32.647  22.464  27.898  1.00  0.00     0.001 A 
BRANCH   9  13
ATOM     13  C   UNL A   1      32.043  23.864  24.460  1.00  0.00     0.033 C 
ATOM     14  C   UNL A   1      32.118  25.195  24.311  1.00  0.00     0.081 C 
ATOM     15  S   UNL A   1      31.186  26.064  23.154  1.00  0.00    -0.054 SA
ATOM     16  C   UNL A   1      32.885  26.153  25.152  1.00  0.00     0.270 C 
ATOM     17  C   UNL A   1      31.457  27.610  23.965  1.00  0.00     0.152 C 
ATOM     18  N   UNL A   1      32.370  27.445  24.999  1.00  0.00    -0.261 N 
ATOM     19  O   UNL A   1      33.830  25.817  25.854  1.00  0.00    -0.268 OA
ATOM     20  S   UNL A   1      30.733  29.005  23.390  1.00  0.00    -0.051 S 
BRANCH  18  21
ATOM     21  C   UNL A   1      32.806  28.478  25.895  1.00  0.00     0.052 A 
ATOM     22  C   UNL A   1      31.900  29.458  26.337  1.00  0.00     0.030 A 
ATOM     23  C   UNL A   1      34.154  28.612  26.268  1.00  0.00     0.050 A 
ATOM     24  C   UNL A   1      32.324  30.544  27.106  1.00  0.00     0.043 A 
ATOM     25  C   UNL A   1      34.583  29.717  27.012  1.00  0.00     0.078 A 
ATOM     26  C   UNL A   1      33.667  30.676  27.428  1.00  0.00     0.141 A 
ATOM     27  Cl  UNL A   1      36.259  29.897  27.364  1.00  0.00    -0.081 Cl
ATOM     28  F   UNL A   1      34.061  31.745  28.135  1.00  0.00    -0.205 F 
ENDBRANCH  18  21
ENDBRANCH   9  13
ENDBRANCH   6   7
ENDBRANCH   5   6
ENDBRANCH   3   5
ENDBRANCH   2   3
ENDBRANCH   1   2
BRANCH   1  29
ATOM     29  C   UNL A   1      39.363  23.414  26.483  1.00  0.00     0.275 C 
BRANCH  29  30
ATOM     30  O   UNL A   1      39.079  24.816  26.481  1.00  0.00    -0.458 OA
BRANCH  30  31
ATOM     31  C   UNL A   1      40.171  25.614  26.603  1.00  0.00     0.338 C 
ATOM     32  O   UNL A   1      41.121  25.676  25.852  1.00  0.00    -0.246 OA
BRANCH  31  33
ATOM     33  C   UNL A   1      39.888  26.577  27.685  1.00  0.00     0.060 A 
ATOM     34  C   UNL A   1      40.328  27.896  27.526  1.00  0.00     0.016 A 
ATOM     35  C   UNL A   1      39.174  26.193  28.825  1.00  0.00     0.016 A 
ATOM     36  C   UNL A   1      40.113  28.822  28.539  1.00  0.00     0.010 A 
ATOM     37  C   UNL A   1      38.961  27.117  29.842  1.00  0.00     0.010 A 
ATOM     38  C   UNL A   1      39.483  28.415  29.721  1.00  0.00    -0.014 A 
BRANCH  38  39
ATOM     39  C   UNL A   1      39.629  29.237  30.937  1.00  0.00     0.031 A 
ATOM     40  C   UNL A   1      40.820  28.958  31.812  1.00  0.00     0.074 A 
ATOM     41  C   UNL A   1      38.736  30.188  31.248  1.00  0.00     0.049 A 
ATOM     42  N   UNL A   1      41.182  29.530  32.929  1.00  0.00    -0.248 NA
ATOM     43  C   UNL A   1      41.724  27.879  31.368  1.00  0.00     0.031 C 
ATOM     44  C   UNL A   1      37.564  30.547  30.449  1.00  0.00     0.029 A 
ATOM     45  N   UNL A   1      38.681  31.029  32.327  1.00  0.00    -0.354 N 
ATOM     46  C   UNL A   1      42.346  28.879  33.321  1.00  0.00     0.074 A 
ATOM     47  C   UNL A   1      42.612  27.846  32.348  1.00  0.00     0.031 C 
ATOM     48  C   UNL A   1      36.904  31.541  31.071  1.00  0.00     0.029 A 
ATOM     49  C   UNL A   1      37.596  31.869  32.315  1.00  0.00     0.049 A 
ATOM     50  H   UNL A   1      39.356  31.030  33.044  1.00  0.00     0.167 HD
ATOM     51  C   UNL A   1      43.130  29.127  34.396  1.00  0.00     0.031 A 
ATOM     52  C   UNL A   1      37.215  32.796  33.215  1.00  0.00     0.031 A 
ATOM     53  C   UNL A   1      42.838  30.142  35.368  1.00  0.00     0.049 A 
ATOM     54  C   UNL A   1      38.077  33.021  34.431  1.00  0.00     0.074 A 
ATOM     55  C   UNL A   1      43.563  30.497  36.489  1.00  0.00     0.029 A 
ATOM     56  N   UNL A   1      41.718  30.960  35.332  1.00  0.00    -0.354 N 
ATOM     57  N   UNL A   1      39.200  32.430  34.769  1.00  0.00    -0.248 NA
ATOM     58  C   UNL A   1      37.628  34.050  35.377  1.00  0.00     0.031 C 
ATOM     59  C   UNL A   1      42.853  31.498  37.163  1.00  0.00     0.029 A 
ATOM     60  C   UNL A   1      41.717  31.805  36.426  1.00  0.00     0.049 A 
ATOM     61  H   UNL A   1      41.026  30.942  34.632  1.00  0.00     0.167 HD
ATOM     62  C   UNL A   1      39.611  33.041  35.949  1.00  0.00     0.074 A 
ATOM     63  C   UNL A   1      38.618  34.051  36.260  1.00  0.00     0.031 C 
ATOM     64  C   UNL A   1      40.711  32.800  36.705  1.00  0.00     0.031 A 
BRANCH  51  65
ATOM     65  C   UNL A   1      44.339  28.251  34.582  1.00  0.00    -0.014 A 
ATOM     66  C   UNL A   1      44.291  27.096  35.385  1.00  0.00     0.010 A 
ATOM     67  C   UNL A   1      45.549  28.597  33.954  1.00  0.00     0.010 A 
ATOM     68  C   UNL A   1      45.441  26.330  35.592  1.00  0.00     0.020 A 
ATOM     69  C   UNL A   1      46.694  27.817  34.137  1.00  0.00     0.020 A 
ATOM     70  C   UNL A   1      46.637  26.700  34.971  1.00  0.00     0.054 A 
BRANCH  70  71
ATOM     71  S   UNL A   1      48.115  25.687  35.254  1.00  0.00     0.124 S 
ATOM     72  O   UNL A   1      48.249  25.749  36.707  1.00  0.00    -0.237 OA
ATOM     73  O   UNL A   1      47.722  24.387  34.714  1.00  0.00    -0.237 OA
ATOM     74  O   UNL A   1      49.159  26.379  34.502  1.00  0.00    -0.744 OA
ENDBRANCH  70  71
ENDBRANCH  51  65
BRANCH  52  75
ATOM     75  C   UNL A   1      35.978  33.593  32.990  1.00  0.00    -0.014 A 
ATOM     76  C   UNL A   1      34.722  33.076  33.349  1.00  0.00     0.010 A 
ATOM     77  C   UNL A   1      36.051  34.878  32.421  1.00  0.00     0.010 A 
ATOM     78  C   UNL A   1      33.558  33.822  33.129  1.00  0.00     0.020 A 
ATOM     79  C   UNL A   1      34.893  35.636  32.222  1.00  0.00     0.020 A 
ATOM     80  C   UNL A   1      33.653  35.097  32.568  1.00  0.00     0.054 A 
BRANCH  80  81
ATOM     81  S   UNL A   1      32.135  36.067  32.339  1.00  0.00     0.124 S 
ATOM     82  O   UNL A   1      31.101  35.102  32.699  1.00  0.00    -0.237 OA
ATOM     83  O   UNL A   1      32.324  37.174  33.273  1.00  0.00    -0.237 OA
ATOM     84  O   UNL A   1      32.180  36.441  30.927  1.00  0.00    -0.744 OA
ENDBRANCH  80  81
ENDBRANCH  52  75
BRANCH  64  85
ATOM     85  C   UNL A   1      40.919  33.670  37.914  1.00  0.00    -0.014 A 
ATOM     86  C   UNL A   1      41.609  34.892  37.828  1.00  0.00     0.010 A 
ATOM     87  C   UNL A   1      40.368  33.277  39.148  1.00  0.00     0.010 A 
ATOM     88  C   UNL A   1      41.781  35.684  38.965  1.00  0.00     0.020 A 
ATOM     89  C   UNL A   1      40.511  34.081  40.279  1.00  0.00     0.020 A 
ATOM     90  C   UNL A   1      41.233  35.272  40.184  1.00  0.00     0.054 A 
BRANCH  90  91
ATOM     91  S   UNL A   1      41.443  36.332  41.640  1.00  0.00     0.124 S 
ATOM     92  O   UNL A   1      40.087  36.376  42.180  1.00  0.00    -0.237 OA
ATOM     93  O   UNL A   1      42.415  35.591  42.440  1.00  0.00    -0.237 OA
ATOM     94  O   UNL A   1      41.933  37.591  41.083  1.00  0.00    -0.744 OA
ENDBRANCH  90  91
ENDBRANCH  64  85
ENDBRANCH  38  39
ENDBRANCH  31  33
ENDBRANCH  30  31
ENDBRANCH  29  30
ENDBRANCH   1  29
TORSDOF 18
ENDMDL
MODEL 3
REMARK VINA RESULT:     -11.3      0.737      7.980
REMARK SMILES O=C(COc1ccccc1/C=C1/SC(=S)N(c2ccc(F)c(Cl)c2)C1=O)OCCOC(=O)c1ccc(-c2c3nc(c(-c4ccc(S(=O)(=O)[O-])cc4)c4ccc([nH]4)c(-c4ccc(S(=O)(=O)[O-])cc4)c4nc(c(-c5ccc(S(=O)(=O)[O-])cc5)c5ccc2[nH]5)C=C4)C=C3)cc1
REMARK SMILES IDX 28 1 27 2 2 3 1 4 3 5 4 6 5 7 6 8 10 9 7 10 9 11 8 12 11 13
REMARK SMILES IDX 12 14 13 15 25 16 14 17 16 18 26 19 15 20 17 21 18 22 24 23
REMARK SMILES IDX 19 24 22 25 20 26 23 27 21 28 29 29 30 30 31 31 32 32 33 33
REMARK SMILES IDX 34 34 92 35 35 36 91 37 36 38 37 39 38 40 85 41 39 42 90 43
REMARK SMILES IDX 84 44 86 45 40 46 89 47 83 48 82 49 41 51 71 52 52 53 70 54
REMARK SMILES IDX 53 55 56 56 69 57 87 58 54 59 55 60 68 62 88 63 57 64 42 65
REMARK SMILES IDX 43 66 51 67 44 68 50 69 45 70 46 71 47 72 48 73 49 74 72 75
REMARK SMILES IDX 73 76 81 77 74 78 80 79 75 80 76 81 77 82 78 83 79 84 58 85
REMARK SMILES IDX 59 86 67 87 60 88 66 89 61 90 62 91 63 92 64 93 65 94
REMARK H PARENT 86 50 56 61
REMARK Flexibility Score: inf
ROOT
ATOM      1  C   UNL A   1      39.307  21.769  26.082  1.00  0.00     0.274 C 
ENDROOT
BRANCH   1   2
ATOM      2  O   UNL A   1      38.267  22.638  25.587  1.00  0.00    -0.460 OA
BRANCH   2   3
ATOM      3  C   UNL A   1      37.270  22.258  24.748  1.00  0.00     0.344 C 
ATOM      4  O   UNL A   1      37.310  21.157  24.201  1.00  0.00    -0.248 OA
BRANCH   3   5
ATOM      5  C   UNL A   1      36.084  23.187  24.574  1.00  0.00     0.352 C 
BRANCH   5   6
ATOM      6  O   UNL A   1      34.888  22.442  24.337  1.00  0.00    -0.481 OA
BRANCH   6   7
ATOM      7  C   UNL A   1      34.096  22.438  25.461  1.00  0.00     0.127 A 
ATOM      8  C   UNL A   1      34.558  21.720  26.567  1.00  0.00     0.047 A 
ATOM      9  C   UNL A   1      32.857  23.104  25.494  1.00  0.00     0.018 A 
ATOM     10  C   UNL A   1      33.818  21.718  27.747  1.00  0.00     0.004 A 
ATOM     11  C   UNL A   1      32.139  23.111  26.697  1.00  0.00     0.012 A 
ATOM     12  C   UNL A   1      32.617  22.423  27.817  1.00  0.00     0.001 A 
BRANCH   9  13
ATOM     13  C   UNL A   1      32.308  23.858  24.355  1.00  0.00     0.033 C 
ATOM     14  C   UNL A   1      32.342  25.189  24.189  1.00  0.00     0.081 C 
ATOM     15  S   UNL A   1      31.470  26.003  22.948  1.00  0.00    -0.054 SA
ATOM     16  C   UNL A   1      33.001  26.189  25.071  1.00  0.00     0.270 C 
ATOM     17  C   UNL A   1      31.614  27.569  23.751  1.00  0.00     0.152 C 
ATOM     18  N   UNL A   1      32.449  27.457  24.856  1.00  0.00    -0.261 N 
ATOM     19  O   UNL A   1      33.899  25.902  25.851  1.00  0.00    -0.268 OA
ATOM     20  S   UNL A   1      30.883  28.926  23.096  1.00  0.00    -0.051 S 
BRANCH  18  21
ATOM     21  C   UNL A   1      32.770  28.520  25.765  1.00  0.00     0.052 A 
ATOM     22  C   UNL A   1      31.771  29.410  26.193  1.00  0.00     0.030 A 
ATOM     23  C   UNL A   1      34.093  28.773  26.167  1.00  0.00     0.050 A 
ATOM     24  C   UNL A   1      32.079  30.526  26.975  1.00  0.00     0.043 A 
ATOM     25  C   UNL A   1      34.405  29.907  26.925  1.00  0.00     0.078 A 
ATOM     26  C   UNL A   1      33.397  30.777  27.326  1.00  0.00     0.141 A 
ATOM     27  Cl  UNL A   1      36.051  30.235  27.312  1.00  0.00    -0.081 Cl
ATOM     28  F   UNL A   1      33.679  31.872  28.045  1.00  0.00    -0.205 F 
ENDBRANCH  18  21
ENDBRANCH   9  13
ENDBRANCH   6   7
ENDBRANCH   5   6
ENDBRANCH   3   5
ENDBRANCH   2   3
ENDBRANCH   1   2
BRANCH   1  29
ATOM     29  C   UNL A   1      40.163  22.488  27.121  1.00  0.00     0.275 C 
BRANCH  29  30
ATOM     30  O   UNL A   1      39.919  23.893  27.002  1.00  0.00    -0.458 OA
BRANCH  30  31
ATOM     31  C   UNL A   1      41.036  24.664  27.015  1.00  0.00     0.338 C 
ATOM     32  O   UNL A   1      41.994  24.578  26.276  1.00  0.00    -0.246 OA
BRANCH  31  33
ATOM     33  C   UNL A   1      40.777  25.792  27.931  1.00  0.00     0.060 A 
ATOM     34  C   UNL A   1      41.700  26.843  27.959  1.00  0.00     0.016 A 
ATOM     35  C   UNL A   1      39.627  25.826  28.727  1.00  0.00     0.016 A 
ATOM     36  C   UNL A   1      41.509  27.905  28.836  1.00  0.00     0.010 A 
ATOM     37  C   UNL A   1      39.437  26.884  29.608  1.00  0.00     0.010 A 
ATOM     38  C   UNL A   1      40.409  27.893  29.702  1.00  0.00    -0.014 A 
BRANCH  38  39
ATOM     39  C   UNL A   1      40.423  28.756  30.898  1.00  0.00     0.031 A 
ATOM     40  C   UNL A   1      39.423  29.879  30.942  1.00  0.00     0.074 A 
ATOM     41  C   UNL A   1      41.293  28.549  31.898  1.00  0.00     0.049 A 
ATOM     42  N   UNL A   1      39.225  30.778  31.869  1.00  0.00    -0.248 NA
ATOM     43  C   UNL A   1      38.529  30.010  29.776  1.00  0.00     0.031 C 
ATOM     44  C   UNL A   1      42.281  27.473  31.955  1.00  0.00     0.029 A 
ATOM     45  N   UNL A   1      41.479  29.243  33.063  1.00  0.00    -0.354 N 
ATOM     46  C   UNL A   1      38.192  31.579  31.395  1.00  0.00     0.074 A 
ATOM     47  C   UNL A   1      37.829  31.088  30.087  1.00  0.00     0.031 C 
ATOM     48  C   UNL A   1      42.973  27.580  33.104  1.00  0.00     0.029 A 
ATOM     49  C   UNL A   1      42.488  28.742  33.847  1.00  0.00     0.049 A 
ATOM     50  H   UNL A   1      40.941  30.029  33.314  1.00  0.00     0.167 HD
ATOM     51  C   UNL A   1      37.593  32.629  32.003  1.00  0.00     0.031 A 
ATOM     52  C   UNL A   1      42.958  29.181  35.030  1.00  0.00     0.031 A 
ATOM     53  C   UNL A   1      37.983  33.120  33.295  1.00  0.00     0.049 A 
ATOM     54  C   UNL A   1      42.309  30.383  35.666  1.00  0.00     0.074 A 
ATOM     55  C   UNL A   1      37.443  34.165  34.019  1.00  0.00     0.029 A 
ATOM     56  N   UNL A   1      39.024  32.598  34.049  1.00  0.00    -0.354 N 
ATOM     57  N   UNL A   1      41.303  31.106  35.230  1.00  0.00    -0.248 NA
ATOM     58  C   UNL A   1      42.848  30.817  36.961  1.00  0.00     0.031 C 
ATOM     59  C   UNL A   1      38.192  34.309  35.192  1.00  0.00     0.029 A 
ATOM     60  C   UNL A   1      39.159  33.315  35.223  1.00  0.00     0.049 A 
ATOM     61  H   UNL A   1      39.583  31.831  33.787  1.00  0.00     0.167 HD
ATOM     62  C   UNL A   1      41.065  32.058  36.215  1.00  0.00     0.074 A 
ATOM     63  C   UNL A   1      42.028  31.813  37.270  1.00  0.00     0.031 C 
ATOM     64  C   UNL A   1      40.131  33.042  36.253  1.00  0.00     0.031 A 
BRANCH  51  65
ATOM     65  C   UNL A   1      36.495  33.326  31.248  1.00  0.00    -0.014 A 
ATOM     66  C   UNL A   1      36.710  33.850  29.959  1.00  0.00     0.010 A 
ATOM     67  C   UNL A   1      35.228  33.472  31.842  1.00  0.00     0.010 A 
ATOM     68  C   UNL A   1      35.694  34.546  29.299  1.00  0.00     0.020 A 
ATOM     69  C   UNL A   1      34.201  34.143  31.173  1.00  0.00     0.020 A 
ATOM     70  C   UNL A   1      34.447  34.693  29.914  1.00  0.00     0.054 A 
BRANCH  70  71
ATOM     71  S   UNL A   1      33.144  35.598  29.035  1.00  0.00     0.124 S 
ATOM     72  O   UNL A   1      32.332  36.105  30.139  1.00  0.00    -0.237 OA
ATOM     73  O   UNL A   1      33.897  36.608  28.294  1.00  0.00    -0.237 OA
ATOM     74  O   UNL A   1      32.505  34.574  28.212  1.00  0.00    -0.744 OA
ENDBRANCH  70  71
ENDBRANCH  51  65
BRANCH  52  75
ATOM     75  C   UNL A   1      44.082  28.469  35.698  1.00  0.00    -0.014 A 
ATOM     76  C   UNL A   1      45.407  28.908  35.527  1.00  0.00     0.010 A 
ATOM     77  C   UNL A   1      43.833  27.353  36.517  1.00  0.00     0.010 A 
ATOM     78  C   UNL A   1      46.464  28.234  36.147  1.00  0.00     0.020 A 
ATOM     79  C   UNL A   1      44.885  26.691  37.159  1.00  0.00     0.020 A 
ATOM     80  C   UNL A   1      46.195  27.130  36.960  1.00  0.00     0.054 A 
BRANCH  80  81
ATOM     81  S   UNL A   1      47.577  26.303  37.797  1.00  0.00     0.124 S 
ATOM     82  O   UNL A   1      47.168  26.364  39.196  1.00  0.00    -0.237 OA
ATOM     83  O   UNL A   1      47.564  24.974  37.189  1.00  0.00    -0.237 OA
ATOM     84  O   UNL A   1      48.731  27.127  37.443  1.00  0.00    -0.744 OA
ENDBRANCH  80  81
ENDBRANCH  52  75
BRANCH  64  85
ATOM     85  C   UNL A   1      40.080  33.895  37.491  1.00  0.00    -0.014 A 
ATOM     86  C   UNL A   1      40.924  35.008  37.650  1.00  0.00     0.010 A 
ATOM     87  C   UNL A   1      39.134  33.601  38.490  1.00  0.00     0.010 A 
ATOM     88  C   UNL A   1      40.850  35.787  38.807  1.00  0.00     0.020 A 
ATOM     89  C   UNL A   1      39.036  34.395  39.633  1.00  0.00     0.020 A 
ATOM     90  C   UNL A   1      39.909  35.473  39.792  1.00  0.00     0.054 A 
BRANCH  90  91
ATOM     91  S   UNL A   1      39.812  36.517  41.272  1.00  0.00     0.124 S 
ATOM     92  O   UNL A   1      40.818  35.908  42.138  1.00  0.00    -0.237 OA
ATOM     93  O   UNL A   1      40.146  37.841  40.754  1.00  0.00    -0.237 OA
ATOM     94  O   UNL A   1      38.429  36.359  41.717  1.00  0.00    -0.744 OA
ENDBRANCH  90  91
ENDBRANCH  64  85
ENDBRANCH  38  39
ENDBRANCH  31  33
ENDBRANCH  30  31
ENDBRANCH  29  30
ENDBRANCH   1  29
TORSDOF 18
ENDMDL
