MODEL 1
REMARK VINA RESULT:     -11.9      0.000      0.000
REMARK SMILES Cc1oc2cc(OCC(=O)OCCOC(=O)c3ccc(-c4c5nc(c(-c6ccc(S(=O)(=O)[O-])cc6)c6ccc([nH]6)c(-c6ccc(S(=O)(=O)[O-])cc6)c6nc(c(-c7ccc(S(=O)(=O)[O-])cc7)c7ccc4[nH]7)C=C6)C=C5)cc3)ccc2c(=O)c1Oc1ccc(Cl)cc1Cl
REMARK SMILES IDX 12 1 11 2 9 3 10 4 8 5 7 6 6 7 1 8 2 9 3 10 82 11 4 12 80 13
REMARK SMILES IDX 5 14 79 15 81 16 78 17 77 18 83 19 84 20 85 21 90 22 86 23
REMARK SMILES IDX 89 24 91 25 87 26 88 27 13 28 14 29 15 30 16 31 17 32 18 33
REMARK SMILES IDX 76 34 19 35 75 36 20 37 21 38 22 39 69 40 23 41 74 42 68 43
REMARK SMILES IDX 70 44 24 45 73 46 67 47 66 48 25 50 55 51 36 52 54 53 37 54
REMARK SMILES IDX 40 55 53 56 71 57 38 58 39 59 52 61 72 62 41 63 26 64 27 65
REMARK SMILES IDX 35 66 28 67 34 68 29 69 30 70 31 71 32 72 33 73 56 74 57 75
REMARK SMILES IDX 65 76 58 77 64 78 59 79 60 80 61 81 62 82 63 83 42 84 43 85
REMARK SMILES IDX 51 86 44 87 50 88 45 89 46 90 47 91 48 92 49 93
REMARK H PARENT 70 49 40 60
REMARK Flexibility Score: inf
ROOT
ATOM      1  C   UNL A   1      42.570  22.431  26.198  1.00  0.00     0.274 C 
ENDROOT
BRANCH   1   2
ATOM      2  O   UNL A   1      41.218  22.090  25.828  1.00  0.00    -0.460 OA
BRANCH   2   3
ATOM      3  C   UNL A   1      40.303  22.129  26.834  1.00  0.00     0.344 C 
ATOM      4  O   UNL A   1      40.453  21.612  27.936  1.00  0.00    -0.248 OA
BRANCH   3   5
ATOM      5  C   UNL A   1      39.018  22.858  26.449  1.00  0.00     0.351 C 
BRANCH   5   6
ATOM      6  O   UNL A   1      37.904  22.104  26.001  1.00  0.00    -0.482 OA
BRANCH   6   7
ATOM      7  C   UNL A   1      36.884  22.737  25.352  1.00  0.00     0.123 A 
ATOM      8  C   UNL A   1      33.420  27.579  25.390  1.00  0.00     0.092 C 
ATOM      9  C   UNL A   1      33.751  26.294  24.697  1.00  0.00     0.148 A 
ATOM     10  O   UNL A   1      34.474  25.464  25.552  1.00  0.00    -0.457 OA
ATOM     11  C   UNL A   1      33.427  25.967  23.420  1.00  0.00     0.213 A 
ATOM     12  C   UNL A   1      35.152  24.401  25.030  1.00  0.00     0.142 A 
ATOM     13  C   UNL A   1      33.952  24.661  22.907  1.00  0.00     0.235 A 
ATOM     14  C   UNL A   1      36.105  23.780  25.847  1.00  0.00     0.094 A 
ATOM     15  C   UNL A   1      34.933  23.952  23.742  1.00  0.00     0.069 A 
ATOM     16  O   UNL A   1      33.638  24.206  21.811  1.00  0.00    -0.285 OA
ATOM     17  C   UNL A   1      35.665  22.870  23.250  1.00  0.00     0.020 A 
ATOM     18  C   UNL A   1      36.645  22.277  24.053  1.00  0.00     0.047 A 
BRANCH  11  19
ATOM     19  O   UNL A   1      32.721  26.700  22.467  1.00  0.00    -0.448 OA
BRANCH  19  20
ATOM     20  C   UNL A   1      31.478  27.207  22.734  1.00  0.00     0.146 A 
ATOM     21  C   UNL A   1      31.255  28.576  22.562  1.00  0.00     0.050 A 
ATOM     22  C   UNL A   1      30.451  26.381  23.210  1.00  0.00     0.085 A 
ATOM     23  C   UNL A   1      29.976  29.101  22.770  1.00  0.00     0.024 A 
ATOM     24  C   UNL A   1      29.172  26.904  23.411  1.00  0.00     0.045 A 
ATOM     25  Cl  UNL A   1      30.707  24.698  23.498  1.00  0.00    -0.080 Cl
ATOM     26  C   UNL A   1      28.939  28.259  23.175  1.00  0.00     0.042 A 
ATOM     27  Cl  UNL A   1      27.351  28.889  23.382  1.00  0.00    -0.084 Cl
ENDBRANCH  19  20
ENDBRANCH  11  19
ENDBRANCH   6   7
ENDBRANCH   5   6
ENDBRANCH   3   5
ENDBRANCH   2   3
ENDBRANCH   1   2
BRANCH   1  28
ATOM     28  C   UNL A   1      42.921  23.843  25.739  1.00  0.00     0.275 C 
BRANCH  28  29
ATOM     29  O   UNL A   1      42.430  24.797  26.695  1.00  0.00    -0.458 OA
BRANCH  29  30
ATOM     30  C   UNL A   1      41.840  25.889  26.169  1.00  0.00     0.338 C 
ATOM     31  O   UNL A   1      41.703  26.149  24.977  1.00  0.00    -0.246 OA
BRANCH  30  32
ATOM     32  C   UNL A   1      41.347  26.786  27.227  1.00  0.00     0.060 A 
ATOM     33  C   UNL A   1      41.895  28.058  27.409  1.00  0.00     0.016 A 
ATOM     34  C   UNL A   1      40.444  26.269  28.157  1.00  0.00     0.016 A 
ATOM     35  C   UNL A   1      41.648  28.757  28.593  1.00  0.00     0.010 A 
ATOM     36  C   UNL A   1      40.145  26.998  29.309  1.00  0.00     0.010 A 
ATOM     37  C   UNL A   1      40.792  28.217  29.562  1.00  0.00    -0.014 A 
BRANCH  37  38
ATOM     38  C   UNL A   1      40.499  28.943  30.817  1.00  0.00     0.031 A 
ATOM     39  C   UNL A   1      39.394  29.957  30.899  1.00  0.00     0.074 A 
ATOM     40  C   UNL A   1      41.300  28.731  31.872  1.00  0.00     0.049 A 
ATOM     41  N   UNL A   1      39.192  30.889  31.794  1.00  0.00    -0.248 NA
ATOM     42  C   UNL A   1      38.391  29.929  29.828  1.00  0.00     0.031 C 
ATOM     43  C   UNL A   1      42.377  27.741  31.922  1.00  0.00     0.029 A 
ATOM     44  N   UNL A   1      41.344  29.349  33.091  1.00  0.00    -0.354 N 
ATOM     45  C   UNL A   1      38.082  31.606  31.357  1.00  0.00     0.074 A 
ATOM     46  C   UNL A   1      37.651  30.994  30.117  1.00  0.00     0.031 C 
ATOM     47  C   UNL A   1      42.987  27.827  33.112  1.00  0.00     0.029 A 
ATOM     48  C   UNL A   1      42.380  28.912  33.877  1.00  0.00     0.049 A 
ATOM     49  H   UNL A   1      40.699  30.036  33.375  1.00  0.00     0.167 HD
ATOM     50  C   UNL A   1      37.482  32.669  31.945  1.00  0.00     0.031 A 
ATOM     51  C   UNL A   1      42.821  29.363  35.063  1.00  0.00     0.031 A 
ATOM     52  C   UNL A   1      37.870  33.204  33.227  1.00  0.00     0.049 A 
ATOM     53  C   UNL A   1      42.125  30.520  35.711  1.00  0.00     0.074 A 
ATOM     54  C   UNL A   1      37.300  34.249  33.935  1.00  0.00     0.029 A 
ATOM     55  N   UNL A   1      38.904  32.712  34.008  1.00  0.00    -0.354 N 
ATOM     56  N   UNL A   1      41.126  31.237  35.254  1.00  0.00    -0.248 NA
ATOM     57  C   UNL A   1      42.612  30.924  37.034  1.00  0.00     0.031 C 
ATOM     58  C   UNL A   1      38.001  34.398  35.138  1.00  0.00     0.029 A 
ATOM     59  C   UNL A   1      38.985  33.424  35.192  1.00  0.00     0.049 A 
ATOM     60  H   UNL A   1      39.493  31.964  33.758  1.00  0.00     0.167 HD
ATOM     61  C   UNL A   1      40.858  32.177  36.240  1.00  0.00     0.074 A 
ATOM     62  C   UNL A   1      41.789  31.923  37.323  1.00  0.00     0.031 C 
ATOM     63  C   UNL A   1      39.926  33.161  36.250  1.00  0.00     0.031 A 
BRANCH  50  64
ATOM     64  C   UNL A   1      36.352  33.344  31.212  1.00  0.00    -0.014 A 
ATOM     65  C   UNL A   1      35.157  33.695  31.862  1.00  0.00     0.010 A 
ATOM     66  C   UNL A   1      36.526  33.703  29.861  1.00  0.00     0.010 A 
ATOM     67  C   UNL A   1      34.144  34.366  31.168  1.00  0.00     0.020 A 
ATOM     68  C   UNL A   1      35.526  34.393  29.170  1.00  0.00     0.020 A 
ATOM     69  C   UNL A   1      34.333  34.707  29.825  1.00  0.00     0.054 A 
BRANCH  69  70
ATOM     70  S   UNL A   1      33.022  35.604  28.948  1.00  0.00     0.124 S 
ATOM     71  O   UNL A   1      33.790  36.632  28.250  1.00  0.00    -0.237 OA
ATOM     72  O   UNL A   1      32.431  34.573  28.099  1.00  0.00    -0.237 OA
ATOM     73  O   UNL A   1      32.162  36.090  30.023  1.00  0.00    -0.744 OA
ENDBRANCH  69  70
ENDBRANCH  50  64
BRANCH  51  74
ATOM     74  C   UNL A   1      43.994  28.704  35.685  1.00  0.00    -0.014 A 
ATOM     75  C   UNL A   1      43.816  27.587  36.516  1.00  0.00     0.010 A 
ATOM     76  C   UNL A   1      45.295  29.130  35.362  1.00  0.00     0.010 A 
ATOM     77  C   UNL A   1      44.925  26.897  37.009  1.00  0.00     0.020 A 
ATOM     78  C   UNL A   1      46.405  28.429  35.837  1.00  0.00     0.020 A 
ATOM     79  C   UNL A   1      46.212  27.318  36.659  1.00  0.00     0.054 A 
BRANCH  79  80
ATOM     80  S   UNL A   1      47.637  26.343  37.217  1.00  0.00     0.124 S 
ATOM     81  O   UNL A   1      47.026  25.047  37.494  1.00  0.00    -0.237 OA
ATOM     82  O   UNL A   1      48.529  26.389  36.061  1.00  0.00    -0.237 OA
ATOM     83  O   UNL A   1      48.111  27.078  38.387  1.00  0.00    -0.744 OA
ENDBRANCH  79  80
ENDBRANCH  51  74
BRANCH  63  84
ATOM     84  C   UNL A   1      39.863  34.015  37.484  1.00  0.00    -0.014 A 
ATOM     85  C   UNL A   1      39.075  33.634  38.583  1.00  0.00     0.010 A 
ATOM     86  C   UNL A   1      40.601  35.210  37.541  1.00  0.00     0.010 A 
ATOM     87  C   UNL A   1      38.992  34.459  39.708  1.00  0.00     0.020 A 
ATOM     88  C   UNL A   1      40.534  36.028  38.671  1.00  0.00     0.020 A 
ATOM     89  C   UNL A   1      39.714  35.656  39.739  1.00  0.00     0.054 A 
BRANCH  89  90
ATOM     90  S   UNL A   1      39.596  36.714  41.207  1.00  0.00     0.124 S 
ATOM     91  O   UNL A   1      38.992  37.925  40.659  1.00  0.00    -0.237 OA
ATOM     92  O   UNL A   1      38.743  35.936  42.102  1.00  0.00    -0.237 OA
ATOM     93  O   UNL A   1      40.984  36.851  41.644  1.00  0.00    -0.744 OA
ENDBRANCH  89  90
ENDBRANCH  63  84
ENDBRANCH  37  38
ENDBRANCH  30  32
ENDBRANCH  29  30
ENDBRANCH  28  29
ENDBRANCH   1  28
TORSDOF 18
ENDMDL
MODEL 2
REMARK VINA RESULT:     -11.7      2.573      9.499
REMARK SMILES Cc1oc2cc(OCC(=O)OCCOC(=O)c3ccc(-c4c5nc(c(-c6ccc(S(=O)(=O)[O-])cc6)c6ccc([nH]6)c(-c6ccc(S(=O)(=O)[O-])cc6)c6nc(c(-c7ccc(S(=O)(=O)[O-])cc7)c7ccc4[nH]7)C=C6)C=C5)cc3)ccc2c(=O)c1Oc1ccc(Cl)cc1Cl
REMARK SMILES IDX 12 1 11 2 9 3 10 4 8 5 7 6 6 7 1 8 2 9 3 10 82 11 4 12 80 13
REMARK SMILES IDX 5 14 79 15 81 16 78 17 77 18 83 19 84 20 85 21 90 22 86 23
REMARK SMILES IDX 89 24 91 25 87 26 88 27 13 28 14 29 15 30 16 31 17 32 18 33
REMARK SMILES IDX 76 34 19 35 75 36 20 37 21 38 22 39 69 40 23 41 74 42 68 43
REMARK SMILES IDX 70 44 24 45 73 46 67 47 66 48 25 50 55 51 36 52 54 53 37 54
REMARK SMILES IDX 40 55 53 56 71 57 38 58 39 59 52 61 72 62 41 63 26 64 27 65
REMARK SMILES IDX 35 66 28 67 34 68 29 69 30 70 31 71 32 72 33 73 56 74 57 75
REMARK SMILES IDX 65 76 58 77 64 78 59 79 60 80 61 81 62 82 63 83 42 84 43 85
REMARK SMILES IDX 51 86 44 87 50 88 45 89 46 90 47 91 48 92 49 93
REMARK H PARENT 70 49 40 60
REMARK Flexibility Score: inf
ROOT
ATOM      1  C   UNL A   1      34.284  35.127  28.425  1.00  0.00     0.274 C 
ENDROOT
BRANCH   1   2
ATOM      2  O   UNL A   1      35.170  34.097  28.911  1.00  0.00    -0.460 OA
BRANCH   2   3
ATOM      3  C   UNL A   1      34.610  32.869  29.079  1.00  0.00     0.344 C 
ATOM      4  O   UNL A   1      34.463  32.309  30.161  1.00  0.00    -0.248 OA
BRANCH   3   5
ATOM      5  C   UNL A   1      34.206  32.208  27.763  1.00  0.00     0.351 C 
BRANCH   5   6
ATOM      6  O   UNL A   1      33.002  31.461  27.707  1.00  0.00    -0.482 OA
BRANCH   6   7
ATOM      7  C   UNL A   1      33.017  30.203  27.178  1.00  0.00     0.123 A 
ATOM      8  C   UNL A   1      29.961  26.351  23.822  1.00  0.00     0.092 C 
ATOM      9  C   UNL A   1      31.206  26.590  24.618  1.00  0.00     0.148 A 
ATOM     10  O   UNL A   1      31.022  27.671  25.477  1.00  0.00    -0.457 OA
ATOM     11  C   UNL A   1      32.362  25.886  24.523  1.00  0.00     0.213 A 
ATOM     12  C   UNL A   1      32.113  28.260  26.047  1.00  0.00     0.142 A 
ATOM     13  C   UNL A   1      33.513  26.370  25.353  1.00  0.00     0.235 A 
ATOM     14  C   UNL A   1      31.932  29.514  26.644  1.00  0.00     0.094 A 
ATOM     15  C   UNL A   1      33.361  27.667  26.028  1.00  0.00     0.069 A 
ATOM     16  O   UNL A   1      34.573  25.756  25.436  1.00  0.00    -0.285 OA
ATOM     17  C   UNL A   1      34.449  28.319  26.610  1.00  0.00     0.020 A 
ATOM     18  C   UNL A   1      34.273  29.589  27.171  1.00  0.00     0.047 A 
BRANCH  11  19
ATOM     19  O   UNL A   1      32.678  24.799  23.709  1.00  0.00    -0.448 OA
BRANCH  19  20
ATOM     20  C   UNL A   1      32.716  23.524  24.206  1.00  0.00     0.146 A 
ATOM     21  C   UNL A   1      31.629  23.055  24.950  1.00  0.00     0.050 A 
ATOM     22  C   UNL A   1      33.838  22.708  24.009  1.00  0.00     0.085 A 
ATOM     23  C   UNL A   1      31.623  21.736  25.412  1.00  0.00     0.024 A 
ATOM     24  C   UNL A   1      33.830  21.389  24.464  1.00  0.00     0.045 A 
ATOM     25  Cl  UNL A   1      35.226  23.276  23.152  1.00  0.00    -0.080 Cl
ATOM     26  C   UNL A   1      32.715  20.906  25.151  1.00  0.00     0.042 A 
ATOM     27  Cl  UNL A   1      32.691  19.265  25.670  1.00  0.00    -0.084 Cl
ENDBRANCH  19  20
ENDBRANCH  11  19
ENDBRANCH   6   7
ENDBRANCH   5   6
ENDBRANCH   3   5
ENDBRANCH   2   3
ENDBRANCH   1   2
BRANCH   1  28
ATOM     28  C   UNL A   1      33.067  35.273  29.334  1.00  0.00     0.275 C 
BRANCH  28  29
ATOM     29  O   UNL A   1      33.413  36.068  30.480  1.00  0.00    -0.458 OA
BRANCH  29  30
ATOM     30  C   UNL A   1      32.989  35.585  31.665  1.00  0.00     0.338 C 
ATOM     31  O   UNL A   1      31.843  35.616  32.105  1.00  0.00    -0.246 OA
BRANCH  30  32
ATOM     32  C   UNL A   1      34.099  34.979  32.418  1.00  0.00     0.060 A 
ATOM     33  C   UNL A   1      35.410  35.438  32.266  1.00  0.00     0.016 A 
ATOM     34  C   UNL A   1      33.839  33.820  33.150  1.00  0.00     0.016 A 
ATOM     35  C   UNL A   1      36.475  34.661  32.729  1.00  0.00     0.010 A 
ATOM     36  C   UNL A   1      34.901  33.079  33.671  1.00  0.00     0.010 A 
ATOM     37  C   UNL A   1      36.225  33.462  33.411  1.00  0.00    -0.014 A 
BRANCH  37  38
ATOM     38  C   UNL A   1      37.333  32.629  33.927  1.00  0.00     0.031 A 
ATOM     39  C   UNL A   1      37.992  32.924  35.243  1.00  0.00     0.074 A 
ATOM     40  C   UNL A   1      37.794  31.638  33.149  1.00  0.00     0.049 A 
ATOM     41  N   UNL A   1      39.144  32.509  35.703  1.00  0.00    -0.248 NA
ATOM     42  C   UNL A   1      37.268  33.814  36.160  1.00  0.00     0.031 C 
ATOM     43  C   UNL A   1      37.206  31.232  31.871  1.00  0.00     0.029 A 
ATOM     44  N   UNL A   1      38.871  30.810  33.310  1.00  0.00    -0.354 N 
ATOM     45  C   UNL A   1      39.318  33.143  36.929  1.00  0.00     0.074 A 
ATOM     46  C   UNL A   1      38.146  33.968  37.144  1.00  0.00     0.031 C 
ATOM     47  C   UNL A   1      37.941  30.236  31.355  1.00  0.00     0.029 A 
ATOM     48  C   UNL A   1      39.074  29.979  32.238  1.00  0.00     0.049 A 
ATOM     49  H   UNL A   1      39.441  30.812  34.113  1.00  0.00     0.167 HD
ATOM     50  C   UNL A   1      40.357  33.036  37.793  1.00  0.00     0.031 A 
ATOM     51  C   UNL A   1      40.085  29.134  31.974  1.00  0.00     0.031 A 
ATOM     52  C   UNL A   1      41.470  32.138  37.604  1.00  0.00     0.049 A 
ATOM     53  C   UNL A   1      41.209  29.008  32.954  1.00  0.00     0.074 A 
ATOM     54  C   UNL A   1      42.553  31.917  38.438  1.00  0.00     0.029 A 
ATOM     55  N   UNL A   1      41.623  31.286  36.521  1.00  0.00    -0.354 N 
ATOM     56  N   UNL A   1      41.401  29.667  34.073  1.00  0.00    -0.248 NA
ATOM     57  C   UNL A   1      42.249  28.022  32.640  1.00  0.00     0.031 C 
ATOM     58  C   UNL A   1      43.369  30.942  37.850  1.00  0.00     0.029 A 
ATOM     59  C   UNL A   1      42.775  30.534  36.667  1.00  0.00     0.049 A 
ATOM     60  H   UNL A   1      41.002  31.226  35.759  1.00  0.00     0.167 HD
ATOM     61  C   UNL A   1      42.584  29.169  34.603  1.00  0.00     0.074 A 
ATOM     62  C   UNL A   1      43.051  28.142  33.690  1.00  0.00     0.031 C 
ATOM     63  C   UNL A   1      43.226  29.528  35.741  1.00  0.00     0.031 A 
BRANCH  50  64
ATOM     64  C   UNL A   1      40.362  33.917  39.015  1.00  0.00    -0.014 A 
ATOM     65  C   UNL A   1      40.936  35.199  38.996  1.00  0.00     0.010 A 
ATOM     66  C   UNL A   1      39.706  33.478  40.182  1.00  0.00     0.010 A 
ATOM     67  C   UNL A   1      40.882  36.016  40.131  1.00  0.00     0.020 A 
ATOM     68  C   UNL A   1      39.630  34.300  41.310  1.00  0.00     0.020 A 
ATOM     69  C   UNL A   1      40.233  35.559  41.283  1.00  0.00     0.054 A 
BRANCH  69  70
ATOM     70  S   UNL A   1      40.145  36.642  42.736  1.00  0.00     0.124 S 
ATOM     71  O   UNL A   1      39.831  37.929  42.121  1.00  0.00    -0.237 OA
ATOM     72  O   UNL A   1      39.072  36.043  43.526  1.00  0.00    -0.237 OA
ATOM     73  O   UNL A   1      41.478  36.538  43.322  1.00  0.00    -0.744 OA
ENDBRANCH  69  70
ENDBRANCH  50  64
BRANCH  51  74
ATOM     74  C   UNL A   1      40.056  28.363  30.709  1.00  0.00    -0.014 A 
ATOM     75  C   UNL A   1      40.918  28.706  29.655  1.00  0.00     0.010 A 
ATOM     76  C   UNL A   1      39.241  27.222  30.597  1.00  0.00     0.010 A 
ATOM     77  C   UNL A   1      40.973  27.911  28.508  1.00  0.00     0.020 A 
ATOM     78  C   UNL A   1      39.309  26.415  29.460  1.00  0.00     0.020 A 
ATOM     79  C   UNL A   1      40.174  26.767  28.422  1.00  0.00     0.054 A 
BRANCH  79  80
ATOM     80  S   UNL A   1      40.340  25.687  26.974  1.00  0.00     0.124 S 
ATOM     81  O   UNL A   1      40.814  26.618  25.956  1.00  0.00    -0.237 OA
ATOM     82  O   UNL A   1      41.312  24.694  27.425  1.00  0.00    -0.237 OA
ATOM     83  O   UNL A   1      38.986  25.174  26.777  1.00  0.00    -0.744 OA
ENDBRANCH  79  80
ENDBRANCH  51  74
BRANCH  63  84
ATOM     84  C   UNL A   1      44.489  28.782  36.063  1.00  0.00    -0.014 A 
ATOM     85  C   UNL A   1      44.483  27.716  36.978  1.00  0.00     0.010 A 
ATOM     86  C   UNL A   1      45.694  29.155  35.443  1.00  0.00     0.010 A 
ATOM     87  C   UNL A   1      45.673  27.059  37.301  1.00  0.00     0.020 A 
ATOM     88  C   UNL A   1      46.883  28.489  35.750  1.00  0.00     0.020 A 
ATOM     89  C   UNL A   1      46.867  27.458  36.693  1.00  0.00     0.054 A 
BRANCH  89  90
ATOM     90  S   UNL A   1      48.402  26.593  37.121  1.00  0.00     0.124 S 
ATOM     91  O   UNL A   1      48.200  25.290  36.494  1.00  0.00    -0.237 OA
ATOM     92  O   UNL A   1      49.430  27.432  36.509  1.00  0.00    -0.237 OA
ATOM     93  O   UNL A   1      48.399  26.590  38.583  1.00  0.00    -0.744 OA
ENDBRANCH  89  90
ENDBRANCH  63  84
ENDBRANCH  37  38
ENDBRANCH  30  32
ENDBRANCH  29  30
ENDBRANCH  28  29
ENDBRANCH   1  28
TORSDOF 18
ENDMDL
MODEL 3
REMARK VINA RESULT:     -11.7      1.286      1.652
REMARK SMILES Cc1oc2cc(OCC(=O)OCCOC(=O)c3ccc(-c4c5nc(c(-c6ccc(S(=O)(=O)[O-])cc6)c6ccc([nH]6)c(-c6ccc(S(=O)(=O)[O-])cc6)c6nc(c(-c7ccc(S(=O)(=O)[O-])cc7)c7ccc4[nH]7)C=C6)C=C5)cc3)ccc2c(=O)c1Oc1ccc(Cl)cc1Cl
REMARK SMILES IDX 12 1 11 2 9 3 10 4 8 5 7 6 6 7 1 8 2 9 3 10 82 11 4 12 80 13
REMARK SMILES IDX 5 14 79 15 81 16 78 17 77 18 83 19 84 20 85 21 90 22 86 23
REMARK SMILES IDX 89 24 91 25 87 26 88 27 13 28 14 29 15 30 16 31 17 32 18 33
REMARK SMILES IDX 76 34 19 35 75 36 20 37 21 38 22 39 69 40 23 41 74 42 68 43
REMARK SMILES IDX 70 44 24 45 73 46 67 47 66 48 25 50 55 51 36 52 54 53 37 54
REMARK SMILES IDX 40 55 53 56 71 57 38 58 39 59 52 61 72 62 41 63 26 64 27 65
REMARK SMILES IDX 35 66 28 67 34 68 29 69 30 70 31 71 32 72 33 73 56 74 57 75
REMARK SMILES IDX 65 76 58 77 64 78 59 79 60 80 61 81 62 82 63 83 42 84 43 85
REMARK SMILES IDX 51 86 44 87 50 88 45 89 46 90 47 91 48 92 49 93
REMARK H PARENT 70 49 40 60
REMARK Flexibility Score: inf
ROOT
ATOM      1  C   UNL A   1      42.709  21.923  26.044  1.00  0.00     0.274 C 
ENDROOT
BRANCH   1   2
ATOM      2  O   UNL A   1      41.350  21.699  25.611  1.00  0.00    -0.460 OA
BRANCH   2   3
ATOM      3  C   UNL A   1      40.432  21.553  26.603  1.00  0.00     0.344 C 
ATOM      4  O   UNL A   1      40.654  21.029  27.691  1.00  0.00    -0.248 OA
BRANCH   3   5
ATOM      5  C   UNL A   1      39.048  22.074  26.223  1.00  0.00     0.351 C 
BRANCH   5   6
ATOM      6  O   UNL A   1      38.207  21.272  25.411  1.00  0.00    -0.482 OA
BRANCH   6   7
ATOM      7  C   UNL A   1      37.006  21.769  24.993  1.00  0.00     0.123 A 
ATOM      8  C   UNL A   1      31.425  22.948  26.698  1.00  0.00     0.092 C 
ATOM      9  C   UNL A   1      32.418  22.994  25.579  1.00  0.00     0.148 A 
ATOM     10  O   UNL A   1      33.483  22.137  25.851  1.00  0.00    -0.457 OA
ATOM     11  C   UNL A   1      32.330  23.762  24.463  1.00  0.00     0.213 A 
ATOM     12  C   UNL A   1      34.639  22.266  25.137  1.00  0.00     0.142 A 
ATOM     13  C   UNL A   1      33.497  23.716  23.523  1.00  0.00     0.235 A 
ATOM     14  C   UNL A   1      35.778  21.618  25.631  1.00  0.00     0.094 A 
ATOM     15  C   UNL A   1      34.708  23.019  23.981  1.00  0.00     0.069 A 
ATOM     16  O   UNL A   1      33.490  24.279  22.432  1.00  0.00    -0.285 OA
ATOM     17  C   UNL A   1      35.919  23.133  23.297  1.00  0.00     0.020 A 
ATOM     18  C   UNL A   1      37.064  22.518  23.814  1.00  0.00     0.047 A 
BRANCH  11  19
ATOM     19  O   UNL A   1      31.335  24.657  24.076  1.00  0.00    -0.448 OA
BRANCH  19  20
ATOM     20  C   UNL A   1      31.370  25.971  24.458  1.00  0.00     0.146 A 
ATOM     21  C   UNL A   1      31.372  26.279  25.823  1.00  0.00     0.050 A 
ATOM     22  C   UNL A   1      31.364  26.998  23.505  1.00  0.00     0.085 A 
ATOM     23  C   UNL A   1      31.470  27.611  26.231  1.00  0.00     0.024 A 
ATOM     24  C   UNL A   1      31.468  28.329  23.914  1.00  0.00     0.045 A 
ATOM     25  Cl  UNL A   1      31.294  26.659  21.814  1.00  0.00    -0.080 Cl
ATOM     26  C   UNL A   1      31.536  28.627  25.276  1.00  0.00     0.042 A 
ATOM     27  Cl  UNL A   1      31.711  30.265  25.772  1.00  0.00    -0.084 Cl
ENDBRANCH  19  20
ENDBRANCH  11  19
ENDBRANCH   6   7
ENDBRANCH   5   6
ENDBRANCH   3   5
ENDBRANCH   2   3
ENDBRANCH   1   2
BRANCH   1  28
ATOM     28  C   UNL A   1      43.175  23.327  25.669  1.00  0.00     0.275 C 
BRANCH  28  29
ATOM     29  O   UNL A   1      42.647  24.278  26.609  1.00  0.00    -0.458 OA
BRANCH  29  30
ATOM     30  C   UNL A   1      42.267  25.458  26.081  1.00  0.00     0.338 C 
ATOM     31  O   UNL A   1      42.304  25.782  24.897  1.00  0.00    -0.246 OA
BRANCH  30  32
ATOM     32  C   UNL A   1      41.772  26.370  27.125  1.00  0.00     0.060 A 
ATOM     33  C   UNL A   1      42.342  27.632  27.312  1.00  0.00     0.016 A 
ATOM     34  C   UNL A   1      40.842  25.876  28.040  1.00  0.00     0.016 A 
ATOM     35  C   UNL A   1      42.086  28.342  28.487  1.00  0.00     0.010 A 
ATOM     36  C   UNL A   1      40.536  26.616  29.183  1.00  0.00     0.010 A 
ATOM     37  C   UNL A   1      41.202  27.823  29.443  1.00  0.00    -0.014 A 
BRANCH  37  38
ATOM     38  C   UNL A   1      40.900  28.562  30.689  1.00  0.00     0.031 A 
ATOM     39  C   UNL A   1      39.786  29.566  30.757  1.00  0.00     0.074 A 
ATOM     40  C   UNL A   1      41.701  28.369  31.747  1.00  0.00     0.049 A 
ATOM     41  N   UNL A   1      39.573  30.506  31.641  1.00  0.00    -0.248 NA
ATOM     42  C   UNL A   1      38.784  29.516  29.685  1.00  0.00     0.031 C 
ATOM     43  C   UNL A   1      42.788  27.390  31.810  1.00  0.00     0.029 A 
ATOM     44  N   UNL A   1      41.738  29.002  32.959  1.00  0.00    -0.354 N 
ATOM     45  C   UNL A   1      38.457  31.207  31.194  1.00  0.00     0.074 A 
ATOM     46  C   UNL A   1      38.033  30.576  29.960  1.00  0.00     0.031 C 
ATOM     47  C   UNL A   1      43.395  27.497  33.000  1.00  0.00     0.029 A 
ATOM     48  C   UNL A   1      42.777  28.585  33.752  1.00  0.00     0.049 A 
ATOM     49  H   UNL A   1      41.086  29.687  33.234  1.00  0.00     0.167 HD
ATOM     50  C   UNL A   1      37.845  32.271  31.768  1.00  0.00     0.031 A 
ATOM     51  C   UNL A   1      43.211  29.054  34.933  1.00  0.00     0.031 A 
ATOM     52  C   UNL A   1      38.226  32.825  33.044  1.00  0.00     0.049 A 
ATOM     53  C   UNL A   1      42.503  30.211  35.566  1.00  0.00     0.074 A 
ATOM     54  C   UNL A   1      37.645  33.873  33.739  1.00  0.00     0.029 A 
ATOM     55  N   UNL A   1      39.263  32.352  33.833  1.00  0.00    -0.354 N 
ATOM     56  N   UNL A   1      41.498  30.914  35.099  1.00  0.00    -0.248 NA
ATOM     57  C   UNL A   1      42.985  30.636  36.885  1.00  0.00     0.031 C 
ATOM     58  C   UNL A   1      38.343  34.043  34.942  1.00  0.00     0.029 A 
ATOM     59  C   UNL A   1      39.336  33.079  35.008  1.00  0.00     0.049 A 
ATOM     60  H   UNL A   1      39.861  31.607  33.592  1.00  0.00     0.167 HD
ATOM     61  C   UNL A   1      41.219  31.863  36.074  1.00  0.00     0.074 A 
ATOM     62  C   UNL A   1      42.151  31.631  37.161  1.00  0.00     0.031 C 
ATOM     63  C   UNL A   1      40.278  32.838  36.070  1.00  0.00     0.031 A 
BRANCH  50  64
ATOM     64  C   UNL A   1      36.710  32.927  31.025  1.00  0.00    -0.014 A 
ATOM     65  C   UNL A   1      35.373  32.749  31.418  1.00  0.00     0.010 A 
ATOM     66  C   UNL A   1      37.000  33.802  29.960  1.00  0.00     0.010 A 
ATOM     67  C   UNL A   1      34.343  33.409  30.740  1.00  0.00     0.020 A 
ATOM     68  C   UNL A   1      35.975  34.481  29.295  1.00  0.00     0.020 A 
ATOM     69  C   UNL A   1      34.650  34.268  29.679  1.00  0.00     0.054 A 
BRANCH  69  70
ATOM     70  S   UNL A   1      33.304  35.141  28.831  1.00  0.00     0.124 S 
ATOM     71  O   UNL A   1      34.042  36.157  28.085  1.00  0.00    -0.237 OA
ATOM     72  O   UNL A   1      32.689  34.090  28.025  1.00  0.00    -0.237 OA
ATOM     73  O   UNL A   1      32.480  35.645  29.926  1.00  0.00    -0.744 OA
ENDBRANCH  69  70
ENDBRANCH  50  64
BRANCH  51  74
ATOM     74  C   UNL A   1      44.389  28.414  35.564  1.00  0.00    -0.014 A 
ATOM     75  C   UNL A   1      45.674  28.938  35.352  1.00  0.00     0.010 A 
ATOM     76  C   UNL A   1      44.214  27.344  36.460  1.00  0.00     0.010 A 
ATOM     77  C   UNL A   1      46.769  28.407  36.035  1.00  0.00     0.020 A 
ATOM     78  C   UNL A   1      45.305  26.825  37.161  1.00  0.00     0.020 A 
ATOM     79  C   UNL A   1      46.576  27.359  36.941  1.00  0.00     0.054 A 
BRANCH  79  80
ATOM     80  S   UNL A   1      47.992  26.758  37.903  1.00  0.00     0.124 S 
ATOM     81  O   UNL A   1      48.824  27.953  37.994  1.00  0.00    -0.237 OA
ATOM     82  O   UNL A   1      47.370  26.322  39.151  1.00  0.00    -0.237 OA
ATOM     83  O   UNL A   1      48.528  25.679  37.076  1.00  0.00    -0.744 OA
ENDBRANCH  79  80
ENDBRANCH  51  74
BRANCH  63  84
ATOM     84  C   UNL A   1      40.205  33.705  37.294  1.00  0.00    -0.014 A 
ATOM     85  C   UNL A   1      39.404  33.340  38.389  1.00  0.00     0.010 A 
ATOM     86  C   UNL A   1      40.946  34.899  37.346  1.00  0.00     0.010 A 
ATOM     87  C   UNL A   1      39.312  34.177  39.503  1.00  0.00     0.020 A 
ATOM     88  C   UNL A   1      40.870  35.729  38.466  1.00  0.00     0.020 A 
ATOM     89  C   UNL A   1      40.037  35.372  39.529  1.00  0.00     0.054 A 
BRANCH  89  90
ATOM     90  S   UNL A   1      39.908  36.447  40.984  1.00  0.00     0.124 S 
ATOM     91  O   UNL A   1      38.674  37.178  40.711  1.00  0.00    -0.237 OA
ATOM     92  O   UNL A   1      39.842  35.492  42.089  1.00  0.00    -0.237 OA
ATOM     93  O   UNL A   1      41.131  37.245  40.932  1.00  0.00    -0.744 OA
ENDBRANCH  89  90
ENDBRANCH  63  84
ENDBRANCH  37  38
ENDBRANCH  30  32
ENDBRANCH  29  30
ENDBRANCH  28  29
ENDBRANCH   1  28
TORSDOF 18
ENDMDL
