MODEL 1
REMARK VINA RESULT:     -10.3      0.000      0.000
REMARK SMILES NC(=O)[C@@H]1CCCCN1c1cncc(C(=O)OCCOC(=O)c2ccc(-c3c4nc(c(-c5ccc(S(=O)(=O)[O-])cc5)c5ccc([nH]5)c(-c5ccc(S(=O)(=O)[O-])cc5)c5nc(c(-c6ccc(S(=O)(=O)[O-])cc6)c6ccc3[nH]6)C=C5)C=C4)cc2)n1
REMARK SMILES IDX 19 1 18 2 17 3 15 4 16 5 14 6 10 7 11 8 83 9 12 10 13 11
REMARK SMILES IDX 9 12 4 13 5 14 6 15 8 16 7 17 2 18 1 19 3 22 20 23 21 24
REMARK SMILES IDX 22 25 23 26 24 27 82 28 25 29 81 30 26 31 27 32 28 33 75 34
REMARK SMILES IDX 29 35 80 36 74 37 76 38 30 39 79 40 73 41 72 42 31 44 61 45
REMARK SMILES IDX 42 46 60 47 43 48 46 49 59 50 77 51 44 52 45 53 58 55 78 56
REMARK SMILES IDX 47 57 32 58 33 59 41 60 34 61 40 62 35 63 36 64 37 65 38 66
REMARK SMILES IDX 39 67 62 68 63 69 71 70 64 71 70 72 65 73 66 74 67 75 68 76
REMARK SMILES IDX 69 77 48 78 49 79 57 80 50 81 56 82 51 83 52 84 53 85 54 86
REMARK SMILES IDX 55 87
REMARK H PARENT 1 20 1 21 76 43 46 54
REMARK Flexibility Score: inf
ROOT
ATOM      1  C   UNL A   1      34.951  29.272  27.566  1.00  0.00     0.275 C 
ENDROOT
BRANCH   1   2
ATOM      2  C   UNL A   1      33.893  30.309  27.185  1.00  0.00     0.275 C 
BRANCH   2   3
ATOM      3  O   UNL A   1      32.559  29.767  27.274  1.00  0.00    -0.457 OA
BRANCH   3   4
ATOM      4  C   UNL A   1      31.987  29.403  26.095  1.00  0.00     0.358 C 
ATOM      5  O   UNL A   1      31.578  30.158  25.234  1.00  0.00    -0.244 OA
BRANCH   4   6
ATOM      6  C   UNL A   1      31.974  27.927  25.942  1.00  0.00     0.169 A 
ATOM      7  C   UNL A   1      32.903  26.002  25.096  1.00  0.00     0.148 A 
ATOM      8  C   UNL A   1      31.945  25.275  25.818  1.00  0.00     0.157 A 
ATOM      9  N   UNL A   1      32.887  27.354  25.113  1.00  0.00    -0.220 NA
ATOM     10  N   UNL A   1      31.027  25.835  26.636  1.00  0.00    -0.258 NA
ATOM     11  C   UNL A   1      31.096  27.180  26.713  1.00  0.00     0.147 A 
BRANCH   7  12
ATOM     12  N   UNL A   1      33.909  25.358  24.422  1.00  0.00    -0.343 N 
ATOM     13  C   UNL A   1      33.899  25.132  22.965  1.00  0.00     0.172 C 
ATOM     14  C   UNL A   1      33.822  23.626  22.697  1.00  0.00     0.035 C 
ATOM     15  C   UNL A   1      34.961  22.901  23.419  1.00  0.00     0.004 C 
ATOM     16  C   UNL A   1      34.981  24.723  25.179  1.00  0.00     0.119 C 
ATOM     17  C   UNL A   1      34.954  23.215  24.917  1.00  0.00     0.022 C 
BRANCH  13  18
ATOM     18  C   UNL A   1      32.864  25.930  22.142  1.00  0.00     0.240 C 
ATOM     19  N   UNL A   1      33.187  27.212  21.802  1.00  0.00    -0.368 N 
ATOM     20  H   UNL A   1      32.557  27.756  21.277  1.00  0.00     0.159 HD
ATOM     21  H   UNL A   1      34.051  27.592  22.083  1.00  0.00     0.159 HD
ATOM     22  O   UNL A   1      31.773  25.467  21.816  1.00  0.00    -0.273 OA
ENDBRANCH  13  18
ENDBRANCH   7  12
ENDBRANCH   4   6
ENDBRANCH   3   4
ENDBRANCH   2   3
ENDBRANCH   1   2
BRANCH   1  23
ATOM     23  O   UNL A   1      36.230  29.904  27.770  1.00  0.00    -0.458 OA
BRANCH  23  24
ATOM     24  C   UNL A   1      36.909  29.498  28.866  1.00  0.00     0.338 C 
ATOM     25  O   UNL A   1      36.487  29.408  30.008  1.00  0.00    -0.246 OA
BRANCH  24  26
ATOM     26  C   UNL A   1      38.263  29.062  28.491  1.00  0.00     0.060 A 
ATOM     27  C   UNL A   1      39.058  28.483  29.471  1.00  0.00     0.016 A 
ATOM     28  C   UNL A   1      38.811  29.389  27.255  1.00  0.00     0.016 A 
ATOM     29  C   UNL A   1      40.428  28.348  29.280  1.00  0.00     0.010 A 
ATOM     30  C   UNL A   1      40.170  29.130  27.017  1.00  0.00     0.010 A 
ATOM     31  C   UNL A   1      41.007  28.649  28.042  1.00  0.00    -0.014 A 
BRANCH  31  32
ATOM     32  C   UNL A   1      42.479  28.491  27.842  1.00  0.00     0.031 A 
ATOM     33  C   UNL A   1      43.421  29.620  28.190  1.00  0.00     0.074 A 
ATOM     34  C   UNL A   1      42.986  27.333  27.369  1.00  0.00     0.049 A 
ATOM     35  N   UNL A   1      44.696  29.745  27.919  1.00  0.00    -0.248 NA
ATOM     36  C   UNL A   1      42.853  30.765  28.922  1.00  0.00     0.031 C 
ATOM     37  C   UNL A   1      42.210  26.135  27.037  1.00  0.00     0.029 A 
ATOM     38  N   UNL A   1      44.283  26.966  27.093  1.00  0.00    -0.354 N 
ATOM     39  C   UNL A   1      45.063  31.004  28.382  1.00  0.00     0.074 A 
ATOM     40  C   UNL A   1      43.878  31.605  28.954  1.00  0.00     0.031 C 
ATOM     41  C   UNL A   1      43.044  25.157  26.653  1.00  0.00     0.029 A 
ATOM     42  C   UNL A   1      44.402  25.684  26.606  1.00  0.00     0.049 A 
ATOM     43  H   UNL A   1      45.052  27.563  27.232  1.00  0.00     0.167 HD
ATOM     44  C   UNL A   1      46.276  31.606  28.329  1.00  0.00     0.031 A 
ATOM     45  C   UNL A   1      45.467  25.016  26.123  1.00  0.00     0.031 A 
ATOM     46  C   UNL A   1      47.467  30.983  27.812  1.00  0.00     0.049 A 
ATOM     47  C   UNL A   1      46.796  25.711  26.054  1.00  0.00     0.074 A 
ATOM     48  C   UNL A   1      48.746  31.507  27.731  1.00  0.00     0.029 A 
ATOM     49  N   UNL A   1      47.531  29.693  27.307  1.00  0.00    -0.354 N 
ATOM     50  N   UNL A   1      47.109  26.926  26.438  1.00  0.00    -0.248 NA
ATOM     51  C   UNL A   1      47.911  24.954  25.470  1.00  0.00     0.031 C 
ATOM     52  C   UNL A   1      49.575  30.548  27.138  1.00  0.00     0.029 A 
ATOM     53  C   UNL A   1      48.823  29.410  26.900  1.00  0.00     0.049 A 
ATOM     54  H   UNL A   1      46.770  29.072  27.246  1.00  0.00     0.167 HD
ATOM     55  C   UNL A   1      48.460  27.074  26.152  1.00  0.00     0.074 A 
ATOM     56  C   UNL A   1      48.911  25.819  25.585  1.00  0.00     0.031 C 
ATOM     57  C   UNL A   1      49.256  28.155  26.339  1.00  0.00     0.031 A 
BRANCH  44  58
ATOM     58  C   UNL A   1      46.375  33.035  28.802  1.00  0.00    -0.014 A 
ATOM     59  C   UNL A   1      46.644  33.355  30.145  1.00  0.00     0.010 A 
ATOM     60  C   UNL A   1      46.249  34.077  27.864  1.00  0.00     0.010 A 
ATOM     61  C   UNL A   1      46.751  34.691  30.545  1.00  0.00     0.020 A 
ATOM     62  C   UNL A   1      46.382  35.413  28.255  1.00  0.00     0.020 A 
ATOM     63  C   UNL A   1      46.616  35.712  29.598  1.00  0.00     0.054 A 
BRANCH  63  64
ATOM     64  S   UNL A   1      46.787  37.436  30.139  1.00  0.00     0.124 S 
ATOM     65  O   UNL A   1      45.931  38.136  29.186  1.00  0.00    -0.237 OA
ATOM     66  O   UNL A   1      46.292  37.392  31.513  1.00  0.00    -0.237 OA
ATOM     67  O   UNL A   1      48.217  37.701  30.004  1.00  0.00    -0.744 OA
ENDBRANCH  63  64
ENDBRANCH  44  58
BRANCH  45  68
ATOM     68  C   UNL A   1      45.299  23.630  25.603  1.00  0.00    -0.014 A 
ATOM     69  C   UNL A   1      45.397  22.520  26.461  1.00  0.00     0.010 A 
ATOM     70  C   UNL A   1      45.021  23.417  24.239  1.00  0.00     0.010 A 
ATOM     71  C   UNL A   1      45.229  21.224  25.962  1.00  0.00     0.020 A 
ATOM     72  C   UNL A   1      44.820  22.126  23.745  1.00  0.00     0.020 A 
ATOM     73  C   UNL A   1      44.939  21.036  24.608  1.00  0.00     0.054 A 
BRANCH  73  74
ATOM     74  S   UNL A   1      44.666  19.351  23.990  1.00  0.00     0.124 S 
ATOM     75  O   UNL A   1      44.486  19.579  22.560  1.00  0.00    -0.237 OA
ATOM     76  O   UNL A   1      45.899  18.669  24.374  1.00  0.00    -0.237 OA
ATOM     77  O   UNL A   1      43.472  18.914  24.711  1.00  0.00    -0.744 OA
ENDBRANCH  73  74
ENDBRANCH  45  68
BRANCH  57  78
ATOM     78  C   UNL A   1      50.705  28.017  25.960  1.00  0.00    -0.014 A 
ATOM     79  C   UNL A   1      51.658  27.554  26.884  1.00  0.00     0.010 A 
ATOM     80  C   UNL A   1      51.108  28.309  24.644  1.00  0.00     0.010 A 
ATOM     81  C   UNL A   1      52.996  27.417  26.507  1.00  0.00     0.020 A 
ATOM     82  C   UNL A   1      52.439  28.148  24.257  1.00  0.00     0.020 A 
ATOM     83  C   UNL A   1      53.379  27.716  25.196  1.00  0.00     0.054 A 
BRANCH  83  84
ATOM     84  S   UNL A   1      55.113  27.489  24.716  1.00  0.00     0.124 S 
ATOM     85  O   UNL A   1      55.450  28.799  24.164  1.00  0.00    -0.237 OA
ATOM     86  O   UNL A   1      55.757  27.158  25.985  1.00  0.00    -0.237 OA
ATOM     87  O   UNL A   1      55.064  26.398  23.746  1.00  0.00    -0.744 OA
ENDBRANCH  83  84
ENDBRANCH  57  78
ENDBRANCH  31  32
ENDBRANCH  24  26
ENDBRANCH  23  24
ENDBRANCH   1  23
TORSDOF 16
ENDMDL
MODEL 2
REMARK VINA RESULT:     -10.3      7.307     12.749
REMARK SMILES NC(=O)[C@@H]1CCCCN1c1cncc(C(=O)OCCOC(=O)c2ccc(-c3c4nc(c(-c5ccc(S(=O)(=O)[O-])cc5)c5ccc([nH]5)c(-c5ccc(S(=O)(=O)[O-])cc5)c5nc(c(-c6ccc(S(=O)(=O)[O-])cc6)c6ccc3[nH]6)C=C5)C=C4)cc2)n1
REMARK SMILES IDX 19 1 18 2 17 3 15 4 16 5 14 6 10 7 11 8 83 9 12 10 13 11
REMARK SMILES IDX 9 12 4 13 5 14 6 15 8 16 7 17 2 18 1 19 3 22 20 23 21 24
REMARK SMILES IDX 22 25 23 26 24 27 82 28 25 29 81 30 26 31 27 32 28 33 75 34
REMARK SMILES IDX 29 35 80 36 74 37 76 38 30 39 79 40 73 41 72 42 31 44 61 45
REMARK SMILES IDX 42 46 60 47 43 48 46 49 59 50 77 51 44 52 45 53 58 55 78 56
REMARK SMILES IDX 47 57 32 58 33 59 41 60 34 61 40 62 35 63 36 64 37 65 38 66
REMARK SMILES IDX 39 67 62 68 63 69 71 70 64 71 70 72 65 73 66 74 67 75 68 76
REMARK SMILES IDX 69 77 48 78 49 79 57 80 50 81 56 82 51 83 52 84 53 85 54 86
REMARK SMILES IDX 55 87
REMARK H PARENT 1 20 1 21 76 43 46 54
REMARK Flexibility Score: inf
ROOT
ATOM      1  C   UNL A   1      38.712  23.500  26.318  1.00  0.00     0.275 C 
ENDROOT
BRANCH   1   2
ATOM      2  C   UNL A   1      37.270  23.762  25.879  1.00  0.00     0.275 C 
BRANCH   2   3
ATOM      3  O   UNL A   1      36.762  22.694  25.053  1.00  0.00    -0.457 OA
BRANCH   3   4
ATOM      4  C   UNL A   1      36.207  23.073  23.869  1.00  0.00     0.358 C 
ATOM      5  O   UNL A   1      36.775  23.120  22.795  1.00  0.00    -0.244 OA
BRANCH   4   6
ATOM      6  C   UNL A   1      34.763  23.374  24.029  1.00  0.00     0.169 A 
ATOM      7  C   UNL A   1      33.064  24.893  24.327  1.00  0.00     0.148 A 
ATOM      8  C   UNL A   1      32.153  23.835  24.189  1.00  0.00     0.157 A 
ATOM      9  N   UNL A   1      34.394  24.655  24.300  1.00  0.00    -0.220 NA
ATOM     10  N   UNL A   1      32.509  22.558  23.931  1.00  0.00    -0.258 NA
ATOM     11  C   UNL A   1      33.839  22.363  23.810  1.00  0.00     0.147 A 
BRANCH   7  12
ATOM     12  N   UNL A   1      32.623  26.189  24.417  1.00  0.00    -0.343 N 
ATOM     13  C   UNL A   1      32.555  27.108  23.266  1.00  0.00     0.172 C 
ATOM     14  C   UNL A   1      33.543  28.257  23.490  1.00  0.00     0.035 C 
ATOM     15  C   UNL A   1      33.267  28.939  24.833  1.00  0.00     0.004 C 
ATOM     16  C   UNL A   1      32.344  26.757  25.731  1.00  0.00     0.119 C 
ATOM     17  C   UNL A   1      33.295  27.928  25.982  1.00  0.00     0.022 C 
BRANCH  13  18
ATOM     18  C   UNL A   1      32.691  26.480  21.862  1.00  0.00     0.240 C 
ATOM     19  N   UNL A   1      31.542  26.109  21.227  1.00  0.00    -0.368 N 
ATOM     20  H   UNL A   1      31.582  25.705  20.330  1.00  0.00     0.159 HD
ATOM     21  H   UNL A   1      30.671  26.245  21.667  1.00  0.00     0.159 HD
ATOM     22  O   UNL A   1      33.779  26.283  21.323  1.00  0.00    -0.273 OA
ENDBRANCH  13  18
ENDBRANCH   7  12
ENDBRANCH   4   6
ENDBRANCH   3   4
ENDBRANCH   2   3
ENDBRANCH   1   2
BRANCH   1  23
ATOM     23  O   UNL A   1      39.069  24.353  27.422  1.00  0.00    -0.458 OA
BRANCH  23  24
ATOM     24  C   UNL A   1      39.753  25.472  27.093  1.00  0.00     0.338 C 
ATOM     25  O   UNL A   1      40.354  25.693  26.054  1.00  0.00    -0.246 OA
BRANCH  24  26
ATOM     26  C   UNL A   1      39.604  26.486  28.148  1.00  0.00     0.060 A 
ATOM     27  C   UNL A   1      40.313  27.673  28.018  1.00  0.00     0.016 A 
ATOM     28  C   UNL A   1      38.934  26.203  29.334  1.00  0.00     0.016 A 
ATOM     29  C   UNL A   1      40.473  28.522  29.106  1.00  0.00     0.010 A 
ATOM     30  C   UNL A   1      38.989  27.126  30.390  1.00  0.00     0.010 A 
ATOM     31  C   UNL A   1      39.797  28.275  30.307  1.00  0.00    -0.014 A 
BRANCH  31  32
ATOM     32  C   UNL A   1      39.968  29.199  31.469  1.00  0.00     0.031 A 
ATOM     33  C   UNL A   1      41.161  29.058  32.386  1.00  0.00     0.074 A 
ATOM     34  C   UNL A   1      39.071  30.181  31.702  1.00  0.00     0.049 A 
ATOM     35  N   UNL A   1      41.388  29.635  33.539  1.00  0.00    -0.248 NA
ATOM     36  C   UNL A   1      42.229  28.139  31.959  1.00  0.00     0.031 C 
ATOM     37  C   UNL A   1      37.896  30.476  30.876  1.00  0.00     0.029 A 
ATOM     38  N   UNL A   1      39.012  31.126  32.699  1.00  0.00    -0.354 N 
ATOM     39  C   UNL A   1      42.583  29.097  34.005  1.00  0.00     0.074 A 
ATOM     40  C   UNL A   1      43.036  28.150  33.010  1.00  0.00     0.031 C 
ATOM     41  C   UNL A   1      37.265  31.552  31.369  1.00  0.00     0.029 A 
ATOM     42  C   UNL A   1      37.923  31.962  32.604  1.00  0.00     0.049 A 
ATOM     43  H   UNL A   1      39.685  31.197  33.413  1.00  0.00     0.167 HD
ATOM     44  C   UNL A   1      43.239  29.364  35.161  1.00  0.00     0.031 A 
ATOM     45  C   UNL A   1      37.464  32.917  33.435  1.00  0.00     0.031 A 
ATOM     46  C   UNL A   1      42.816  30.349  36.123  1.00  0.00     0.049 A 
ATOM     47  C   UNL A   1      38.194  33.180  34.721  1.00  0.00     0.074 A 
ATOM     48  C   UNL A   1      43.423  30.703  37.316  1.00  0.00     0.029 A 
ATOM     49  N   UNL A   1      41.693  31.152  35.993  1.00  0.00    -0.354 N 
ATOM     50  N   UNL A   1      39.289  32.615  35.175  1.00  0.00    -0.248 NA
ATOM     51  C   UNL A   1      37.621  34.195  35.614  1.00  0.00     0.031 C 
ATOM     52  C   UNL A   1      42.643  31.691  37.928  1.00  0.00     0.029 A 
ATOM     53  C   UNL A   1      41.582  31.989  37.090  1.00  0.00     0.049 A 
ATOM     54  H   UNL A   1      41.067  31.130  35.233  1.00  0.00     0.167 HD
ATOM     55  C   UNL A   1      39.539  33.214  36.402  1.00  0.00     0.074 A 
ATOM     56  C   UNL A   1      38.498  34.200  36.610  1.00  0.00     0.031 C 
ATOM     57  C   UNL A   1      40.541  32.967  37.281  1.00  0.00     0.031 A 
BRANCH  44  58
ATOM     58  C   UNL A   1      44.465  28.546  35.481  1.00  0.00    -0.014 A 
ATOM     59  C   UNL A   1      44.380  27.319  36.163  1.00  0.00     0.010 A 
ATOM     60  C   UNL A   1      45.723  28.994  35.036  1.00  0.00     0.010 A 
ATOM     61  C   UNL A   1      45.536  26.575  36.425  1.00  0.00     0.020 A 
ATOM     62  C   UNL A   1      46.876  28.240  35.272  1.00  0.00     0.020 A 
ATOM     63  C   UNL A   1      46.777  27.042  35.980  1.00  0.00     0.054 A 
BRANCH  63  64
ATOM     64  S   UNL A   1      48.257  26.043  36.307  1.00  0.00     0.124 S 
ATOM     65  O   UNL A   1      47.862  25.304  37.504  1.00  0.00    -0.237 OA
ATOM     66  O   UNL A   1      48.381  25.245  35.090  1.00  0.00    -0.237 OA
ATOM     67  O   UNL A   1      49.309  27.036  36.507  1.00  0.00    -0.744 OA
ENDBRANCH  63  64
ENDBRANCH  44  58
BRANCH  45  68
ATOM     68  C   UNL A   1      36.207  33.646  33.105  1.00  0.00    -0.014 A 
ATOM     69  C   UNL A   1      34.951  33.059  33.335  1.00  0.00     0.010 A 
ATOM     70  C   UNL A   1      36.265  34.948  32.572  1.00  0.00     0.010 A 
ATOM     71  C   UNL A   1      33.777  33.757  33.029  1.00  0.00     0.020 A 
ATOM     72  C   UNL A   1      35.096  35.660  32.297  1.00  0.00     0.020 A 
ATOM     73  C   UNL A   1      33.858  35.053  32.515  1.00  0.00     0.054 A 
BRANCH  73  74
ATOM     74  S   UNL A   1      32.325  35.965  32.179  1.00  0.00     0.124 S 
ATOM     75  O   UNL A   1      31.308  35.022  32.630  1.00  0.00    -0.237 OA
ATOM     76  O   UNL A   1      32.484  37.166  32.995  1.00  0.00    -0.237 OA
ATOM     77  O   UNL A   1      32.374  36.193  30.736  1.00  0.00    -0.744 OA
ENDBRANCH  73  74
ENDBRANCH  45  68
BRANCH  57  78
ATOM     78  C   UNL A   1      40.581  33.801  38.532  1.00  0.00    -0.014 A 
ATOM     79  C   UNL A   1      39.891  33.407  39.692  1.00  0.00     0.010 A 
ATOM     80  C   UNL A   1      41.359  34.972  38.558  1.00  0.00     0.010 A 
ATOM     81  C   UNL A   1      39.954  34.188  40.849  1.00  0.00     0.020 A 
ATOM     82  C   UNL A   1      41.445  35.741  39.720  1.00  0.00     0.020 A 
ATOM     83  C   UNL A   1      40.730  35.352  40.855  1.00  0.00     0.054 A 
BRANCH  83  84
ATOM     84  S   UNL A   1      40.833  36.327  42.381  1.00  0.00     0.124 S 
ATOM     85  O   UNL A   1      41.676  37.446  41.969  1.00  0.00    -0.237 OA
ATOM     86  O   UNL A   1      39.435  36.658  42.646  1.00  0.00    -0.237 OA
ATOM     87  O   UNL A   1      41.442  35.407  43.339  1.00  0.00    -0.744 OA
ENDBRANCH  83  84
ENDBRANCH  57  78
ENDBRANCH  31  32
ENDBRANCH  24  26
ENDBRANCH  23  24
ENDBRANCH   1  23
TORSDOF 16
ENDMDL
MODEL 3
REMARK VINA RESULT:     -10.2      7.109     12.409
REMARK SMILES NC(=O)[C@@H]1CCCCN1c1cncc(C(=O)OCCOC(=O)c2ccc(-c3c4nc(c(-c5ccc(S(=O)(=O)[O-])cc5)c5ccc([nH]5)c(-c5ccc(S(=O)(=O)[O-])cc5)c5nc(c(-c6ccc(S(=O)(=O)[O-])cc6)c6ccc3[nH]6)C=C5)C=C4)cc2)n1
REMARK SMILES IDX 19 1 18 2 17 3 15 4 16 5 14 6 10 7 11 8 83 9 12 10 13 11
REMARK SMILES IDX 9 12 4 13 5 14 6 15 8 16 7 17 2 18 1 19 3 22 20 23 21 24
REMARK SMILES IDX 22 25 23 26 24 27 82 28 25 29 81 30 26 31 27 32 28 33 75 34
REMARK SMILES IDX 29 35 80 36 74 37 76 38 30 39 79 40 73 41 72 42 31 44 61 45
REMARK SMILES IDX 42 46 60 47 43 48 46 49 59 50 77 51 44 52 45 53 58 55 78 56
REMARK SMILES IDX 47 57 32 58 33 59 41 60 34 61 40 62 35 63 36 64 37 65 38 66
REMARK SMILES IDX 39 67 62 68 63 69 71 70 64 71 70 72 65 73 66 74 67 75 68 76
REMARK SMILES IDX 69 77 48 78 49 79 57 80 50 81 56 82 51 83 52 84 53 85 54 86
REMARK SMILES IDX 55 87
REMARK H PARENT 1 20 1 21 76 43 46 54
REMARK Flexibility Score: inf
ROOT
ATOM      1  C   UNL A   1      39.567  22.220  26.028  1.00  0.00     0.275 C 
ENDROOT
BRANCH   1   2
ATOM      2  C   UNL A   1      38.198  21.544  25.928  1.00  0.00     0.275 C 
BRANCH   2   3
ATOM      3  O   UNL A   1      37.397  22.117  24.874  1.00  0.00    -0.457 OA
BRANCH   3   4
ATOM      4  C   UNL A   1      36.127  21.640  24.769  1.00  0.00     0.358 C 
ATOM      5  O   UNL A   1      35.764  20.508  25.026  1.00  0.00    -0.244 OA
BRANCH   4   6
ATOM      6  C   UNL A   1      35.188  22.710  24.349  1.00  0.00     0.169 A 
ATOM      7  C   UNL A   1      33.721  24.397  24.883  1.00  0.00     0.148 A 
ATOM      8  C   UNL A   1      33.618  24.682  23.513  1.00  0.00     0.157 A 
ATOM      9  N   UNL A   1      34.476  23.360  25.309  1.00  0.00    -0.220 NA
ATOM     10  N   UNL A   1      34.312  24.035  22.552  1.00  0.00    -0.258 NA
ATOM     11  C   UNL A   1      35.136  23.070  23.011  1.00  0.00     0.147 A 
BRANCH   7  12
ATOM     12  N   UNL A   1      33.118  25.205  25.813  1.00  0.00    -0.343 N 
ATOM     13  C   UNL A   1      31.863  24.856  26.503  1.00  0.00     0.172 C 
ATOM     14  C   UNL A   1      30.776  25.852  26.088  1.00  0.00     0.035 C 
ATOM     15  C   UNL A   1      31.240  27.286  26.354  1.00  0.00     0.004 C 
ATOM     16  C   UNL A   1      33.643  26.547  26.039  1.00  0.00     0.119 C 
ATOM     17  C   UNL A   1      32.573  27.573  25.660  1.00  0.00     0.022 C 
BRANCH  13  18
ATOM     18  C   UNL A   1      31.391  23.390  26.396  1.00  0.00     0.240 C 
ATOM     19  N   UNL A   1      31.934  22.491  27.268  1.00  0.00    -0.368 N 
ATOM     20  H   UNL A   1      31.661  21.546  27.234  1.00  0.00     0.159 HD
ATOM     21  H   UNL A   1      32.599  22.788  27.929  1.00  0.00     0.159 HD
ATOM     22  O   UNL A   1      30.582  23.011  25.551  1.00  0.00    -0.273 OA
ENDBRANCH  13  18
ENDBRANCH   7  12
ENDBRANCH   4   6
ENDBRANCH   3   4
ENDBRANCH   2   3
ENDBRANCH   1   2
BRANCH   1  23
ATOM     23  O   UNL A   1      39.442  23.538  26.596  1.00  0.00    -0.458 OA
BRANCH  23  24
ATOM     24  C   UNL A   1      40.608  24.180  26.832  1.00  0.00     0.338 C 
ATOM     25  O   UNL A   1      41.710  23.901  26.388  1.00  0.00    -0.246 OA
BRANCH  24  26
ATOM     26  C   UNL A   1      40.371  25.375  27.656  1.00  0.00     0.060 A 
ATOM     27  C   UNL A   1      41.292  26.412  27.585  1.00  0.00     0.016 A 
ATOM     28  C   UNL A   1      39.370  25.400  28.622  1.00  0.00     0.016 A 
ATOM     29  C   UNL A   1      41.309  27.410  28.552  1.00  0.00     0.010 A 
ATOM     30  C   UNL A   1      39.308  26.479  29.518  1.00  0.00     0.010 A 
ATOM     31  C   UNL A   1      40.304  27.474  29.525  1.00  0.00    -0.014 A 
BRANCH  31  32
ATOM     32  C   UNL A   1      40.324  28.556  30.555  1.00  0.00     0.031 A 
ATOM     33  C   UNL A   1      41.328  28.515  31.683  1.00  0.00     0.074 A 
ATOM     34  C   UNL A   1      39.461  29.591  30.479  1.00  0.00     0.049 A 
ATOM     35  N   UNL A   1      41.385  29.251  32.765  1.00  0.00    -0.248 NA
ATOM     36  C   UNL A   1      42.397  27.507  31.593  1.00  0.00     0.031 C 
ATOM     37  C   UNL A   1      38.468  29.797  29.420  1.00  0.00     0.029 A 
ATOM     38  N   UNL A   1      39.285  30.677  31.304  1.00  0.00    -0.354 N 
ATOM     39  C   UNL A   1      42.445  28.750  33.512  1.00  0.00     0.074 A 
ATOM     40  C   UNL A   1      43.007  27.649  32.761  1.00  0.00     0.031 C 
ATOM     41  C   UNL A   1      37.826  30.956  29.632  1.00  0.00     0.029 A 
ATOM     42  C   UNL A   1      38.281  31.525  30.895  1.00  0.00     0.049 A 
ATOM     43  H   UNL A   1      39.826  30.833  32.111  1.00  0.00     0.167 HD
ATOM     44  C   UNL A   1      42.904  29.166  34.718  1.00  0.00     0.031 A 
ATOM     45  C   UNL A   1      37.743  32.609  31.484  1.00  0.00     0.031 A 
ATOM     46  C   UNL A   1      42.379  30.298  35.437  1.00  0.00     0.049 A 
ATOM     47  C   UNL A   1      38.252  33.038  32.830  1.00  0.00     0.074 A 
ATOM     48  C   UNL A   1      42.789  30.808  36.657  1.00  0.00     0.029 A 
ATOM     49  N   UNL A   1      41.346  31.110  34.992  1.00  0.00    -0.354 N 
ATOM     50  N   UNL A   1      39.214  32.512  33.551  1.00  0.00    -0.248 NA
ATOM     51  C   UNL A   1      37.593  34.195  33.451  1.00  0.00     0.031 C 
ATOM     52  C   UNL A   1      41.975  31.902  36.971  1.00  0.00     0.029 A 
ATOM     53  C   UNL A   1      41.096  32.106  35.920  1.00  0.00     0.049 A 
ATOM     54  H   UNL A   1      40.862  30.994  34.142  1.00  0.00     0.167 HD
ATOM     55  C   UNL A   1      39.282  33.281  34.705  1.00  0.00     0.074 A 
ATOM     56  C   UNL A   1      38.281  34.321  34.578  1.00  0.00     0.031 C 
ATOM     57  C   UNL A   1      40.098  33.135  35.778  1.00  0.00     0.031 A 
BRANCH  44  58
ATOM     58  C   UNL A   1      44.004  28.365  35.368  1.00  0.00    -0.014 A 
ATOM     59  C   UNL A   1      45.361  28.691  35.193  1.00  0.00     0.010 A 
ATOM     60  C   UNL A   1      43.663  27.296  36.218  1.00  0.00     0.010 A 
ATOM     61  C   UNL A   1      46.356  27.940  35.829  1.00  0.00     0.020 A 
ATOM     62  C   UNL A   1      44.653  26.560  36.876  1.00  0.00     0.020 A 
ATOM     63  C   UNL A   1      45.995  26.877  36.664  1.00  0.00     0.054 A 
BRANCH  63  64
ATOM     64  S   UNL A   1      47.304  25.938  37.499  1.00  0.00     0.124 S 
ATOM     65  O   UNL A   1      47.249  26.483  38.853  1.00  0.00    -0.237 OA
ATOM     66  O   UNL A   1      46.847  24.557  37.359  1.00  0.00    -0.237 OA
ATOM     67  O   UNL A   1      48.508  26.271  36.742  1.00  0.00    -0.744 OA
ENDBRANCH  63  64
ENDBRANCH  44  58
BRANCH  45  68
ATOM     68  C   UNL A   1      36.608  33.322  30.831  1.00  0.00    -0.014 A 
ATOM     69  C   UNL A   1      36.764  33.921  29.569  1.00  0.00     0.010 A 
ATOM     70  C   UNL A   1      35.355  33.388  31.469  1.00  0.00     0.010 A 
ATOM     71  C   UNL A   1      35.690  34.580  28.962  1.00  0.00     0.020 A 
ATOM     72  C   UNL A   1      34.272  34.016  30.851  1.00  0.00     0.020 A 
ATOM     73  C   UNL A   1      34.450  34.621  29.606  1.00  0.00     0.054 A 
BRANCH  73  74
ATOM     74  S   UNL A   1      33.052  35.429  28.777  1.00  0.00     0.124 S 
ATOM     75  O   UNL A   1      33.725  36.443  27.971  1.00  0.00    -0.237 OA
ATOM     76  O   UNL A   1      32.443  34.329  28.035  1.00  0.00    -0.237 OA
ATOM     77  O   UNL A   1      32.250  35.941  29.886  1.00  0.00    -0.744 OA
ENDBRANCH  73  74
ENDBRANCH  45  68
BRANCH  57  78
ATOM     78  C   UNL A   1      39.968  34.147  36.884  1.00  0.00    -0.014 A 
ATOM     79  C   UNL A   1      40.692  35.352  36.856  1.00  0.00     0.010 A 
ATOM     80  C   UNL A   1      39.072  33.906  37.941  1.00  0.00     0.010 A 
ATOM     81  C   UNL A   1      40.544  36.286  37.884  1.00  0.00     0.020 A 
ATOM     82  C   UNL A   1      38.903  34.849  38.957  1.00  0.00     0.020 A 
ATOM     83  C   UNL A   1      39.652  36.027  38.930  1.00  0.00     0.054 A 
BRANCH  83  84
ATOM     84  S   UNL A   1      39.444  37.273  40.231  1.00  0.00     0.124 S 
ATOM     85  O   UNL A   1      40.824  37.676  40.488  1.00  0.00    -0.237 OA
ATOM     86  O   UNL A   1      38.606  38.279  39.583  1.00  0.00    -0.237 OA
ATOM     87  O   UNL A   1      38.797  36.537  41.315  1.00  0.00    -0.744 OA
ENDBRANCH  83  84
ENDBRANCH  57  78
ENDBRANCH  31  32
ENDBRANCH  24  26
ENDBRANCH  23  24
ENDBRANCH   1  23
TORSDOF 16
ENDMDL
