MODEL 1
REMARK VINA RESULT:     -12.4      0.000      0.000
REMARK SMILES CCc1ccc(-c2cc(Cl)cc3c2O[C@H](C(F)(F)F)C(C(=O)OCCOC(=O)c2ccc(-c4c5nc(c(-c6ccc(S(=O)(=O)[O-])cc6)c6ccc([nH]6)c(-c6ccc(S(=O)(=O)[O-])cc6)c6nc(c(-c7ccc(S(=O)(=O)[O-])cc7)c7ccc4[nH]7)C=C6)C=C5)cc2)=C3)cc1
REMARK SMILES IDX 25 1 24 2 23 3 21 4 22 5 20 6 7 7 8 8 13 9 9 10 12 11 14 12
REMARK SMILES IDX 10 13 11 14 89 15 15 16 6 17 3 18 4 19 91 20 5 21 90 22 2 23
REMARK SMILES IDX 1 24 16 25 17 26 18 27 19 28 26 29 27 30 28 31 29 32 30 33
REMARK SMILES IDX 88 34 31 35 87 36 32 37 33 38 34 39 81 40 35 41 86 42 80 43
REMARK SMILES IDX 82 44 36 45 85 46 79 47 78 48 37 50 67 51 48 52 66 53 49 54
REMARK SMILES IDX 52 55 65 56 83 57 50 58 51 59 64 61 84 62 53 63 38 64 39 65
REMARK SMILES IDX 47 66 40 67 46 68 41 69 42 70 43 71 44 72 45 73 68 74 69 75
REMARK SMILES IDX 77 76 70 77 76 78 71 79 72 80 73 81 74 82 75 83 54 84 55 85
REMARK SMILES IDX 63 86 56 87 62 88 57 89 58 90 59 91 60 92 61 93
REMARK H PARENT 82 49 52 60
REMARK Flexibility Score: inf
ROOT
ATOM      1  C   UNL A   1      32.137  30.142  26.582  1.00  0.00     0.275 C 
ENDROOT
BRANCH   1   2
ATOM      2  C   UNL A   1      31.756  29.297  25.364  1.00  0.00     0.275 C 
BRANCH   2   3
ATOM      3  O   UNL A   1      31.170  28.026  25.728  1.00  0.00    -0.459 OA
BRANCH   3   4
ATOM      4  C   UNL A   1      30.939  27.236  24.650  1.00  0.00     0.338 C 
ATOM      5  O   UNL A   1      29.933  27.291  23.952  1.00  0.00    -0.246 OA
BRANCH   4   6
ATOM      6  C   UNL A   1      32.082  26.361  24.303  1.00  0.00     0.087 C 
ATOM      7  C   UNL A   1      31.990  22.264  24.473  1.00  0.00     0.026 A 
ATOM      8  C   UNL A   1      31.044  21.981  25.491  1.00  0.00     0.033 A 
ATOM      9  C   UNL A   1      32.331  23.611  24.355  1.00  0.00     0.135 A 
ATOM     10  C   UNL A   1      30.589  22.921  26.419  1.00  0.00     0.042 A 
ATOM     11  C   UNL A   1      32.066  24.478  25.444  1.00  0.00     0.019 A 
ATOM     12  O   UNL A   1      32.820  24.212  23.205  1.00  0.00    -0.475 OA
ATOM     13  Cl  UNL A   1      29.355  22.587  27.562  1.00  0.00    -0.084 Cl
ATOM     14  C   UNL A   1      31.174  24.160  26.452  1.00  0.00     0.032 A 
ATOM     15  C   UNL A   1      32.635  25.836  25.407  1.00  0.00     0.027 C 
ATOM     16  C   UNL A   1      32.232  25.585  23.006  1.00  0.00     0.316 C 
BRANCH   7  17
ATOM     17  C   UNL A   1      32.647  21.045  23.908  1.00  0.00    -0.015 A 
ATOM     18  C   UNL A   1      33.295  18.243  23.723  1.00  0.00    -0.048 A 
ATOM     19  C   UNL A   1      32.383  18.838  22.844  1.00  0.00     0.004 A 
ATOM     20  C   UNL A   1      33.966  19.087  24.614  1.00  0.00     0.004 A 
ATOM     21  C   UNL A   1      32.089  20.224  22.918  1.00  0.00     0.009 A 
ATOM     22  C   UNL A   1      33.650  20.452  24.702  1.00  0.00     0.009 A 
BRANCH  18  23
ATOM     23  C   UNL A   1      33.600  16.760  23.778  1.00  0.00     0.032 C 
ATOM     24  C   UNL A   1      32.986  15.937  24.901  1.00  0.00     0.009 C 
ENDBRANCH  18  23
ENDBRANCH   7  17
BRANCH  16  25
ATOM     25  C   UNL A   1      33.135  26.438  22.108  1.00  0.00     0.430 C 
ATOM     26  F   UNL A   1      34.446  26.287  22.420  1.00  0.00    -0.167 F 
ATOM     27  F   UNL A   1      32.987  26.148  20.799  1.00  0.00    -0.167 F 
ATOM     28  F   UNL A   1      32.851  27.760  22.251  1.00  0.00    -0.167 F 
ENDBRANCH  16  25
ENDBRANCH   4   6
ENDBRANCH   3   4
ENDBRANCH   2   3
ENDBRANCH   1   2
BRANCH   1  29
ATOM     29  O   UNL A   1      33.559  30.117  26.816  1.00  0.00    -0.458 OA
BRANCH  29  30
ATOM     30  C   UNL A   1      34.023  31.225  27.454  1.00  0.00     0.338 C 
ATOM     31  O   UNL A   1      33.394  32.248  27.639  1.00  0.00    -0.246 OA
BRANCH  30  32
ATOM     32  C   UNL A   1      35.388  31.013  28.013  1.00  0.00     0.060 A 
ATOM     33  C   UNL A   1      35.674  29.720  28.444  1.00  0.00     0.016 A 
ATOM     34  C   UNL A   1      36.367  32.007  28.163  1.00  0.00     0.016 A 
ATOM     35  C   UNL A   1      36.926  29.427  28.986  1.00  0.00     0.010 A 
ATOM     36  C   UNL A   1      37.640  31.694  28.703  1.00  0.00     0.010 A 
ATOM     37  C   UNL A   1      37.948  30.387  29.103  1.00  0.00    -0.014 A 
BRANCH  37  38
ATOM     38  C   UNL A   1      39.222  29.940  29.773  1.00  0.00     0.031 A 
ATOM     39  C   UNL A   1      39.372  30.269  31.232  1.00  0.00     0.074 A 
ATOM     40  C   UNL A   1      40.134  29.107  29.216  1.00  0.00     0.049 A 
ATOM     41  N   UNL A   1      40.158  29.735  32.129  1.00  0.00    -0.248 NA
ATOM     42  C   UNL A   1      38.492  31.332  31.747  1.00  0.00     0.031 C 
ATOM     43  C   UNL A   1      40.138  28.671  27.833  1.00  0.00     0.029 A 
ATOM     44  N   UNL A   1      41.180  28.389  29.769  1.00  0.00    -0.354 N 
ATOM     45  C   UNL A   1      39.864  30.390  33.315  1.00  0.00     0.074 A 
ATOM     46  C   UNL A   1      38.806  31.337  33.031  1.00  0.00     0.031 C 
ATOM     47  C   UNL A   1      40.962  27.621  27.684  1.00  0.00     0.029 A 
ATOM     48  C   UNL A   1      41.684  27.405  28.932  1.00  0.00     0.049 A 
ATOM     49  H   UNL A   1      41.534  28.561  30.671  1.00  0.00     0.167 HD
ATOM     50  C   UNL A   1      40.451  30.258  34.526  1.00  0.00     0.031 A 
ATOM     51  C   UNL A   1      42.616  26.443  29.134  1.00  0.00     0.031 A 
ATOM     52  C   UNL A   1      41.591  29.425  34.793  1.00  0.00     0.049 A 
ATOM     53  C   UNL A   1      43.358  26.426  30.450  1.00  0.00     0.074 A 
ATOM     54  C   UNL A   1      42.280  29.278  35.983  1.00  0.00     0.029 A 
ATOM     55  N   UNL A   1      42.241  28.640  33.854  1.00  0.00    -0.354 N 
ATOM     56  N   UNL A   1      43.137  27.133  31.532  1.00  0.00    -0.248 NA
ATOM     57  C   UNL A   1      44.491  25.494  30.568  1.00  0.00     0.031 C 
ATOM     58  C   UNL A   1      43.391  28.462  35.746  1.00  0.00     0.029 A 
ATOM     59  C   UNL A   1      43.333  28.015  34.436  1.00  0.00     0.049 A 
ATOM     60  H   UNL A   1      41.969  28.542  32.914  1.00  0.00     0.167 HD
ATOM     61  C   UNL A   1      44.059  26.690  32.476  1.00  0.00     0.074 A 
ATOM     62  C   UNL A   1      44.859  25.670  31.830  1.00  0.00     0.031 C 
ATOM     63  C   UNL A   1      44.191  27.062  33.773  1.00  0.00     0.031 A 
BRANCH  50  64
ATOM     64  C   UNL A   1      39.940  31.160  35.612  1.00  0.00    -0.014 A 
ATOM     65  C   UNL A   1      40.706  32.232  36.103  1.00  0.00     0.010 A 
ATOM     66  C   UNL A   1      38.683  30.888  36.180  1.00  0.00     0.010 A 
ATOM     67  C   UNL A   1      40.239  32.989  37.181  1.00  0.00     0.020 A 
ATOM     68  C   UNL A   1      38.204  31.658  37.240  1.00  0.00     0.020 A 
ATOM     69  C   UNL A   1      38.994  32.690  37.746  1.00  0.00     0.054 A 
BRANCH  69  70
ATOM     70  S   UNL A   1      38.420  33.673  39.156  1.00  0.00     0.124 S 
ATOM     71  O   UNL A   1      38.612  35.037  38.669  1.00  0.00    -0.237 OA
ATOM     72  O   UNL A   1      37.031  33.246  39.299  1.00  0.00    -0.237 OA
ATOM     73  O   UNL A   1      39.309  33.271  40.243  1.00  0.00    -0.744 OA
ENDBRANCH  69  70
ENDBRANCH  50  64
BRANCH  51  74
ATOM     74  C   UNL A   1      42.921  25.395  28.100  1.00  0.00    -0.014 A 
ATOM     75  C   UNL A   1      42.284  24.136  28.149  1.00  0.00     0.010 A 
ATOM     76  C   UNL A   1      43.875  25.608  27.090  1.00  0.00     0.010 A 
ATOM     77  C   UNL A   1      42.597  23.123  27.234  1.00  0.00     0.020 A 
ATOM     78  C   UNL A   1      44.168  24.612  26.147  1.00  0.00     0.020 A 
ATOM     79  C   UNL A   1      43.537  23.369  26.233  1.00  0.00     0.054 A 
BRANCH  79  80
ATOM     80  S   UNL A   1      43.905  22.055  25.034  1.00  0.00     0.124 S 
ATOM     81  O   UNL A   1      43.753  22.753  23.762  1.00  0.00    -0.237 OA
ATOM     82  O   UNL A   1      45.270  21.676  25.390  1.00  0.00    -0.237 OA
ATOM     83  O   UNL A   1      42.891  21.042  25.318  1.00  0.00    -0.744 OA
ENDBRANCH  79  80
ENDBRANCH  51  74
BRANCH  63  84
ATOM     84  C   UNL A   1      45.243  26.362  34.598  1.00  0.00    -0.014 A 
ATOM     85  C   UNL A   1      44.954  25.209  35.349  1.00  0.00     0.010 A 
ATOM     86  C   UNL A   1      46.562  26.854  34.587  1.00  0.00     0.010 A 
ATOM     87  C   UNL A   1      45.955  24.586  36.102  1.00  0.00     0.020 A 
ATOM     88  C   UNL A   1      47.573  26.214  35.308  1.00  0.00     0.020 A 
ATOM     89  C   UNL A   1      47.258  25.094  36.077  1.00  0.00     0.054 A 
BRANCH  89  90
ATOM     90  S   UNL A   1      48.550  24.249  37.030  1.00  0.00     0.124 S 
ATOM     91  O   UNL A   1      48.271  24.705  38.389  1.00  0.00    -0.237 OA
ATOM     92  O   UNL A   1      48.269  22.838  36.770  1.00  0.00    -0.237 OA
ATOM     93  O   UNL A   1      49.793  24.747  36.447  1.00  0.00    -0.744 OA
ENDBRANCH  89  90
ENDBRANCH  63  84
ENDBRANCH  37  38
ENDBRANCH  30  32
ENDBRANCH  29  30
ENDBRANCH   1  29
TORSDOF 17
ENDMDL
MODEL 2
REMARK VINA RESULT:     -12.3      4.822      8.644
REMARK SMILES CCc1ccc(-c2cc(Cl)cc3c2O[C@H](C(F)(F)F)C(C(=O)OCCOC(=O)c2ccc(-c4c5nc(c(-c6ccc(S(=O)(=O)[O-])cc6)c6ccc([nH]6)c(-c6ccc(S(=O)(=O)[O-])cc6)c6nc(c(-c7ccc(S(=O)(=O)[O-])cc7)c7ccc4[nH]7)C=C6)C=C5)cc2)=C3)cc1
REMARK SMILES IDX 25 1 24 2 23 3 21 4 22 5 20 6 7 7 8 8 13 9 9 10 12 11 14 12
REMARK SMILES IDX 10 13 11 14 89 15 15 16 6 17 3 18 4 19 91 20 5 21 90 22 2 23
REMARK SMILES IDX 1 24 16 25 17 26 18 27 19 28 26 29 27 30 28 31 29 32 30 33
REMARK SMILES IDX 88 34 31 35 87 36 32 37 33 38 34 39 81 40 35 41 86 42 80 43
REMARK SMILES IDX 82 44 36 45 85 46 79 47 78 48 37 50 67 51 48 52 66 53 49 54
REMARK SMILES IDX 52 55 65 56 83 57 50 58 51 59 64 61 84 62 53 63 38 64 39 65
REMARK SMILES IDX 47 66 40 67 46 68 41 69 42 70 43 71 44 72 45 73 68 74 69 75
REMARK SMILES IDX 77 76 70 77 76 78 71 79 72 80 73 81 74 82 75 83 54 84 55 85
REMARK SMILES IDX 63 86 56 87 62 88 57 89 58 90 59 91 60 92 61 93
REMARK H PARENT 82 49 52 60
REMARK Flexibility Score: inf
ROOT
ATOM      1  C   UNL A   1      32.527  28.697  27.224  1.00  0.00     0.275 C 
ENDROOT
BRANCH   1   2
ATOM      2  C   UNL A   1      32.003  27.548  26.359  1.00  0.00     0.275 C 
BRANCH   2   3
ATOM      3  O   UNL A   1      33.029  26.582  26.033  1.00  0.00    -0.459 OA
BRANCH   3   4
ATOM      4  C   UNL A   1      33.390  26.632  24.727  1.00  0.00     0.338 C 
ATOM      5  O   UNL A   1      34.075  27.520  24.231  1.00  0.00    -0.246 OA
BRANCH   4   6
ATOM      6  C   UNL A   1      32.981  25.438  23.954  1.00  0.00     0.087 C 
ATOM      7  C   UNL A   1      34.224  21.617  24.777  1.00  0.00     0.026 A 
ATOM      8  C   UNL A   1      35.500  21.788  25.372  1.00  0.00     0.033 A 
ATOM      9  C   UNL A   1      33.672  22.779  24.241  1.00  0.00     0.135 A 
ATOM     10  C   UNL A   1      36.241  22.970  25.304  1.00  0.00     0.042 A 
ATOM     11  C   UNL A   1      34.529  23.872  23.959  1.00  0.00     0.019 A 
ATOM     12  O   UNL A   1      32.317  23.005  24.050  1.00  0.00    -0.475 OA
ATOM     13  Cl  UNL A   1      37.726  23.193  26.133  1.00  0.00    -0.084 Cl
ATOM     14  C   UNL A   1      35.791  23.994  24.513  1.00  0.00     0.032 A 
ATOM     15  C   UNL A   1      33.986  25.000  23.182  1.00  0.00     0.027 C 
ATOM     16  C   UNL A   1      31.939  24.423  24.393  1.00  0.00     0.316 C 
BRANCH   7  17
ATOM     17  C   UNL A   1      33.835  20.184  24.592  1.00  0.00    -0.015 A 
ATOM     18  C   UNL A   1      33.690  17.383  25.254  1.00  0.00    -0.048 A 
ATOM     19  C   UNL A   1      32.596  18.233  25.447  1.00  0.00     0.004 A 
ATOM     20  C   UNL A   1      34.813  17.922  24.617  1.00  0.00     0.004 A 
ATOM     21  C   UNL A   1      32.660  19.606  25.092  1.00  0.00     0.009 A 
ATOM     22  C   UNL A   1      34.882  19.287  24.294  1.00  0.00     0.009 A 
BRANCH  18  23
ATOM     23  C   UNL A   1      33.744  15.932  25.687  1.00  0.00     0.032 C 
ATOM     24  C   UNL A   1      32.526  15.056  25.433  1.00  0.00     0.009 C 
ENDBRANCH  18  23
ENDBRANCH   7  17
BRANCH  16  25
ATOM     25  C   UNL A   1      30.639  24.825  23.690  1.00  0.00     0.430 C 
ATOM     26  F   UNL A   1      30.027  23.761  23.113  1.00  0.00    -0.167 F 
ATOM     27  F   UNL A   1      29.753  25.404  24.527  1.00  0.00    -0.167 F 
ATOM     28  F   UNL A   1      30.882  25.720  22.695  1.00  0.00    -0.167 F 
ENDBRANCH  16  25
ENDBRANCH   4   6
ENDBRANCH   3   4
ENDBRANCH   2   3
ENDBRANCH   1   2
BRANCH   1  29
ATOM     29  O   UNL A   1      33.959  28.633  27.375  1.00  0.00    -0.458 OA
BRANCH  29  30
ATOM     30  C   UNL A   1      34.522  29.820  27.725  1.00  0.00     0.338 C 
ATOM     31  O   UNL A   1      33.954  30.895  27.732  1.00  0.00    -0.246 OA
BRANCH  30  32
ATOM     32  C   UNL A   1      35.918  29.650  28.215  1.00  0.00     0.060 A 
ATOM     33  C   UNL A   1      36.919  29.794  27.258  1.00  0.00     0.016 A 
ATOM     34  C   UNL A   1      36.283  29.329  29.531  1.00  0.00     0.016 A 
ATOM     35  C   UNL A   1      38.258  29.647  27.623  1.00  0.00     0.010 A 
ATOM     36  C   UNL A   1      37.648  29.195  29.892  1.00  0.00     0.010 A 
ATOM     37  C   UNL A   1      38.662  29.378  28.944  1.00  0.00    -0.014 A 
BRANCH  37  38
ATOM     38  C   UNL A   1      40.138  29.177  29.172  1.00  0.00     0.031 A 
ATOM     39  C   UNL A   1      40.721  27.865  28.724  1.00  0.00     0.074 A 
ATOM     40  C   UNL A   1      40.997  30.149  29.560  1.00  0.00     0.049 A 
ATOM     41  N   UNL A   1      41.964  27.549  28.473  1.00  0.00    -0.248 NA
ATOM     42  C   UNL A   1      39.758  26.772  28.509  1.00  0.00     0.031 C 
ATOM     43  C   UNL A   1      40.617  31.476  30.008  1.00  0.00     0.029 A 
ATOM     44  N   UNL A   1      42.380  30.214  29.544  1.00  0.00    -0.354 N 
ATOM     45  C   UNL A   1      41.933  26.225  28.064  1.00  0.00     0.074 A 
ATOM     46  C   UNL A   1      40.547  25.806  28.069  1.00  0.00     0.031 C 
ATOM     47  C   UNL A   1      41.688  32.286  30.009  1.00  0.00     0.029 A 
ATOM     48  C   UNL A   1      42.880  31.496  29.724  1.00  0.00     0.049 A 
ATOM     49  H   UNL A   1      42.954  29.426  29.418  1.00  0.00     0.167 HD
ATOM     50  C   UNL A   1      42.965  25.406  27.758  1.00  0.00     0.031 A 
ATOM     51  C   UNL A   1      44.141  31.984  29.670  1.00  0.00     0.031 A 
ATOM     52  C   UNL A   1      44.352  25.762  27.880  1.00  0.00     0.049 A 
ATOM     53  C   UNL A   1      45.281  31.011  29.477  1.00  0.00     0.074 A 
ATOM     54  C   UNL A   1      45.460  24.969  27.642  1.00  0.00     0.029 A 
ATOM     55  N   UNL A   1      44.823  26.988  28.320  1.00  0.00    -0.354 N 
ATOM     56  N   UNL A   1      45.237  29.731  29.198  1.00  0.00    -0.248 NA
ATOM     57  C   UNL A   1      46.646  31.545  29.613  1.00  0.00     0.031 C 
ATOM     58  C   UNL A   1      46.599  25.692  28.008  1.00  0.00     0.029 A 
ATOM     59  C   UNL A   1      46.208  26.971  28.372  1.00  0.00     0.049 A 
ATOM     60  H   UNL A   1      44.259  27.758  28.560  1.00  0.00     0.167 HD
ATOM     61  C   UNL A   1      46.560  29.321  29.063  1.00  0.00     0.074 A 
ATOM     62  C   UNL A   1      47.385  30.483  29.318  1.00  0.00     0.031 C 
ATOM     63  C   UNL A   1      47.038  28.102  28.711  1.00  0.00     0.031 A 
BRANCH  50  64
ATOM     64  C   UNL A   1      42.606  23.992  27.401  1.00  0.00    -0.014 A 
ATOM     65  C   UNL A   1      42.273  23.045  28.385  1.00  0.00     0.010 A 
ATOM     66  C   UNL A   1      42.654  23.603  26.051  1.00  0.00     0.010 A 
ATOM     67  C   UNL A   1      42.041  21.714  28.025  1.00  0.00     0.020 A 
ATOM     68  C   UNL A   1      42.399  22.281  25.686  1.00  0.00     0.020 A 
ATOM     69  C   UNL A   1      42.114  21.342  26.677  1.00  0.00     0.054 A 
BRANCH  69  70
ATOM     70  S   UNL A   1      41.828  19.608  26.238  1.00  0.00     0.124 S 
ATOM     71  O   UNL A   1      42.360  18.910  27.405  1.00  0.00    -0.237 OA
ATOM     72  O   UNL A   1      40.378  19.552  26.078  1.00  0.00    -0.237 OA
ATOM     73  O   UNL A   1      42.596  19.432  25.007  1.00  0.00    -0.744 OA
ENDBRANCH  69  70
ENDBRANCH  50  64
BRANCH  51  74
ATOM     74  C   UNL A   1      44.435  33.455  29.783  1.00  0.00    -0.014 A 
ATOM     75  C   UNL A   1      44.619  34.051  31.050  1.00  0.00     0.010 A 
ATOM     76  C   UNL A   1      44.485  34.288  28.652  1.00  0.00     0.010 A 
ATOM     77  C   UNL A   1      44.832  35.429  31.183  1.00  0.00     0.020 A 
ATOM     78  C   UNL A   1      44.734  35.663  28.775  1.00  0.00     0.020 A 
ATOM     79  C   UNL A   1      44.892  36.228  30.042  1.00  0.00     0.054 A 
BRANCH  79  80
ATOM     80  S   UNL A   1      45.204  38.007  30.233  1.00  0.00     0.124 S 
ATOM     81  O   UNL A   1      43.876  38.574  30.020  1.00  0.00    -0.237 OA
ATOM     82  O   UNL A   1      45.718  38.092  31.598  1.00  0.00    -0.237 OA
ATOM     83  O   UNL A   1      46.183  38.296  29.187  1.00  0.00    -0.744 OA
ENDBRANCH  79  80
ENDBRANCH  51  74
BRANCH  63  84
ATOM     84  C   UNL A   1      48.533  27.950  28.572  1.00  0.00    -0.014 A 
ATOM     85  C   UNL A   1      49.331  27.449  29.616  1.00  0.00     0.010 A 
ATOM     86  C   UNL A   1      49.144  28.282  27.348  1.00  0.00     0.010 A 
ATOM     87  C   UNL A   1      50.714  27.322  29.450  1.00  0.00     0.020 A 
ATOM     88  C   UNL A   1      50.520  28.122  27.165  1.00  0.00     0.020 A 
ATOM     89  C   UNL A   1      51.299  27.660  28.225  1.00  0.00     0.054 A 
BRANCH  89  90
ATOM     90  S   UNL A   1      53.089  27.452  28.018  1.00  0.00     0.124 S 
ATOM     91  O   UNL A   1      53.173  26.859  26.686  1.00  0.00    -0.237 OA
ATOM     92  O   UNL A   1      53.587  28.821  28.129  1.00  0.00    -0.237 OA
ATOM     93  O   UNL A   1      53.465  26.569  29.120  1.00  0.00    -0.744 OA
ENDBRANCH  89  90
ENDBRANCH  63  84
ENDBRANCH  37  38
ENDBRANCH  30  32
ENDBRANCH  29  30
ENDBRANCH   1  29
TORSDOF 17
ENDMDL
MODEL 3
REMARK VINA RESULT:     -12.0      1.437      1.862
REMARK SMILES CCc1ccc(-c2cc(Cl)cc3c2O[C@H](C(F)(F)F)C(C(=O)OCCOC(=O)c2ccc(-c4c5nc(c(-c6ccc(S(=O)(=O)[O-])cc6)c6ccc([nH]6)c(-c6ccc(S(=O)(=O)[O-])cc6)c6nc(c(-c7ccc(S(=O)(=O)[O-])cc7)c7ccc4[nH]7)C=C6)C=C5)cc2)=C3)cc1
REMARK SMILES IDX 25 1 24 2 23 3 21 4 22 5 20 6 7 7 8 8 13 9 9 10 12 11 14 12
REMARK SMILES IDX 10 13 11 14 89 15 15 16 6 17 3 18 4 19 91 20 5 21 90 22 2 23
REMARK SMILES IDX 1 24 16 25 17 26 18 27 19 28 26 29 27 30 28 31 29 32 30 33
REMARK SMILES IDX 88 34 31 35 87 36 32 37 33 38 34 39 81 40 35 41 86 42 80 43
REMARK SMILES IDX 82 44 36 45 85 46 79 47 78 48 37 50 67 51 48 52 66 53 49 54
REMARK SMILES IDX 52 55 65 56 83 57 50 58 51 59 64 61 84 62 53 63 38 64 39 65
REMARK SMILES IDX 47 66 40 67 46 68 41 69 42 70 43 71 44 72 45 73 68 74 69 75
REMARK SMILES IDX 77 76 70 77 76 78 71 79 72 80 73 81 74 82 75 83 54 84 55 85
REMARK SMILES IDX 63 86 56 87 62 88 57 89 58 90 59 91 60 92 61 93
REMARK H PARENT 82 49 52 60
REMARK Flexibility Score: inf
ROOT
ATOM      1  C   UNL A   1      32.254  30.115  25.768  1.00  0.00     0.275 C 
ENDROOT
BRANCH   1   2
ATOM      2  C   UNL A   1      31.924  28.928  24.860  1.00  0.00     0.275 C 
BRANCH   2   3
ATOM      3  O   UNL A   1      32.613  27.718  25.249  1.00  0.00    -0.459 OA
BRANCH   3   4
ATOM      4  C   UNL A   1      33.328  27.179  24.230  1.00  0.00     0.338 C 
ATOM      5  O   UNL A   1      34.441  27.562  23.886  1.00  0.00    -0.246 OA
BRANCH   4   6
ATOM      6  C   UNL A   1      32.692  25.986  23.629  1.00  0.00     0.087 C 
ATOM      7  C   UNL A   1      33.449  22.128  24.796  1.00  0.00     0.026 A 
ATOM      8  C   UNL A   1      34.782  22.167  25.279  1.00  0.00     0.033 A 
ATOM      9  C   UNL A   1      33.023  23.298  24.169  1.00  0.00     0.135 A 
ATOM     10  C   UNL A   1      35.674  23.213  25.027  1.00  0.00     0.042 A 
ATOM     11  C   UNL A   1      33.999  24.216  23.707  1.00  0.00     0.019 A 
ATOM     12  O   UNL A   1      31.702  23.702  24.047  1.00  0.00    -0.475 OA
ATOM     13  Cl  UNL A   1      37.239  23.297  25.722  1.00  0.00    -0.084 Cl
ATOM     14  C   UNL A   1      35.307  24.205  24.156  1.00  0.00     0.032 A 
ATOM     15  C   UNL A   1      33.557  25.326  22.845  1.00  0.00     0.027 C 
ATOM     16  C   UNL A   1      31.558  25.189  24.251  1.00  0.00     0.316 C 
BRANCH   7  17
ATOM     17  C   UNL A   1      32.849  20.758  24.803  1.00  0.00    -0.015 A 
ATOM     18  C   UNL A   1      32.788  17.902  24.421  1.00  0.00    -0.048 A 
ATOM     19  C   UNL A   1      32.902  18.463  25.698  1.00  0.00     0.004 A 
ATOM     20  C   UNL A   1      32.585  18.782  23.354  1.00  0.00     0.004 A 
ATOM     21  C   UNL A   1      32.901  19.869  25.886  1.00  0.00     0.009 A 
ATOM     22  C   UNL A   1      32.613  20.174  23.541  1.00  0.00     0.009 A 
BRANCH  18  23
ATOM     23  C   UNL A   1      32.873  16.420  24.117  1.00  0.00     0.032 C 
ATOM     24  C   UNL A   1      32.865  15.442  25.283  1.00  0.00     0.009 C 
ENDBRANCH  18  23
ENDBRANCH   7  17
BRANCH  16  25
ATOM     25  C   UNL A   1      30.272  25.705  23.596  1.00  0.00     0.430 C 
ATOM     26  F   UNL A   1      30.533  26.566  22.581  1.00  0.00    -0.167 F 
ATOM     27  F   UNL A   1      29.505  24.709  23.103  1.00  0.00    -0.167 F 
ATOM     28  F   UNL A   1      29.508  26.381  24.494  1.00  0.00    -0.167 F 
ENDBRANCH  16  25
ENDBRANCH   4   6
ENDBRANCH   3   4
ENDBRANCH   2   3
ENDBRANCH   1   2
BRANCH   1  29
ATOM     29  O   UNL A   1      33.478  29.896  26.497  1.00  0.00    -0.458 OA
BRANCH  29  30
ATOM     30  C   UNL A   1      33.870  30.970  27.234  1.00  0.00     0.338 C 
ATOM     31  O   UNL A   1      33.184  31.941  27.486  1.00  0.00    -0.246 OA
BRANCH  30  32
ATOM     32  C   UNL A   1      35.232  30.782  27.807  1.00  0.00     0.060 A 
ATOM     33  C   UNL A   1      35.546  29.489  28.215  1.00  0.00     0.016 A 
ATOM     34  C   UNL A   1      36.182  31.798  27.990  1.00  0.00     0.016 A 
ATOM     35  C   UNL A   1      36.799  29.218  28.769  1.00  0.00     0.010 A 
ATOM     36  C   UNL A   1      37.456  31.507  28.542  1.00  0.00     0.010 A 
ATOM     37  C   UNL A   1      37.794  30.202  28.919  1.00  0.00    -0.014 A 
BRANCH  37  38
ATOM     38  C   UNL A   1      39.070  29.775  29.597  1.00  0.00     0.031 A 
ATOM     39  C   UNL A   1      39.196  30.085  31.063  1.00  0.00     0.074 A 
ATOM     40  C   UNL A   1      40.007  28.971  29.039  1.00  0.00     0.049 A 
ATOM     41  N   UNL A   1      39.985  29.557  31.961  1.00  0.00    -0.248 NA
ATOM     42  C   UNL A   1      38.286  31.120  31.582  1.00  0.00     0.031 C 
ATOM     43  C   UNL A   1      40.037  28.555  27.650  1.00  0.00     0.029 A 
ATOM     44  N   UNL A   1      41.063  28.269  29.594  1.00  0.00    -0.354 N 
ATOM     45  C   UNL A   1      39.662  30.187  33.153  1.00  0.00     0.074 A 
ATOM     46  C   UNL A   1      38.585  31.114  32.870  1.00  0.00     0.031 C 
ATOM     47  C   UNL A   1      40.886  27.526  27.496  1.00  0.00     0.029 A 
ATOM     48  C   UNL A   1      41.599  27.309  28.749  1.00  0.00     0.049 A 
ATOM     49  H   UNL A   1      41.403  28.436  30.502  1.00  0.00     0.167 HD
ATOM     50  C   UNL A   1      40.238  30.052  34.368  1.00  0.00     0.031 A 
ATOM     51  C   UNL A   1      42.551  26.366  28.948  1.00  0.00     0.031 A 
ATOM     52  C   UNL A   1      41.394  29.241  34.636  1.00  0.00     0.049 A 
ATOM     53  C   UNL A   1      43.278  26.347  30.272  1.00  0.00     0.074 A 
ATOM     54  C   UNL A   1      42.073  29.094  35.832  1.00  0.00     0.029 A 
ATOM     55  N   UNL A   1      42.073  28.486  33.694  1.00  0.00    -0.354 N 
ATOM     56  N   UNL A   1      43.029  27.033  31.361  1.00  0.00    -0.248 NA
ATOM     57  C   UNL A   1      44.431  25.440  30.389  1.00  0.00     0.031 C 
ATOM     58  C   UNL A   1      43.205  28.307  35.596  1.00  0.00     0.029 A 
ATOM     59  C   UNL A   1      43.172  27.877  34.279  1.00  0.00     0.049 A 
ATOM     60  H   UNL A   1      41.813  28.394  32.749  1.00  0.00     0.167 HD
ATOM     61  C   UNL A   1      43.951  26.598  32.309  1.00  0.00     0.074 A 
ATOM     62  C   UNL A   1      44.781  25.607  31.658  1.00  0.00     0.031 C 
ATOM     63  C   UNL A   1      44.060  26.954  33.612  1.00  0.00     0.031 A 
BRANCH  50  64
ATOM     64  C   UNL A   1      39.694  30.926  35.461  1.00  0.00    -0.014 A 
ATOM     65  C   UNL A   1      40.347  32.108  35.855  1.00  0.00     0.010 A 
ATOM     66  C   UNL A   1      38.529  30.519  36.134  1.00  0.00     0.010 A 
ATOM     67  C   UNL A   1      39.865  32.844  36.941  1.00  0.00     0.020 A 
ATOM     68  C   UNL A   1      38.032  31.265  37.203  1.00  0.00     0.020 A 
ATOM     69  C   UNL A   1      38.715  32.411  37.611  1.00  0.00     0.054 A 
BRANCH  69  70
ATOM     70  S   UNL A   1      38.122  33.372  39.029  1.00  0.00     0.124 S 
ATOM     71  O   UNL A   1      38.899  32.800  40.125  1.00  0.00    -0.237 OA
ATOM     72  O   UNL A   1      38.470  34.740  38.656  1.00  0.00    -0.237 OA
ATOM     73  O   UNL A   1      36.690  33.083  39.068  1.00  0.00    -0.744 OA
ENDBRANCH  69  70
ENDBRANCH  50  64
BRANCH  51  74
ATOM     74  C   UNL A   1      42.892  25.340  27.902  1.00  0.00    -0.014 A 
ATOM     75  C   UNL A   1      42.297  24.060  27.937  1.00  0.00     0.010 A 
ATOM     76  C   UNL A   1      43.839  25.596  26.896  1.00  0.00     0.010 A 
ATOM     77  C   UNL A   1      42.645  23.068  27.010  1.00  0.00     0.020 A 
ATOM     78  C   UNL A   1      44.166  24.621  25.943  1.00  0.00     0.020 A 
ATOM     79  C   UNL A   1      43.577  23.357  26.014  1.00  0.00     0.054 A 
BRANCH  79  80
ATOM     80  S   UNL A   1      43.989  22.070  24.802  1.00  0.00     0.124 S 
ATOM     81  O   UNL A   1      43.718  22.745  23.536  1.00  0.00    -0.237 OA
ATOM     82  O   UNL A   1      45.396  21.804  25.090  1.00  0.00    -0.237 OA
ATOM     83  O   UNL A   1      43.075  20.980  25.137  1.00  0.00    -0.744 OA
ENDBRANCH  79  80
ENDBRANCH  51  74
BRANCH  63  84
ATOM     84  C   UNL A   1      45.118  26.267  34.440  1.00  0.00    -0.014 A 
ATOM     85  C   UNL A   1      44.870  25.055  35.108  1.00  0.00     0.010 A 
ATOM     86  C   UNL A   1      46.404  26.833  34.514  1.00  0.00     0.010 A 
ATOM     87  C   UNL A   1      45.876  24.446  35.866  1.00  0.00     0.020 A 
ATOM     88  C   UNL A   1      47.423  26.210  35.239  1.00  0.00     0.020 A 
ATOM     89  C   UNL A   1      47.146  25.029  35.927  1.00  0.00     0.054 A 
BRANCH  89  90
ATOM     90  S   UNL A   1      48.447  24.203  36.884  1.00  0.00     0.124 S 
ATOM     91  O   UNL A   1      49.642  24.930  36.462  1.00  0.00    -0.237 OA
ATOM     92  O   UNL A   1      48.026  24.434  38.264  1.00  0.00    -0.237 OA
ATOM     93  O   UNL A   1      48.373  22.813  36.442  1.00  0.00    -0.744 OA
ENDBRANCH  89  90
ENDBRANCH  63  84
ENDBRANCH  37  38
ENDBRANCH  30  32
ENDBRANCH  29  30
ENDBRANCH   1  29
TORSDOF 17
ENDMDL
