MODEL 1
REMARK VINA RESULT:     -11.3      0.000      0.000
REMARK SMILES Cc1cc(OC(F)(F)F)cc2c1O[C@H](C(F)(F)F)C(C(=O)OCCOC(=O)c1ccc(-c3c4nc(c(-c5ccc(S(=O)(=O)[O-])cc5)c5ccc([nH]5)c(-c5ccc(S(=O)(=O)[O-])cc5)c5nc(c(-c6ccc(S(=O)(=O)[O-])cc6)c6ccc3[nH]6)C=C5)C=C4)cc1)=C2
REMARK SMILES IDX 24 1 23 2 22 3 20 4 21 5 19 6 1 7 2 8 3 9 12 10 4 11 11 12
REMARK SMILES IDX 13 13 10 14 88 15 14 16 5 17 6 18 7 19 8 20 9 21 15 22 16 23
REMARK SMILES IDX 17 24 18 25 25 26 26 27 27 28 28 29 29 30 87 31 30 32 86 33
REMARK SMILES IDX 31 34 32 35 33 36 80 37 34 38 85 39 79 40 81 41 35 42 84 43
REMARK SMILES IDX 78 44 77 45 36 47 66 48 47 49 65 50 48 51 51 52 64 53 82 54
REMARK SMILES IDX 49 55 50 56 63 58 83 59 52 60 37 61 38 62 46 63 39 64 45 65
REMARK SMILES IDX 40 66 41 67 42 68 43 69 44 70 67 71 68 72 76 73 69 74 75 75
REMARK SMILES IDX 70 76 71 77 72 78 73 79 74 80 53 81 54 82 62 83 55 84 61 85
REMARK SMILES IDX 56 86 57 87 58 88 59 89 60 90
REMARK H PARENT 81 46 51 57
REMARK Flexibility Score: inf
ROOT
ATOM      1  C   UNL A   1      33.241  29.061  27.249  1.00  0.00     0.275 C 
ENDROOT
BRANCH   1   2
ATOM      2  C   UNL A   1      32.338  28.671  26.079  1.00  0.00     0.275 C 
BRANCH   2   3
ATOM      3  O   UNL A   1      32.524  27.288  25.712  1.00  0.00    -0.459 OA
BRANCH   3   4
ATOM      4  C   UNL A   1      31.636  26.418  26.253  1.00  0.00     0.338 C 
ATOM      5  O   UNL A   1      30.634  26.702  26.883  1.00  0.00    -0.246 OA
BRANCH   4   6
ATOM      6  C   UNL A   1      32.037  25.029  25.957  1.00  0.00     0.087 C 
ATOM      7  C   UNL A   1      32.411  20.294  24.035  1.00  0.00     0.048 C 
ATOM      8  C   UNL A   1      33.318  21.220  24.795  1.00  0.00    -0.005 A 
ATOM      9  C   UNL A   1      34.654  20.846  25.040  1.00  0.00     0.054 A 
ATOM     10  C   UNL A   1      32.861  22.475  25.221  1.00  0.00     0.131 A 
ATOM     11  C   UNL A   1      35.522  21.702  25.718  1.00  0.00     0.130 A 
ATOM     12  C   UNL A   1      33.733  23.340  25.879  1.00  0.00     0.021 A 
ATOM     13  O   UNL A   1      31.552  22.785  24.973  1.00  0.00    -0.475 OA
ATOM     14  C   UNL A   1      35.052  22.946  26.140  1.00  0.00     0.058 A 
ATOM     15  C   UNL A   1      33.287  24.666  26.258  1.00  0.00     0.027 C 
ATOM     16  C   UNL A   1      31.073  24.133  25.236  1.00  0.00     0.316 C 
BRANCH  11  17
ATOM     17  O   UNL A   1      36.830  21.465  26.026  1.00  0.00    -0.406 OA
BRANCH  17  18
ATOM     18  C   UNL A   1      37.754  21.332  24.961  1.00  0.00     0.573 C 
ATOM     19  F   UNL A   1      38.982  21.756  25.326  1.00  0.00    -0.132 F 
ATOM     20  F   UNL A   1      37.833  20.046  24.548  1.00  0.00    -0.132 F 
ATOM     21  F   UNL A   1      37.337  22.081  23.919  1.00  0.00    -0.132 F 
ENDBRANCH  17  18
ENDBRANCH  11  17
BRANCH  16  22
ATOM     22  C   UNL A   1      30.624  24.754  23.904  1.00  0.00     0.430 C 
ATOM     23  F   UNL A   1      31.650  25.390  23.286  1.00  0.00    -0.167 F 
ATOM     24  F   UNL A   1      30.182  23.813  23.033  1.00  0.00    -0.167 F 
ATOM     25  F   UNL A   1      29.630  25.655  24.065  1.00  0.00    -0.167 F 
ENDBRANCH  16  22
ENDBRANCH   4   6
ENDBRANCH   3   4
ENDBRANCH   2   3
ENDBRANCH   1   2
BRANCH   1  26
ATOM     26  O   UNL A   1      33.919  30.299  26.975  1.00  0.00    -0.458 OA
BRANCH  26  27
ATOM     27  C   UNL A   1      34.608  30.813  28.019  1.00  0.00     0.338 C 
ATOM     28  O   UNL A   1      34.256  31.709  28.767  1.00  0.00    -0.246 OA
BRANCH  27  29
ATOM     29  C   UNL A   1      35.876  30.092  28.196  1.00  0.00     0.060 A 
ATOM     30  C   UNL A   1      36.193  29.580  29.450  1.00  0.00     0.016 A 
ATOM     31  C   UNL A   1      36.827  30.099  27.178  1.00  0.00     0.016 A 
ATOM     32  C   UNL A   1      37.505  29.220  29.741  1.00  0.00     0.010 A 
ATOM     33  C   UNL A   1      38.112  29.611  27.437  1.00  0.00     0.010 A 
ATOM     34  C   UNL A   1      38.482  29.219  28.736  1.00  0.00    -0.014 A 
BRANCH  34  35
ATOM     35  C   UNL A   1      39.887  28.837  29.046  1.00  0.00     0.031 A 
ATOM     36  C   UNL A   1      40.806  29.819  29.731  1.00  0.00     0.074 A 
ATOM     37  C   UNL A   1      40.340  27.607  28.727  1.00  0.00     0.049 A 
ATOM     38  N   UNL A   1      42.096  29.733  29.933  1.00  0.00    -0.248 NA
ATOM     39  C   UNL A   1      40.204  31.061  30.248  1.00  0.00     0.031 C 
ATOM     40  C   UNL A   1      39.542  26.540  28.116  1.00  0.00     0.029 A 
ATOM     41  N   UNL A   1      41.581  27.040  28.879  1.00  0.00    -0.354 N 
ATOM     42  C   UNL A   1      42.466  30.921  30.555  1.00  0.00     0.074 A 
ATOM     43  C   UNL A   1      41.267  31.719  30.693  1.00  0.00     0.031 C 
ATOM     44  C   UNL A   1      40.298  25.441  27.986  1.00  0.00     0.029 A 
ATOM     45  C   UNL A   1      41.657  25.749  28.412  1.00  0.00     0.049 A 
ATOM     46  H   UNL A   1      42.343  27.513  29.285  1.00  0.00     0.167 HD
ATOM     47  C   UNL A   1      43.693  31.310  30.973  1.00  0.00     0.031 A 
ATOM     48  C   UNL A   1      42.707  24.914  28.291  1.00  0.00     0.031 A 
ATOM     49  C   UNL A   1      44.873  30.494  30.870  1.00  0.00     0.049 A 
ATOM     50  C   UNL A   1      44.069  25.389  28.704  1.00  0.00     0.074 A 
ATOM     51  C   UNL A   1      46.162  30.798  31.275  1.00  0.00     0.029 A 
ATOM     52  N   UNL A   1      44.909  29.213  30.343  1.00  0.00    -0.354 N 
ATOM     53  N   UNL A   1      44.408  26.541  29.231  1.00  0.00    -0.248 NA
ATOM     54  C   UNL A   1      45.191  24.465  28.492  1.00  0.00     0.031 C 
ATOM     55  C   UNL A   1      46.986  29.717  30.950  1.00  0.00     0.029 A 
ATOM     56  C   UNL A   1      46.201  28.720  30.394  1.00  0.00     0.049 A 
ATOM     57  H   UNL A   1      44.132  28.727  29.985  1.00  0.00     0.167 HD
ATOM     58  C   UNL A   1      45.781  26.475  29.426  1.00  0.00     0.074 A 
ATOM     59  C   UNL A   1      46.210  25.169  28.969  1.00  0.00     0.031 C 
ATOM     60  C   UNL A   1      46.609  27.417  29.938  1.00  0.00     0.031 A 
BRANCH  47  61
ATOM     61  C   UNL A   1      43.848  32.686  31.562  1.00  0.00    -0.014 A 
ATOM     62  C   UNL A   1      43.929  32.879  32.952  1.00  0.00     0.010 A 
ATOM     63  C   UNL A   1      44.026  33.788  30.704  1.00  0.00     0.010 A 
ATOM     64  C   UNL A   1      44.181  34.153  33.473  1.00  0.00     0.020 A 
ATOM     65  C   UNL A   1      44.299  35.057  31.220  1.00  0.00     0.020 A 
ATOM     66  C   UNL A   1      44.376  35.231  32.603  1.00  0.00     0.054 A 
BRANCH  66  67
ATOM     67  S   UNL A   1      44.752  36.859  33.311  1.00  0.00     0.124 S 
ATOM     68  O   UNL A   1      43.670  37.682  32.779  1.00  0.00    -0.237 OA
ATOM     69  O   UNL A   1      44.695  36.596  34.746  1.00  0.00    -0.237 OA
ATOM     70  O   UNL A   1      46.080  37.170  32.786  1.00  0.00    -0.744 OA
ENDBRANCH  66  67
ENDBRANCH  47  61
BRANCH  48  71
ATOM     71  C   UNL A   1      42.501  23.560  27.711  1.00  0.00    -0.014 A 
ATOM     72  C   UNL A   1      42.720  23.328  26.343  1.00  0.00     0.010 A 
ATOM     73  C   UNL A   1      42.143  22.479  28.540  1.00  0.00     0.010 A 
ATOM     74  C   UNL A   1      42.591  22.039  25.816  1.00  0.00     0.020 A 
ATOM     75  C   UNL A   1      42.039  21.186  28.023  1.00  0.00     0.020 A 
ATOM     76  C   UNL A   1      42.264  20.974  26.662  1.00  0.00     0.054 A 
BRANCH  76  77
ATOM     77  S   UNL A   1      42.164  19.304  25.960  1.00  0.00     0.124 S 
ATOM     78  O   UNL A   1      43.043  19.405  24.799  1.00  0.00    -0.237 OA
ATOM     79  O   UNL A   1      42.658  18.480  27.059  1.00  0.00    -0.237 OA
ATOM     80  O   UNL A   1      40.744  19.144  25.654  1.00  0.00    -0.744 OA
ENDBRANCH  76  77
ENDBRANCH  48  71
BRANCH  60  81
ATOM     81  C   UNL A   1      48.066  27.073  30.067  1.00  0.00    -0.014 A 
ATOM     82  C   UNL A   1      48.986  27.446  29.072  1.00  0.00     0.010 A 
ATOM     83  C   UNL A   1      48.533  26.475  31.252  1.00  0.00     0.010 A 
ATOM     84  C   UNL A   1      50.352  27.224  29.261  1.00  0.00     0.020 A 
ATOM     85  C   UNL A   1      49.899  26.272  31.453  1.00  0.00     0.020 A 
ATOM     86  C   UNL A   1      50.801  26.649  30.456  1.00  0.00     0.054 A 
BRANCH  86  87
ATOM     87  S   UNL A   1      52.584  26.433  30.695  1.00  0.00     0.124 S 
ATOM     88  O   UNL A   1      52.638  25.296  31.611  1.00  0.00    -0.237 OA
ATOM     89  O   UNL A   1      53.053  26.169  29.338  1.00  0.00    -0.237 OA
ATOM     90  O   UNL A   1      53.017  27.707  31.265  1.00  0.00    -0.744 OA
ENDBRANCH  86  87
ENDBRANCH  60  81
ENDBRANCH  34  35
ENDBRANCH  27  29
ENDBRANCH  26  27
ENDBRANCH   1  26
TORSDOF 17
ENDMDL
MODEL 2
REMARK VINA RESULT:     -10.9      5.082     10.751
REMARK SMILES Cc1cc(OC(F)(F)F)cc2c1O[C@H](C(F)(F)F)C(C(=O)OCCOC(=O)c1ccc(-c3c4nc(c(-c5ccc(S(=O)(=O)[O-])cc5)c5ccc([nH]5)c(-c5ccc(S(=O)(=O)[O-])cc5)c5nc(c(-c6ccc(S(=O)(=O)[O-])cc6)c6ccc3[nH]6)C=C5)C=C4)cc1)=C2
REMARK SMILES IDX 24 1 23 2 22 3 20 4 21 5 19 6 1 7 2 8 3 9 12 10 4 11 11 12
REMARK SMILES IDX 13 13 10 14 88 15 14 16 5 17 6 18 7 19 8 20 9 21 15 22 16 23
REMARK SMILES IDX 17 24 18 25 25 26 26 27 27 28 28 29 29 30 87 31 30 32 86 33
REMARK SMILES IDX 31 34 32 35 33 36 80 37 34 38 85 39 79 40 81 41 35 42 84 43
REMARK SMILES IDX 78 44 77 45 36 47 66 48 47 49 65 50 48 51 51 52 64 53 82 54
REMARK SMILES IDX 49 55 50 56 63 58 83 59 52 60 37 61 38 62 46 63 39 64 45 65
REMARK SMILES IDX 40 66 41 67 42 68 43 69 44 70 67 71 68 72 76 73 69 74 75 75
REMARK SMILES IDX 70 76 71 77 72 78 73 79 74 80 53 81 54 82 62 83 55 84 61 85
REMARK SMILES IDX 56 86 57 87 58 88 59 89 60 90
REMARK H PARENT 81 46 51 57
REMARK Flexibility Score: inf
ROOT
ATOM      1  C   UNL A   1      39.417  23.429  26.506  1.00  0.00     0.275 C 
ENDROOT
BRANCH   1   2
ATOM      2  C   UNL A   1      38.270  22.723  25.782  1.00  0.00     0.275 C 
BRANCH   2   3
ATOM      3  O   UNL A   1      37.306  23.671  25.279  1.00  0.00    -0.459 OA
BRANCH   3   4
ATOM      4  C   UNL A   1      36.441  23.185  24.354  1.00  0.00     0.338 C 
ATOM      5  O   UNL A   1      36.724  22.526  23.372  1.00  0.00    -0.246 OA
BRANCH   4   6
ATOM      6  C   UNL A   1      35.056  23.552  24.708  1.00  0.00     0.087 C 
ATOM      7  C   UNL A   1      30.249  23.581  26.481  1.00  0.00     0.048 C 
ATOM      8  C   UNL A   1      31.247  24.624  26.068  1.00  0.00    -0.005 A 
ATOM      9  C   UNL A   1      30.941  25.990  26.230  1.00  0.00     0.054 A 
ATOM     10  C   UNL A   1      32.503  24.251  25.568  1.00  0.00     0.131 A 
ATOM     11  C   UNL A   1      31.865  26.975  25.880  1.00  0.00     0.130 A 
ATOM     12  C   UNL A   1      33.435  25.233  25.240  1.00  0.00     0.021 A 
ATOM     13  O   UNL A   1      32.747  22.913  25.415  1.00  0.00    -0.475 OA
ATOM     14  C   UNL A   1      33.109  26.588  25.381  1.00  0.00     0.058 A 
ATOM     15  C   UNL A   1      34.759  24.853  24.791  1.00  0.00     0.027 C 
ATOM     16  C   UNL A   1      34.086  22.465  25.068  1.00  0.00     0.316 C 
BRANCH  11  17
ATOM     17  O   UNL A   1      31.697  28.326  25.979  1.00  0.00    -0.406 OA
BRANCH  17  18
ATOM     18  C   UNL A   1      31.901  28.934  27.241  1.00  0.00     0.573 C 
ATOM     19  F   UNL A   1      31.580  30.245  27.207  1.00  0.00    -0.132 F 
ATOM     20  F   UNL A   1      31.165  28.322  28.197  1.00  0.00    -0.132 F 
ATOM     21  F   UNL A   1      33.203  28.823  27.580  1.00  0.00    -0.132 F 
ENDBRANCH  17  18
ENDBRANCH  11  17
BRANCH  16  22
ATOM     22  C   UNL A   1      34.620  21.600  26.220  1.00  0.00     0.430 C 
ATOM     23  F   UNL A   1      35.139  22.366  27.211  1.00  0.00    -0.167 F 
ATOM     24  F   UNL A   1      33.638  20.857  26.789  1.00  0.00    -0.167 F 
ATOM     25  F   UNL A   1      35.590  20.749  25.818  1.00  0.00    -0.167 F 
ENDBRANCH  16  22
ENDBRANCH   4   6
ENDBRANCH   3   4
ENDBRANCH   2   3
ENDBRANCH   1   2
BRANCH   1  26
ATOM     26  O   UNL A   1      38.980  24.691  27.036  1.00  0.00    -0.458 OA
BRANCH  26  27
ATOM     27  C   UNL A   1      39.881  25.694  26.932  1.00  0.00     0.338 C 
ATOM     28  O   UNL A   1      40.741  25.829  26.077  1.00  0.00    -0.246 OA
BRANCH  27  29
ATOM     29  C   UNL A   1      39.660  26.689  27.990  1.00  0.00     0.060 A 
ATOM     30  C   UNL A   1      40.199  27.963  27.842  1.00  0.00     0.016 A 
ATOM     31  C   UNL A   1      39.097  26.300  29.203  1.00  0.00     0.016 A 
ATOM     32  C   UNL A   1      40.320  28.797  28.948  1.00  0.00     0.010 A 
ATOM     33  C   UNL A   1      39.100  27.194  30.278  1.00  0.00     0.010 A 
ATOM     34  C   UNL A   1      39.762  28.430  30.181  1.00  0.00    -0.014 A 
BRANCH  34  35
ATOM     35  C   UNL A   1      39.894  29.320  31.367  1.00  0.00     0.031 A 
ATOM     36  C   UNL A   1      41.067  29.166  32.304  1.00  0.00     0.074 A 
ATOM     37  C   UNL A   1      38.971  30.276  31.601  1.00  0.00     0.049 A 
ATOM     38  N   UNL A   1      41.267  29.730  33.469  1.00  0.00    -0.248 NA
ATOM     39  C   UNL A   1      42.151  28.260  31.887  1.00  0.00     0.031 C 
ATOM     40  C   UNL A   1      37.819  30.572  30.744  1.00  0.00     0.029 A 
ATOM     41  N   UNL A   1      38.858  31.183  32.626  1.00  0.00    -0.354 N 
ATOM     42  C   UNL A   1      42.469  29.213  33.942  1.00  0.00     0.074 A 
ATOM     43  C   UNL A   1      42.953  28.284  32.943  1.00  0.00     0.031 C 
ATOM     44  C   UNL A   1      37.144  31.612  31.254  1.00  0.00     0.029 A 
ATOM     45  C   UNL A   1      37.754  31.996  32.521  1.00  0.00     0.049 A 
ATOM     46  H   UNL A   1      39.505  31.244  33.364  1.00  0.00     0.167 HD
ATOM     47  C   UNL A   1      43.109  29.488  35.102  1.00  0.00     0.031 A 
ATOM     48  C   UNL A   1      37.254  32.920  33.365  1.00  0.00     0.031 A 
ATOM     49  C   UNL A   1      42.642  30.444  36.070  1.00  0.00     0.049 A 
ATOM     50  C   UNL A   1      37.946  33.163  34.673  1.00  0.00     0.074 A 
ATOM     51  C   UNL A   1      43.227  30.799  37.273  1.00  0.00     0.029 A 
ATOM     52  N   UNL A   1      41.492  31.206  35.943  1.00  0.00    -0.354 N 
ATOM     53  N   UNL A   1      39.047  32.617  35.130  1.00  0.00    -0.248 NA
ATOM     54  C   UNL A   1      37.325  34.131  35.587  1.00  0.00     0.031 C 
ATOM     55  C   UNL A   1      42.406  31.744  37.895  1.00  0.00     0.029 A 
ATOM     56  C   UNL A   1      41.340  32.017  37.054  1.00  0.00     0.049 A 
ATOM     57  H   UNL A   1      40.875  31.175  35.176  1.00  0.00     0.167 HD
ATOM     58  C   UNL A   1      39.258  33.185  36.380  1.00  0.00     0.074 A 
ATOM     59  C   UNL A   1      38.178  34.123  36.604  1.00  0.00     0.031 C 
ATOM     60  C   UNL A   1      40.260  32.947  37.259  1.00  0.00     0.031 A 
BRANCH  47  61
ATOM     61  C   UNL A   1      44.375  28.739  35.418  1.00  0.00    -0.014 A 
ATOM     62  C   UNL A   1      44.342  27.493  36.068  1.00  0.00     0.010 A 
ATOM     63  C   UNL A   1      45.607  29.241  34.959  1.00  0.00     0.010 A 
ATOM     64  C   UNL A   1      45.521  26.765  36.257  1.00  0.00     0.020 A 
ATOM     65  C   UNL A   1      46.784  28.506  35.126  1.00  0.00     0.020 A 
ATOM     66  C   UNL A   1      46.733  27.271  35.774  1.00  0.00     0.054 A 
BRANCH  66  67
ATOM     67  S   UNL A   1      48.235  26.276  35.989  1.00  0.00     0.124 S 
ATOM     68  O   UNL A   1      48.696  26.699  37.309  1.00  0.00    -0.237 OA
ATOM     69  O   UNL A   1      47.720  24.912  35.910  1.00  0.00    -0.237 OA
ATOM     70  O   UNL A   1      49.088  26.686  34.876  1.00  0.00    -0.744 OA
ENDBRANCH  66  67
ENDBRANCH  47  61
BRANCH  48  71
ATOM     71  C   UNL A   1      36.004  33.640  33.003  1.00  0.00    -0.014 A 
ATOM     72  C   UNL A   1      34.750  33.045  33.215  1.00  0.00     0.010 A 
ATOM     73  C   UNL A   1      36.063  34.954  32.499  1.00  0.00     0.010 A 
ATOM     74  C   UNL A   1      33.576  33.753  32.936  1.00  0.00     0.020 A 
ATOM     75  C   UNL A   1      34.893  35.673  32.244  1.00  0.00     0.020 A 
ATOM     76  C   UNL A   1      33.656  35.067  32.465  1.00  0.00     0.054 A 
BRANCH  76  77
ATOM     77  S   UNL A   1      32.116  35.981  32.171  1.00  0.00     0.124 S 
ATOM     78  O   UNL A   1      32.362  37.235  32.876  1.00  0.00    -0.237 OA
ATOM     79  O   UNL A   1      32.085  36.070  30.714  1.00  0.00    -0.237 OA
ATOM     80  O   UNL A   1      31.089  35.125  32.761  1.00  0.00    -0.744 OA
ENDBRANCH  76  77
ENDBRANCH  48  71
BRANCH  60  81
ATOM     81  C   UNL A   1      40.267  33.728  38.543  1.00  0.00    -0.014 A 
ATOM     82  C   UNL A   1      40.976  34.937  38.648  1.00  0.00     0.010 A 
ATOM     83  C   UNL A   1      39.459  33.305  39.613  1.00  0.00     0.010 A 
ATOM     84  C   UNL A   1      40.877  35.709  39.807  1.00  0.00     0.020 A 
ATOM     85  C   UNL A   1      39.339  34.085  40.764  1.00  0.00     0.020 A 
ATOM     86  C   UNL A   1      40.049  35.284  40.853  1.00  0.00     0.054 A 
BRANCH  86  87
ATOM     87  S   UNL A   1      39.893  36.342  42.317  1.00  0.00     0.124 S 
ATOM     88  O   UNL A   1      39.673  37.659  41.724  1.00  0.00    -0.237 OA
ATOM     89  O   UNL A   1      38.742  35.762  43.002  1.00  0.00    -0.237 OA
ATOM     90  O   UNL A   1      41.173  36.178  43.004  1.00  0.00    -0.744 OA
ENDBRANCH  86  87
ENDBRANCH  60  81
ENDBRANCH  34  35
ENDBRANCH  27  29
ENDBRANCH  26  27
ENDBRANCH   1  26
TORSDOF 17
ENDMDL
MODEL 3
REMARK VINA RESULT:     -10.9      2.977      9.307
REMARK SMILES Cc1cc(OC(F)(F)F)cc2c1O[C@H](C(F)(F)F)C(C(=O)OCCOC(=O)c1ccc(-c3c4nc(c(-c5ccc(S(=O)(=O)[O-])cc5)c5ccc([nH]5)c(-c5ccc(S(=O)(=O)[O-])cc5)c5nc(c(-c6ccc(S(=O)(=O)[O-])cc6)c6ccc3[nH]6)C=C5)C=C4)cc1)=C2
REMARK SMILES IDX 24 1 23 2 22 3 20 4 21 5 19 6 1 7 2 8 3 9 12 10 4 11 11 12
REMARK SMILES IDX 13 13 10 14 88 15 14 16 5 17 6 18 7 19 8 20 9 21 15 22 16 23
REMARK SMILES IDX 17 24 18 25 25 26 26 27 27 28 28 29 29 30 87 31 30 32 86 33
REMARK SMILES IDX 31 34 32 35 33 36 80 37 34 38 85 39 79 40 81 41 35 42 84 43
REMARK SMILES IDX 78 44 77 45 36 47 66 48 47 49 65 50 48 51 51 52 64 53 82 54
REMARK SMILES IDX 49 55 50 56 63 58 83 59 52 60 37 61 38 62 46 63 39 64 45 65
REMARK SMILES IDX 40 66 41 67 42 68 43 69 44 70 67 71 68 72 76 73 69 74 75 75
REMARK SMILES IDX 70 76 71 77 72 78 73 79 74 80 53 81 54 82 62 83 55 84 61 85
REMARK SMILES IDX 56 86 57 87 58 88 59 89 60 90
REMARK H PARENT 81 46 51 57
REMARK Flexibility Score: inf
ROOT
ATOM      1  C   UNL A   1      36.993  23.182  24.437  1.00  0.00     0.275 C 
ENDROOT
BRANCH   1   2
ATOM      2  C   UNL A   1      35.696  22.413  24.687  1.00  0.00     0.275 C 
BRANCH   2   3
ATOM      3  O   UNL A   1      34.545  23.276  24.576  1.00  0.00    -0.459 OA
BRANCH   3   4
ATOM      4  C   UNL A   1      34.183  23.604  23.310  1.00  0.00     0.338 C 
ATOM      5  O   UNL A   1      34.474  23.002  22.294  1.00  0.00    -0.246 OA
BRANCH   4   6
ATOM      6  C   UNL A   1      33.343  24.818  23.317  1.00  0.00     0.087 C 
ATOM      7  C   UNL A   1      29.445  28.134  23.077  1.00  0.00     0.048 C 
ATOM      8  C   UNL A   1      30.826  28.141  23.668  1.00  0.00    -0.005 A 
ATOM      9  C   UNL A   1      31.253  29.242  24.436  1.00  0.00     0.054 A 
ATOM     10  C   UNL A   1      31.678  27.040  23.502  1.00  0.00     0.131 A 
ATOM     11  C   UNL A   1      32.521  29.256  25.018  1.00  0.00     0.130 A 
ATOM     12  C   UNL A   1      32.936  27.044  24.101  1.00  0.00     0.021 A 
ATOM     13  O   UNL A   1      31.223  26.003  22.734  1.00  0.00    -0.475 OA
ATOM     14  C   UNL A   1      33.359  28.155  24.841  1.00  0.00     0.058 A 
ATOM     15  C   UNL A   1      33.792  25.880  23.994  1.00  0.00     0.027 C 
ATOM     16  C   UNL A   1      31.990  24.768  22.672  1.00  0.00     0.316 C 
BRANCH  11  17
ATOM     17  O   UNL A   1      33.062  30.255  25.776  1.00  0.00    -0.406 OA
BRANCH  17  18
ATOM     18  C   UNL A   1      32.587  30.419  27.101  1.00  0.00     0.573 C 
ATOM     19  F   UNL A   1      31.522  31.247  27.137  1.00  0.00    -0.132 F 
ATOM     20  F   UNL A   1      32.242  29.228  27.641  1.00  0.00    -0.132 F 
ATOM     21  F   UNL A   1      33.568  30.953  27.858  1.00  0.00    -0.132 F 
ENDBRANCH  17  18
ENDBRANCH  11  17
BRANCH  16  22
ATOM     22  C   UNL A   1      31.132  23.637  23.261  1.00  0.00     0.430 C 
ATOM     23  F   UNL A   1      29.813  23.844  23.022  1.00  0.00    -0.167 F 
ATOM     24  F   UNL A   1      31.434  22.436  22.710  1.00  0.00    -0.167 F 
ATOM     25  F   UNL A   1      31.285  23.518  24.598  1.00  0.00    -0.167 F 
ENDBRANCH  16  22
ENDBRANCH   4   6
ENDBRANCH   3   4
ENDBRANCH   2   3
ENDBRANCH   1   2
BRANCH   1  26
ATOM     26  O   UNL A   1      37.441  23.824  25.643  1.00  0.00    -0.458 OA
BRANCH  26  27
ATOM     27  C   UNL A   1      38.575  23.310  26.172  1.00  0.00     0.338 C 
ATOM     28  O   UNL A   1      38.986  22.167  26.069  1.00  0.00    -0.246 OA
BRANCH  27  29
ATOM     29  C   UNL A   1      39.327  24.357  26.877  1.00  0.00     0.060 A 
ATOM     30  C   UNL A   1      39.111  24.543  28.239  1.00  0.00     0.016 A 
ATOM     31  C   UNL A   1      40.087  25.273  26.154  1.00  0.00     0.016 A 
ATOM     32  C   UNL A   1      39.519  25.723  28.851  1.00  0.00     0.010 A 
ATOM     33  C   UNL A   1      40.610  26.395  26.805  1.00  0.00     0.010 A 
ATOM     34  C   UNL A   1      40.285  26.663  28.146  1.00  0.00    -0.014 A 
BRANCH  34  35
ATOM     35  C   UNL A   1      40.719  27.928  28.799  1.00  0.00     0.031 A 
ATOM     36  C   UNL A   1      42.128  28.067  29.322  1.00  0.00     0.074 A 
ATOM     37  C   UNL A   1      39.858  28.960  28.915  1.00  0.00     0.049 A 
ATOM     38  N   UNL A   1      42.640  29.018  30.061  1.00  0.00    -0.248 NA
ATOM     39  C   UNL A   1      43.084  26.999  28.978  1.00  0.00     0.031 C 
ATOM     40  C   UNL A   1      38.484  28.982  28.402  1.00  0.00     0.029 A 
ATOM     41  N   UNL A   1      40.009  30.195  29.495  1.00  0.00    -0.354 N 
ATOM     42  C   UNL A   1      43.957  28.642  30.309  1.00  0.00     0.074 A 
ATOM     43  C   UNL A   1      44.167  27.372  29.648  1.00  0.00     0.031 C 
ATOM     44  C   UNL A   1      37.938  30.180  28.651  1.00  0.00     0.029 A 
ATOM     45  C   UNL A   1      38.881  30.978  29.425  1.00  0.00     0.049 A 
ATOM     46  H   UNL A   1      40.846  30.491  29.921  1.00  0.00     0.167 HD
ATOM     47  C   UNL A   1      44.902  29.297  31.022  1.00  0.00     0.031 A 
ATOM     48  C   UNL A   1      38.609  32.185  29.959  1.00  0.00     0.031 A 
ATOM     49  C   UNL A   1      44.697  30.579  31.642  1.00  0.00     0.049 A 
ATOM     50  C   UNL A   1      39.651  32.864  30.797  1.00  0.00     0.074 A 
ATOM     51  C   UNL A   1      45.599  31.327  32.379  1.00  0.00     0.029 A 
ATOM     52  N   UNL A   1      43.521  31.310  31.585  1.00  0.00    -0.354 N 
ATOM     53  N   UNL A   1      40.868  32.462  31.073  1.00  0.00    -0.248 NA
ATOM     54  C   UNL A   1      39.282  34.147  31.410  1.00  0.00     0.031 C 
ATOM     55  C   UNL A   1      44.953  32.490  32.806  1.00  0.00     0.029 A 
ATOM     56  C   UNL A   1      43.668  32.492  32.289  1.00  0.00     0.049 A 
ATOM     57  H   UNL A   1      42.703  31.029  31.114  1.00  0.00     0.167 HD
ATOM     58  C   UNL A   1      41.416  33.449  31.881  1.00  0.00     0.074 A 
ATOM     59  C   UNL A   1      40.403  34.471  32.044  1.00  0.00     0.031 C 
ATOM     60  C   UNL A   1      42.650  33.499  32.438  1.00  0.00     0.031 A 
BRANCH  47  61
ATOM     61  C   UNL A   1      46.245  28.643  31.204  1.00  0.00    -0.014 A 
ATOM     62  C   UNL A   1      46.492  27.772  32.278  1.00  0.00     0.010 A 
ATOM     63  C   UNL A   1      47.237  28.820  30.221  1.00  0.00     0.010 A 
ATOM     64  C   UNL A   1      47.711  27.092  32.369  1.00  0.00     0.020 A 
ATOM     65  C   UNL A   1      48.447  28.127  30.296  1.00  0.00     0.020 A 
ATOM     66  C   UNL A   1      48.677  27.265  31.370  1.00  0.00     0.054 A 
BRANCH  66  67
ATOM     67  S   UNL A   1      50.226  26.328  31.491  1.00  0.00     0.124 S 
ATOM     68  O   UNL A   1      49.759  25.021  31.946  1.00  0.00    -0.237 OA
ATOM     69  O   UNL A   1      50.728  26.375  30.121  1.00  0.00    -0.237 OA
ATOM     70  O   UNL A   1      51.012  27.077  32.470  1.00  0.00    -0.744 OA
ENDBRANCH  66  67
ENDBRANCH  47  61
BRANCH  48  71
ATOM     71  C   UNL A   1      37.269  32.794  29.743  1.00  0.00    -0.014 A 
ATOM     72  C   UNL A   1      36.277  32.706  30.734  1.00  0.00     0.010 A 
ATOM     73  C   UNL A   1      36.999  33.519  28.566  1.00  0.00     0.010 A 
ATOM     74  C   UNL A   1      35.042  33.338  30.554  1.00  0.00     0.020 A 
ATOM     75  C   UNL A   1      35.778  34.173  28.395  1.00  0.00     0.020 A 
ATOM     76  C   UNL A   1      34.806  34.079  29.392  1.00  0.00     0.054 A 
BRANCH  76  77
ATOM     77  S   UNL A   1      33.218  34.939  29.216  1.00  0.00     0.124 S 
ATOM     78  O   UNL A   1      32.515  34.093  28.256  1.00  0.00    -0.237 OA
ATOM     79  O   UNL A   1      32.701  34.911  30.581  1.00  0.00    -0.237 OA
ATOM     80  O   UNL A   1      33.595  36.261  28.723  1.00  0.00    -0.744 OA
ENDBRANCH  76  77
ENDBRANCH  48  71
BRANCH  60  81
ATOM     81  C   UNL A   1      43.001  34.709  33.256  1.00  0.00    -0.014 A 
ATOM     82  C   UNL A   1      42.942  34.673  34.660  1.00  0.00     0.010 A 
ATOM     83  C   UNL A   1      43.507  35.854  32.614  1.00  0.00     0.010 A 
ATOM     84  C   UNL A   1      43.382  35.766  35.408  1.00  0.00     0.020 A 
ATOM     85  C   UNL A   1      43.970  36.940  33.360  1.00  0.00     0.020 A 
ATOM     86  C   UNL A   1      43.905  36.888  34.754  1.00  0.00     0.054 A 
BRANCH  86  87
ATOM     87  S   UNL A   1      44.527  38.263  35.758  1.00  0.00     0.124 S 
ATOM     88  O   UNL A   1      44.076  39.428  35.000  1.00  0.00    -0.237 OA
ATOM     89  O   UNL A   1      43.856  38.047  37.036  1.00  0.00    -0.237 OA
ATOM     90  O   UNL A   1      45.974  38.058  35.773  1.00  0.00    -0.744 OA
ENDBRANCH  86  87
ENDBRANCH  60  81
ENDBRANCH  34  35
ENDBRANCH  27  29
ENDBRANCH  26  27
ENDBRANCH   1  26
TORSDOF 17
ENDMDL
