MODEL 1
REMARK VINA RESULT:      -9.6      0.000      0.000
REMARK SMILES Cc1cc2c(c(C)c1Br)C=C(C(=O)OCCOC(=O)c1ccc(-c3c4nc(c(-c5ccc(S(=O)(=O)[O-])cc5)c5ccc([nH]5)c(-c5ccc(S(=O)(=O)[O-])cc5)c5nc(c(-c6ccc(S(=O)(=O)[O-])cc6)c6ccc3[nH]6)C=C5)C=C4)cc1)[C@@H](C(F)(F)F)O2
REMARK SMILES IDX 16 1 15 2 14 3 12 4 13 5 11 6 1 7 2 8 3 9 8 10 4 11 6 12
REMARK SMILES IDX 9 13 5 14 85 15 7 16 10 17 80 18 81 19 82 20 83 21 84 22
REMARK SMILES IDX 17 23 18 24 19 25 20 26 21 27 79 28 22 29 78 30 23 31 24 32
REMARK SMILES IDX 25 33 72 34 26 35 77 36 71 37 73 38 27 39 76 40 70 41 69 42
REMARK SMILES IDX 28 44 58 45 39 46 57 47 40 48 43 49 56 50 74 51 41 52 42 53
REMARK SMILES IDX 55 55 75 56 44 57 29 58 30 59 38 60 31 61 37 62 32 63 33 64
REMARK SMILES IDX 34 65 35 66 36 67 59 68 60 69 68 70 61 71 67 72 62 73 63 74
REMARK SMILES IDX 64 75 65 76 66 77 45 78 46 79 54 80 47 81 53 82 48 83 49 84
REMARK SMILES IDX 50 85 51 86 52 87
REMARK H PARENT 73 43 43 54
REMARK Flexibility Score: inf
ROOT
ATOM      1  C   UNL A   1      33.297  32.984  28.183  1.00  0.00     0.275 C 
ENDROOT
BRANCH   1   2
ATOM      2  C   UNL A   1      33.954  34.083  29.018  1.00  0.00     0.275 C 
BRANCH   2   3
ATOM      3  O   UNL A   1      34.582  33.542  30.201  1.00  0.00    -0.459 OA
BRANCH   3   4
ATOM      4  C   UNL A   1      34.562  34.347  31.289  1.00  0.00     0.338 C 
ATOM      5  O   UNL A   1      33.579  34.876  31.783  1.00  0.00    -0.246 OA
BRANCH   4   6
ATOM      6  C   UNL A   1      35.922  34.525  31.832  1.00  0.00     0.087 C 
ATOM      7  C   UNL A   1      42.244  34.372  33.284  1.00  0.00     0.046 C 
ATOM      8  C   UNL A   1      40.899  34.434  32.612  1.00  0.00    -0.033 A 
ATOM      9  C   UNL A   1      39.761  34.548  33.425  1.00  0.00     0.051 A 
ATOM     10  C   UNL A   1      40.740  34.427  31.212  1.00  0.00     0.024 A 
ATOM     11  C   UNL A   1      38.485  34.595  32.871  1.00  0.00     0.128 A 
ATOM     12  C   UNL A   1      39.451  34.458  30.629  1.00  0.00    -0.026 A 
ATOM     13  Br  UNL A   1      42.311  34.390  30.116  1.00  0.00    -0.050 Br
ATOM     14  C   UNL A   1      38.317  34.533  31.485  1.00  0.00     0.021 A 
ATOM     15  O   UNL A   1      37.463  34.719  33.772  1.00  0.00    -0.475 OA
ATOM     16  C   UNL A   1      39.250  34.424  29.130  1.00  0.00     0.046 C 
ATOM     17  C   UNL A   1      36.949  34.522  30.975  1.00  0.00     0.027 C 
ATOM     18  C   UNL A   1      36.095  34.552  33.319  1.00  0.00     0.316 C 
BRANCH  18  19
ATOM     19  C   UNL A   1      35.502  33.297  33.979  1.00  0.00     0.430 C 
ATOM     20  F   UNL A   1      35.678  32.202  33.199  1.00  0.00    -0.167 F 
ATOM     21  F   UNL A   1      36.105  33.020  35.162  1.00  0.00    -0.167 F 
ATOM     22  F   UNL A   1      34.177  33.415  34.218  1.00  0.00    -0.167 F 
ENDBRANCH  18  19
ENDBRANCH   4   6
ENDBRANCH   3   4
ENDBRANCH   2   3
ENDBRANCH   1   2
BRANCH   1  23
ATOM     23  O   UNL A   1      34.263  32.380  27.304  1.00  0.00    -0.458 OA
BRANCH  23  24
ATOM     24  C   UNL A   1      34.343  31.032  27.380  1.00  0.00     0.338 C 
ATOM     25  O   UNL A   1      33.478  30.224  27.088  1.00  0.00    -0.246 OA
BRANCH  24  26
ATOM     26  C   UNL A   1      35.693  30.625  27.801  1.00  0.00     0.060 A 
ATOM     27  C   UNL A   1      35.912  29.295  28.131  1.00  0.00     0.016 A 
ATOM     28  C   UNL A   1      36.668  31.579  28.077  1.00  0.00     0.016 A 
ATOM     29  C   UNL A   1      37.020  28.945  28.894  1.00  0.00     0.010 A 
ATOM     30  C   UNL A   1      37.855  31.190  28.714  1.00  0.00     0.010 A 
ATOM     31  C   UNL A   1      38.021  29.879  29.197  1.00  0.00    -0.014 A 
BRANCH  31  32
ATOM     32  C   UNL A   1      39.187  29.498  30.058  1.00  0.00     0.031 A 
ATOM     33  C   UNL A   1      40.277  28.594  29.519  1.00  0.00     0.074 A 
ATOM     34  C   UNL A   1      39.316  29.988  31.311  1.00  0.00     0.049 A 
ATOM     35  N   UNL A   1      41.243  27.987  30.163  1.00  0.00    -0.248 NA
ATOM     36  C   UNL A   1      40.272  28.324  28.071  1.00  0.00     0.031 C 
ATOM     37  C   UNL A   1      38.401  30.933  31.959  1.00  0.00     0.029 A 
ATOM     38  N   UNL A   1      40.287  29.781  32.262  1.00  0.00    -0.354 N 
ATOM     39  C   UNL A   1      41.910  27.213  29.218  1.00  0.00     0.074 A 
ATOM     40  C   UNL A   1      41.237  27.422  27.954  1.00  0.00     0.031 C 
ATOM     41  C   UNL A   1      38.896  31.286  33.152  1.00  0.00     0.029 A 
ATOM     42  C   UNL A   1      40.083  30.487  33.426  1.00  0.00     0.049 A 
ATOM     43  H   UNL A   1      41.057  29.182  32.125  1.00  0.00     0.167 HD
ATOM     44  C   UNL A   1      42.985  26.403  29.385  1.00  0.00     0.031 A 
ATOM     45  C   UNL A   1      40.728  30.462  34.609  1.00  0.00     0.031 A 
ATOM     46  C   UNL A   1      43.689  26.245  30.631  1.00  0.00     0.049 A 
ATOM     47  C   UNL A   1      41.867  29.503  34.796  1.00  0.00     0.074 A 
ATOM     48  C   UNL A   1      44.784  25.442  30.906  1.00  0.00     0.029 A 
ATOM     49  N   UNL A   1      43.389  26.923  31.804  1.00  0.00    -0.354 N 
ATOM     50  N   UNL A   1      42.413  28.695  33.920  1.00  0.00    -0.248 NA
ATOM     51  C   UNL A   1      42.454  29.428  36.141  1.00  0.00     0.031 C 
ATOM     52  C   UNL A   1      45.113  25.595  32.256  1.00  0.00     0.029 A 
ATOM     53  C   UNL A   1      44.264  26.540  32.808  1.00  0.00     0.049 A 
ATOM     54  H   UNL A   1      42.663  27.578  31.907  1.00  0.00     0.167 HD
ATOM     55  C   UNL A   1      43.414  28.019  34.605  1.00  0.00     0.074 A 
ATOM     56  C   UNL A   1      43.415  28.532  35.961  1.00  0.00     0.031 C 
ATOM     57  C   UNL A   1      44.251  27.053  34.154  1.00  0.00     0.031 A 
BRANCH  44  58
ATOM     58  C   UNL A   1      43.450  25.585  28.205  1.00  0.00    -0.014 A 
ATOM     59  C   UNL A   1      44.336  26.106  27.245  1.00  0.00     0.010 A 
ATOM     60  C   UNL A   1      43.039  24.242  28.094  1.00  0.00     0.010 A 
ATOM     61  C   UNL A   1      44.777  25.310  26.183  1.00  0.00     0.020 A 
ATOM     62  C   UNL A   1      43.501  23.433  27.050  1.00  0.00     0.020 A 
ATOM     63  C   UNL A   1      44.357  23.978  26.092  1.00  0.00     0.054 A 
BRANCH  63  64
ATOM     64  S   UNL A   1      44.972  22.962  24.720  1.00  0.00     0.124 S 
ATOM     65  O   UNL A   1      45.540  21.815  25.423  1.00  0.00    -0.237 OA
ATOM     66  O   UNL A   1      43.758  22.691  23.955  1.00  0.00    -0.237 OA
ATOM     67  O   UNL A   1      45.945  23.826  24.054  1.00  0.00    -0.744 OA
ENDBRANCH  63  64
ENDBRANCH  44  58
BRANCH  45  68
ATOM     68  C   UNL A   1      40.259  31.329  35.728  1.00  0.00    -0.014 A 
ATOM     69  C   UNL A   1      39.030  31.078  36.362  1.00  0.00     0.010 A 
ATOM     70  C   UNL A   1      41.061  32.390  36.191  1.00  0.00     0.010 A 
ATOM     71  C   UNL A   1      38.616  31.867  37.440  1.00  0.00     0.020 A 
ATOM     72  C   UNL A   1      40.668  33.156  37.291  1.00  0.00     0.020 A 
ATOM     73  C   UNL A   1      39.443  32.894  37.905  1.00  0.00     0.054 A 
BRANCH  73  74
ATOM     74  S   UNL A   1      38.919  33.853  39.353  1.00  0.00     0.124 S 
ATOM     75  O   UNL A   1      39.825  33.364  40.386  1.00  0.00    -0.237 OA
ATOM     76  O   UNL A   1      39.139  35.229  38.915  1.00  0.00    -0.237 OA
ATOM     77  O   UNL A   1      37.516  33.478  39.522  1.00  0.00    -0.744 OA
ENDBRANCH  73  74
ENDBRANCH  45  68
BRANCH  57  78
ATOM     78  C   UNL A   1      45.256  26.500  35.128  1.00  0.00    -0.014 A 
ATOM     79  C   UNL A   1      44.969  25.359  35.898  1.00  0.00     0.010 A 
ATOM     80  C   UNL A   1      46.525  27.100  35.233  1.00  0.00     0.010 A 
ATOM     81  C   UNL A   1      45.925  24.844  36.777  1.00  0.00     0.020 A 
ATOM     82  C   UNL A   1      47.493  26.569  36.090  1.00  0.00     0.020 A 
ATOM     83  C   UNL A   1      47.181  25.451  36.866  1.00  0.00     0.054 A 
BRANCH  83  84
ATOM     84  S   UNL A   1      48.415  24.735  37.985  1.00  0.00     0.124 S 
ATOM     85  O   UNL A   1      48.224  23.303  37.774  1.00  0.00    -0.237 OA
ATOM     86  O   UNL A   1      49.668  25.285  37.471  1.00  0.00    -0.237 OA
ATOM     87  O   UNL A   1      48.019  25.228  39.302  1.00  0.00    -0.744 OA
ENDBRANCH  83  84
ENDBRANCH  57  78
ENDBRANCH  31  32
ENDBRANCH  24  26
ENDBRANCH  23  24
ENDBRANCH   1  23
TORSDOF 15
ENDMDL
MODEL 2
REMARK VINA RESULT:      -9.5      3.957      6.564
REMARK SMILES Cc1cc2c(c(C)c1Br)C=C(C(=O)OCCOC(=O)c1ccc(-c3c4nc(c(-c5ccc(S(=O)(=O)[O-])cc5)c5ccc([nH]5)c(-c5ccc(S(=O)(=O)[O-])cc5)c5nc(c(-c6ccc(S(=O)(=O)[O-])cc6)c6ccc3[nH]6)C=C5)C=C4)cc1)[C@@H](C(F)(F)F)O2
REMARK SMILES IDX 16 1 15 2 14 3 12 4 13 5 11 6 1 7 2 8 3 9 8 10 4 11 6 12
REMARK SMILES IDX 9 13 5 14 85 15 7 16 10 17 80 18 81 19 82 20 83 21 84 22
REMARK SMILES IDX 17 23 18 24 19 25 20 26 21 27 79 28 22 29 78 30 23 31 24 32
REMARK SMILES IDX 25 33 72 34 26 35 77 36 71 37 73 38 27 39 76 40 70 41 69 42
REMARK SMILES IDX 28 44 58 45 39 46 57 47 40 48 43 49 56 50 74 51 41 52 42 53
REMARK SMILES IDX 55 55 75 56 44 57 29 58 30 59 38 60 31 61 37 62 32 63 33 64
REMARK SMILES IDX 34 65 35 66 36 67 59 68 60 69 68 70 61 71 67 72 62 73 63 74
REMARK SMILES IDX 64 75 65 76 66 77 45 78 46 79 54 80 47 81 53 82 48 83 49 84
REMARK SMILES IDX 50 85 51 86 52 87
REMARK H PARENT 73 43 43 54
REMARK Flexibility Score: inf
ROOT
ATOM      1  C   UNL A   1      31.906  30.561  26.757  1.00  0.00     0.275 C 
ENDROOT
BRANCH   1   2
ATOM      2  C   UNL A   1      31.497  30.070  25.369  1.00  0.00     0.275 C 
BRANCH   2   3
ATOM      3  O   UNL A   1      31.164  28.664  25.384  1.00  0.00    -0.459 OA
BRANCH   3   4
ATOM      4  C   UNL A   1      30.943  28.107  24.171  1.00  0.00     0.338 C 
ATOM      5  O   UNL A   1      30.102  28.451  23.355  1.00  0.00    -0.246 OA
BRANCH   4   6
ATOM      6  C   UNL A   1      31.870  26.984  23.936  1.00  0.00     0.087 C 
ATOM      7  C   UNL A   1      36.166  22.130  24.251  1.00  0.00     0.046 C 
ATOM      8  C   UNL A   1      35.024  23.088  24.458  1.00  0.00    -0.033 A 
ATOM      9  C   UNL A   1      34.818  24.086  23.494  1.00  0.00     0.051 A 
ATOM     10  C   UNL A   1      34.134  22.997  25.547  1.00  0.00     0.024 A 
ATOM     11  C   UNL A   1      33.790  25.016  23.630  1.00  0.00     0.128 A 
ATOM     12  C   UNL A   1      33.092  23.941  25.712  1.00  0.00    -0.026 A 
ATOM     13  Br  UNL A   1      34.359  21.557  26.790  1.00  0.00    -0.050 Br
ATOM     14  C   UNL A   1      32.938  24.965  24.736  1.00  0.00     0.021 A 
ATOM     15  O   UNL A   1      33.691  25.928  22.614  1.00  0.00    -0.475 OA
ATOM     16  C   UNL A   1      32.140  23.883  26.886  1.00  0.00     0.046 C 
ATOM     17  C   UNL A   1      31.922  26.008  24.850  1.00  0.00     0.027 C 
ATOM     18  C   UNL A   1      32.805  27.066  22.770  1.00  0.00     0.316 C 
BRANCH  18  19
ATOM     19  C   UNL A   1      33.648  28.350  22.812  1.00  0.00     0.430 C 
ATOM     20  F   UNL A   1      34.142  28.574  24.055  1.00  0.00    -0.167 F 
ATOM     21  F   UNL A   1      34.721  28.273  21.986  1.00  0.00    -0.167 F 
ATOM     22  F   UNL A   1      32.941  29.445  22.455  1.00  0.00    -0.167 F 
ENDBRANCH  18  19
ENDBRANCH   4   6
ENDBRANCH   3   4
ENDBRANCH   2   3
ENDBRANCH   1   2
BRANCH   1  23
ATOM     23  O   UNL A   1      33.316  30.365  26.961  1.00  0.00    -0.458 OA
BRANCH  23  24
ATOM     24  C   UNL A   1      33.957  31.392  27.565  1.00  0.00     0.338 C 
ATOM     25  O   UNL A   1      33.491  32.479  27.863  1.00  0.00    -0.246 OA
BRANCH  24  26
ATOM     26  C   UNL A   1      35.332  31.001  27.913  1.00  0.00     0.060 A 
ATOM     27  C   UNL A   1      35.573  29.686  28.285  1.00  0.00     0.016 A 
ATOM     28  C   UNL A   1      36.323  31.964  28.081  1.00  0.00     0.016 A 
ATOM     29  C   UNL A   1      36.730  29.367  28.987  1.00  0.00     0.010 A 
ATOM     30  C   UNL A   1      37.550  31.600  28.654  1.00  0.00     0.010 A 
ATOM     31  C   UNL A   1      37.749  30.311  29.182  1.00  0.00    -0.014 A 
BRANCH  31  32
ATOM     32  C   UNL A   1      38.970  29.966  29.979  1.00  0.00     0.031 A 
ATOM     33  C   UNL A   1      39.937  28.910  29.484  1.00  0.00     0.074 A 
ATOM     34  C   UNL A   1      39.259  30.619  31.126  1.00  0.00     0.049 A 
ATOM     35  N   UNL A   1      40.922  28.327  30.120  1.00  0.00    -0.248 NA
ATOM     36  C   UNL A   1      39.765  28.436  28.100  1.00  0.00     0.031 C 
ATOM     37  C   UNL A   1      38.479  31.717  31.707  1.00  0.00     0.029 A 
ATOM     38  N   UNL A   1      40.308  30.473  32.005  1.00  0.00    -0.354 N 
ATOM     39  C   UNL A   1      41.436  27.374  29.245  1.00  0.00     0.074 A 
ATOM     40  C   UNL A   1      40.651  27.452  28.033  1.00  0.00     0.031 C 
ATOM     41  C   UNL A   1      39.117  32.197  32.782  1.00  0.00     0.029 A 
ATOM     42  C   UNL A   1      40.271  31.354  33.062  1.00  0.00     0.049 A 
ATOM     43  H   UNL A   1      41.018  29.801  31.888  1.00  0.00     0.167 HD
ATOM     44  C   UNL A   1      42.467  26.512  29.433  1.00  0.00     0.031 A 
ATOM     45  C   UNL A   1      41.032  31.448  34.171  1.00  0.00     0.031 A 
ATOM     46  C   UNL A   1      43.284  26.479  30.619  1.00  0.00     0.049 A 
ATOM     47  C   UNL A   1      42.118  30.437  34.395  1.00  0.00     0.074 A 
ATOM     48  C   UNL A   1      44.346  25.639  30.909  1.00  0.00     0.029 A 
ATOM     49  N   UNL A   1      43.152  27.340  31.698  1.00  0.00    -0.354 N 
ATOM     50  N   UNL A   1      42.517  29.470  33.604  1.00  0.00    -0.248 NA
ATOM     51  C   UNL A   1      42.835  30.509  35.675  1.00  0.00     0.031 C 
ATOM     52  C   UNL A   1      44.822  25.957  32.184  1.00  0.00     0.029 A 
ATOM     53  C   UNL A   1      44.098  27.037  32.663  1.00  0.00     0.049 A 
ATOM     54  H   UNL A   1      42.484  28.059  31.768  1.00  0.00     0.167 HD
ATOM     55  C   UNL A   1      43.537  28.822  34.288  1.00  0.00     0.074 A 
ATOM     56  C   UNL A   1      43.711  29.522  35.545  1.00  0.00     0.031 C 
ATOM     57  C   UNL A   1      44.258  27.737  33.912  1.00  0.00     0.031 A 
BRANCH  44  58
ATOM     58  C   UNL A   1      42.753  25.499  28.352  1.00  0.00    -0.014 A 
ATOM     59  C   UNL A   1      43.706  25.737  27.346  1.00  0.00     0.010 A 
ATOM     60  C   UNL A   1      42.097  24.253  28.386  1.00  0.00     0.010 A 
ATOM     61  C   UNL A   1      43.974  24.762  26.379  1.00  0.00     0.020 A 
ATOM     62  C   UNL A   1      42.384  23.263  27.439  1.00  0.00     0.020 A 
ATOM     63  C   UNL A   1      43.312  23.531  26.432  1.00  0.00     0.054 A 
BRANCH  63  64
ATOM     64  S   UNL A   1      43.706  22.275  25.182  1.00  0.00     0.124 S 
ATOM     65  O   UNL A   1      43.494  23.011  23.938  1.00  0.00    -0.237 OA
ATOM     66  O   UNL A   1      45.095  21.945  25.488  1.00  0.00    -0.237 OA
ATOM     67  O   UNL A   1      42.742  21.208  25.444  1.00  0.00    -0.744 OA
ENDBRANCH  63  64
ENDBRANCH  44  58
BRANCH  45  68
ATOM     68  C   UNL A   1      40.739  32.500  35.184  1.00  0.00    -0.014 A 
ATOM     69  C   UNL A   1      39.990  32.198  36.335  1.00  0.00     0.010 A 
ATOM     70  C   UNL A   1      41.241  33.806  35.021  1.00  0.00     0.010 A 
ATOM     71  C   UNL A   1      39.756  33.179  37.305  1.00  0.00     0.020 A 
ATOM     72  C   UNL A   1      41.041  34.778  36.005  1.00  0.00     0.020 A 
ATOM     73  C   UNL A   1      40.292  34.460  37.138  1.00  0.00     0.054 A 
BRANCH  73  74
ATOM     74  S   UNL A   1      40.040  35.691  38.446  1.00  0.00     0.124 S 
ATOM     75  O   UNL A   1      39.927  36.929  37.682  1.00  0.00    -0.237 OA
ATOM     76  O   UNL A   1      38.811  35.225  39.083  1.00  0.00    -0.237 OA
ATOM     77  O   UNL A   1      41.243  35.570  39.268  1.00  0.00    -0.744 OA
ENDBRANCH  73  74
ENDBRANCH  45  68
BRANCH  57  78
ATOM     78  C   UNL A   1      45.320  27.251  34.861  1.00  0.00    -0.014 A 
ATOM     79  C   UNL A   1      46.615  27.796  34.842  1.00  0.00     0.010 A 
ATOM     80  C   UNL A   1      45.000  26.271  35.820  1.00  0.00     0.010 A 
ATOM     81  C   UNL A   1      47.580  27.352  35.749  1.00  0.00     0.020 A 
ATOM     82  C   UNL A   1      45.955  25.845  36.746  1.00  0.00     0.020 A 
ATOM     83  C   UNL A   1      47.243  26.380  36.696  1.00  0.00     0.054 A 
BRANCH  83  84
ATOM     84  S   UNL A   1      48.506  25.853  37.886  1.00  0.00     0.124 S 
ATOM     85  O   UNL A   1      49.742  26.095  37.147  1.00  0.00    -0.237 OA
ATOM     86  O   UNL A   1      48.266  26.744  39.019  1.00  0.00    -0.237 OA
ATOM     87  O   UNL A   1      48.191  24.447  38.129  1.00  0.00    -0.744 OA
ENDBRANCH  83  84
ENDBRANCH  57  78
ENDBRANCH  31  32
ENDBRANCH  24  26
ENDBRANCH  23  24
ENDBRANCH   1  23
TORSDOF 15
ENDMDL
MODEL 3
REMARK VINA RESULT:      -9.4      4.971     10.193
REMARK SMILES Cc1cc2c(c(C)c1Br)C=C(C(=O)OCCOC(=O)c1ccc(-c3c4nc(c(-c5ccc(S(=O)(=O)[O-])cc5)c5ccc([nH]5)c(-c5ccc(S(=O)(=O)[O-])cc5)c5nc(c(-c6ccc(S(=O)(=O)[O-])cc6)c6ccc3[nH]6)C=C5)C=C4)cc1)[C@@H](C(F)(F)F)O2
REMARK SMILES IDX 16 1 15 2 14 3 12 4 13 5 11 6 1 7 2 8 3 9 8 10 4 11 6 12
REMARK SMILES IDX 9 13 5 14 85 15 7 16 10 17 80 18 81 19 82 20 83 21 84 22
REMARK SMILES IDX 17 23 18 24 19 25 20 26 21 27 79 28 22 29 78 30 23 31 24 32
REMARK SMILES IDX 25 33 72 34 26 35 77 36 71 37 73 38 27 39 76 40 70 41 69 42
REMARK SMILES IDX 28 44 58 45 39 46 57 47 40 48 43 49 56 50 74 51 41 52 42 53
REMARK SMILES IDX 55 55 75 56 44 57 29 58 30 59 38 60 31 61 37 62 32 63 33 64
REMARK SMILES IDX 34 65 35 66 36 67 59 68 60 69 68 70 61 71 67 72 62 73 63 74
REMARK SMILES IDX 64 75 65 76 66 77 45 78 46 79 54 80 47 81 53 82 48 83 49 84
REMARK SMILES IDX 50 85 51 86 52 87
REMARK H PARENT 73 43 43 54
REMARK Flexibility Score: inf
ROOT
ATOM      1  C   UNL A   1      38.854  23.419  26.038  1.00  0.00     0.275 C 
ENDROOT
BRANCH   1   2
ATOM      2  C   UNL A   1      37.438  22.859  25.903  1.00  0.00     0.275 C 
BRANCH   2   3
ATOM      3  O   UNL A   1      36.580  23.764  25.174  1.00  0.00    -0.459 OA
BRANCH   3   4
ATOM      4  C   UNL A   1      36.113  23.297  23.993  1.00  0.00     0.338 C 
ATOM      5  O   UNL A   1      36.725  22.610  23.190  1.00  0.00    -0.246 OA
BRANCH   4   6
ATOM      6  C   UNL A   1      34.721  23.733  23.772  1.00  0.00     0.087 C 
ATOM      7  C   UNL A   1      28.864  26.525  23.822  1.00  0.00     0.046 C 
ATOM      8  C   UNL A   1      30.337  26.216  23.815  1.00  0.00    -0.033 A 
ATOM      9  C   UNL A   1      30.730  24.884  23.621  1.00  0.00     0.051 A 
ATOM     10  C   UNL A   1      31.329  27.208  23.950  1.00  0.00     0.024 A 
ATOM     11  C   UNL A   1      32.075  24.524  23.620  1.00  0.00     0.128 A 
ATOM     12  C   UNL A   1      32.701  26.862  23.966  1.00  0.00    -0.026 A 
ATOM     13  Br  UNL A   1      30.777  29.037  24.096  1.00  0.00    -0.050 Br
ATOM     14  C   UNL A   1      33.063  25.495  23.808  1.00  0.00     0.021 A 
ATOM     15  O   UNL A   1      32.322  23.195  23.408  1.00  0.00    -0.475 OA
ATOM     16  C   UNL A   1      33.786  27.902  24.138  1.00  0.00     0.046 C 
ATOM     17  C   UNL A   1      34.449  25.040  23.859  1.00  0.00     0.027 C 
ATOM     18  C   UNL A   1      33.665  22.684  23.610  1.00  0.00     0.316 C 
BRANCH  18  19
ATOM     19  C   UNL A   1      33.653  21.707  24.796  1.00  0.00     0.430 C 
ATOM     20  F   UNL A   1      32.458  21.075  24.899  1.00  0.00    -0.167 F 
ATOM     21  F   UNL A   1      34.586  20.733  24.652  1.00  0.00    -0.167 F 
ATOM     22  F   UNL A   1      33.888  22.323  25.975  1.00  0.00    -0.167 F 
ENDBRANCH  18  19
ENDBRANCH   4   6
ENDBRANCH   3   4
ENDBRANCH   2   3
ENDBRANCH   1   2
BRANCH   1  23
ATOM     23  O   UNL A   1      38.923  24.338  27.143  1.00  0.00    -0.458 OA
BRANCH  23  24
ATOM     24  C   UNL A   1      39.735  25.403  26.951  1.00  0.00     0.338 C 
ATOM     25  O   UNL A   1      40.528  25.572  26.041  1.00  0.00    -0.246 OA
BRANCH  24  26
ATOM     26  C   UNL A   1      39.482  26.427  27.977  1.00  0.00     0.060 A 
ATOM     27  C   UNL A   1      40.003  27.699  27.788  1.00  0.00     0.016 A 
ATOM     28  C   UNL A   1      38.929  26.079  29.207  1.00  0.00     0.016 A 
ATOM     29  C   UNL A   1      40.136  28.560  28.871  1.00  0.00     0.010 A 
ATOM     30  C   UNL A   1      38.929  27.011  30.254  1.00  0.00     0.010 A 
ATOM     31  C   UNL A   1      39.597  28.243  30.126  1.00  0.00    -0.014 A 
BRANCH  31  32
ATOM     32  C   UNL A   1      39.786  29.161  31.295  1.00  0.00     0.031 A 
ATOM     33  C   UNL A   1      41.023  29.054  32.163  1.00  0.00     0.074 A 
ATOM     34  C   UNL A   1      38.887  30.132  31.570  1.00  0.00     0.049 A 
ATOM     35  N   UNL A   1      41.269  29.605  33.325  1.00  0.00    -0.248 NA
ATOM     36  C   UNL A   1      42.121  28.204  31.669  1.00  0.00     0.031 C 
ATOM     37  C   UNL A   1      37.681  30.427  30.790  1.00  0.00     0.029 A 
ATOM     38  N   UNL A   1      38.859  31.074  32.571  1.00  0.00    -0.354 N 
ATOM     39  C   UNL A   1      42.508  29.115  33.731  1.00  0.00     0.074 A 
ATOM     40  C   UNL A   1      42.963  28.217  32.693  1.00  0.00     0.031 C 
ATOM     41  C   UNL A   1      37.086  31.520  31.286  1.00  0.00     0.029 A 
ATOM     42  C   UNL A   1      37.776  31.922  32.504  1.00  0.00     0.049 A 
ATOM     43  H   UNL A   1      39.548  31.137  33.272  1.00  0.00     0.167 HD
ATOM     44  C   UNL A   1      43.203  29.388  34.863  1.00  0.00     0.031 A 
ATOM     45  C   UNL A   1      37.337  32.876  33.349  1.00  0.00     0.031 A 
ATOM     46  C   UNL A   1      42.773  30.329  35.866  1.00  0.00     0.049 A 
ATOM     47  C   UNL A   1      38.079  33.108  34.633  1.00  0.00     0.074 A 
ATOM     48  C   UNL A   1      43.401  30.669  37.053  1.00  0.00     0.029 A 
ATOM     49  N   UNL A   1      41.624  31.102  35.789  1.00  0.00    -0.354 N 
ATOM     50  N   UNL A   1      39.190  32.552  35.051  1.00  0.00    -0.248 NA
ATOM     51  C   UNL A   1      37.489  34.070  35.573  1.00  0.00     0.031 C 
ATOM     52  C   UNL A   1      42.606  31.607  37.717  1.00  0.00     0.029 A 
ATOM     53  C   UNL A   1      41.515  31.901  36.916  1.00  0.00     0.049 A 
ATOM     54  H   UNL A   1      40.981  31.084  35.045  1.00  0.00     0.167 HD
ATOM     55  C   UNL A   1      39.438  33.104  36.302  1.00  0.00     0.074 A 
ATOM     56  C   UNL A   1      38.375  34.055  36.560  1.00  0.00     0.031 C 
ATOM     57  C   UNL A   1      40.450  32.838  37.163  1.00  0.00     0.031 A 
BRANCH  44  58
ATOM     58  C   UNL A   1      44.485  28.631  35.110  1.00  0.00    -0.014 A 
ATOM     59  C   UNL A   1      44.497  27.386  35.762  1.00  0.00     0.010 A 
ATOM     60  C   UNL A   1      45.697  29.153  34.617  1.00  0.00     0.010 A 
ATOM     61  C   UNL A   1      45.698  26.693  35.943  1.00  0.00     0.020 A 
ATOM     62  C   UNL A   1      46.897  28.449  34.769  1.00  0.00     0.020 A 
ATOM     63  C   UNL A   1      46.891  27.228  35.445  1.00  0.00     0.054 A 
BRANCH  63  64
ATOM     64  S   UNL A   1      48.428  26.289  35.667  1.00  0.00     0.124 S 
ATOM     65  O   UNL A   1      48.819  26.667  37.023  1.00  0.00    -0.237 OA
ATOM     66  O   UNL A   1      47.985  24.908  35.504  1.00  0.00    -0.237 OA
ATOM     67  O   UNL A   1      49.300  26.791  34.607  1.00  0.00    -0.744 OA
ENDBRANCH  63  64
ENDBRANCH  44  58
BRANCH  45  68
ATOM     68  C   UNL A   1      36.091  33.630  33.032  1.00  0.00    -0.014 A 
ATOM     69  C   UNL A   1      34.829  33.074  33.302  1.00  0.00     0.010 A 
ATOM     70  C   UNL A   1      36.162  34.929  32.492  1.00  0.00     0.010 A 
ATOM     71  C   UNL A   1      33.664  33.805  33.044  1.00  0.00     0.020 A 
ATOM     72  C   UNL A   1      35.003  35.676  32.269  1.00  0.00     0.020 A 
ATOM     73  C   UNL A   1      33.759  35.105  32.539  1.00  0.00     0.054 A 
BRANCH  73  74
ATOM     74  S   UNL A   1      32.237  36.060  32.286  1.00  0.00     0.124 S 
ATOM     75  O   UNL A   1      31.206  35.077  32.600  1.00  0.00    -0.237 OA
ATOM     76  O   UNL A   1      32.388  37.150  33.247  1.00  0.00    -0.237 OA
ATOM     77  O   UNL A   1      32.314  36.462  30.883  1.00  0.00    -0.744 OA
ENDBRANCH  73  74
ENDBRANCH  45  68
BRANCH  57  78
ATOM     78  C   UNL A   1      40.472  33.602  38.459  1.00  0.00    -0.014 A 
ATOM     79  C   UNL A   1      39.855  33.091  39.615  1.00  0.00     0.010 A 
ATOM     80  C   UNL A   1      41.166  34.825  38.534  1.00  0.00     0.010 A 
ATOM     81  C   UNL A   1      39.910  33.802  40.816  1.00  0.00     0.020 A 
ATOM     82  C   UNL A   1      41.246  35.524  39.741  1.00  0.00     0.020 A 
ATOM     83  C   UNL A   1      40.606  35.012  40.872  1.00  0.00     0.054 A 
BRANCH  83  84
ATOM     84  S   UNL A   1      40.694  35.892  42.455  1.00  0.00     0.124 S 
ATOM     85  O   UNL A   1      40.909  34.799  43.400  1.00  0.00    -0.237 OA
ATOM     86  O   UNL A   1      41.832  36.787  42.259  1.00  0.00    -0.237 OA
ATOM     87  O   UNL A   1      39.396  36.557  42.557  1.00  0.00    -0.744 OA
ENDBRANCH  83  84
ENDBRANCH  57  78
ENDBRANCH  31  32
ENDBRANCH  24  26
ENDBRANCH  23  24
ENDBRANCH   1  23
TORSDOF 15
ENDMDL
