MODEL 1
REMARK VINA RESULT:      -9.5      0.000      0.000
REMARK SMILES CC[C@H]1CCC/C(=C(\C)C(=O)OCCOC(=O)c2ccc(-c3c4nc(c(-c5ccc(S(=O)(=O)[O-])cc5)c5ccc([nH]5)c(-c5ccc(S(=O)(=O)[O-])cc5)c5nc(c(-c6ccc(S(=O)(=O)[O-])cc6)c6ccc3[nH]6)C=C5)C=C4)cc2)C1
REMARK SMILES IDX 14 1 13 2 12 3 10 4 11 5 8 6 3 7 4 8 78 9 5 10 7 11 6 12
REMARK SMILES IDX 9 13 2 14 1 15 15 16 16 17 17 18 18 19 19 20 77 21 20 22
REMARK SMILES IDX 76 23 21 24 22 25 23 26 70 27 24 28 75 29 69 30 71 31 25 32
REMARK SMILES IDX 74 33 68 34 67 35 26 37 56 38 37 39 55 40 38 41 41 42 54 43
REMARK SMILES IDX 72 44 39 45 40 46 53 48 73 49 42 50 27 51 28 52 36 53 29 54
REMARK SMILES IDX 35 55 30 56 31 57 32 58 33 59 34 60 57 61 58 62 66 63 59 64
REMARK SMILES IDX 65 65 60 66 61 67 62 68 63 69 64 70 43 71 44 72 52 73 45 74
REMARK SMILES IDX 51 75 46 76 47 77 48 78 49 79 50 80
REMARK H PARENT 71 36 41 47
REMARK Flexibility Score: inf
ROOT
ATOM      1  C   UNL A   1      37.622  32.614  33.647  1.00  0.00     0.275 C 
ENDROOT
BRANCH   1   2
ATOM      2  C   UNL A   1      36.789  33.836  34.036  1.00  0.00     0.275 C 
BRANCH   2   3
ATOM      3  O   UNL A   1      36.058  34.296  32.880  1.00  0.00    -0.459 OA
BRANCH   3   4
ATOM      4  C   UNL A   1      34.710  34.152  32.937  1.00  0.00     0.333 C 
ATOM      5  O   UNL A   1      34.091  33.332  33.596  1.00  0.00    -0.247 OA
BRANCH   4   6
ATOM      6  C   UNL A   1      34.074  35.144  32.022  1.00  0.00     0.033 C 
ATOM      7  C   UNL A   1      35.225  33.697  28.814  1.00  0.00    -0.007 C 
ATOM      8  C   UNL A   1      34.461  34.552  27.792  1.00  0.00     0.004 C 
ATOM      9  C   UNL A   1      34.356  33.552  30.073  1.00  0.00     0.035 C 
ATOM     10  C   UNL A   1      34.113  35.916  28.388  1.00  0.00     0.005 C 
ATOM     11  C   UNL A   1      33.952  34.874  30.698  1.00  0.00    -0.060 C 
ATOM     12  C   UNL A   1      33.306  35.803  29.686  1.00  0.00     0.031 C 
ATOM     13  C   UNL A   1      33.635  36.385  32.741  1.00  0.00     0.052 C 
BRANCH   7  14
ATOM     14  C   UNL A   1      35.579  32.327  28.202  1.00  0.00     0.000 C 
ATOM     15  C   UNL A   1      34.358  31.514  27.789  1.00  0.00     0.004 C 
ENDBRANCH   7  14
ENDBRANCH   4   6
ENDBRANCH   3   4
ENDBRANCH   2   3
ENDBRANCH   1   2
BRANCH   1  16
ATOM     16  O   UNL A   1      37.585  32.498  32.215  1.00  0.00    -0.458 OA
BRANCH  16  17
ATOM     17  C   UNL A   1      37.248  31.285  31.711  1.00  0.00     0.338 C 
ATOM     18  O   UNL A   1      36.168  30.731  31.793  1.00  0.00    -0.246 OA
BRANCH  17  19
ATOM     19  C   UNL A   1      38.421  30.732  30.991  1.00  0.00     0.060 A 
ATOM     20  C   UNL A   1      39.426  30.104  31.720  1.00  0.00     0.016 A 
ATOM     21  C   UNL A   1      38.583  30.911  29.618  1.00  0.00     0.016 A 
ATOM     22  C   UNL A   1      40.608  29.710  31.096  1.00  0.00     0.010 A 
ATOM     23  C   UNL A   1      39.743  30.435  28.979  1.00  0.00     0.010 A 
ATOM     24  C   UNL A   1      40.787  29.848  29.717  1.00  0.00    -0.014 A 
BRANCH  24  25
ATOM     25  C   UNL A   1      42.104  29.482  29.106  1.00  0.00     0.031 A 
ATOM     26  C   UNL A   1      42.287  28.115  28.495  1.00  0.00     0.074 A 
ATOM     27  C   UNL A   1      43.105  30.382  28.979  1.00  0.00     0.049 A 
ATOM     28  N   UNL A   1      43.383  27.541  28.066  1.00  0.00    -0.248 NA
ATOM     29  C   UNL A   1      41.080  27.287  28.347  1.00  0.00     0.031 C 
ATOM     30  C   UNL A   1      43.049  31.783  29.401  1.00  0.00     0.029 A 
ATOM     31  N   UNL A   1      44.353  30.267  28.410  1.00  0.00    -0.354 N 
ATOM     32  C   UNL A   1      43.013  26.255  27.685  1.00  0.00     0.074 A 
ATOM     33  C   UNL A   1      41.585  26.147  27.897  1.00  0.00     0.031 C 
ATOM     34  C   UNL A   1      44.161  32.415  28.990  1.00  0.00     0.029 A 
ATOM     35  C   UNL A   1      45.070  31.443  28.388  1.00  0.00     0.049 A 
ATOM     36  H   UNL A   1      44.702  29.420  28.049  1.00  0.00     0.167 HD
ATOM     37  C   UNL A   1      43.797  25.249  27.230  1.00  0.00     0.031 A 
ATOM     38  C   UNL A   1      46.328  31.707  27.976  1.00  0.00     0.031 A 
ATOM     39  C   UNL A   1      45.208  25.373  26.978  1.00  0.00     0.049 A 
ATOM     40  C   UNL A   1      47.196  30.566  27.508  1.00  0.00     0.074 A 
ATOM     41  C   UNL A   1      46.108  24.391  26.602  1.00  0.00     0.029 A 
ATOM     42  N   UNL A   1      45.918  26.561  27.045  1.00  0.00    -0.354 N 
ATOM     43  N   UNL A   1      46.873  29.310  27.314  1.00  0.00    -0.248 NA
ATOM     44  C   UNL A   1      48.612  30.869  27.252  1.00  0.00     0.031 C 
ATOM     45  C   UNL A   1      47.372  24.981  26.478  1.00  0.00     0.029 A 
ATOM     46  C   UNL A   1      47.245  26.338  26.723  1.00  0.00     0.049 A 
ATOM     47  H   UNL A   1      45.534  27.435  27.286  1.00  0.00     0.167 HD
ATOM     48  C   UNL A   1      48.048  28.672  26.928  1.00  0.00     0.074 A 
ATOM     49  C   UNL A   1      49.078  29.688  26.870  1.00  0.00     0.031 C 
ATOM     50  C   UNL A   1      48.260  27.359  26.669  1.00  0.00     0.031 A 
BRANCH  37  51
ATOM     51  C   UNL A   1      43.158  23.894  27.084  1.00  0.00    -0.014 A 
ATOM     52  C   UNL A   1      42.930  23.050  28.183  1.00  0.00     0.010 A 
ATOM     53  C   UNL A   1      42.778  23.465  25.798  1.00  0.00     0.010 A 
ATOM     54  C   UNL A   1      42.377  21.780  27.991  1.00  0.00     0.020 A 
ATOM     55  C   UNL A   1      42.202  22.208  25.605  1.00  0.00     0.020 A 
ATOM     56  C   UNL A   1      42.025  21.364  26.702  1.00  0.00     0.054 A 
BRANCH  56  57
ATOM     57  S   UNL A   1      41.318  19.708  26.475  1.00  0.00     0.124 S 
ATOM     58  O   UNL A   1      39.927  20.019  26.151  1.00  0.00    -0.237 OA
ATOM     59  O   UNL A   1      42.112  19.166  25.377  1.00  0.00    -0.237 OA
ATOM     60  O   UNL A   1      41.525  19.062  27.770  1.00  0.00    -0.744 OA
ENDBRANCH  56  57
ENDBRANCH  37  51
BRANCH  38  61
ATOM     61  C   UNL A   1      46.892  33.088  28.066  1.00  0.00    -0.014 A 
ATOM     62  C   UNL A   1      46.890  33.943  26.949  1.00  0.00     0.010 A 
ATOM     63  C   UNL A   1      47.474  33.544  29.264  1.00  0.00     0.010 A 
ATOM     64  C   UNL A   1      47.473  35.215  27.023  1.00  0.00     0.020 A 
ATOM     65  C   UNL A   1      48.023  34.826  29.354  1.00  0.00     0.020 A 
ATOM     66  C   UNL A   1      48.035  35.647  28.226  1.00  0.00     0.054 A 
BRANCH  66  67
ATOM     67  S   UNL A   1      48.755  37.312  28.322  1.00  0.00     0.124 S 
ATOM     68  O   UNL A   1      48.776  37.713  26.919  1.00  0.00    -0.237 OA
ATOM     69  O   UNL A   1      47.802  38.024  29.170  1.00  0.00    -0.237 OA
ATOM     70  O   UNL A   1      50.064  37.081  28.929  1.00  0.00    -0.744 OA
ENDBRANCH  66  67
ENDBRANCH  38  61
BRANCH  50  71
ATOM     71  C   UNL A   1      49.655  26.942  26.285  1.00  0.00    -0.014 A 
ATOM     72  C   UNL A   1      50.556  26.457  27.248  1.00  0.00     0.010 A 
ATOM     73  C   UNL A   1      50.046  26.975  24.934  1.00  0.00     0.010 A 
ATOM     74  C   UNL A   1      51.834  26.036  26.872  1.00  0.00     0.020 A 
ATOM     75  C   UNL A   1      51.314  26.534  24.550  1.00  0.00     0.020 A 
ATOM     76  C   UNL A   1      52.205  26.076  25.524  1.00  0.00     0.054 A 
BRANCH  76  77
ATOM     77  S   UNL A   1      53.851  25.474  25.051  1.00  0.00     0.124 S 
ATOM     78  O   UNL A   1      54.014  26.049  23.718  1.00  0.00    -0.237 OA
ATOM     79  O   UNL A   1      54.710  26.039  26.088  1.00  0.00    -0.237 OA
ATOM     80  O   UNL A   1      53.712  24.020  25.090  1.00  0.00    -0.744 OA
ENDBRANCH  76  77
ENDBRANCH  50  71
ENDBRANCH  24  25
ENDBRANCH  17  19
ENDBRANCH  16  17
ENDBRANCH   1  16
TORSDOF 15
ENDMDL
MODEL 2
REMARK VINA RESULT:      -9.5      5.923     13.721
REMARK SMILES CC[C@H]1CCC/C(=C(\C)C(=O)OCCOC(=O)c2ccc(-c3c4nc(c(-c5ccc(S(=O)(=O)[O-])cc5)c5ccc([nH]5)c(-c5ccc(S(=O)(=O)[O-])cc5)c5nc(c(-c6ccc(S(=O)(=O)[O-])cc6)c6ccc3[nH]6)C=C5)C=C4)cc2)C1
REMARK SMILES IDX 14 1 13 2 12 3 10 4 11 5 8 6 3 7 4 8 78 9 5 10 7 11 6 12
REMARK SMILES IDX 9 13 2 14 1 15 15 16 16 17 17 18 18 19 19 20 77 21 20 22
REMARK SMILES IDX 76 23 21 24 22 25 23 26 70 27 24 28 75 29 69 30 71 31 25 32
REMARK SMILES IDX 74 33 68 34 67 35 26 37 56 38 37 39 55 40 38 41 41 42 54 43
REMARK SMILES IDX 72 44 39 45 40 46 53 48 73 49 42 50 27 51 28 52 36 53 29 54
REMARK SMILES IDX 35 55 30 56 31 57 32 58 33 59 34 60 57 61 58 62 66 63 59 64
REMARK SMILES IDX 65 65 60 66 61 67 62 68 63 69 64 70 43 71 44 72 52 73 45 74
REMARK SMILES IDX 51 75 46 76 47 77 48 78 49 79 50 80
REMARK H PARENT 71 36 41 47
REMARK Flexibility Score: inf
ROOT
ATOM      1  C   UNL A   1      42.224  23.070  25.594  1.00  0.00     0.275 C 
ENDROOT
BRANCH   1   2
ATOM      2  C   UNL A   1      43.605  22.780  26.182  1.00  0.00     0.275 C 
BRANCH   2   3
ATOM      3  O   UNL A   1      44.612  23.367  25.332  1.00  0.00    -0.459 OA
BRANCH   3   4
ATOM      4  C   UNL A   1      45.899  23.105  25.671  1.00  0.00     0.333 C 
ATOM      5  O   UNL A   1      46.422  22.005  25.756  1.00  0.00    -0.247 OA
BRANCH   4   6
ATOM      6  C   UNL A   1      46.597  24.389  25.972  1.00  0.00     0.033 C 
ATOM      7  C   UNL A   1      44.902  25.156  29.174  1.00  0.00    -0.007 C 
ATOM      8  C   UNL A   1      45.691  26.381  29.660  1.00  0.00     0.004 C 
ATOM      9  C   UNL A   1      45.857  24.243  28.390  1.00  0.00     0.035 C 
ATOM     10  C   UNL A   1      46.320  27.117  28.478  1.00  0.00     0.005 C 
ATOM     11  C   UNL A   1      46.538  24.924  27.217  1.00  0.00    -0.060 C 
ATOM     12  C   UNL A   1      47.224  26.212  27.634  1.00  0.00     0.031 C 
ATOM     13  C   UNL A   1      47.307  24.948  24.775  1.00  0.00     0.052 C 
BRANCH   7  14
ATOM     14  C   UNL A   1      44.264  24.424  30.371  1.00  0.00     0.000 C 
ATOM     15  C   UNL A   1      43.510  23.160  29.977  1.00  0.00     0.004 C 
ENDBRANCH   7  14
ENDBRANCH   4   6
ENDBRANCH   3   4
ENDBRANCH   2   3
ENDBRANCH   1   2
BRANCH   1  16
ATOM     16  O   UNL A   1      41.617  24.101  26.390  1.00  0.00    -0.458 OA
BRANCH  16  17
ATOM     17  C   UNL A   1      41.963  25.379  26.097  1.00  0.00     0.338 C 
ATOM     18  O   UNL A   1      42.227  25.834  25.000  1.00  0.00    -0.246 OA
BRANCH  17  19
ATOM     19  C   UNL A   1      41.936  26.173  27.349  1.00  0.00     0.060 A 
ATOM     20  C   UNL A   1      41.132  25.747  28.401  1.00  0.00     0.016 A 
ATOM     21  C   UNL A   1      42.623  27.382  27.459  1.00  0.00     0.016 A 
ATOM     22  C   UNL A   1      40.966  26.548  29.530  1.00  0.00     0.010 A 
ATOM     23  C   UNL A   1      42.517  28.146  28.637  1.00  0.00     0.010 A 
ATOM     24  C   UNL A   1      41.665  27.749  29.682  1.00  0.00    -0.014 A 
BRANCH  24  25
ATOM     25  C   UNL A   1      41.393  28.610  30.877  1.00  0.00     0.031 A 
ATOM     26  C   UNL A   1      40.173  29.497  30.894  1.00  0.00     0.074 A 
ATOM     27  C   UNL A   1      42.146  28.532  31.997  1.00  0.00     0.049 A 
ATOM     28  N   UNL A   1      39.843  30.433  31.747  1.00  0.00    -0.248 NA
ATOM     29  C   UNL A   1      39.198  29.305  29.809  1.00  0.00     0.031 C 
ATOM     30  C   UNL A   1      43.286  27.634  32.196  1.00  0.00     0.029 A 
ATOM     31  N   UNL A   1      42.036  29.184  33.205  1.00  0.00    -0.354 N 
ATOM     32  C   UNL A   1      38.674  31.001  31.253  1.00  0.00     0.074 A 
ATOM     33  C   UNL A   1      38.332  30.279  30.046  1.00  0.00     0.031 C 
ATOM     34  C   UNL A   1      43.702  27.722  33.471  1.00  0.00     0.029 A 
ATOM     35  C   UNL A   1      42.947  28.770  34.150  1.00  0.00     0.049 A 
ATOM     36  H   UNL A   1      41.364  29.884  33.376  1.00  0.00     0.167 HD
ATOM     37  C   UNL A   1      37.969  32.049  31.743  1.00  0.00     0.031 A 
ATOM     38  C   UNL A   1      43.184  29.209  35.405  1.00  0.00     0.031 A 
ATOM     39  C   UNL A   1      38.286  32.735  32.967  1.00  0.00     0.049 A 
ATOM     40  C   UNL A   1      42.414  30.400  35.918  1.00  0.00     0.074 A 
ATOM     41  C   UNL A   1      37.689  33.862  33.506  1.00  0.00     0.029 A 
ATOM     42  N   UNL A   1      39.267  32.338  33.861  1.00  0.00    -0.354 N 
ATOM     43  N   UNL A   1      41.415  31.039  35.358  1.00  0.00    -0.248 NA
ATOM     44  C   UNL A   1      42.838  30.960  37.210  1.00  0.00     0.031 C 
ATOM     45  C   UNL A   1      38.337  34.169  34.708  1.00  0.00     0.029 A 
ATOM     46  C   UNL A   1      39.298  33.200  34.944  1.00  0.00     0.049 A 
ATOM     47  H   UNL A   1      39.857  31.559  33.743  1.00  0.00     0.167 HD
ATOM     48  C   UNL A   1      41.102  32.084  36.223  1.00  0.00     0.074 A 
ATOM     49  C   UNL A   1      41.985  31.963  37.364  1.00  0.00     0.031 C 
ATOM     50  C   UNL A   1      40.182  33.068  36.074  1.00  0.00     0.031 A 
BRANCH  37  51
ATOM     51  C   UNL A   1      36.849  32.582  30.890  1.00  0.00    -0.014 A 
ATOM     52  C   UNL A   1      35.506  32.234  31.112  1.00  0.00     0.010 A 
ATOM     53  C   UNL A   1      37.166  33.458  29.835  1.00  0.00     0.010 A 
ATOM     54  C   UNL A   1      34.506  32.717  30.262  1.00  0.00     0.020 A 
ATOM     55  C   UNL A   1      36.168  33.963  29.000  1.00  0.00     0.020 A 
ATOM     56  C   UNL A   1      34.844  33.571  29.206  1.00  0.00     0.054 A 
BRANCH  56  57
ATOM     57  S   UNL A   1      33.532  34.178  28.111  1.00  0.00     0.124 S 
ATOM     58  O   UNL A   1      34.289  34.978  27.151  1.00  0.00    -0.237 OA
ATOM     59  O   UNL A   1      32.955  32.944  27.584  1.00  0.00    -0.237 OA
ATOM     60  O   UNL A   1      32.659  34.938  29.004  1.00  0.00    -0.744 OA
ENDBRANCH  56  57
ENDBRANCH  37  51
BRANCH  38  61
ATOM     61  C   UNL A   1      44.255  28.593  36.245  1.00  0.00    -0.014 A 
ATOM     62  C   UNL A   1      45.575  29.076  36.201  1.00  0.00     0.010 A 
ATOM     63  C   UNL A   1      43.968  27.487  37.069  1.00  0.00     0.010 A 
ATOM     64  C   UNL A   1      46.587  28.456  36.946  1.00  0.00     0.020 A 
ATOM     65  C   UNL A   1      44.966  26.889  37.843  1.00  0.00     0.020 A 
ATOM     66  C   UNL A   1      46.275  27.367  37.762  1.00  0.00     0.054 A 
BRANCH  66  67
ATOM     67  S   UNL A   1      47.586  26.595  38.753  1.00  0.00     0.124 S 
ATOM     68  O   UNL A   1      48.756  26.773  37.897  1.00  0.00    -0.237 OA
ATOM     69  O   UNL A   1      47.571  27.389  39.979  1.00  0.00    -0.237 OA
ATOM     70  O   UNL A   1      47.126  25.216  38.909  1.00  0.00    -0.744 OA
ENDBRANCH  66  67
ENDBRANCH  38  61
BRANCH  50  71
ATOM     71  C   UNL A   1      40.071  34.089  37.174  1.00  0.00    -0.014 A 
ATOM     72  C   UNL A   1      40.766  35.308  37.104  1.00  0.00     0.010 A 
ATOM     73  C   UNL A   1      39.209  33.851  38.261  1.00  0.00     0.010 A 
ATOM     74  C   UNL A   1      40.622  36.264  38.114  1.00  0.00     0.020 A 
ATOM     75  C   UNL A   1      39.045  34.813  39.261  1.00  0.00     0.020 A 
ATOM     76  C   UNL A   1      39.761  36.010  39.186  1.00  0.00     0.054 A 
BRANCH  76  77
ATOM     77  S   UNL A   1      39.548  37.287  40.458  1.00  0.00     0.124 S 
ATOM     78  O   UNL A   1      38.932  36.532  41.547  1.00  0.00    -0.237 OA
ATOM     79  O   UNL A   1      40.918  37.732  40.699  1.00  0.00    -0.237 OA
ATOM     80  O   UNL A   1      38.683  38.274  39.817  1.00  0.00    -0.744 OA
ENDBRANCH  76  77
ENDBRANCH  50  71
ENDBRANCH  24  25
ENDBRANCH  17  19
ENDBRANCH  16  17
ENDBRANCH   1  16
TORSDOF 15
ENDMDL
MODEL 3
REMARK VINA RESULT:      -9.5      6.915     13.362
REMARK SMILES CC[C@H]1CCC/C(=C(\C)C(=O)OCCOC(=O)c2ccc(-c3c4nc(c(-c5ccc(S(=O)(=O)[O-])cc5)c5ccc([nH]5)c(-c5ccc(S(=O)(=O)[O-])cc5)c5nc(c(-c6ccc(S(=O)(=O)[O-])cc6)c6ccc3[nH]6)C=C5)C=C4)cc2)C1
REMARK SMILES IDX 14 1 13 2 12 3 10 4 11 5 8 6 3 7 4 8 78 9 5 10 7 11 6 12
REMARK SMILES IDX 9 13 2 14 1 15 15 16 16 17 17 18 18 19 19 20 77 21 20 22
REMARK SMILES IDX 76 23 21 24 22 25 23 26 70 27 24 28 75 29 69 30 71 31 25 32
REMARK SMILES IDX 74 33 68 34 67 35 26 37 56 38 37 39 55 40 38 41 41 42 54 43
REMARK SMILES IDX 72 44 39 45 40 46 53 48 73 49 42 50 27 51 28 52 36 53 29 54
REMARK SMILES IDX 35 55 30 56 31 57 32 58 33 59 34 60 57 61 58 62 66 63 59 64
REMARK SMILES IDX 65 65 60 66 61 67 62 68 63 69 64 70 43 71 44 72 52 73 45 74
REMARK SMILES IDX 51 75 46 76 47 77 48 78 49 79 50 80
REMARK H PARENT 71 36 41 47
REMARK Flexibility Score: inf
ROOT
ATOM      1  C   UNL A   1      39.614  22.263  26.301  1.00  0.00     0.275 C 
ENDROOT
BRANCH   1   2
ATOM      2  C   UNL A   1      38.302  21.740  25.716  1.00  0.00     0.275 C 
BRANCH   2   3
ATOM      3  O   UNL A   1      37.416  22.853  25.477  1.00  0.00    -0.459 OA
BRANCH   3   4
ATOM      4  C   UNL A   1      36.587  22.731  24.409  1.00  0.00     0.333 C 
ATOM      5  O   UNL A   1      36.917  22.584  23.242  1.00  0.00    -0.247 OA
BRANCH   4   6
ATOM      6  C   UNL A   1      35.173  22.842  24.871  1.00  0.00     0.033 C 
ATOM      7  C   UNL A   1      34.160  19.331  24.273  1.00  0.00    -0.007 C 
ATOM      8  C   UNL A   1      32.757  19.299  24.897  1.00  0.00     0.004 C 
ATOM      9  C   UNL A   1      35.023  20.322  25.069  1.00  0.00     0.035 C 
ATOM     10  C   UNL A   1      32.140  20.697  24.899  1.00  0.00     0.005 C 
ATOM     11  C   UNL A   1      34.450  21.725  25.135  1.00  0.00    -0.060 C 
ATOM     12  C   UNL A   1      33.014  21.726  25.627  1.00  0.00     0.031 C 
ATOM     13  C   UNL A   1      34.718  24.267  24.982  1.00  0.00     0.052 C 
BRANCH   7  14
ATOM     14  C   UNL A   1      34.772  17.916  24.267  1.00  0.00     0.000 C 
ATOM     15  C   UNL A   1      34.077  16.960  23.306  1.00  0.00     0.004 C 
ENDBRANCH   7  14
ENDBRANCH   4   6
ENDBRANCH   3   4
ENDBRANCH   2   3
ENDBRANCH   1   2
BRANCH   1  16
ATOM     16  O   UNL A   1      39.344  23.536  26.911  1.00  0.00    -0.458 OA
BRANCH  16  17
ATOM     17  C   UNL A   1      40.107  24.580  26.504  1.00  0.00     0.338 C 
ATOM     18  O   UNL A   1      40.579  24.756  25.396  1.00  0.00    -0.246 OA
BRANCH  17  19
ATOM     19  C   UNL A   1      40.256  25.525  27.637  1.00  0.00     0.060 A 
ATOM     20  C   UNL A   1      39.293  25.531  28.641  1.00  0.00     0.016 A 
ATOM     21  C   UNL A   1      41.283  26.467  27.669  1.00  0.00     0.016 A 
ATOM     22  C   UNL A   1      39.320  26.506  29.637  1.00  0.00     0.010 A 
ATOM     23  C   UNL A   1      41.353  27.396  28.724  1.00  0.00     0.010 A 
ATOM     24  C   UNL A   1      40.354  27.444  29.713  1.00  0.00    -0.014 A 
BRANCH  24  25
ATOM     25  C   UNL A   1      40.297  28.518  30.755  1.00  0.00     0.031 A 
ATOM     26  C   UNL A   1      41.374  28.593  31.808  1.00  0.00     0.074 A 
ATOM     27  C   UNL A   1      39.369  29.500  30.714  1.00  0.00     0.049 A 
ATOM     28  N   UNL A   1      41.427  29.332  32.886  1.00  0.00    -0.248 NA
ATOM     29  C   UNL A   1      42.546  27.722  31.621  1.00  0.00     0.031 C 
ATOM     30  C   UNL A   1      38.331  29.650  29.691  1.00  0.00     0.029 A 
ATOM     31  N   UNL A   1      39.177  30.594  31.529  1.00  0.00    -0.354 N 
ATOM     32  C   UNL A   1      42.587  28.950  33.552  1.00  0.00     0.074 A 
ATOM     33  C   UNL A   1      43.229  27.941  32.735  1.00  0.00     0.031 C 
ATOM     34  C   UNL A   1      37.684  30.812  29.884  1.00  0.00     0.029 A 
ATOM     35  C   UNL A   1      38.168  31.433  31.113  1.00  0.00     0.049 A 
ATOM     36  H   UNL A   1      39.715  30.760  32.337  1.00  0.00     0.167 HD
ATOM     37  C   UNL A   1      43.057  29.379  34.747  1.00  0.00     0.031 A 
ATOM     38  C   UNL A   1      37.656  32.549  31.674  1.00  0.00     0.031 A 
ATOM     39  C   UNL A   1      42.441  30.414  35.535  1.00  0.00     0.049 A 
ATOM     40  C   UNL A   1      38.168  32.987  33.023  1.00  0.00     0.074 A 
ATOM     41  C   UNL A   1      42.787  30.859  36.799  1.00  0.00     0.029 A 
ATOM     42  N   UNL A   1      41.371  31.188  35.118  1.00  0.00    -0.354 N 
ATOM     43  N   UNL A   1      39.165  32.504  33.724  1.00  0.00    -0.248 NA
ATOM     44  C   UNL A   1      37.451  34.091  33.680  1.00  0.00     0.031 C 
ATOM     45  C   UNL A   1      41.900  31.879  37.162  1.00  0.00     0.029 A 
ATOM     46  C   UNL A   1      41.038  32.105  36.101  1.00  0.00     0.049 A 
ATOM     47  H   UNL A   1      40.913  31.100  34.251  1.00  0.00     0.167 HD
ATOM     48  C   UNL A   1      39.185  33.234  34.908  1.00  0.00     0.074 A 
ATOM     49  C   UNL A   1      38.132  34.223  34.810  1.00  0.00     0.031 C 
ATOM     50  C   UNL A   1      39.988  33.084  35.990  1.00  0.00     0.031 A 
BRANCH  37  51
ATOM     51  C   UNL A   1      44.238  28.645  35.323  1.00  0.00    -0.014 A 
ATOM     52  C   UNL A   1      45.563  29.035  35.064  1.00  0.00     0.010 A 
ATOM     53  C   UNL A   1      43.999  27.529  36.149  1.00  0.00     0.010 A 
ATOM     54  C   UNL A   1      46.628  28.292  35.583  1.00  0.00     0.020 A 
ATOM     55  C   UNL A   1      45.060  26.801  36.690  1.00  0.00     0.020 A 
ATOM     56  C   UNL A   1      46.370  27.174  36.385  1.00  0.00     0.054 A 
BRANCH  56  57
ATOM     57  S   UNL A   1      47.767  26.220  37.039  1.00  0.00     0.124 S 
ATOM     58  O   UNL A   1      48.519  27.246  37.758  1.00  0.00    -0.237 OA
ATOM     59  O   UNL A   1      47.111  25.221  37.877  1.00  0.00    -0.237 OA
ATOM     60  O   UNL A   1      48.420  25.694  35.842  1.00  0.00    -0.744 OA
ENDBRANCH  56  57
ENDBRANCH  37  51
BRANCH  38  61
ATOM     61  C   UNL A   1      36.535  33.291  31.022  1.00  0.00    -0.014 A 
ATOM     62  C   UNL A   1      36.663  33.787  29.711  1.00  0.00     0.010 A 
ATOM     63  C   UNL A   1      35.341  33.544  31.725  1.00  0.00     0.010 A 
ATOM     64  C   UNL A   1      35.631  34.532  29.127  1.00  0.00     0.020 A 
ATOM     65  C   UNL A   1      34.294  34.254  31.133  1.00  0.00     0.020 A 
ATOM     66  C   UNL A   1      34.453  34.761  29.842  1.00  0.00     0.054 A 
BRANCH  66  67
ATOM     67  S   UNL A   1      33.107  35.696  29.061  1.00  0.00     0.124 S 
ATOM     68  O   UNL A   1      32.512  34.693  28.184  1.00  0.00    -0.237 OA
ATOM     69  O   UNL A   1      32.294  36.102  30.205  1.00  0.00    -0.237 OA
ATOM     70  O   UNL A   1      33.803  36.789  28.384  1.00  0.00    -0.744 OA
ENDBRANCH  66  67
ENDBRANCH  38  61
BRANCH  50  71
ATOM     71  C   UNL A   1      39.772  34.015  37.152  1.00  0.00    -0.014 A 
ATOM     72  C   UNL A   1      40.273  35.328  37.131  1.00  0.00     0.010 A 
ATOM     73  C   UNL A   1      39.002  33.592  38.251  1.00  0.00     0.010 A 
ATOM     74  C   UNL A   1      40.031  36.195  38.199  1.00  0.00     0.020 A 
ATOM     75  C   UNL A   1      38.738  34.463  39.311  1.00  0.00     0.020 A 
ATOM     76  C   UNL A   1      39.263  35.757  39.283  1.00  0.00     0.054 A 
BRANCH  76  77
ATOM     77  S   UNL A   1      38.916  36.917  40.635  1.00  0.00     0.124 S 
ATOM     78  O   UNL A   1      38.169  37.969  39.950  1.00  0.00    -0.237 OA
ATOM     79  O   UNL A   1      38.142  36.102  41.568  1.00  0.00    -0.237 OA
ATOM     80  O   UNL A   1      40.243  37.303  41.109  1.00  0.00    -0.744 OA
ENDBRANCH  76  77
ENDBRANCH  50  71
ENDBRANCH  24  25
ENDBRANCH  17  19
ENDBRANCH  16  17
ENDBRANCH   1  16
TORSDOF 15
ENDMDL
