MODEL 1
REMARK VINA RESULT:      -9.3      0.000      0.000
REMARK SMILES CC(C)[C@H](NC(=O)[C@H](C)NC(=O)C[NH3+])C(=O)OCCOC(=O)c1ccc(-c2c3nc(c(-c4ccc(S(=O)(=O)[O-])cc4)c4ccc([nH]4)c(-c4ccc(S(=O)(=O)[O-])cc4)c4nc(c(-c5ccc(S(=O)(=O)[O-])cc5)c5ccc2[nH]5)C=C4)C=C3)cc1
REMARK SMILES IDX 18 1 17 2 15 3 16 4 4 5 2 6 1 7 3 8 5 9 6 10 7 12 8 13 9 14
REMARK SMILES IDX 10 15 11 16 12 18 13 19 14 20 19 24 20 25 21 26 22 27 23 28
REMARK SMILES IDX 24 29 82 30 25 31 81 32 26 33 27 34 28 35 75 36 29 37 80 38
REMARK SMILES IDX 74 39 76 40 30 41 79 42 73 43 72 44 31 46 61 47 42 48 60 49
REMARK SMILES IDX 43 50 46 51 59 52 77 53 44 54 45 55 58 57 78 58 47 59 32 60
REMARK SMILES IDX 33 61 41 62 34 63 40 64 35 65 36 66 37 67 38 68 39 69 62 70
REMARK SMILES IDX 63 71 71 72 64 73 70 74 65 75 66 76 67 77 68 78 69 79 48 80
REMARK SMILES IDX 49 81 57 82 50 83 56 84 51 85 52 86 53 87 54 88 55 89
REMARK H PARENT 5 11 10 17 14 21 14 22 14 23 76 45 46 56
REMARK Flexibility Score: inf
ROOT
ATOM      1  C   UNL A   1      32.458  27.624  26.175  1.00  0.00     0.274 C 
ENDROOT
BRANCH   1   2
ATOM      2  O   UNL A   1      33.649  26.813  26.078  1.00  0.00    -0.461 OA
BRANCH   2   3
ATOM      3  C   UNL A   1      33.832  26.171  24.892  1.00  0.00     0.329 C 
ATOM      4  O   UNL A   1      33.891  26.740  23.807  1.00  0.00    -0.250 OA
BRANCH   3   5
ATOM      5  C   UNL A   1      33.957  24.634  25.031  1.00  0.00     0.194 C 
BRANCH   5   6
ATOM      6  C   UNL A   1      35.466  24.258  24.955  1.00  0.00     0.017 C 
ATOM      7  C   UNL A   1      35.923  23.478  26.190  1.00  0.00     0.010 C 
ATOM      8  C   UNL A   1      35.844  23.484  23.684  1.00  0.00     0.010 C 
ENDBRANCH   5   6
BRANCH   5   9
ATOM      9  N   UNL A   1      33.165  23.865  24.068  1.00  0.00    -0.341 N 
ATOM     10  C   UNL A   1      32.316  22.814  24.161  1.00  0.00     0.243 C 
ATOM     11  H   UNL A   1      33.276  24.184  23.144  1.00  0.00     0.164 HD
ATOM     12  O   UNL A   1      31.868  22.434  23.067  1.00  0.00    -0.273 OA
BRANCH  10  13
ATOM     13  C   UNL A   1      31.976  22.000  25.448  1.00  0.00     0.168 C 
ATOM     14  C   UNL A   1      32.217  20.518  25.109  1.00  0.00     0.041 C 
BRANCH  13  15
ATOM     15  N   UNL A   1      30.647  22.081  26.034  1.00  0.00    -0.340 N 
ATOM     16  C   UNL A   1      30.185  23.097  26.826  1.00  0.00     0.275 C 
ATOM     17  H   UNL A   1      30.026  21.342  25.843  1.00  0.00     0.164 HD
ATOM     18  O   UNL A   1      29.503  22.820  27.816  1.00  0.00    -0.268 OA
BRANCH  16  19
ATOM     19  C   UNL A   1      30.515  24.555  26.521  1.00  0.00     0.360 C 
BRANCH  19  20
ATOM     20  N   UNL A   1      29.597  25.048  25.485  1.00  0.00    -0.350 N 
ATOM     21  H   UNL A   1      28.762  24.462  25.465  1.00  0.00     0.344 HD
ATOM     22  H   UNL A   1      30.059  25.015  24.577  1.00  0.00     0.344 HD
ATOM     23  H   UNL A   1      29.332  26.010  25.697  1.00  0.00     0.344 HD
ENDBRANCH  19  20
ENDBRANCH  16  19
ENDBRANCH  13  15
ENDBRANCH  10  13
ENDBRANCH   5   9
ENDBRANCH   3   5
ENDBRANCH   2   3
ENDBRANCH   1   2
BRANCH   1  24
ATOM     24  C   UNL A   1      32.674  28.913  26.984  1.00  0.00     0.275 C 
BRANCH  24  25
ATOM     25  O   UNL A   1      33.803  29.683  26.525  1.00  0.00    -0.458 OA
BRANCH  25  26
ATOM     26  C   UNL A   1      34.429  30.357  27.514  1.00  0.00     0.338 C 
ATOM     27  O   UNL A   1      33.947  31.266  28.174  1.00  0.00    -0.246 OA
BRANCH  26  28
ATOM     28  C   UNL A   1      35.749  29.806  27.840  1.00  0.00     0.060 A 
ATOM     29  C   UNL A   1      35.991  29.425  29.164  1.00  0.00     0.016 A 
ATOM     30  C   UNL A   1      36.803  29.928  26.933  1.00  0.00     0.016 A 
ATOM     31  C   UNL A   1      37.294  29.225  29.604  1.00  0.00     0.010 A 
ATOM     32  C   UNL A   1      38.112  29.683  27.367  1.00  0.00     0.010 A 
ATOM     33  C   UNL A   1      38.365  29.355  28.709  1.00  0.00    -0.014 A 
BRANCH  33  34
ATOM     34  C   UNL A   1      39.731  29.015  29.167  1.00  0.00     0.031 A 
ATOM     35  C   UNL A   1      40.602  29.995  29.896  1.00  0.00     0.074 A 
ATOM     36  C   UNL A   1      40.168  27.767  28.919  1.00  0.00     0.049 A 
ATOM     37  N   UNL A   1      41.832  29.836  30.318  1.00  0.00    -0.248 NA
ATOM     38  C   UNL A   1      40.025  31.310  30.214  1.00  0.00     0.031 C 
ATOM     39  C   UNL A   1      39.382  26.721  28.259  1.00  0.00     0.029 A 
ATOM     40  N   UNL A   1      41.372  27.170  29.179  1.00  0.00    -0.354 N 
ATOM     41  C   UNL A   1      42.175  31.018  30.962  1.00  0.00     0.074 A 
ATOM     42  C   UNL A   1      41.027  31.898  30.861  1.00  0.00     0.031 C 
ATOM     43  C   UNL A   1      40.129  25.615  28.153  1.00  0.00     0.029 A 
ATOM     44  C   UNL A   1      41.460  25.896  28.677  1.00  0.00     0.049 A 
ATOM     45  H   UNL A   1      42.100  27.610  29.674  1.00  0.00     0.167 HD
ATOM     46  C   UNL A   1      43.340  31.332  31.578  1.00  0.00     0.031 A 
ATOM     47  C   UNL A   1      42.508  25.059  28.590  1.00  0.00     0.031 A 
ATOM     48  C   UNL A   1      44.489  30.461  31.634  1.00  0.00     0.049 A 
ATOM     49  C   UNL A   1      43.833  25.496  29.125  1.00  0.00     0.074 A 
ATOM     50  C   UNL A   1      45.702  30.670  32.268  1.00  0.00     0.029 A 
ATOM     51  N   UNL A   1      44.577  29.227  31.006  1.00  0.00    -0.354 N 
ATOM     52  N   UNL A   1      44.136  26.610  29.745  1.00  0.00    -0.248 NA
ATOM     53  C   UNL A   1      44.959  24.576  28.934  1.00  0.00     0.031 C 
ATOM     54  C   UNL A   1      46.545  29.589  31.972  1.00  0.00     0.029 A 
ATOM     55  C   UNL A   1      45.841  28.688  31.190  1.00  0.00     0.049 A 
ATOM     56  H   UNL A   1      43.848  28.797  30.503  1.00  0.00     0.167 HD
ATOM     57  C   UNL A   1      45.494  26.532  30.016  1.00  0.00     0.074 A 
ATOM     58  C   UNL A   1      45.948  25.251  29.507  1.00  0.00     0.031 C 
ATOM     59  C   UNL A   1      46.290  27.439  30.633  1.00  0.00     0.031 A 
BRANCH  46  60
ATOM     60  C   UNL A   1      43.456  32.684  32.228  1.00  0.00    -0.014 A 
ATOM     61  C   UNL A   1      43.863  33.808  31.487  1.00  0.00     0.010 A 
ATOM     62  C   UNL A   1      43.060  32.854  33.567  1.00  0.00     0.010 A 
ATOM     63  C   UNL A   1      43.882  35.076  32.078  1.00  0.00     0.020 A 
ATOM     64  C   UNL A   1      43.067  34.122  34.158  1.00  0.00     0.020 A 
ATOM     65  C   UNL A   1      43.485  35.225  33.411  1.00  0.00     0.054 A 
BRANCH  65  66
ATOM     66  S   UNL A   1      43.472  36.889  34.138  1.00  0.00     0.124 S 
ATOM     67  O   UNL A   1      44.617  36.830  35.044  1.00  0.00    -0.237 OA
ATOM     68  O   UNL A   1      43.639  37.752  32.972  1.00  0.00    -0.237 OA
ATOM     69  O   UNL A   1      42.166  36.972  34.788  1.00  0.00    -0.744 OA
ENDBRANCH  65  66
ENDBRANCH  46  60
BRANCH  47  70
ATOM     70  C   UNL A   1      42.325  23.770  27.881  1.00  0.00    -0.014 A 
ATOM     71  C   UNL A   1      42.864  23.572  26.601  1.00  0.00     0.010 A 
ATOM     72  C   UNL A   1      41.718  22.691  28.552  1.00  0.00     0.010 A 
ATOM     73  C   UNL A   1      42.827  22.304  26.014  1.00  0.00     0.020 A 
ATOM     74  C   UNL A   1      41.697  21.420  27.978  1.00  0.00     0.020 A 
ATOM     75  C   UNL A   1      42.255  21.234  26.712  1.00  0.00     0.054 A 
BRANCH  75  76
ATOM     76  S   UNL A   1      42.343  19.565  26.004  1.00  0.00     0.124 S 
ATOM     77  O   UNL A   1      42.917  18.799  27.106  1.00  0.00    -0.237 OA
ATOM     78  O   UNL A   1      40.947  19.273  25.690  1.00  0.00    -0.237 OA
ATOM     79  O   UNL A   1      43.210  19.739  24.839  1.00  0.00    -0.744 OA
ENDBRANCH  75  76
ENDBRANCH  47  70
BRANCH  59  80
ATOM     80  C   UNL A   1      47.740  27.074  30.763  1.00  0.00    -0.014 A 
ATOM     81  C   UNL A   1      48.176  26.252  31.818  1.00  0.00     0.010 A 
ATOM     82  C   UNL A   1      48.676  27.563  29.836  1.00  0.00     0.010 A 
ATOM     83  C   UNL A   1      49.533  25.959  31.967  1.00  0.00     0.020 A 
ATOM     84  C   UNL A   1      50.031  27.256  29.972  1.00  0.00     0.020 A 
ATOM     85  C   UNL A   1      50.453  26.472  31.049  1.00  0.00     0.054 A 
BRANCH  85  86
ATOM     86  S   UNL A   1      52.213  26.081  31.257  1.00  0.00     0.124 S 
ATOM     87  O   UNL A   1      52.668  27.182  32.102  1.00  0.00    -0.237 OA
ATOM     88  O   UNL A   1      52.182  24.769  31.897  1.00  0.00    -0.237 OA
ATOM     89  O   UNL A   1      52.730  26.088  29.890  1.00  0.00    -0.744 OA
ENDBRANCH  85  86
ENDBRANCH  59  80
ENDBRANCH  33  34
ENDBRANCH  26  28
ENDBRANCH  25  26
ENDBRANCH  24  25
ENDBRANCH   1  24
TORSDOF 20
ENDMDL
MODEL 2
REMARK VINA RESULT:      -9.2      5.622     11.844
REMARK SMILES CC(C)[C@H](NC(=O)[C@H](C)NC(=O)C[NH3+])C(=O)OCCOC(=O)c1ccc(-c2c3nc(c(-c4ccc(S(=O)(=O)[O-])cc4)c4ccc([nH]4)c(-c4ccc(S(=O)(=O)[O-])cc4)c4nc(c(-c5ccc(S(=O)(=O)[O-])cc5)c5ccc2[nH]5)C=C4)C=C3)cc1
REMARK SMILES IDX 18 1 17 2 15 3 16 4 4 5 2 6 1 7 3 8 5 9 6 10 7 12 8 13 9 14
REMARK SMILES IDX 10 15 11 16 12 18 13 19 14 20 19 24 20 25 21 26 22 27 23 28
REMARK SMILES IDX 24 29 82 30 25 31 81 32 26 33 27 34 28 35 75 36 29 37 80 38
REMARK SMILES IDX 74 39 76 40 30 41 79 42 73 43 72 44 31 46 61 47 42 48 60 49
REMARK SMILES IDX 43 50 46 51 59 52 77 53 44 54 45 55 58 57 78 58 47 59 32 60
REMARK SMILES IDX 33 61 41 62 34 63 40 64 35 65 36 66 37 67 38 68 39 69 62 70
REMARK SMILES IDX 63 71 71 72 64 73 70 74 65 75 66 76 67 77 68 78 69 79 48 80
REMARK SMILES IDX 49 81 57 82 50 83 56 84 51 85 52 86 53 87 54 88 55 89
REMARK H PARENT 5 11 10 17 14 21 14 22 14 23 76 45 46 56
REMARK Flexibility Score: inf
ROOT
ATOM      1  C   UNL A   1      42.881  24.555  27.309  1.00  0.00     0.274 C 
ENDROOT
BRANCH   1   2
ATOM      2  O   UNL A   1      44.176  24.955  26.812  1.00  0.00    -0.461 OA
BRANCH   2   3
ATOM      3  C   UNL A   1      45.216  24.140  27.142  1.00  0.00     0.329 C 
ATOM      4  O   UNL A   1      45.438  23.744  28.282  1.00  0.00    -0.250 OA
BRANCH   3   5
ATOM      5  C   UNL A   1      46.109  23.754  25.938  1.00  0.00     0.194 C 
BRANCH   5   6
ATOM      6  C   UNL A   1      47.047  24.956  25.622  1.00  0.00     0.017 C 
ATOM      7  C   UNL A   1      48.147  25.114  26.674  1.00  0.00     0.010 C 
ATOM      8  C   UNL A   1      47.674  24.894  24.221  1.00  0.00     0.010 C 
ENDBRANCH   5   6
BRANCH   5   9
ATOM      9  N   UNL A   1      45.376  23.318  24.747  1.00  0.00    -0.341 N 
ATOM     10  C   UNL A   1      44.852  22.141  24.332  1.00  0.00     0.243 C 
ATOM     11  H   UNL A   1      45.234  24.046  24.101  1.00  0.00     0.164 HD
ATOM     12  O   UNL A   1      44.324  22.195  23.209  1.00  0.00    -0.273 OA
BRANCH  10  13
ATOM     13  C   UNL A   1      44.967  20.763  25.054  1.00  0.00     0.168 C 
ATOM     14  C   UNL A   1      46.389  20.239  24.781  1.00  0.00     0.041 C 
BRANCH  13  15
ATOM     15  N   UNL A   1      44.054  19.682  24.716  1.00  0.00    -0.340 N 
ATOM     16  C   UNL A   1      43.058  19.197  25.520  1.00  0.00     0.275 C 
ATOM     17  H   UNL A   1      44.162  19.263  23.832  1.00  0.00     0.164 HD
ATOM     18  O   UNL A   1      42.876  17.979  25.578  1.00  0.00    -0.268 OA
BRANCH  16  19
ATOM     19  C   UNL A   1      42.189  20.131  26.357  1.00  0.00     0.360 C 
BRANCH  19  20
ATOM     20  N   UNL A   1      40.871  19.512  26.554  1.00  0.00    -0.350 N 
ATOM     21  H   UNL A   1      40.160  20.241  26.623  1.00  0.00     0.344 HD
ATOM     22  H   UNL A   1      40.878  18.962  27.412  1.00  0.00     0.344 HD
ATOM     23  H   UNL A   1      40.659  18.906  25.762  1.00  0.00     0.344 HD
ENDBRANCH  19  20
ENDBRANCH  16  19
ENDBRANCH  13  15
ENDBRANCH  10  13
ENDBRANCH   5   9
ENDBRANCH   3   5
ENDBRANCH   2   3
ENDBRANCH   1   2
BRANCH   1  24
ATOM     24  C   UNL A   1      41.798  24.541  26.219  1.00  0.00     0.275 C 
BRANCH  24  25
ATOM     25  O   UNL A   1      40.995  25.739  26.208  1.00  0.00    -0.458 OA
BRANCH  25  26
ATOM     26  C   UNL A   1      39.855  25.626  26.923  1.00  0.00     0.338 C 
ATOM     27  O   UNL A   1      39.011  24.752  26.787  1.00  0.00    -0.246 OA
BRANCH  26  28
ATOM     28  C   UNL A   1      39.761  26.603  28.014  1.00  0.00     0.060 A 
ATOM     29  C   UNL A   1      40.639  27.691  27.997  1.00  0.00     0.016 A 
ATOM     30  C   UNL A   1      39.028  26.302  29.162  1.00  0.00     0.016 A 
ATOM     31  C   UNL A   1      40.835  28.447  29.147  1.00  0.00     0.010 A 
ATOM     32  C   UNL A   1      39.193  27.090  30.307  1.00  0.00     0.010 A 
ATOM     33  C   UNL A   1      40.115  28.150  30.312  1.00  0.00    -0.014 A 
BRANCH  33  34
ATOM     34  C   UNL A   1      40.245  29.043  31.486  1.00  0.00     0.031 A 
ATOM     35  C   UNL A   1      41.334  28.879  32.504  1.00  0.00     0.074 A 
ATOM     36  C   UNL A   1      39.347  30.039  31.601  1.00  0.00     0.049 A 
ATOM     37  N   UNL A   1      41.537  29.570  33.598  1.00  0.00    -0.248 NA
ATOM     38  C   UNL A   1      42.334  27.828  32.265  1.00  0.00     0.031 C 
ATOM     39  C   UNL A   1      38.276  30.316  30.640  1.00  0.00     0.029 A 
ATOM     40  N   UNL A   1      39.182  30.990  32.572  1.00  0.00    -0.354 N 
ATOM     41  C   UNL A   1      42.691  29.052  34.173  1.00  0.00     0.074 A 
ATOM     42  C   UNL A   1      43.138  27.973  33.315  1.00  0.00     0.031 C 
ATOM     43  C   UNL A   1      37.558  31.357  31.075  1.00  0.00     0.029 A 
ATOM     44  C   UNL A   1      38.076  31.776  32.372  1.00  0.00     0.049 A 
ATOM     45  H   UNL A   1      39.794  31.098  33.335  1.00  0.00     0.167 HD
ATOM     46  C   UNL A   1      43.315  29.447  35.310  1.00  0.00     0.031 A 
ATOM     47  C   UNL A   1      37.498  32.694  33.166  1.00  0.00     0.031 A 
ATOM     48  C   UNL A   1      42.834  30.496  36.176  1.00  0.00     0.049 A 
ATOM     49  C   UNL A   1      38.110  32.992  34.497  1.00  0.00     0.074 A 
ATOM     50  C   UNL A   1      43.413  30.997  37.330  1.00  0.00     0.029 A 
ATOM     51  N   UNL A   1      41.642  31.184  36.000  1.00  0.00    -0.354 N 
ATOM     52  N   UNL A   1      39.210  32.505  35.017  1.00  0.00    -0.248 NA
ATOM     53  C   UNL A   1      37.396  33.945  35.353  1.00  0.00     0.031 C 
ATOM     54  C   UNL A   1      42.542  31.945  37.883  1.00  0.00     0.029 A 
ATOM     55  C   UNL A   1      41.441  32.065  37.051  1.00  0.00     0.049 A 
ATOM     56  H   UNL A   1      41.028  31.063  35.239  1.00  0.00     0.167 HD
ATOM     57  C   UNL A   1      39.321  33.086  36.271  1.00  0.00     0.074 A 
ATOM     58  C   UNL A   1      38.185  33.977  36.421  1.00  0.00     0.031 C 
ATOM     59  C   UNL A   1      40.281  32.902  37.210  1.00  0.00     0.031 A 
BRANCH  46  60
ATOM     60  C   UNL A   1      44.577  28.732  35.711  1.00  0.00    -0.014 A 
ATOM     61  C   UNL A   1      44.528  27.575  36.510  1.00  0.00     0.010 A 
ATOM     62  C   UNL A   1      45.816  29.162  35.203  1.00  0.00     0.010 A 
ATOM     63  C   UNL A   1      45.698  26.869  36.803  1.00  0.00     0.020 A 
ATOM     64  C   UNL A   1      46.988  28.450  35.485  1.00  0.00     0.020 A 
ATOM     65  C   UNL A   1      46.922  27.311  36.290  1.00  0.00     0.054 A 
BRANCH  65  66
ATOM     66  S   UNL A   1      48.419  26.347  36.645  1.00  0.00     0.124 S 
ATOM     67  O   UNL A   1      49.355  26.868  35.650  1.00  0.00    -0.237 OA
ATOM     68  O   UNL A   1      48.713  26.704  38.029  1.00  0.00    -0.237 OA
ATOM     69  O   UNL A   1      47.997  24.963  36.439  1.00  0.00    -0.744 OA
ENDBRANCH  65  66
ENDBRANCH  46  60
BRANCH  47  70
ATOM     70  C   UNL A   1      36.223  33.309  32.723  1.00  0.00    -0.014 A 
ATOM     71  C   UNL A   1      35.043  33.119  33.456  1.00  0.00     0.010 A 
ATOM     72  C   UNL A   1      36.226  34.197  31.630  1.00  0.00     0.010 A 
ATOM     73  C   UNL A   1      33.889  33.834  33.123  1.00  0.00     0.020 A 
ATOM     74  C   UNL A   1      35.082  34.927  31.307  1.00  0.00     0.020 A 
ATOM     75  C   UNL A   1      33.921  34.743  32.059  1.00  0.00     0.054 A 
BRANCH  75  76
ATOM     76  S   UNL A   1      32.462  35.772  31.728  1.00  0.00     0.124 S 
ATOM     77  O   UNL A   1      32.938  37.100  32.100  1.00  0.00    -0.237 OA
ATOM     78  O   UNL A   1      32.234  35.558  30.301  1.00  0.00    -0.237 OA
ATOM     79  O   UNL A   1      31.441  35.199  32.604  1.00  0.00    -0.744 OA
ENDBRANCH  75  76
ENDBRANCH  47  70
BRANCH  59  80
ATOM     80  C   UNL A   1      40.116  33.666  38.491  1.00  0.00    -0.014 A 
ATOM     81  C   UNL A   1      39.333  33.144  39.536  1.00  0.00     0.010 A 
ATOM     82  C   UNL A   1      40.734  34.917  38.651  1.00  0.00     0.010 A 
ATOM     83  C   UNL A   1      39.137  33.882  40.705  1.00  0.00     0.020 A 
ATOM     84  C   UNL A   1      40.556  35.649  39.826  1.00  0.00     0.020 A 
ATOM     85  C   UNL A   1      39.742  35.135  40.838  1.00  0.00     0.054 A 
BRANCH  85  86
ATOM     86  S   UNL A   1      39.477  36.081  42.363  1.00  0.00     0.124 S 
ATOM     87  O   UNL A   1      38.227  35.512  42.858  1.00  0.00    -0.237 OA
ATOM     88  O   UNL A   1      40.666  35.766  43.153  1.00  0.00    -0.237 OA
ATOM     89  O   UNL A   1      39.395  37.464  41.900  1.00  0.00    -0.744 OA
ENDBRANCH  85  86
ENDBRANCH  59  80
ENDBRANCH  33  34
ENDBRANCH  26  28
ENDBRANCH  25  26
ENDBRANCH  24  25
ENDBRANCH   1  24
TORSDOF 20
ENDMDL
MODEL 3
REMARK VINA RESULT:      -8.9      3.248      8.981
REMARK SMILES CC(C)[C@H](NC(=O)[C@H](C)NC(=O)C[NH3+])C(=O)OCCOC(=O)c1ccc(-c2c3nc(c(-c4ccc(S(=O)(=O)[O-])cc4)c4ccc([nH]4)c(-c4ccc(S(=O)(=O)[O-])cc4)c4nc(c(-c5ccc(S(=O)(=O)[O-])cc5)c5ccc2[nH]5)C=C4)C=C3)cc1
REMARK SMILES IDX 18 1 17 2 15 3 16 4 4 5 2 6 1 7 3 8 5 9 6 10 7 12 8 13 9 14
REMARK SMILES IDX 10 15 11 16 12 18 13 19 14 20 19 24 20 25 21 26 22 27 23 28
REMARK SMILES IDX 24 29 82 30 25 31 81 32 26 33 27 34 28 35 75 36 29 37 80 38
REMARK SMILES IDX 74 39 76 40 30 41 79 42 73 43 72 44 31 46 61 47 42 48 60 49
REMARK SMILES IDX 43 50 46 51 59 52 77 53 44 54 45 55 58 57 78 58 47 59 32 60
REMARK SMILES IDX 33 61 41 62 34 63 40 64 35 65 36 66 37 67 38 68 39 69 62 70
REMARK SMILES IDX 63 71 71 72 64 73 70 74 65 75 66 76 67 77 68 78 69 79 48 80
REMARK SMILES IDX 49 81 57 82 50 83 56 84 51 85 52 86 53 87 54 88 55 89
REMARK H PARENT 5 11 10 17 14 21 14 22 14 23 76 45 46 56
REMARK Flexibility Score: inf
ROOT
ATOM      1  C   UNL A   1      33.536  29.245  27.163  1.00  0.00     0.274 C 
ENDROOT
BRANCH   1   2
ATOM      2  O   UNL A   1      32.680  28.528  26.247  1.00  0.00    -0.461 OA
BRANCH   2   3
ATOM      3  C   UNL A   1      31.811  27.647  26.815  1.00  0.00     0.329 C 
ATOM      4  O   UNL A   1      31.304  27.803  27.921  1.00  0.00    -0.250 OA
BRANCH   3   5
ATOM      5  C   UNL A   1      31.520  26.408  25.934  1.00  0.00     0.194 C 
BRANCH   5   6
ATOM      6  C   UNL A   1      30.781  26.886  24.649  1.00  0.00     0.017 C 
ATOM      7  C   UNL A   1      31.611  26.638  23.388  1.00  0.00     0.010 C 
ATOM      8  C   UNL A   1      29.384  26.272  24.480  1.00  0.00     0.010 C 
ENDBRANCH   5   6
BRANCH   5   9
ATOM      9  N   UNL A   1      30.783  25.336  26.608  1.00  0.00    -0.341 N 
ATOM     10  C   UNL A   1      30.861  23.984  26.609  1.00  0.00     0.243 C 
ATOM     11  H   UNL A   1      30.067  25.676  27.192  1.00  0.00     0.164 HD
ATOM     12  O   UNL A   1      30.001  23.433  27.315  1.00  0.00    -0.273 OA
BRANCH  10  13
ATOM     13  C   UNL A   1      31.810  23.105  25.737  1.00  0.00     0.168 C 
ATOM     14  C   UNL A   1      31.164  23.008  24.343  1.00  0.00     0.041 C 
BRANCH  13  15
ATOM     15  N   UNL A   1      32.124  21.744  26.145  1.00  0.00    -0.340 N 
ATOM     16  C   UNL A   1      33.166  20.990  25.674  1.00  0.00     0.275 C 
ATOM     17  H   UNL A   1      31.538  21.329  26.817  1.00  0.00     0.164 HD
ATOM     18  O   UNL A   1      32.976  19.797  25.426  1.00  0.00    -0.268 OA
BRANCH  16  19
ATOM     19  C   UNL A   1      34.542  21.603  25.430  1.00  0.00     0.360 C 
BRANCH  19  20
ATOM     20  N   UNL A   1      35.372  21.411  26.628  1.00  0.00    -0.350 N 
ATOM     21  H   UNL A   1      35.294  20.443  26.942  1.00  0.00     0.344 HD
ATOM     22  H   UNL A   1      35.053  22.036  27.367  1.00  0.00     0.344 HD
ATOM     23  H   UNL A   1      36.345  21.617  26.403  1.00  0.00     0.344 HD
ENDBRANCH  19  20
ENDBRANCH  16  19
ENDBRANCH  13  15
ENDBRANCH  10  13
ENDBRANCH   5   9
ENDBRANCH   3   5
ENDBRANCH   2   3
ENDBRANCH   1   2
BRANCH   1  24
ATOM     24  C   UNL A   1      33.621  30.748  26.854  1.00  0.00     0.275 C 
BRANCH  24  25
ATOM     25  O   UNL A   1      33.601  31.568  28.040  1.00  0.00    -0.458 OA
BRANCH  25  26
ATOM     26  C   UNL A   1      34.631  32.439  28.106  1.00  0.00     0.338 C 
ATOM     27  O   UNL A   1      34.555  33.648  27.939  1.00  0.00    -0.246 OA
BRANCH  26  28
ATOM     28  C   UNL A   1      35.886  31.815  28.540  1.00  0.00     0.060 A 
ATOM     29  C   UNL A   1      35.807  30.711  29.395  1.00  0.00     0.016 A 
ATOM     30  C   UNL A   1      37.101  32.471  28.340  1.00  0.00     0.016 A 
ATOM     31  C   UNL A   1      36.929  30.297  30.104  1.00  0.00     0.010 A 
ATOM     32  C   UNL A   1      38.241  32.026  29.021  1.00  0.00     0.010 A 
ATOM     33  C   UNL A   1      38.154  30.953  29.923  1.00  0.00    -0.014 A 
BRANCH  33  34
ATOM     34  C   UNL A   1      39.363  30.417  30.590  1.00  0.00     0.031 A 
ATOM     35  C   UNL A   1      40.128  29.246  30.049  1.00  0.00     0.074 A 
ATOM     36  C   UNL A   1      39.771  31.041  31.711  1.00  0.00     0.049 A 
ATOM     37  N   UNL A   1      41.179  28.655  30.559  1.00  0.00    -0.248 NA
ATOM     38  C   UNL A   1      39.678  28.673  28.772  1.00  0.00     0.031 C 
ATOM     39  C   UNL A   1      39.125  32.219  32.295  1.00  0.00     0.029 A 
ATOM     40  N   UNL A   1      40.809  30.769  32.560  1.00  0.00    -0.354 N 
ATOM     41  C   UNL A   1      41.530  27.651  29.663  1.00  0.00     0.074 A 
ATOM     42  C   UNL A   1      40.565  27.700  28.583  1.00  0.00     0.031 C 
ATOM     43  C   UNL A   1      39.774  32.562  33.415  1.00  0.00     0.029 A 
ATOM     44  C   UNL A   1      40.834  31.592  33.658  1.00  0.00     0.049 A 
ATOM     45  H   UNL A   1      41.469  30.057  32.400  1.00  0.00     0.167 HD
ATOM     46  C   UNL A   1      42.562  26.776  29.742  1.00  0.00     0.031 A 
ATOM     47  C   UNL A   1      41.584  31.542  34.772  1.00  0.00     0.031 A 
ATOM     48  C   UNL A   1      43.489  26.714  30.845  1.00  0.00     0.049 A 
ATOM     49  C   UNL A   1      42.605  30.460  34.914  1.00  0.00     0.074 A 
ATOM     50  C   UNL A   1      44.592  25.890  31.002  1.00  0.00     0.029 A 
ATOM     51  N   UNL A   1      43.404  27.485  31.996  1.00  0.00    -0.354 N 
ATOM     52  N   UNL A   1      42.934  29.530  34.051  1.00  0.00    -0.248 NA
ATOM     53  C   UNL A   1      43.341  30.408  36.182  1.00  0.00     0.031 C 
ATOM     54  C   UNL A   1      45.137  26.121  32.272  1.00  0.00     0.029 A 
ATOM     55  C   UNL A   1      44.399  27.119  32.889  1.00  0.00     0.049 A 
ATOM     56  H   UNL A   1      42.734  28.189  32.155  1.00  0.00     0.167 HD
ATOM     57  C   UNL A   1      43.914  28.771  34.673  1.00  0.00     0.074 A 
ATOM     58  C   UNL A   1      44.138  29.365  35.978  1.00  0.00     0.031 C 
ATOM     59  C   UNL A   1      44.572  27.684  34.201  1.00  0.00     0.031 A 
BRANCH  46  60
ATOM     60  C   UNL A   1      42.742  25.790  28.620  1.00  0.00    -0.014 A 
ATOM     61  C   UNL A   1      43.615  26.065  27.552  1.00  0.00     0.010 A 
ATOM     62  C   UNL A   1      42.110  24.535  28.683  1.00  0.00     0.010 A 
ATOM     63  C   UNL A   1      43.843  25.105  26.561  1.00  0.00     0.020 A 
ATOM     64  C   UNL A   1      42.345  23.568  27.699  1.00  0.00     0.020 A 
ATOM     65  C   UNL A   1      43.205  23.863  26.639  1.00  0.00     0.054 A 
BRANCH  65  66
ATOM     66  S   UNL A   1      43.558  22.617  25.366  1.00  0.00     0.124 S 
ATOM     67  O   UNL A   1      44.724  21.937  25.925  1.00  0.00    -0.237 OA
ATOM     68  O   UNL A   1      42.329  21.830  25.336  1.00  0.00    -0.237 OA
ATOM     69  O   UNL A   1      43.814  23.411  24.166  1.00  0.00    -0.744 OA
ENDBRANCH  65  66
ENDBRANCH  46  60
BRANCH  47  70
ATOM     70  C   UNL A   1      41.303  32.514  35.857  1.00  0.00    -0.014 A 
ATOM     71  C   UNL A   1      42.046  33.698  35.970  1.00  0.00     0.010 A 
ATOM     72  C   UNL A   1      40.194  32.308  36.699  1.00  0.00     0.010 A 
ATOM     73  C   UNL A   1      41.666  34.678  36.891  1.00  0.00     0.020 A 
ATOM     74  C   UNL A   1      39.799  33.294  37.605  1.00  0.00     0.020 A 
ATOM     75  C   UNL A   1      40.537  34.474  37.693  1.00  0.00     0.054 A 
BRANCH  75  76
ATOM     76  S   UNL A   1      39.967  35.813  38.778  1.00  0.00     0.124 S 
ATOM     77  O   UNL A   1      41.141  36.045  39.614  1.00  0.00    -0.237 OA
ATOM     78  O   UNL A   1      39.642  36.879  37.834  1.00  0.00    -0.237 OA
ATOM     79  O   UNL A   1      38.814  35.226  39.459  1.00  0.00    -0.744 OA
ENDBRANCH  75  76
ENDBRANCH  47  70
BRANCH  59  80
ATOM     80  C   UNL A   1      45.576  27.060  35.126  1.00  0.00    -0.014 A 
ATOM     81  C   UNL A   1      45.196  26.019  35.992  1.00  0.00     0.010 A 
ATOM     82  C   UNL A   1      46.904  27.521  35.140  1.00  0.00     0.010 A 
ATOM     83  C   UNL A   1      46.120  25.478  36.889  1.00  0.00     0.020 A 
ATOM     84  C   UNL A   1      47.834  26.968  36.022  1.00  0.00     0.020 A 
ATOM     85  C   UNL A   1      47.430  25.963  36.906  1.00  0.00     0.054 A 
BRANCH  85  86
ATOM     86  S   UNL A   1      48.617  25.249  38.077  1.00  0.00     0.124 S 
ATOM     87  O   UNL A   1      48.961  23.988  37.427  1.00  0.00    -0.237 OA
ATOM     88  O   UNL A   1      49.682  26.249  38.112  1.00  0.00    -0.237 OA
ATOM     89  O   UNL A   1      47.848  25.126  39.313  1.00  0.00    -0.744 OA
ENDBRANCH  85  86
ENDBRANCH  59  80
ENDBRANCH  33  34
ENDBRANCH  26  28
ENDBRANCH  25  26
ENDBRANCH  24  25
ENDBRANCH   1  24
TORSDOF 20
ENDMDL
