MODEL 1
REMARK VINA RESULT:     -11.4      0.000      0.000
REMARK SMILES Cc1cc(OC(F)F)ccc1NC(=O)[C@@H]1CCCC[C@@H]1C(=O)OCCOC(=O)c1ccc(-c2c3nc(c(-c4ccc(S(=O)(=O)[O-])cc4)c4ccc([nH]4)c(-c4ccc(S(=O)(=O)[O-])cc4)c4nc(c(-c5ccc(S(=O)(=O)[O-])cc5)c5ccc2[nH]5)C=C4)C=C3)cc1
REMARK SMILES IDX 24 1 23 2 21 3 22 4 20 5 15 6 16 7 17 8 19 9 18 10 13 11
REMARK SMILES IDX 12 12 14 14 11 15 1 16 2 17 3 18 4 19 10 20 9 21 5 22 6 23
REMARK SMILES IDX 7 24 8 25 25 26 26 27 27 28 28 29 29 30 30 31 88 32 31 33
REMARK SMILES IDX 87 34 32 35 33 36 34 37 81 38 35 39 86 40 80 41 82 42 36 43
REMARK SMILES IDX 85 44 79 45 78 46 37 48 67 49 48 50 66 51 49 52 52 53 65 54
REMARK SMILES IDX 83 55 50 56 51 57 64 59 84 60 53 61 38 62 39 63 47 64 40 65
REMARK SMILES IDX 46 66 41 67 42 68 43 69 44 70 45 71 68 72 69 73 77 74 70 75
REMARK SMILES IDX 76 76 71 77 72 78 73 79 74 80 75 81 54 82 55 83 63 84 56 85
REMARK SMILES IDX 62 86 57 87 58 88 59 89 60 90 61 91
REMARK H PARENT 12 13 82 47 52 58
REMARK Flexibility Score: inf
ROOT
ATOM      1  C   UNL A   1      33.994  27.828  26.513  1.00  0.00     0.274 C 
ENDROOT
BRANCH   1   2
ATOM      2  O   UNL A   1      34.024  27.441  25.136  1.00  0.00    -0.462 OA
BRANCH   2   3
ATOM      3  C   UNL A   1      33.947  26.106  25.043  1.00  0.00     0.309 C 
ATOM      4  O   UNL A   1      34.362  25.477  26.006  1.00  0.00    -0.252 OA
BRANCH   3   5
ATOM      5  C   UNL A   1      33.264  25.480  23.616  1.00  0.00     0.111 C 
ATOM      6  C   UNL A   1      31.549  25.022  24.491  1.00  0.00     0.093 C 
ATOM      7  C   UNL A   1      30.986  23.313  24.444  1.00  0.00     0.014 C 
ATOM      8  C   UNL A   1      31.495  22.131  23.206  1.00  0.00     0.001 C 
ATOM      9  C   UNL A   1      33.886  23.973  22.101  1.00  0.00     0.016 C 
ATOM     10  C   UNL A   1      32.801  22.375  22.026  1.00  0.00     0.001 C 
BRANCH   6  11
ATOM     11  C   UNL A   1      31.073  25.761  25.751  1.00  0.00     0.228 C 
ATOM     12  N   UNL A   1      30.639  27.071  25.601  1.00  0.00    -0.326 N 
ATOM     13  H   UNL A   1      30.542  27.603  26.423  1.00  0.00     0.169 HD
ATOM     14  O   UNL A   1      31.083  25.234  26.863  1.00  0.00    -0.274 OA
BRANCH  12  15
ATOM     15  C   UNL A   1      30.324  27.714  24.389  1.00  0.00     0.044 A 
ATOM     16  C   UNL A   1      28.124  26.416  24.111  1.00  0.00     0.047 C 
ATOM     17  C   UNL A   1      29.133  27.453  23.704  1.00  0.00    -0.024 A 
ATOM     18  C   UNL A   1      28.816  28.274  22.601  1.00  0.00     0.052 A 
ATOM     19  C   UNL A   1      29.612  29.364  22.226  1.00  0.00     0.126 A 
ATOM     20  C   UNL A   1      31.204  28.684  23.887  1.00  0.00     0.030 A 
ATOM     21  C   UNL A   1      30.835  29.541  22.851  1.00  0.00     0.049 A 
BRANCH  19  22
ATOM     22  O   UNL A   1      29.128  30.135  21.209  1.00  0.00    -0.435 OA
BRANCH  22  23
ATOM     23  C   UNL A   1      28.629  31.435  21.535  1.00  0.00     0.542 C 
ATOM     24  F   UNL A   1      27.690  31.821  20.647  1.00  0.00    -0.167 F 
ATOM     25  F   UNL A   1      28.041  31.409  22.759  1.00  0.00    -0.167 F 
ENDBRANCH  22  23
ENDBRANCH  19  22
ENDBRANCH  12  15
ENDBRANCH   6  11
ENDBRANCH   3   5
ENDBRANCH   2   3
ENDBRANCH   1   2
BRANCH   1  26
ATOM     26  C   UNL A   1      34.109  29.376  26.945  1.00  0.00     0.275 C 
BRANCH  26  27
ATOM     27  O   UNL A   1      35.436  30.100  27.198  1.00  0.00    -0.458 OA
BRANCH  27  28
ATOM     28  C   UNL A   1      35.849  31.078  28.122  1.00  0.00     0.338 C 
ATOM     29  O   UNL A   1      35.484  32.239  28.074  1.00  0.00    -0.246 OA
BRANCH  28  30
ATOM     30  C   UNL A   1      36.624  30.461  29.307  1.00  0.00     0.060 A 
ATOM     31  C   UNL A   1      36.591  29.231  30.832  1.00  0.00     0.016 A 
ATOM     32  C   UNL A   1      38.164  30.858  28.654  1.00  0.00     0.016 A 
ATOM     33  C   UNL A   1      38.147  28.514  31.355  1.00  0.00     0.010 A 
ATOM     34  C   UNL A   1      39.475  30.065  29.148  1.00  0.00     0.010 A 
ATOM     35  C   UNL A   1      39.556  29.011  30.456  1.00  0.00    -0.014 A 
BRANCH  35  36
ATOM     36  C   UNL A   1      41.007  28.887  30.665  1.00  0.00     0.031 A 
ATOM     37  C   UNL A   1      41.774  28.159  29.670  1.00  0.00     0.074 A 
ATOM     38  C   UNL A   1      41.596  29.760  31.541  1.00  0.00     0.049 A 
ATOM     39  N   UNL A   1      42.367  27.027  29.834  1.00  0.00    -0.248 NA
ATOM     40  C   UNL A   1      41.882  28.719  28.324  1.00  0.00     0.031 C 
ATOM     41  C   UNL A   1      42.989  30.102  31.797  1.00  0.00     0.029 A 
ATOM     42  N   UNL A   1      40.947  30.572  32.473  1.00  0.00    -0.354 N 
ATOM     43  C   UNL A   1      43.222  26.934  28.755  1.00  0.00     0.074 A 
ATOM     44  C   UNL A   1      42.713  27.848  27.748  1.00  0.00     0.031 C 
ATOM     45  C   UNL A   1      43.075  30.766  32.976  1.00  0.00     0.029 A 
ATOM     46  C   UNL A   1      41.738  30.975  33.526  1.00  0.00     0.049 A 
ATOM     47  H   UNL A   1      40.003  30.836  32.387  1.00  0.00     0.167 HD
ATOM     48  C   UNL A   1      44.546  26.644  28.923  1.00  0.00     0.031 A 
ATOM     49  C   UNL A   1      41.210  30.603  34.724  1.00  0.00     0.031 A 
ATOM     50  C   UNL A   1      44.950  26.920  30.312  1.00  0.00     0.049 A 
ATOM     51  C   UNL A   1      41.685  29.158  34.939  1.00  0.00     0.074 A 
ATOM     52  C   UNL A   1      45.690  27.948  30.875  1.00  0.00     0.029 A 
ATOM     53  N   UNL A   1      44.257  26.336  31.377  1.00  0.00    -0.354 N 
ATOM     54  N   UNL A   1      42.300  28.460  34.006  1.00  0.00    -0.248 NA
ATOM     55  C   UNL A   1      41.740  28.468  36.222  1.00  0.00     0.031 C 
ATOM     56  C   UNL A   1      45.352  28.031  32.264  1.00  0.00     0.029 A 
ATOM     57  C   UNL A   1      44.400  27.063  32.555  1.00  0.00     0.049 A 
ATOM     58  H   UNL A   1      43.730  25.508  31.303  1.00  0.00     0.167 HD
ATOM     59  C   UNL A   1      42.935  27.376  34.524  1.00  0.00     0.074 A 
ATOM     60  C   UNL A   1      42.521  27.407  35.924  1.00  0.00     0.031 C 
ATOM     61  C   UNL A   1      43.797  26.576  33.811  1.00  0.00     0.031 A 
BRANCH  48  62
ATOM     62  C   UNL A   1      45.455  26.514  27.711  1.00  0.00    -0.014 A 
ATOM     63  C   UNL A   1      45.476  25.358  26.912  1.00  0.00     0.010 A 
ATOM     64  C   UNL A   1      46.272  27.591  27.276  1.00  0.00     0.010 A 
ATOM     65  C   UNL A   1      46.307  25.260  25.777  1.00  0.00     0.020 A 
ATOM     66  C   UNL A   1      47.131  27.491  26.170  1.00  0.00     0.020 A 
ATOM     67  C   UNL A   1      47.138  26.323  25.419  1.00  0.00     0.054 A 
BRANCH  67  68
ATOM     68  S   UNL A   1      48.194  26.176  23.947  1.00  0.00     0.124 S 
ATOM     69  O   UNL A   1      49.537  26.312  24.504  1.00  0.00    -0.237 OA
ATOM     70  O   UNL A   1      47.849  24.848  23.446  1.00  0.00    -0.237 OA
ATOM     71  O   UNL A   1      47.765  27.288  23.098  1.00  0.00    -0.744 OA
ENDBRANCH  67  68
ENDBRANCH  48  62
BRANCH  49  72
ATOM     72  C   UNL A   1      39.905  31.402  34.941  1.00  0.00    -0.014 A 
ATOM     73  C   UNL A   1      39.997  32.768  34.540  1.00  0.00     0.010 A 
ATOM     74  C   UNL A   1      38.586  30.909  35.026  1.00  0.00     0.010 A 
ATOM     75  C   UNL A   1      38.903  33.528  34.068  1.00  0.00     0.020 A 
ATOM     76  C   UNL A   1      37.468  31.688  34.558  1.00  0.00     0.020 A 
ATOM     77  C   UNL A   1      37.642  32.966  34.026  1.00  0.00     0.054 A 
BRANCH  77  78
ATOM     78  S   UNL A   1      36.288  33.807  33.117  1.00  0.00     0.124 S 
ATOM     79  O   UNL A   1      36.762  35.182  33.029  1.00  0.00    -0.237 OA
ATOM     80  O   UNL A   1      36.225  33.079  31.851  1.00  0.00    -0.237 OA
ATOM     81  O   UNL A   1      35.145  33.572  33.990  1.00  0.00    -0.744 OA
ENDBRANCH  77  78
ENDBRANCH  49  72
BRANCH  61  82
ATOM     82  C   UNL A   1      44.272  25.227  34.293  1.00  0.00    -0.014 A 
ATOM     83  C   UNL A   1      43.411  24.155  34.555  1.00  0.00     0.010 A 
ATOM     84  C   UNL A   1      45.665  24.962  34.354  1.00  0.00     0.010 A 
ATOM     85  C   UNL A   1      43.906  22.912  34.955  1.00  0.00     0.020 A 
ATOM     86  C   UNL A   1      46.171  23.705  34.666  1.00  0.00     0.020 A 
ATOM     87  C   UNL A   1      45.283  22.697  35.010  1.00  0.00     0.054 A 
BRANCH  87  88
ATOM     88  S   UNL A   1      45.900  21.078  35.508  1.00  0.00     0.124 S 
ATOM     89  O   UNL A   1      44.943  20.186  34.857  1.00  0.00    -0.237 OA
ATOM     90  O   UNL A   1      47.251  21.066  34.952  1.00  0.00    -0.237 OA
ATOM     91  O   UNL A   1      45.833  21.115  36.966  1.00  0.00    -0.744 OA
ENDBRANCH  87  88
ENDBRANCH  61  82
ENDBRANCH  35  36
ENDBRANCH  28  30
ENDBRANCH  27  28
ENDBRANCH  26  27
ENDBRANCH   1  26
TORSDOF 18
ENDMDL
MODEL 2
REMARK VINA RESULT:     -11.2      1.761      2.357
REMARK SMILES Cc1cc(OC(F)F)ccc1NC(=O)[C@@H]1CCCC[C@@H]1C(=O)OCCOC(=O)c1ccc(-c2c3nc(c(-c4ccc(S(=O)(=O)[O-])cc4)c4ccc([nH]4)c(-c4ccc(S(=O)(=O)[O-])cc4)c4nc(c(-c5ccc(S(=O)(=O)[O-])cc5)c5ccc2[nH]5)C=C4)C=C3)cc1
REMARK SMILES IDX 24 1 23 2 21 3 22 4 20 5 15 6 16 7 17 8 19 9 18 10 13 11
REMARK SMILES IDX 12 12 14 14 11 15 1 16 2 17 3 18 4 19 10 20 9 21 5 22 6 23
REMARK SMILES IDX 7 24 8 25 25 26 26 27 27 28 28 29 29 30 30 31 88 32 31 33
REMARK SMILES IDX 87 34 32 35 33 36 34 37 81 38 35 39 86 40 80 41 82 42 36 43
REMARK SMILES IDX 85 44 79 45 78 46 37 48 67 49 48 50 66 51 49 52 52 53 65 54
REMARK SMILES IDX 83 55 50 56 51 57 64 59 84 60 53 61 38 62 39 63 47 64 40 65
REMARK SMILES IDX 46 66 41 67 42 68 43 69 44 70 45 71 68 72 69 73 77 74 70 75
REMARK SMILES IDX 76 76 71 77 72 78 73 79 74 80 75 81 54 82 55 83 63 84 56 85
REMARK SMILES IDX 62 86 57 87 58 88 59 89 60 90 61 91
REMARK H PARENT 12 13 82 47 52 58
REMARK Flexibility Score: inf
ROOT
ATOM      1  C   UNL A   1      33.812  28.062  26.420  1.00  0.00     0.274 C 
ENDROOT
BRANCH   1   2
ATOM      2  O   UNL A   1      33.822  27.680  25.041  1.00  0.00    -0.462 OA
BRANCH   2   3
ATOM      3  C   UNL A   1      33.856  26.344  24.945  1.00  0.00     0.309 C 
ATOM      4  O   UNL A   1      34.362  25.752  25.888  1.00  0.00    -0.252 OA
BRANCH   3   5
ATOM      5  C   UNL A   1      33.172  25.662  23.545  1.00  0.00     0.111 C 
ATOM      6  C   UNL A   1      31.498  25.144  24.464  1.00  0.00     0.093 C 
ATOM      7  C   UNL A   1      31.012  23.411  24.458  1.00  0.00     0.014 C 
ATOM      8  C   UNL A   1      31.548  22.231  23.229  1.00  0.00     0.001 C 
ATOM      9  C   UNL A   1      33.829  24.158  22.042  1.00  0.00     0.016 C 
ATOM     10  C   UNL A   1      32.816  22.512  22.017  1.00  0.00     0.001 C 
BRANCH   6  11
ATOM     11  C   UNL A   1      31.016  25.883  25.721  1.00  0.00     0.228 C 
ATOM     12  N   UNL A   1      30.523  27.171  25.560  1.00  0.00    -0.326 N 
ATOM     13  H   UNL A   1      30.420  27.712  26.375  1.00  0.00     0.169 HD
ATOM     14  O   UNL A   1      31.071  25.376  26.842  1.00  0.00    -0.274 OA
BRANCH  12  15
ATOM     15  C   UNL A   1      30.157  27.779  24.345  1.00  0.00     0.044 A 
ATOM     16  C   UNL A   1      27.999  26.398  24.144  1.00  0.00     0.047 C 
ATOM     17  C   UNL A   1      28.960  27.463  23.693  1.00  0.00    -0.024 A 
ATOM     18  C   UNL A   1      28.588  28.251  22.584  1.00  0.00     0.052 A 
ATOM     19  C   UNL A   1      29.335  29.362  22.170  1.00  0.00     0.126 A 
ATOM     20  C   UNL A   1      30.990  28.770  23.804  1.00  0.00     0.030 A 
ATOM     21  C   UNL A   1      30.565  29.594  22.762  1.00  0.00     0.049 A 
BRANCH  19  22
ATOM     22  O   UNL A   1      28.800  30.096  21.151  1.00  0.00    -0.435 OA
BRANCH  22  23
ATOM     23  C   UNL A   1      28.396  31.438  21.436  1.00  0.00     0.542 C 
ATOM     24  F   UNL A   1      27.660  31.939  20.422  1.00  0.00    -0.167 F 
ATOM     25  F   UNL A   1      27.617  31.459  22.548  1.00  0.00    -0.167 F 
ENDBRANCH  22  23
ENDBRANCH  19  22
ENDBRANCH  12  15
ENDBRANCH   6  11
ENDBRANCH   3   5
ENDBRANCH   2   3
ENDBRANCH   1   2
BRANCH   1  26
ATOM     26  C   UNL A   1      34.818  29.189  26.979  1.00  0.00     0.275 C 
BRANCH  26  27
ATOM     27  O   UNL A   1      34.406  30.633  27.283  1.00  0.00    -0.458 OA
BRANCH  27  28
ATOM     28  C   UNL A   1      34.952  31.652  28.086  1.00  0.00     0.338 C 
ATOM     29  O   UNL A   1      34.590  32.814  28.027  1.00  0.00    -0.246 OA
BRANCH  28  30
ATOM     30  C   UNL A   1      35.882  31.088  29.181  1.00  0.00     0.060 A 
ATOM     31  C   UNL A   1      36.043  30.001  30.804  1.00  0.00     0.016 A 
ATOM     32  C   UNL A   1      37.308  31.314  28.246  1.00  0.00     0.016 A 
ATOM     33  C   UNL A   1      37.623  29.223  31.131  1.00  0.00     0.010 A 
ATOM     34  C   UNL A   1      38.637  30.476  28.592  1.00  0.00     0.010 A 
ATOM     35  C   UNL A   1      38.883  29.537  29.966  1.00  0.00    -0.014 A 
BRANCH  35  36
ATOM     36  C   UNL A   1      40.338  29.328  29.943  1.00  0.00     0.031 A 
ATOM     37  C   UNL A   1      40.838  28.110  29.331  1.00  0.00     0.074 A 
ATOM     38  C   UNL A   1      41.137  30.424  30.138  1.00  0.00     0.049 A 
ATOM     39  N   UNL A   1      41.417  27.129  29.932  1.00  0.00    -0.248 NA
ATOM     40  C   UNL A   1      40.655  27.926  27.892  1.00  0.00     0.031 C 
ATOM     41  C   UNL A   1      42.561  30.648  29.931  1.00  0.00     0.029 A 
ATOM     42  N   UNL A   1      40.741  31.668  30.634  1.00  0.00    -0.354 N 
ATOM     43  C   UNL A   1      42.003  26.407  28.913  1.00  0.00     0.074 A 
ATOM     44  C   UNL A   1      41.308  26.779  27.694  1.00  0.00     0.031 C 
ATOM     45  C   UNL A   1      42.932  31.781  30.578  1.00  0.00     0.029 A 
ATOM     46  C   UNL A   1      41.762  32.415  31.178  1.00  0.00     0.049 A 
ATOM     47  H   UNL A   1      39.811  31.985  30.598  1.00  0.00     0.167 HD
ATOM     48  C   UNL A   1      43.321  26.052  28.962  1.00  0.00     0.031 A 
ATOM     49  C   UNL A   1      41.507  32.748  32.473  1.00  0.00     0.031 A 
ATOM     50  C   UNL A   1      44.037  26.907  29.924  1.00  0.00     0.049 A 
ATOM     51  C   UNL A   1      41.974  31.538  33.297  1.00  0.00     0.074 A 
ATOM     52  C   UNL A   1      44.916  27.963  29.749  1.00  0.00     0.029 A 
ATOM     53  N   UNL A   1      43.585  27.016  31.243  1.00  0.00    -0.354 N 
ATOM     54  N   UNL A   1      42.339  30.397  32.748  1.00  0.00    -0.248 NA
ATOM     55  C   UNL A   1      42.296  31.556  34.718  1.00  0.00     0.031 C 
ATOM     56  C   UNL A   1      44.904  28.755  30.942  1.00  0.00     0.029 A 
ATOM     57  C   UNL A   1      44.013  28.194  31.847  1.00  0.00     0.049 A 
ATOM     58  H   UNL A   1      43.029  26.339  31.692  1.00  0.00     0.167 HD
ATOM     59  C   UNL A   1      43.041  29.623  33.617  1.00  0.00     0.074 A 
ATOM     60  C   UNL A   1      42.956  30.386  34.859  1.00  0.00     0.031 C 
ATOM     61  C   UNL A   1      43.695  28.467  33.262  1.00  0.00     0.031 A 
BRANCH  48  62
ATOM     62  C   UNL A   1      43.928  25.225  27.840  1.00  0.00    -0.014 A 
ATOM     63  C   UNL A   1      43.839  23.824  27.811  1.00  0.00     0.010 A 
ATOM     64  C   UNL A   1      44.547  25.837  26.718  1.00  0.00     0.010 A 
ATOM     65  C   UNL A   1      44.386  23.070  26.752  1.00  0.00     0.020 A 
ATOM     66  C   UNL A   1      45.128  25.096  25.676  1.00  0.00     0.020 A 
ATOM     67  C   UNL A   1      45.037  23.710  25.695  1.00  0.00     0.054 A 
BRANCH  67  68
ATOM     68  S   UNL A   1      45.727  22.719  24.337  1.00  0.00     0.124 S 
ATOM     69  O   UNL A   1      46.304  21.576  25.040  1.00  0.00    -0.237 OA
ATOM     70  O   UNL A   1      44.546  22.431  23.528  1.00  0.00    -0.237 OA
ATOM     71  O   UNL A   1      46.702  23.613  23.713  1.00  0.00    -0.744 OA
ENDBRANCH  67  68
ENDBRANCH  48  62
BRANCH  49  72
ATOM     72  C   UNL A   1      40.310  33.726  32.489  1.00  0.00    -0.014 A 
ATOM     73  C   UNL A   1      39.453  33.600  31.355  1.00  0.00     0.010 A 
ATOM     74  C   UNL A   1      39.712  34.352  33.603  1.00  0.00     0.010 A 
ATOM     75  C   UNL A   1      38.069  33.882  31.377  1.00  0.00     0.020 A 
ATOM     76  C   UNL A   1      38.303  34.652  33.621  1.00  0.00     0.020 A 
ATOM     77  C   UNL A   1      37.482  34.359  32.533  1.00  0.00     0.054 A 
BRANCH  77  78
ATOM     78  S   UNL A   1      35.654  34.411  32.683  1.00  0.00     0.124 S 
ATOM     79  O   UNL A   1      35.377  33.352  33.645  1.00  0.00    -0.237 OA
ATOM     80  O   UNL A   1      35.389  35.771  33.148  1.00  0.00    -0.237 OA
ATOM     81  O   UNL A   1      35.229  34.165  31.310  1.00  0.00    -0.744 OA
ENDBRANCH  77  78
ENDBRANCH  49  72
BRANCH  61  82
ATOM     82  C   UNL A   1      44.225  27.469  34.263  1.00  0.00    -0.014 A 
ATOM     83  C   UNL A   1      45.573  27.104  34.348  1.00  0.00     0.010 A 
ATOM     84  C   UNL A   1      43.359  26.971  35.271  1.00  0.00     0.010 A 
ATOM     85  C   UNL A   1      46.019  26.210  35.325  1.00  0.00     0.020 A 
ATOM     86  C   UNL A   1      43.809  26.150  36.301  1.00  0.00     0.020 A 
ATOM     87  C   UNL A   1      45.132  25.738  36.292  1.00  0.00     0.054 A 
BRANCH  87  88
ATOM     88  S   UNL A   1      45.735  24.602  37.556  1.00  0.00     0.124 S 
ATOM     89  O   UNL A   1      47.108  25.066  37.737  1.00  0.00    -0.237 OA
ATOM     90  O   UNL A   1      44.831  24.860  38.675  1.00  0.00    -0.237 OA
ATOM     91  O   UNL A   1      45.592  23.288  36.937  1.00  0.00    -0.744 OA
ENDBRANCH  87  88
ENDBRANCH  61  82
ENDBRANCH  35  36
ENDBRANCH  28  30
ENDBRANCH  27  28
ENDBRANCH  26  27
ENDBRANCH   1  26
TORSDOF 18
ENDMDL
MODEL 3
REMARK VINA RESULT:     -11.0      2.622      4.095
REMARK SMILES Cc1cc(OC(F)F)ccc1NC(=O)[C@@H]1CCCC[C@@H]1C(=O)OCCOC(=O)c1ccc(-c2c3nc(c(-c4ccc(S(=O)(=O)[O-])cc4)c4ccc([nH]4)c(-c4ccc(S(=O)(=O)[O-])cc4)c4nc(c(-c5ccc(S(=O)(=O)[O-])cc5)c5ccc2[nH]5)C=C4)C=C3)cc1
REMARK SMILES IDX 24 1 23 2 21 3 22 4 20 5 15 6 16 7 17 8 19 9 18 10 13 11
REMARK SMILES IDX 12 12 14 14 11 15 1 16 2 17 3 18 4 19 10 20 9 21 5 22 6 23
REMARK SMILES IDX 7 24 8 25 25 26 26 27 27 28 28 29 29 30 30 31 88 32 31 33
REMARK SMILES IDX 87 34 32 35 33 36 34 37 81 38 35 39 86 40 80 41 82 42 36 43
REMARK SMILES IDX 85 44 79 45 78 46 37 48 67 49 48 50 66 51 49 52 52 53 65 54
REMARK SMILES IDX 83 55 50 56 51 57 64 59 84 60 53 61 38 62 39 63 47 64 40 65
REMARK SMILES IDX 46 66 41 67 42 68 43 69 44 70 45 71 68 72 69 73 77 74 70 75
REMARK SMILES IDX 76 76 71 77 72 78 73 79 74 80 75 81 54 82 55 83 63 84 56 85
REMARK SMILES IDX 62 86 57 87 58 88 59 89 60 90 61 91
REMARK H PARENT 12 13 82 47 52 58
REMARK Flexibility Score: inf
ROOT
ATOM      1  C   UNL A   1      32.619  29.884  27.359  1.00  0.00     0.274 C 
ENDROOT
BRANCH   1   2
ATOM      2  O   UNL A   1      32.327  29.106  26.194  1.00  0.00    -0.462 OA
BRANCH   2   3
ATOM      3  C   UNL A   1      31.630  28.016  26.545  1.00  0.00     0.309 C 
ATOM      4  O   UNL A   1      31.576  27.778  27.743  1.00  0.00    -0.252 OA
BRANCH   3   5
ATOM      5  C   UNL A   1      30.902  27.139  25.283  1.00  0.00     0.111 C 
ATOM      6  C   UNL A   1      32.552  26.131  24.863  1.00  0.00     0.093 C 
ATOM      7  C   UNL A   1      33.225  26.235  23.197  1.00  0.00     0.014 C 
ATOM      8  C   UNL A   1      32.256  26.652  21.756  1.00  0.00     0.001 C 
ATOM      9  C   UNL A   1      29.732  27.670  23.465  1.00  0.00     0.016 C 
ATOM     10  C   UNL A   1      30.591  27.273  21.780  1.00  0.00     0.001 C 
BRANCH   6  11
ATOM     11  C   UNL A   1      33.642  25.908  25.922  1.00  0.00     0.228 C 
ATOM     12  N   UNL A   1      33.825  24.614  26.392  1.00  0.00    -0.326 N 
ATOM     13  H   UNL A   1      34.363  24.511  27.210  1.00  0.00     0.169 HD
ATOM     14  O   UNL A   1      34.328  26.830  26.362  1.00  0.00    -0.274 OA
BRANCH  12  15
ATOM     15  C   UNL A   1      33.317  23.435  25.814  1.00  0.00     0.044 A 
ATOM     16  C   UNL A   1      35.442  23.036  24.426  1.00  0.00     0.047 C 
ATOM     17  C   UNL A   1      34.075  22.662  24.929  1.00  0.00    -0.024 A 
ATOM     18  C   UNL A   1      33.559  21.406  24.546  1.00  0.00     0.052 A 
ATOM     19  C   UNL A   1      32.365  20.896  25.071  1.00  0.00     0.126 A 
ATOM     20  C   UNL A   1      32.036  22.997  26.182  1.00  0.00     0.030 A 
ATOM     21  C   UNL A   1      31.582  21.718  25.863  1.00  0.00     0.049 A 
BRANCH  19  22
ATOM     22  O   UNL A   1      32.042  19.624  24.694  1.00  0.00    -0.435 OA
BRANCH  22  23
ATOM     23  C   UNL A   1      32.938  18.572  25.059  1.00  0.00     0.542 C 
ATOM     24  F   UNL A   1      32.341  17.712  25.912  1.00  0.00    -0.167 F 
ATOM     25  F   UNL A   1      33.293  17.864  23.956  1.00  0.00    -0.167 F 
ENDBRANCH  22  23
ENDBRANCH  19  22
ENDBRANCH  12  15
ENDBRANCH   6  11
ENDBRANCH   3   5
ENDBRANCH   2   3
ENDBRANCH   1   2
BRANCH   1  26
ATOM     26  C   UNL A   1      33.632  31.135  27.292  1.00  0.00     0.275 C 
BRANCH  26  27
ATOM     27  O   UNL A   1      35.101  31.074  27.722  1.00  0.00    -0.458 OA
BRANCH  27  28
ATOM     28  C   UNL A   1      35.871  31.788  28.659  1.00  0.00     0.338 C 
ATOM     29  O   UNL A   1      35.798  32.997  28.800  1.00  0.00    -0.246 OA
BRANCH  28  30
ATOM     30  C   UNL A   1      36.635  30.848  29.616  1.00  0.00     0.060 A 
ATOM     31  C   UNL A   1      36.617  29.180  30.644  1.00  0.00     0.016 A 
ATOM     32  C   UNL A   1      38.172  31.508  29.221  1.00  0.00     0.016 A 
ATOM     33  C   UNL A   1      38.192  28.400  30.990  1.00  0.00     0.010 A 
ATOM     34  C   UNL A   1      39.509  30.655  29.500  1.00  0.00     0.010 A 
ATOM     35  C   UNL A   1      39.603  29.230  30.389  1.00  0.00    -0.014 A 
BRANCH  35  36
ATOM     36  C   UNL A   1      41.049  29.109  30.628  1.00  0.00     0.031 A 
ATOM     37  C   UNL A   1      41.841  28.399  29.641  1.00  0.00     0.074 A 
ATOM     38  C   UNL A   1      41.614  29.971  31.531  1.00  0.00     0.049 A 
ATOM     39  N   UNL A   1      42.435  27.267  29.800  1.00  0.00    -0.248 NA
ATOM     40  C   UNL A   1      41.977  28.980  28.306  1.00  0.00     0.031 C 
ATOM     41  C   UNL A   1      42.999  30.314  31.824  1.00  0.00     0.029 A 
ATOM     42  N   UNL A   1      40.941  30.767  32.460  1.00  0.00    -0.354 N 
ATOM     43  C   UNL A   1      43.315  27.195  28.741  1.00  0.00     0.074 A 
ATOM     44  C   UNL A   1      42.825  28.121  27.736  1.00  0.00     0.031 C 
ATOM     45  C   UNL A   1      43.056  30.961  33.015  1.00  0.00     0.029 A 
ATOM     46  C   UNL A   1      41.706  31.156  33.537  1.00  0.00     0.049 A 
ATOM     47  H   UNL A   1      39.998  31.027  32.356  1.00  0.00     0.167 HD
ATOM     48  C   UNL A   1      44.636  26.907  28.934  1.00  0.00     0.031 A 
ATOM     49  C   UNL A   1      41.153  30.763  34.717  1.00  0.00     0.031 A 
ATOM     50  C   UNL A   1      45.008  27.163  30.336  1.00  0.00     0.049 A 
ATOM     51  C   UNL A   1      41.629  29.317  34.921  1.00  0.00     0.074 A 
ATOM     52  C   UNL A   1      45.730  28.185  30.930  1.00  0.00     0.029 A 
ATOM     53  N   UNL A   1      44.293  26.561  31.375  1.00  0.00    -0.354 N 
ATOM     54  N   UNL A   1      42.267  28.636  33.991  1.00  0.00    -0.248 NA
ATOM     55  C   UNL A   1      41.658  28.608  36.194  1.00  0.00     0.031 C 
ATOM     56  C   UNL A   1      45.360  28.246  32.312  1.00  0.00     0.029 A 
ATOM     57  C   UNL A   1      44.406  27.270  32.568  1.00  0.00     0.049 A 
ATOM     58  H   UNL A   1      43.771  25.732  31.277  1.00  0.00     0.167 HD
ATOM     59  C   UNL A   1      42.895  27.547  34.507  1.00  0.00     0.074 A 
ATOM     60  C   UNL A   1      42.450  27.555  35.898  1.00  0.00     0.031 C 
ATOM     61  C   UNL A   1      43.777  26.762  33.802  1.00  0.00     0.031 A 
BRANCH  48  62
ATOM     62  C   UNL A   1      45.573  26.799  27.741  1.00  0.00    -0.014 A 
ATOM     63  C   UNL A   1      46.294  27.903  27.255  1.00  0.00     0.010 A 
ATOM     64  C   UNL A   1      45.830  25.555  27.108  1.00  0.00     0.010 A 
ATOM     65  C   UNL A   1      47.177  27.785  26.162  1.00  0.00     0.020 A 
ATOM     66  C   UNL A   1      46.679  25.432  25.996  1.00  0.00     0.020 A 
ATOM     67  C   UNL A   1      47.357  26.551  25.531  1.00  0.00     0.054 A 
BRANCH  67  68
ATOM     68  S   UNL A   1      48.508  26.422  24.131  1.00  0.00     0.124 S 
ATOM     69  O   UNL A   1      47.929  25.338  23.343  1.00  0.00    -0.237 OA
ATOM     70  O   UNL A   1      48.424  27.752  23.534  1.00  0.00    -0.237 OA
ATOM     71  O   UNL A   1      49.790  26.107  24.762  1.00  0.00    -0.744 OA
ENDBRANCH  67  68
ENDBRANCH  48  62
BRANCH  49  72
ATOM     72  C   UNL A   1      39.839  31.554  34.916  1.00  0.00    -0.014 A 
ATOM     73  C   UNL A   1      39.941  32.932  34.558  1.00  0.00     0.010 A 
ATOM     74  C   UNL A   1      38.519  31.057  34.945  1.00  0.00     0.010 A 
ATOM     75  C   UNL A   1      38.860  33.703  34.075  1.00  0.00     0.020 A 
ATOM     76  C   UNL A   1      37.415  31.848  34.465  1.00  0.00     0.020 A 
ATOM     77  C   UNL A   1      37.602  33.141  33.977  1.00  0.00     0.054 A 
BRANCH  77  78
ATOM     78  S   UNL A   1      36.276  34.006  33.051  1.00  0.00     0.124 S 
ATOM     79  O   UNL A   1      36.873  34.204  31.737  1.00  0.00    -0.237 OA
ATOM     80  O   UNL A   1      35.157  33.067  33.101  1.00  0.00    -0.237 OA
ATOM     81  O   UNL A   1      36.075  35.204  33.857  1.00  0.00    -0.744 OA
ENDBRANCH  77  78
ENDBRANCH  49  72
BRANCH  61  82
ATOM     82  C   UNL A   1      44.246  25.407  34.274  1.00  0.00    -0.014 A 
ATOM     83  C   UNL A   1      43.376  24.372  34.635  1.00  0.00     0.010 A 
ATOM     84  C   UNL A   1      45.630  25.095  34.221  1.00  0.00     0.010 A 
ATOM     85  C   UNL A   1      43.862  23.121  35.021  1.00  0.00     0.020 A 
ATOM     86  C   UNL A   1      46.119  23.827  34.520  1.00  0.00     0.020 A 
ATOM     87  C   UNL A   1      45.231  22.859  34.963  1.00  0.00     0.054 A 
BRANCH  87  88
ATOM     88  S   UNL A   1      45.834  21.230  35.446  1.00  0.00     0.124 S 
ATOM     89  O   UNL A   1      47.174  21.229  34.864  1.00  0.00    -0.237 OA
ATOM     90  O   UNL A   1      45.781  21.289  36.905  1.00  0.00    -0.237 OA
ATOM     91  O   UNL A   1      44.881  20.311  34.830  1.00  0.00    -0.744 OA
ENDBRANCH  87  88
ENDBRANCH  61  82
ENDBRANCH  35  36
ENDBRANCH  28  30
ENDBRANCH  27  28
ENDBRANCH  26  27
ENDBRANCH   1  26
TORSDOF 18
ENDMDL
