MODEL 1
REMARK VINA RESULT:     -10.1      0.000      0.000
REMARK SMILES C[C@@](NC(=O)CCOC1CC[NH2+]CC1)(C(=O)OCCOC(=O)c1ccc(-c2c3nc(c(-c4ccc(S(=O)(=O)[O-])cc4)c4ccc([nH]4)c(-c4ccc(S(=O)(=O)[O-])cc4)c4nc(c(-c5ccc(S(=O)(=O)[O-])cc5)c5ccc2[nH]5)C=C4)C=C3)cc1)C(F)(F)F
REMARK SMILES IDX 18 1 17 2 15 3 16 4 2 5 1 6 3 7 4 8 5 10 6 11 7 12 8 13 9 14
REMARK SMILES IDX 10 15 14 16 11 17 13 18 12 19 83 22 84 23 85 24 86 25 19 26
REMARK SMILES IDX 20 27 21 28 22 29 23 30 24 31 82 32 25 33 81 34 26 35 27 36
REMARK SMILES IDX 28 37 75 38 29 39 80 40 74 41 76 42 30 43 79 44 73 45 72 46
REMARK SMILES IDX 31 48 61 49 42 50 60 51 43 52 46 53 59 54 77 55 44 56 45 57
REMARK SMILES IDX 58 59 78 60 47 61 32 62 33 63 41 64 34 65 40 66 35 67 36 68
REMARK SMILES IDX 37 69 38 70 39 71 62 72 63 73 71 74 64 75 70 76 65 77 66 78
REMARK SMILES IDX 67 79 68 80 69 81 48 82 49 83 57 84 50 85 56 86 51 87 52 88
REMARK SMILES IDX 53 89 54 90 55 91
REMARK H PARENT 3 9 12 20 12 21 76 47 46 58
REMARK Flexibility Score: inf
ROOT
ATOM      1  C   UNL A   1      35.714  24.033  25.275  1.00  0.00     0.274 C 
ENDROOT
BRANCH   1   2
ATOM      2  O   UNL A   1      34.478  23.428  25.692  1.00  0.00    -0.460 OA
BRANCH   2   3
ATOM      3  C   UNL A   1      33.810  22.508  24.923  1.00  0.00     0.341 C 
ATOM      4  O   UNL A   1      33.658  22.607  23.730  1.00  0.00    -0.249 OA
BRANCH   3   5
ATOM      5  C   UNL A   1      33.214  21.434  25.857  1.00  0.00     0.231 C 
ATOM      6  C   UNL A   1      34.033  21.456  27.162  1.00  0.00     0.058 C 
BRANCH   5   7
ATOM      7  N   UNL A   1      31.723  21.628  25.970  1.00  0.00    -0.333 N 
ATOM      8  C   UNL A   1      30.885  22.592  26.408  1.00  0.00     0.223 C 
ATOM      9  H   UNL A   1      31.230  20.845  25.634  1.00  0.00     0.164 HD
ATOM     10  O   UNL A   1      29.676  22.353  26.400  1.00  0.00    -0.275 OA
BRANCH   8  11
ATOM     11  C   UNL A   1      31.401  23.899  26.923  1.00  0.00     0.128 C 
BRANCH  11  12
ATOM     12  C   UNL A   1      30.826  25.041  26.096  1.00  0.00     0.170 C 
BRANCH  12  13
ATOM     13  O   UNL A   1      31.413  25.023  24.799  1.00  0.00    -0.377 OA
BRANCH  13  14
ATOM     14  C   UNL A   1      32.189  26.156  24.420  1.00  0.00     0.129 C 
ATOM     15  C   UNL A   1      31.283  27.376  24.434  1.00  0.00     0.093 C 
ATOM     16  C   UNL A   1      32.829  25.919  23.037  1.00  0.00     0.093 C 
ATOM     17  C   UNL A   1      30.352  27.386  23.227  1.00  0.00     0.263 C 
ATOM     18  C   UNL A   1      32.018  26.344  21.803  1.00  0.00     0.263 C 
ATOM     19  N   UNL A   1      31.133  27.486  21.999  1.00  0.00    -0.346 N 
ATOM     20  H   UNL A   1      31.698  28.334  22.039  1.00  0.00     0.346 HD
ATOM     21  H   UNL A   1      30.478  27.508  21.218  1.00  0.00     0.346 HD
ENDBRANCH  13  14
ENDBRANCH  12  13
ENDBRANCH  11  12
ENDBRANCH   8  11
ENDBRANCH   5   7
BRANCH   5  22
ATOM     22  C   UNL A   1      33.407  20.003  25.285  1.00  0.00     0.422 C 
ATOM     23  F   UNL A   1      32.987  19.033  26.125  1.00  0.00    -0.168 F 
ATOM     24  F   UNL A   1      32.626  19.856  24.172  1.00  0.00    -0.168 F 
ATOM     25  F   UNL A   1      34.663  19.718  24.902  1.00  0.00    -0.168 F 
ENDBRANCH   5  22
ENDBRANCH   3   5
ENDBRANCH   2   3
ENDBRANCH   1   2
BRANCH   1  26
ATOM     26  C   UNL A   1      36.820  23.015  25.572  1.00  0.00     0.275 C 
BRANCH  26  27
ATOM     27  O   UNL A   1      38.069  23.720  25.475  1.00  0.00    -0.458 OA
BRANCH  27  28
ATOM     28  C   UNL A   1      39.069  23.366  26.317  1.00  0.00     0.338 C 
ATOM     29  O   UNL A   1      39.618  22.280  26.395  1.00  0.00    -0.246 OA
BRANCH  28  30
ATOM     30  C   UNL A   1      39.483  24.582  27.050  1.00  0.00     0.060 A 
ATOM     31  C   UNL A   1      39.022  24.741  28.349  1.00  0.00     0.016 A 
ATOM     32  C   UNL A   1      40.226  25.605  26.471  1.00  0.00     0.016 A 
ATOM     33  C   UNL A   1      39.213  25.929  29.036  1.00  0.00     0.010 A 
ATOM     34  C   UNL A   1      40.563  26.735  27.242  1.00  0.00     0.010 A 
ATOM     35  C   UNL A   1      40.058  26.914  28.547  1.00  0.00    -0.014 A 
BRANCH  35  36
ATOM     36  C   UNL A   1      40.409  28.084  29.411  1.00  0.00     0.031 A 
ATOM     37  C   UNL A   1      41.609  28.005  30.314  1.00  0.00     0.074 A 
ATOM     38  C   UNL A   1      39.655  29.210  29.417  1.00  0.00     0.049 A 
ATOM     39  N   UNL A   1      41.856  28.670  31.410  1.00  0.00    -0.248 NA
ATOM     40  C   UNL A   1      42.656  27.034  29.951  1.00  0.00     0.031 C 
ATOM     41  C   UNL A   1      38.526  29.513  28.526  1.00  0.00     0.029 A 
ATOM     42  N   UNL A   1      39.716  30.324  30.228  1.00  0.00    -0.354 N 
ATOM     43  C   UNL A   1      43.022  28.119  31.930  1.00  0.00     0.074 A 
ATOM     44  C   UNL A   1      43.460  27.097  31.005  1.00  0.00     0.031 C 
ATOM     45  C   UNL A   1      38.035  30.725  28.807  1.00  0.00     0.029 A 
ATOM     46  C   UNL A   1      38.680  31.210  30.013  1.00  0.00     0.049 A 
ATOM     47  H   UNL A   1      40.426  30.473  30.892  1.00  0.00     0.167 HD
ATOM     48  C   UNL A   1      43.637  28.425  33.096  1.00  0.00     0.031 A 
ATOM     49  C   UNL A   1      38.200  32.225  30.758  1.00  0.00     0.031 A 
ATOM     50  C   UNL A   1      43.216  29.502  33.955  1.00  0.00     0.049 A 
ATOM     51  C   UNL A   1      38.846  32.501  32.082  1.00  0.00     0.074 A 
ATOM     52  C   UNL A   1      43.782  29.923  35.145  1.00  0.00     0.029 A 
ATOM     53  N   UNL A   1      42.138  30.338  33.706  1.00  0.00    -0.354 N 
ATOM     54  N   UNL A   1      39.888  31.914  32.622  1.00  0.00    -0.248 NA
ATOM     55  C   UNL A   1      38.234  33.544  32.913  1.00  0.00     0.031 C 
ATOM     56  C   UNL A   1      43.008  30.974  35.646  1.00  0.00     0.029 A 
ATOM     57  C   UNL A   1      41.999  31.249  34.736  1.00  0.00     0.049 A 
ATOM     58  H   UNL A   1      41.557  30.289  32.912  1.00  0.00     0.167 HD
ATOM     59  C   UNL A   1      40.058  32.524  33.858  1.00  0.00     0.074 A 
ATOM     60  C   UNL A   1      39.033  33.541  33.971  1.00  0.00     0.031 C 
ATOM     61  C   UNL A   1      40.974  32.256  34.819  1.00  0.00     0.031 A 
BRANCH  48  62
ATOM     62  C   UNL A   1      44.768  27.551  33.566  1.00  0.00    -0.014 A 
ATOM     63  C   UNL A   1      46.115  27.870  33.332  1.00  0.00     0.010 A 
ATOM     64  C   UNL A   1      44.459  26.419  34.349  1.00  0.00     0.010 A 
ATOM     65  C   UNL A   1      47.132  27.069  33.865  1.00  0.00     0.020 A 
ATOM     66  C   UNL A   1      45.471  25.632  34.903  1.00  0.00     0.020 A 
ATOM     67  C   UNL A   1      46.803  25.959  34.652  1.00  0.00     0.054 A 
BRANCH  67  68
ATOM     68  S   UNL A   1      48.143  24.979  35.387  1.00  0.00     0.124 S 
ATOM     69  O   UNL A   1      48.667  25.895  36.397  1.00  0.00    -0.237 OA
ATOM     70  O   UNL A   1      47.435  23.811  35.906  1.00  0.00    -0.237 OA
ATOM     71  O   UNL A   1      49.038  24.714  34.263  1.00  0.00    -0.744 OA
ENDBRANCH  67  68
ENDBRANCH  48  62
BRANCH  49  72
ATOM     72  C   UNL A   1      36.951  32.934  30.347  1.00  0.00    -0.014 A 
ATOM     73  C   UNL A   1      35.739  32.723  31.024  1.00  0.00     0.010 A 
ATOM     74  C   UNL A   1      36.973  33.833  29.260  1.00  0.00     0.010 A 
ATOM     75  C   UNL A   1      34.573  33.380  30.614  1.00  0.00     0.020 A 
ATOM     76  C   UNL A   1      35.822  34.524  28.874  1.00  0.00     0.020 A 
ATOM     77  C   UNL A   1      34.623  34.278  29.542  1.00  0.00     0.054 A 
BRANCH  77  78
ATOM     78  S   UNL A   1      33.108  35.143  29.044  1.00  0.00     0.124 S 
ATOM     79  O   UNL A   1      33.637  36.395  28.513  1.00  0.00    -0.237 OA
ATOM     80  O   UNL A   1      32.531  34.231  28.060  1.00  0.00    -0.237 OA
ATOM     81  O   UNL A   1      32.354  35.258  30.290  1.00  0.00    -0.744 OA
ENDBRANCH  77  78
ENDBRANCH  49  72
BRANCH  61  82
ATOM     82  C   UNL A   1      40.929  33.102  36.059  1.00  0.00    -0.014 A 
ATOM     83  C   UNL A   1      41.629  34.319  36.130  1.00  0.00     0.010 A 
ATOM     84  C   UNL A   1      40.126  32.700  37.140  1.00  0.00     0.010 A 
ATOM     85  C   UNL A   1      41.537  35.113  37.274  1.00  0.00     0.020 A 
ATOM     86  C   UNL A   1      40.010  33.506  38.272  1.00  0.00     0.020 A 
ATOM     87  C   UNL A   1      40.724  34.704  38.335  1.00  0.00     0.054 A 
BRANCH  87  88
ATOM     88  S   UNL A   1      40.571  35.787  39.781  1.00  0.00     0.124 S 
ATOM     89  O   UNL A   1      41.968  36.056  40.109  1.00  0.00    -0.237 OA
ATOM     90  O   UNL A   1      39.818  36.922  39.251  1.00  0.00    -0.237 OA
ATOM     91  O   UNL A   1      39.850  34.968  40.753  1.00  0.00    -0.744 OA
ENDBRANCH  87  88
ENDBRANCH  61  82
ENDBRANCH  35  36
ENDBRANCH  28  30
ENDBRANCH  27  28
ENDBRANCH  26  27
ENDBRANCH   1  26
TORSDOF 20
ENDMDL
MODEL 2
REMARK VINA RESULT:      -9.9      5.223     10.649
REMARK SMILES C[C@@](NC(=O)CCOC1CC[NH2+]CC1)(C(=O)OCCOC(=O)c1ccc(-c2c3nc(c(-c4ccc(S(=O)(=O)[O-])cc4)c4ccc([nH]4)c(-c4ccc(S(=O)(=O)[O-])cc4)c4nc(c(-c5ccc(S(=O)(=O)[O-])cc5)c5ccc2[nH]5)C=C4)C=C3)cc1)C(F)(F)F
REMARK SMILES IDX 18 1 17 2 15 3 16 4 2 5 1 6 3 7 4 8 5 10 6 11 7 12 8 13 9 14
REMARK SMILES IDX 10 15 14 16 11 17 13 18 12 19 83 22 84 23 85 24 86 25 19 26
REMARK SMILES IDX 20 27 21 28 22 29 23 30 24 31 82 32 25 33 81 34 26 35 27 36
REMARK SMILES IDX 28 37 75 38 29 39 80 40 74 41 76 42 30 43 79 44 73 45 72 46
REMARK SMILES IDX 31 48 61 49 42 50 60 51 43 52 46 53 59 54 77 55 44 56 45 57
REMARK SMILES IDX 58 59 78 60 47 61 32 62 33 63 41 64 34 65 40 66 35 67 36 68
REMARK SMILES IDX 37 69 38 70 39 71 62 72 63 73 71 74 64 75 70 76 65 77 66 78
REMARK SMILES IDX 67 79 68 80 69 81 48 82 49 83 57 84 50 85 56 86 51 87 52 88
REMARK SMILES IDX 53 89 54 90 55 91
REMARK H PARENT 3 9 12 20 12 21 76 47 46 58
REMARK Flexibility Score: inf
ROOT
ATOM      1  C   UNL A   1      32.185  29.995  26.463  1.00  0.00     0.274 C 
ENDROOT
BRANCH   1   2
ATOM      2  O   UNL A   1      31.544  29.606  25.236  1.00  0.00    -0.460 OA
BRANCH   2   3
ATOM      3  C   UNL A   1      31.126  28.321  24.996  1.00  0.00     0.341 C 
ATOM      4  O   UNL A   1      31.015  27.475  25.850  1.00  0.00    -0.249 OA
BRANCH   3   5
ATOM      5  C   UNL A   1      30.948  28.143  23.474  1.00  0.00     0.231 C 
ATOM      6  C   UNL A   1      32.013  29.016  22.782  1.00  0.00     0.058 C 
BRANCH   5   7
ATOM      7  N   UNL A   1      30.926  26.675  23.132  1.00  0.00    -0.333 N 
ATOM      8  C   UNL A   1      31.819  25.665  23.064  1.00  0.00     0.223 C 
ATOM      9  H   UNL A   1      30.019  26.373  22.896  1.00  0.00     0.164 HD
ATOM     10  O   UNL A   1      31.422  24.568  22.667  1.00  0.00    -0.275 OA
BRANCH   8  11
ATOM     11  C   UNL A   1      33.258  25.872  23.423  1.00  0.00     0.128 C 
BRANCH  11  12
ATOM     12  C   UNL A   1      34.060  24.628  23.068  1.00  0.00     0.170 C 
BRANCH  12  13
ATOM     13  O   UNL A   1      34.481  23.982  24.265  1.00  0.00    -0.377 OA
BRANCH  13  14
ATOM     14  C   UNL A   1      33.679  22.904  24.739  1.00  0.00     0.129 C 
ATOM     15  C   UNL A   1      33.339  23.172  26.195  1.00  0.00     0.093 C 
ATOM     16  C   UNL A   1      34.426  21.568  24.550  1.00  0.00     0.093 C 
ATOM     17  C   UNL A   1      34.538  22.913  27.099  1.00  0.00     0.263 C 
ATOM     18  C   UNL A   1      35.335  21.100  25.697  1.00  0.00     0.263 C 
ATOM     19  N   UNL A   1      34.915  21.506  27.033  1.00  0.00    -0.346 N 
ATOM     20  H   UNL A   1      34.113  20.938  27.309  1.00  0.00     0.346 HD
ATOM     21  H   UNL A   1      35.706  21.368  27.662  1.00  0.00     0.346 HD
ENDBRANCH  13  14
ENDBRANCH  12  13
ENDBRANCH  11  12
ENDBRANCH   8  11
ENDBRANCH   5   7
BRANCH   5  22
ATOM     22  C   UNL A   1      29.586  28.707  22.983  1.00  0.00     0.422 C 
ATOM     23  F   UNL A   1      28.561  27.847  23.156  1.00  0.00    -0.168 F 
ATOM     24  F   UNL A   1      29.252  29.796  23.742  1.00  0.00    -0.168 F 
ATOM     25  F   UNL A   1      29.580  29.124  21.706  1.00  0.00    -0.168 F 
ENDBRANCH   5  22
ENDBRANCH   3   5
ENDBRANCH   2   3
ENDBRANCH   1   2
BRANCH   1  26
ATOM     26  C   UNL A   1      33.678  29.699  26.287  1.00  0.00     0.275 C 
BRANCH  26  27
ATOM     27  O   UNL A   1      34.224  29.529  27.606  1.00  0.00    -0.458 OA
BRANCH  27  28
ATOM     28  C   UNL A   1      34.844  30.585  28.181  1.00  0.00     0.338 C 
ATOM     29  O   UNL A   1      34.348  31.656  28.489  1.00  0.00    -0.246 OA
BRANCH  28  30
ATOM     30  C   UNL A   1      36.227  30.167  28.503  1.00  0.00     0.060 A 
ATOM     31  C   UNL A   1      37.178  30.255  27.496  1.00  0.00     0.016 A 
ATOM     32  C   UNL A   1      36.590  29.609  29.724  1.00  0.00     0.016 A 
ATOM     33  C   UNL A   1      38.444  29.717  27.660  1.00  0.00     0.010 A 
ATOM     34  C   UNL A   1      37.928  29.226  29.937  1.00  0.00     0.010 A 
ATOM     35  C   UNL A   1      38.883  29.276  28.899  1.00  0.00    -0.014 A 
BRANCH  35  36
ATOM     36  C   UNL A   1      40.320  28.904  29.086  1.00  0.00     0.031 A 
ATOM     37  C   UNL A   1      41.315  29.961  29.479  1.00  0.00     0.074 A 
ATOM     38  C   UNL A   1      40.755  27.635  28.887  1.00  0.00     0.049 A 
ATOM     39  N   UNL A   1      42.606  29.984  29.288  1.00  0.00    -0.248 NA
ATOM     40  C   UNL A   1      40.785  31.161  30.151  1.00  0.00     0.031 C 
ATOM     41  C   UNL A   1      39.919  26.456  28.619  1.00  0.00     0.029 A 
ATOM     42  N   UNL A   1      42.033  27.119  28.863  1.00  0.00    -0.354 N 
ATOM     43  C   UNL A   1      43.026  31.242  29.706  1.00  0.00     0.074 A 
ATOM     44  C   UNL A   1      41.861  31.937  30.205  1.00  0.00     0.031 C 
ATOM     45  C   UNL A   1      40.690  25.369  28.498  1.00  0.00     0.029 A 
ATOM     46  C   UNL A   1      42.077  25.792  28.490  1.00  0.00     0.049 A 
ATOM     47  H   UNL A   1      42.834  27.644  29.090  1.00  0.00     0.167 HD
ATOM     48  C   UNL A   1      44.272  31.766  29.637  1.00  0.00     0.031 A 
ATOM     49  C   UNL A   1      43.090  25.016  28.055  1.00  0.00     0.031 A 
ATOM     50  C   UNL A   1      45.425  31.018  29.205  1.00  0.00     0.049 A 
ATOM     51  C   UNL A   1      44.447  25.636  27.913  1.00  0.00     0.074 A 
ATOM     52  C   UNL A   1      46.740  31.438  29.124  1.00  0.00     0.029 A 
ATOM     53  N   UNL A   1      45.401  29.692  28.801  1.00  0.00    -0.354 N 
ATOM     54  N   UNL A   1      44.826  26.855  28.212  1.00  0.00    -0.248 NA
ATOM     55  C   UNL A   1      45.503  24.793  27.339  1.00  0.00     0.031 C 
ATOM     56  C   UNL A   1      47.501  30.383  28.612  1.00  0.00     0.029 A 
ATOM     57  C   UNL A   1      46.671  29.287  28.435  1.00  0.00     0.049 A 
ATOM     58  H   UNL A   1      44.598  29.122  28.778  1.00  0.00     0.167 HD
ATOM     59  C   UNL A   1      46.169  26.923  27.868  1.00  0.00     0.074 A 
ATOM     60  C   UNL A   1      46.541  25.617  27.366  1.00  0.00     0.031 C 
ATOM     61  C   UNL A   1      47.015  27.978  27.947  1.00  0.00     0.031 A 
BRANCH  48  62
ATOM     62  C   UNL A   1      44.457  33.228  29.946  1.00  0.00    -0.014 A 
ATOM     63  C   UNL A   1      44.074  34.242  29.053  1.00  0.00     0.010 A 
ATOM     64  C   UNL A   1      44.949  33.586  31.218  1.00  0.00     0.010 A 
ATOM     65  C   UNL A   1      44.188  35.587  29.424  1.00  0.00     0.020 A 
ATOM     66  C   UNL A   1      45.040  34.926  31.601  1.00  0.00     0.020 A 
ATOM     67  C   UNL A   1      44.664  35.920  30.698  1.00  0.00     0.054 A 
BRANCH  67  68
ATOM     68  S   UNL A   1      44.735  37.670  31.176  1.00  0.00     0.124 S 
ATOM     69  O   UNL A   1      43.696  37.744  32.200  1.00  0.00    -0.237 OA
ATOM     70  O   UNL A   1      46.105  37.812  31.661  1.00  0.00    -0.237 OA
ATOM     71  O   UNL A   1      44.438  38.383  29.936  1.00  0.00    -0.744 OA
ENDBRANCH  67  68
ENDBRANCH  48  62
BRANCH  49  72
ATOM     72  C   UNL A   1      42.819  23.631  27.568  1.00  0.00    -0.014 A 
ATOM     73  C   UNL A   1      42.830  22.536  28.448  1.00  0.00     0.010 A 
ATOM     74  C   UNL A   1      42.550  23.400  26.203  1.00  0.00     0.010 A 
ATOM     75  C   UNL A   1      42.594  21.241  27.972  1.00  0.00     0.020 A 
ATOM     76  C   UNL A   1      42.272  22.116  25.731  1.00  0.00     0.020 A 
ATOM     77  C   UNL A   1      42.315  21.040  26.616  1.00  0.00     0.054 A 
BRANCH  77  78
ATOM     78  S   UNL A   1      41.982  19.358  26.024  1.00  0.00     0.124 S 
ATOM     79  O   UNL A   1      42.813  19.289  24.826  1.00  0.00    -0.237 OA
ATOM     80  O   UNL A   1      42.421  18.533  27.147  1.00  0.00    -0.237 OA
ATOM     81  O   UNL A   1      40.541  19.356  25.788  1.00  0.00    -0.744 OA
ENDBRANCH  77  78
ENDBRANCH  49  72
BRANCH  61  82
ATOM     82  C   UNL A   1      48.435  27.747  27.515  1.00  0.00    -0.014 A 
ATOM     83  C   UNL A   1      49.398  27.268  28.421  1.00  0.00     0.010 A 
ATOM     84  C   UNL A   1      48.790  27.956  26.172  1.00  0.00     0.010 A 
ATOM     85  C   UNL A   1      50.700  27.016  27.988  1.00  0.00     0.020 A 
ATOM     86  C   UNL A   1      50.084  27.677  25.731  1.00  0.00     0.020 A 
ATOM     87  C   UNL A   1      51.033  27.217  26.646  1.00  0.00     0.054 A 
BRANCH  87  88
ATOM     88  S   UNL A   1      52.715  26.819  26.098  1.00  0.00     0.124 S 
ATOM     89  O   UNL A   1      53.202  25.985  27.193  1.00  0.00    -0.237 OA
ATOM     90  O   UNL A   1      52.482  26.125  24.832  1.00  0.00    -0.237 OA
ATOM     91  O   UNL A   1      53.358  28.126  25.976  1.00  0.00    -0.744 OA
ENDBRANCH  87  88
ENDBRANCH  61  82
ENDBRANCH  35  36
ENDBRANCH  28  30
ENDBRANCH  27  28
ENDBRANCH  26  27
ENDBRANCH   1  26
TORSDOF 20
ENDMDL
MODEL 3
REMARK VINA RESULT:      -9.7      4.613      9.821
REMARK SMILES C[C@@](NC(=O)CCOC1CC[NH2+]CC1)(C(=O)OCCOC(=O)c1ccc(-c2c3nc(c(-c4ccc(S(=O)(=O)[O-])cc4)c4ccc([nH]4)c(-c4ccc(S(=O)(=O)[O-])cc4)c4nc(c(-c5ccc(S(=O)(=O)[O-])cc5)c5ccc2[nH]5)C=C4)C=C3)cc1)C(F)(F)F
REMARK SMILES IDX 18 1 17 2 15 3 16 4 2 5 1 6 3 7 4 8 5 10 6 11 7 12 8 13 9 14
REMARK SMILES IDX 10 15 14 16 11 17 13 18 12 19 83 22 84 23 85 24 86 25 19 26
REMARK SMILES IDX 20 27 21 28 22 29 23 30 24 31 82 32 25 33 81 34 26 35 27 36
REMARK SMILES IDX 28 37 75 38 29 39 80 40 74 41 76 42 30 43 79 44 73 45 72 46
REMARK SMILES IDX 31 48 61 49 42 50 60 51 43 52 46 53 59 54 77 55 44 56 45 57
REMARK SMILES IDX 58 59 78 60 47 61 32 62 33 63 41 64 34 65 40 66 35 67 36 68
REMARK SMILES IDX 37 69 38 70 39 71 62 72 63 73 71 74 64 75 70 76 65 77 66 78
REMARK SMILES IDX 67 79 68 80 69 81 48 82 49 83 57 84 50 85 56 86 51 87 52 88
REMARK SMILES IDX 53 89 54 90 55 91
REMARK H PARENT 3 9 12 20 12 21 76 47 46 58
REMARK Flexibility Score: inf
ROOT
ATOM      1  C   UNL A   1      33.599  27.504  25.719  1.00  0.00     0.274 C 
ENDROOT
BRANCH   1   2
ATOM      2  O   UNL A   1      33.736  26.090  25.939  1.00  0.00    -0.460 OA
BRANCH   2   3
ATOM      3  C   UNL A   1      33.786  25.183  24.910  1.00  0.00     0.341 C 
ATOM      4  O   UNL A   1      33.836  25.487  23.743  1.00  0.00    -0.249 OA
BRANCH   3   5
ATOM      5  C   UNL A   1      33.651  23.765  25.504  1.00  0.00     0.231 C 
ATOM      6  C   UNL A   1      34.984  23.431  26.200  1.00  0.00     0.058 C 
BRANCH   5   7
ATOM      7  N   UNL A   1      32.394  23.678  26.332  1.00  0.00    -0.333 N 
ATOM      8  C   UNL A   1      31.104  24.056  26.208  1.00  0.00     0.223 C 
ATOM      9  H   UNL A   1      32.558  23.225  27.191  1.00  0.00     0.164 HD
ATOM     10  O   UNL A   1      30.351  23.862  27.163  1.00  0.00    -0.275 OA
BRANCH   8  11
ATOM     11  C   UNL A   1      30.604  24.725  24.965  1.00  0.00     0.128 C 
BRANCH  11  12
ATOM     12  C   UNL A   1      29.957  26.056  25.323  1.00  0.00     0.170 C 
BRANCH  12  13
ATOM     13  O   UNL A   1      30.555  27.091  24.549  1.00  0.00    -0.377 OA
BRANCH  13  14
ATOM     14  C   UNL A   1      30.166  27.188  23.182  1.00  0.00     0.129 C 
ATOM     15  C   UNL A   1      31.421  27.376  22.346  1.00  0.00     0.093 C 
ATOM     16  C   UNL A   1      29.163  28.345  22.999  1.00  0.00     0.093 C 
ATOM     17  C   UNL A   1      31.964  28.794  22.477  1.00  0.00     0.263 C 
ATOM     18  C   UNL A   1      29.740  29.738  22.700  1.00  0.00     0.263 C 
ATOM     19  N   UNL A   1      30.993  29.748  21.955  1.00  0.00    -0.346 N 
ATOM     20  H   UNL A   1      30.796  29.516  20.981  1.00  0.00     0.346 HD
ATOM     21  H   UNL A   1      31.398  30.681  22.043  1.00  0.00     0.346 HD
ENDBRANCH  13  14
ENDBRANCH  12  13
ENDBRANCH  11  12
ENDBRANCH   8  11
ENDBRANCH   5   7
BRANCH   5  22
ATOM     22  C   UNL A   1      33.496  22.689  24.395  1.00  0.00     0.422 C 
ATOM     23  F   UNL A   1      34.656  22.397  23.770  1.00  0.00    -0.168 F 
ATOM     24  F   UNL A   1      33.108  21.508  24.966  1.00  0.00    -0.168 F 
ATOM     25  F   UNL A   1      32.573  22.975  23.462  1.00  0.00    -0.168 F 
ENDBRANCH   5  22
ENDBRANCH   3   5
ENDBRANCH   2   3
ENDBRANCH   1   2
BRANCH   1  26
ATOM     26  C   UNL A   1      34.536  28.193  26.715  1.00  0.00     0.275 C 
BRANCH  26  27
ATOM     27  O   UNL A   1      33.741  29.147  27.440  1.00  0.00    -0.458 OA
BRANCH  27  28
ATOM     28  C   UNL A   1      34.347  30.267  27.898  1.00  0.00     0.338 C 
ATOM     29  O   UNL A   1      33.817  31.322  28.204  1.00  0.00    -0.246 OA
BRANCH  28  30
ATOM     30  C   UNL A   1      35.778  29.947  28.096  1.00  0.00     0.060 A 
ATOM     31  C   UNL A   1      36.180  29.541  29.361  1.00  0.00     0.016 A 
ATOM     32  C   UNL A   1      36.742  30.122  27.109  1.00  0.00     0.016 A 
ATOM     33  C   UNL A   1      37.522  29.399  29.674  1.00  0.00     0.010 A 
ATOM     34  C   UNL A   1      38.085  29.804  27.391  1.00  0.00     0.010 A 
ATOM     35  C   UNL A   1      38.497  29.434  28.688  1.00  0.00    -0.014 A 
BRANCH  35  36
ATOM     36  C   UNL A   1      39.906  29.063  29.029  1.00  0.00     0.031 A 
ATOM     37  C   UNL A   1      40.849  30.119  29.537  1.00  0.00     0.074 A 
ATOM     38  C   UNL A   1      40.363  27.796  28.869  1.00  0.00     0.049 A 
ATOM     39  N   UNL A   1      42.154  30.146  29.490  1.00  0.00    -0.248 NA
ATOM     40  C   UNL A   1      40.246  31.312  30.156  1.00  0.00     0.031 C 
ATOM     41  C   UNL A   1      39.565  26.618  28.501  1.00  0.00     0.029 A 
ATOM     42  N   UNL A   1      41.638  27.283  28.982  1.00  0.00    -0.354 N 
ATOM     43  C   UNL A   1      42.522  31.401  29.961  1.00  0.00     0.074 A 
ATOM     44  C   UNL A   1      41.307  32.089  30.335  1.00  0.00     0.031 C 
ATOM     45  C   UNL A   1      40.347  25.534  28.457  1.00  0.00     0.029 A 
ATOM     46  C   UNL A   1      41.726  25.959  28.605  1.00  0.00     0.049 A 
ATOM     47  H   UNL A   1      42.407  27.808  29.299  1.00  0.00     0.167 HD
ATOM     48  C   UNL A   1      43.766  31.928  30.033  1.00  0.00     0.031 A 
ATOM     49  C   UNL A   1      42.782  25.189  28.279  1.00  0.00     0.031 A 
ATOM     50  C   UNL A   1      44.961  31.185  29.726  1.00  0.00     0.049 A 
ATOM     51  C   UNL A   1      44.146  25.812  28.291  1.00  0.00     0.074 A 
ATOM     52  C   UNL A   1      46.277  31.607  29.793  1.00  0.00     0.029 A 
ATOM     53  N   UNL A   1      44.985  29.862  29.311  1.00  0.00    -0.354 N 
ATOM     54  N   UNL A   1      44.486  27.029  28.640  1.00  0.00    -0.248 NA
ATOM     55  C   UNL A   1      45.260  24.975  27.830  1.00  0.00     0.031 C 
ATOM     56  C   UNL A   1      47.092  30.558  29.359  1.00  0.00     0.029 A 
ATOM     57  C   UNL A   1      46.289  29.462  29.084  1.00  0.00     0.049 A 
ATOM     58  H   UNL A   1      44.191  29.291  29.196  1.00  0.00     0.167 HD
ATOM     59  C   UNL A   1      45.858  27.102  28.446  1.00  0.00     0.074 A 
ATOM     60  C   UNL A   1      46.287  25.800  27.977  1.00  0.00     0.031 C 
ATOM     61  C   UNL A   1      46.688  28.157  28.626  1.00  0.00     0.031 A 
BRANCH  48  62
ATOM     62  C   UNL A   1      43.912  33.387  30.373  1.00  0.00    -0.014 A 
ATOM     63  C   UNL A   1      44.197  33.833  31.673  1.00  0.00     0.010 A 
ATOM     64  C   UNL A   1      43.851  34.328  29.325  1.00  0.00     0.010 A 
ATOM     65  C   UNL A   1      44.409  35.195  31.920  1.00  0.00     0.020 A 
ATOM     66  C   UNL A   1      44.087  35.684  29.563  1.00  0.00     0.020 A 
ATOM     67  C   UNL A   1      44.359  36.110  30.862  1.00  0.00     0.054 A 
BRANCH  67  68
ATOM     68  S   UNL A   1      44.706  37.860  31.200  1.00  0.00     0.124 S 
ATOM     69  O   UNL A   1      46.164  37.896  31.132  1.00  0.00    -0.237 OA
ATOM     70  O   UNL A   1      44.010  38.539  30.111  1.00  0.00    -0.237 OA
ATOM     71  O   UNL A   1      44.141  38.077  32.530  1.00  0.00    -0.744 OA
ENDBRANCH  67  68
ENDBRANCH  48  62
BRANCH  49  72
ATOM     72  C   UNL A   1      42.571  23.806  27.753  1.00  0.00    -0.014 A 
ATOM     73  C   UNL A   1      42.501  22.703  28.620  1.00  0.00     0.010 A 
ATOM     74  C   UNL A   1      42.438  23.588  26.367  1.00  0.00     0.010 A 
ATOM     75  C   UNL A   1      42.322  21.411  28.110  1.00  0.00     0.020 A 
ATOM     76  C   UNL A   1      42.217  22.308  25.857  1.00  0.00     0.020 A 
ATOM     77  C   UNL A   1      42.180  21.223  26.732  1.00  0.00     0.054 A 
BRANCH  77  78
ATOM     78  S   UNL A   1      41.919  19.545  26.093  1.00  0.00     0.124 S 
ATOM     79  O   UNL A   1      40.477  19.529  25.868  1.00  0.00    -0.237 OA
ATOM     80  O   UNL A   1      42.748  19.531  24.890  1.00  0.00    -0.237 OA
ATOM     81  O   UNL A   1      42.394  18.688  27.176  1.00  0.00    -0.744 OA
ENDBRANCH  77  78
ENDBRANCH  49  72
BRANCH  61  82
ATOM     82  C   UNL A   1      48.147  27.932  28.351  1.00  0.00    -0.014 A 
ATOM     83  C   UNL A   1      48.989  27.370  29.326  1.00  0.00     0.010 A 
ATOM     84  C   UNL A   1      48.664  28.233  27.079  1.00  0.00     0.010 A 
ATOM     85  C   UNL A   1      50.331  27.126  29.036  1.00  0.00     0.020 A 
ATOM     86  C   UNL A   1      49.999  27.963  26.777  1.00  0.00     0.020 A 
ATOM     87  C   UNL A   1      50.826  27.420  27.761  1.00  0.00     0.054 A 
BRANCH  87  88
ATOM     88  S   UNL A   1      52.558  27.032  27.390  1.00  0.00     0.124 S 
ATOM     89  O   UNL A   1      53.227  27.409  28.632  1.00  0.00    -0.237 OA
ATOM     90  O   UNL A   1      52.510  25.598  27.111  1.00  0.00    -0.237 OA
ATOM     91  O   UNL A   1      52.863  27.875  26.237  1.00  0.00    -0.744 OA
ENDBRANCH  87  88
ENDBRANCH  61  82
ENDBRANCH  35  36
ENDBRANCH  28  30
ENDBRANCH  27  28
ENDBRANCH  26  27
ENDBRANCH   1  26
TORSDOF 20
ENDMDL
