MODEL 1
REMARK VINA RESULT:     -12.1      0.000      0.000
REMARK SMILES O=C(C[C@H]1N=NC(=O)c2ccccc21)N[C@@H](CC1=c2ccccc2=NC1)C(=O)OCCOC(=O)c1ccc(-c2c3nc(c(-c4ccc(S(=O)(=O)[O-])cc4)c4ccc([nH]4)c(-c4ccc(S(=O)(=O)[O-])cc4)c4nc(c(-c5ccc(S(=O)(=O)[O-])cc5)c5ccc2[nH]5)C=C4)C=C3)cc1
REMARK SMILES IDX 30 1 29 2 27 3 28 4 16 5 15 6 1 7 2 8 3 10 4 11 5 12 14 13
REMARK SMILES IDX 6 14 9 15 13 16 7 17 10 18 12 19 8 20 11 21 17 22 18 23
REMARK SMILES IDX 19 24 26 25 20 26 24 27 25 28 21 29 23 30 22 31 31 32 32 33
REMARK SMILES IDX 33 34 34 35 35 36 36 37 94 38 37 39 93 40 38 41 39 42 40 43
REMARK SMILES IDX 87 44 41 45 92 46 86 47 88 48 42 49 91 50 85 51 84 52 43 54
REMARK SMILES IDX 73 55 54 56 72 57 55 58 58 59 71 60 89 61 56 62 57 63 70 65
REMARK SMILES IDX 90 66 59 67 44 68 45 69 53 70 46 71 52 72 47 73 48 74 49 75
REMARK SMILES IDX 50 76 51 77 74 78 75 79 83 80 76 81 82 82 77 83 78 84 79 85
REMARK SMILES IDX 80 86 81 87 60 88 61 89 69 90 62 91 68 92 63 93 64 94 65 95
REMARK SMILES IDX 66 96 67 97
REMARK H PARENT 15 9 88 53 58 64
REMARK Flexibility Score: inf
ROOT
ATOM      1  C   UNL A   1      35.671  22.697  24.561  1.00  0.00     0.274 C 
ENDROOT
BRANCH   1   2
ATOM      2  O   UNL A   1      34.773  21.623  24.893  1.00  0.00    -0.461 OA
BRANCH   2   3
ATOM      3  C   UNL A   1      33.663  21.988  25.590  1.00  0.00     0.329 C 
ATOM      4  O   UNL A   1      33.674  22.608  26.647  1.00  0.00    -0.250 OA
BRANCH   3   5
ATOM      5  C   UNL A   1      32.386  21.430  24.971  1.00  0.00     0.196 C 
BRANCH   5   6
ATOM      6  N   UNL A   1      31.386  22.424  24.547  1.00  0.00    -0.342 N 
ATOM      7  O   UNL A   1      32.673  23.356  22.901  1.00  0.00    -0.275 OA
ATOM      8  C   UNL A   1      31.625  23.336  23.542  1.00  0.00     0.223 C 
ATOM      9  H   UNL A   1      30.512  22.439  24.999  1.00  0.00     0.164 HD
BRANCH   8  10
ATOM     10  C   UNL A   1      30.566  24.404  23.343  1.00  0.00     0.134 C 
BRANCH  10  11
ATOM     11  C   UNL A   1      30.404  25.351  24.539  1.00  0.00     0.169 C 
ATOM     12  N   UNL A   1      31.596  25.186  25.400  1.00  0.00    -0.177 NA
ATOM     13  C   UNL A   1      30.141  26.770  24.122  1.00  0.00    -0.008 A 
ATOM     14  N   UNL A   1      32.507  26.039  25.485  1.00  0.00    -0.111 NA
ATOM     15  C   UNL A   1      31.143  27.721  24.298  1.00  0.00     0.049 A 
ATOM     16  C   UNL A   1      28.923  27.161  23.549  1.00  0.00     0.007 A 
ATOM     17  C   UNL A   1      32.415  27.292  24.914  1.00  0.00     0.295 C 
ATOM     18  C   UNL A   1      30.948  29.050  23.899  1.00  0.00     0.014 A 
ATOM     19  C   UNL A   1      28.723  28.487  23.156  1.00  0.00     0.000 A 
ATOM     20  O   UNL A   1      33.350  28.089  24.930  1.00  0.00    -0.265 OA
ATOM     21  C   UNL A   1      29.734  29.431  23.328  1.00  0.00     0.001 A 
ENDBRANCH  10  11
ENDBRANCH   8  10
ENDBRANCH   5   6
BRANCH   5  22
ATOM     22  C   UNL A   1      32.791  20.448  23.857  1.00  0.00     0.070 C 
BRANCH  22  23
ATOM     23  C   UNL A   1      32.242  19.013  23.845  1.00  0.00    -0.037 C 
ATOM     24  C   UNL A   1      32.868  18.043  24.519  1.00  0.00     0.001 A 
ATOM     25  C   UNL A   1      32.098  18.527  22.415  1.00  0.00     0.174 C 
ATOM     26  C   UNL A   1      32.512  17.247  25.660  1.00  0.00     0.010 A 
ATOM     27  C   UNL A   1      33.588  17.346  23.433  1.00  0.00     0.065 A 
ATOM     28  N   UNL A   1      33.238  17.602  22.212  1.00  0.00    -0.280 NA
ATOM     29  C   UNL A   1      33.298  16.189  25.936  1.00  0.00     0.001 A 
ATOM     30  C   UNL A   1      34.653  16.442  23.908  1.00  0.00     0.028 A 
ATOM     31  C   UNL A   1      34.492  15.923  25.139  1.00  0.00     0.002 A 
ENDBRANCH  22  23
ENDBRANCH   5  22
ENDBRANCH   3   5
ENDBRANCH   2   3
ENDBRANCH   1   2
BRANCH   1  32
ATOM     32  C   UNL A   1      37.101  22.334  24.957  1.00  0.00     0.275 C 
BRANCH  32  33
ATOM     33  O   UNL A   1      37.628  23.258  25.925  1.00  0.00    -0.458 OA
BRANCH  33  34
ATOM     34  C   UNL A   1      38.913  23.054  26.297  1.00  0.00     0.338 C 
ATOM     35  O   UNL A   1      39.611  22.079  26.044  1.00  0.00    -0.246 OA
BRANCH  34  36
ATOM     36  C   UNL A   1      39.418  24.274  26.937  1.00  0.00     0.060 A 
ATOM     37  C   UNL A   1      40.141  25.216  26.207  1.00  0.00     0.016 A 
ATOM     38  C   UNL A   1      39.141  24.487  28.289  1.00  0.00     0.016 A 
ATOM     39  C   UNL A   1      40.610  26.361  26.854  1.00  0.00     0.010 A 
ATOM     40  C   UNL A   1      39.604  25.628  28.934  1.00  0.00     0.010 A 
ATOM     41  C   UNL A   1      40.349  26.570  28.222  1.00  0.00    -0.014 A 
BRANCH  41  42
ATOM     42  C   UNL A   1      40.783  27.820  28.884  1.00  0.00     0.031 A 
ATOM     43  C   UNL A   1      42.193  27.990  29.367  1.00  0.00     0.074 A 
ATOM     44  C   UNL A   1      39.875  28.798  29.057  1.00  0.00     0.049 A 
ATOM     45  N   UNL A   1      42.765  29.062  29.850  1.00  0.00    -0.248 NA
ATOM     46  C   UNL A   1      43.073  26.810  29.314  1.00  0.00     0.031 C 
ATOM     47  C   UNL A   1      38.462  28.698  28.684  1.00  0.00     0.029 A 
ATOM     48  N   UNL A   1      39.998  30.067  29.562  1.00  0.00    -0.354 N 
ATOM     49  C   UNL A   1      44.074  28.696  30.136  1.00  0.00     0.074 A 
ATOM     50  C   UNL A   1      44.197  27.287  29.834  1.00  0.00     0.031 C 
ATOM     51  C   UNL A   1      37.863  29.872  28.921  1.00  0.00     0.029 A 
ATOM     52  C   UNL A   1      38.838  30.800  29.491  1.00  0.00     0.049 A 
ATOM     53  H   UNL A   1      40.837  30.418  29.941  1.00  0.00     0.167 HD
ATOM     54  C   UNL A   1      45.085  29.480  30.580  1.00  0.00     0.031 A 
ATOM     55  C   UNL A   1      38.589  32.082  29.823  1.00  0.00     0.031 A 
ATOM     56  C   UNL A   1      44.931  30.881  30.884  1.00  0.00     0.049 A 
ATOM     57  C   UNL A   1      39.724  32.932  30.319  1.00  0.00     0.074 A 
ATOM     58  C   UNL A   1      45.901  31.779  31.292  1.00  0.00     0.029 A 
ATOM     59  N   UNL A   1      43.736  31.585  30.821  1.00  0.00    -0.354 N 
ATOM     60  N   UNL A   1      40.983  32.601  30.485  1.00  0.00    -0.248 NA
ATOM     61  C   UNL A   1      39.418  34.329  30.652  1.00  0.00     0.031 C 
ATOM     62  C   UNL A   1      45.281  33.004  31.546  1.00  0.00     0.029 A 
ATOM     63  C   UNL A   1      43.939  32.897  31.214  1.00  0.00     0.049 A 
ATOM     64  H   UNL A   1      42.872  31.206  30.538  1.00  0.00     0.167 HD
ATOM     65  C   UNL A   1      41.624  33.752  30.928  1.00  0.00     0.074 A 
ATOM     66  C   UNL A   1      40.618  34.794  30.980  1.00  0.00     0.031 C 
ATOM     67  C   UNL A   1      42.926  33.925  31.265  1.00  0.00     0.031 A 
BRANCH  54  68
ATOM     68  C   UNL A   1      46.458  28.873  30.732  1.00  0.00    -0.014 A 
ATOM     69  C   UNL A   1      47.357  28.873  29.648  1.00  0.00     0.010 A 
ATOM     70  C   UNL A   1      46.805  28.174  31.903  1.00  0.00     0.010 A 
ATOM     71  C   UNL A   1      48.554  28.154  29.717  1.00  0.00     0.020 A 
ATOM     72  C   UNL A   1      48.016  27.479  31.987  1.00  0.00     0.020 A 
ATOM     73  C   UNL A   1      48.871  27.451  30.882  1.00  0.00     0.054 A 
BRANCH  73  74
ATOM     74  S   UNL A   1      50.402  26.479  30.934  1.00  0.00     0.124 S 
ATOM     75  O   UNL A   1      51.383  27.420  30.401  1.00  0.00    -0.237 OA
ATOM     76  O   UNL A   1      50.532  26.166  32.355  1.00  0.00    -0.237 OA
ATOM     77  O   UNL A   1      50.110  25.331  30.078  1.00  0.00    -0.744 OA
ENDBRANCH  73  74
ENDBRANCH  54  68
BRANCH  55  78
ATOM     78  C   UNL A   1      37.219  32.627  29.610  1.00  0.00    -0.014 A 
ATOM     79  C   UNL A   1      36.845  33.144  28.354  1.00  0.00     0.010 A 
ATOM     80  C   UNL A   1      36.325  32.748  30.689  1.00  0.00     0.010 A 
ATOM     81  C   UNL A   1      35.637  33.828  28.198  1.00  0.00     0.020 A 
ATOM     82  C   UNL A   1      35.100  33.403  30.528  1.00  0.00     0.020 A 
ATOM     83  C   UNL A   1      34.780  33.969  29.293  1.00  0.00     0.054 A 
BRANCH  83  84
ATOM     84  S   UNL A   1      33.259  34.935  29.086  1.00  0.00     0.124 S 
ATOM     85  O   UNL A   1      32.535  34.145  28.094  1.00  0.00    -0.237 OA
ATOM     86  O   UNL A   1      32.690  34.926  30.432  1.00  0.00    -0.237 OA
ATOM     87  O   UNL A   1      33.738  36.235  28.622  1.00  0.00    -0.744 OA
ENDBRANCH  83  84
ENDBRANCH  55  78
BRANCH  67  88
ATOM     88  C   UNL A   1      43.364  35.287  31.738  1.00  0.00    -0.014 A 
ATOM     89  C   UNL A   1      43.152  35.662  33.079  1.00  0.00     0.010 A 
ATOM     90  C   UNL A   1      43.840  36.245  30.826  1.00  0.00     0.010 A 
ATOM     91  C   UNL A   1      43.357  36.982  33.487  1.00  0.00     0.020 A 
ATOM     92  C   UNL A   1      44.081  37.559  31.240  1.00  0.00     0.020 A 
ATOM     93  C   UNL A   1      43.809  37.925  32.560  1.00  0.00     0.054 A 
BRANCH  93  94
ATOM     94  S   UNL A   1      44.014  39.645  33.095  1.00  0.00     0.124 S 
ATOM     95  O   UNL A   1      45.006  39.520  34.159  1.00  0.00    -0.237 OA
ATOM     96  O   UNL A   1      44.477  40.306  31.877  1.00  0.00    -0.237 OA
ATOM     97  O   UNL A   1      42.675  40.031  33.534  1.00  0.00    -0.744 OA
ENDBRANCH  93  94
ENDBRANCH  67  88
ENDBRANCH  41  42
ENDBRANCH  34  36
ENDBRANCH  33  34
ENDBRANCH  32  33
ENDBRANCH   1  32
TORSDOF 19
ENDMDL
MODEL 2
REMARK VINA RESULT:     -12.1      3.973     10.169
REMARK SMILES O=C(C[C@H]1N=NC(=O)c2ccccc21)N[C@@H](CC1=c2ccccc2=NC1)C(=O)OCCOC(=O)c1ccc(-c2c3nc(c(-c4ccc(S(=O)(=O)[O-])cc4)c4ccc([nH]4)c(-c4ccc(S(=O)(=O)[O-])cc4)c4nc(c(-c5ccc(S(=O)(=O)[O-])cc5)c5ccc2[nH]5)C=C4)C=C3)cc1
REMARK SMILES IDX 30 1 29 2 27 3 28 4 16 5 15 6 1 7 2 8 3 10 4 11 5 12 14 13
REMARK SMILES IDX 6 14 9 15 13 16 7 17 10 18 12 19 8 20 11 21 17 22 18 23
REMARK SMILES IDX 19 24 26 25 20 26 24 27 25 28 21 29 23 30 22 31 31 32 32 33
REMARK SMILES IDX 33 34 34 35 35 36 36 37 94 38 37 39 93 40 38 41 39 42 40 43
REMARK SMILES IDX 87 44 41 45 92 46 86 47 88 48 42 49 91 50 85 51 84 52 43 54
REMARK SMILES IDX 73 55 54 56 72 57 55 58 58 59 71 60 89 61 56 62 57 63 70 65
REMARK SMILES IDX 90 66 59 67 44 68 45 69 53 70 46 71 52 72 47 73 48 74 49 75
REMARK SMILES IDX 50 76 51 77 74 78 75 79 83 80 76 81 82 82 77 83 78 84 79 85
REMARK SMILES IDX 80 86 81 87 60 88 61 89 69 90 62 91 68 92 63 93 64 94 65 95
REMARK SMILES IDX 66 96 67 97
REMARK H PARENT 15 9 88 53 58 64
REMARK Flexibility Score: inf
ROOT
ATOM      1  C   UNL A   1      33.641  30.168  26.847  1.00  0.00     0.274 C 
ENDROOT
BRANCH   1   2
ATOM      2  O   UNL A   1      33.677  28.741  27.024  1.00  0.00    -0.461 OA
BRANCH   2   3
ATOM      3  C   UNL A   1      32.473  28.113  26.929  1.00  0.00     0.329 C 
ATOM      4  O   UNL A   1      31.605  28.133  27.794  1.00  0.00    -0.250 OA
BRANCH   3   5
ATOM      5  C   UNL A   1      32.363  27.269  25.664  1.00  0.00     0.196 C 
BRANCH   5   6
ATOM      6  N   UNL A   1      32.512  25.815  25.842  1.00  0.00    -0.342 N 
ATOM      7  O   UNL A   1      30.375  25.454  26.575  1.00  0.00    -0.275 OA
ATOM      8  C   UNL A   1      31.493  25.016  26.312  1.00  0.00     0.223 C 
ATOM      9  H   UNL A   1      33.374  25.397  25.617  1.00  0.00     0.164 HD
BRANCH   8  10
ATOM     10  C   UNL A   1      31.856  23.573  26.606  1.00  0.00     0.134 C 
BRANCH  10  11
ATOM     11  C   UNL A   1      32.040  22.708  25.352  1.00  0.00     0.169 C 
ATOM     12  N   UNL A   1      31.295  23.360  24.251  1.00  0.00    -0.177 NA
ATOM     13  C   UNL A   1      33.485  22.442  25.039  1.00  0.00    -0.008 A 
ATOM     14  N   UNL A   1      31.850  23.966  23.309  1.00  0.00    -0.111 NA
ATOM     15  C   UNL A   1      34.062  23.067  23.937  1.00  0.00     0.049 A 
ATOM     16  C   UNL A   1      34.271  21.593  25.831  1.00  0.00     0.007 A 
ATOM     17  C   UNL A   1      33.214  23.947  23.107  1.00  0.00     0.295 C 
ATOM     18  C   UNL A   1      35.413  22.864  23.624  1.00  0.00     0.014 A 
ATOM     19  C   UNL A   1      35.617  21.385  25.519  1.00  0.00     0.000 A 
ATOM     20  O   UNL A   1      33.757  24.615  22.230  1.00  0.00    -0.265 OA
ATOM     21  C   UNL A   1      36.189  22.021  24.419  1.00  0.00     0.001 A 
ENDBRANCH  10  11
ENDBRANCH   8  10
ENDBRANCH   5   6
BRANCH   5  22
ATOM     22  C   UNL A   1      31.066  27.673  24.938  1.00  0.00     0.070 C 
BRANCH  22  23
ATOM     23  C   UNL A   1      31.059  28.851  23.953  1.00  0.00    -0.037 C 
ATOM     24  C   UNL A   1      29.999  29.661  23.875  1.00  0.00     0.001 A 
ATOM     25  C   UNL A   1      31.329  28.351  22.547  1.00  0.00     0.174 C 
ATOM     26  C   UNL A   1      29.790  31.047  24.190  1.00  0.00     0.010 A 
ATOM     27  C   UNL A   1      29.334  29.161  22.654  1.00  0.00     0.065 A 
ATOM     28  N   UNL A   1      30.010  28.377  21.874  1.00  0.00    -0.280 NA
ATOM     29  C   UNL A   1      28.640  31.604  23.766  1.00  0.00     0.001 A 
ATOM     30  C   UNL A   1      27.941  29.624  22.501  1.00  0.00     0.028 A 
ATOM     31  C   UNL A   1      27.634  30.799  23.080  1.00  0.00     0.002 A 
ENDBRANCH  22  23
ENDBRANCH   5  22
ENDBRANCH   3   5
ENDBRANCH   2   3
ENDBRANCH   1   2
BRANCH   1  32
ATOM     32  C   UNL A   1      34.367  30.863  27.997  1.00  0.00     0.275 C 
BRANCH  32  33
ATOM     33  O   UNL A   1      35.765  30.525  28.017  1.00  0.00    -0.458 OA
BRANCH  33  34
ATOM     34  C   UNL A   1      36.384  30.648  29.213  1.00  0.00     0.338 C 
ATOM     35  O   UNL A   1      35.866  30.914  30.292  1.00  0.00    -0.246 OA
BRANCH  34  36
ATOM     36  C   UNL A   1      37.789  30.254  29.059  1.00  0.00     0.060 A 
ATOM     37  C   UNL A   1      38.668  30.305  30.139  1.00  0.00     0.016 A 
ATOM     38  C   UNL A   1      38.226  29.803  27.812  1.00  0.00     0.016 A 
ATOM     39  C   UNL A   1      39.999  29.928  29.950  1.00  0.00     0.010 A 
ATOM     40  C   UNL A   1      39.550  29.424  27.622  1.00  0.00     0.010 A 
ATOM     41  C   UNL A   1      40.449  29.491  28.689  1.00  0.00    -0.014 A 
BRANCH  41  42
ATOM     42  C   UNL A   1      41.841  29.021  28.512  1.00  0.00     0.031 A 
ATOM     43  C   UNL A   1      42.137  27.588  28.183  1.00  0.00     0.074 A 
ATOM     44  C   UNL A   1      42.838  29.911  28.670  1.00  0.00     0.049 A 
ATOM     45  N   UNL A   1      43.285  27.044  27.872  1.00  0.00    -0.248 NA
ATOM     46  C   UNL A   1      41.010  26.640  28.214  1.00  0.00     0.031 C 
ATOM     47  C   UNL A   1      42.652  31.310  29.060  1.00  0.00     0.029 A 
ATOM     48  N   UNL A   1      44.193  29.787  28.503  1.00  0.00    -0.354 N 
ATOM     49  C   UNL A   1      43.018  25.700  27.648  1.00  0.00     0.074 A 
ATOM     50  C   UNL A   1      41.612  25.494  27.921  1.00  0.00     0.031 C 
ATOM     51  C   UNL A   1      43.841  31.929  29.049  1.00  0.00     0.029 A 
ATOM     52  C   UNL A   1      44.877  30.966  28.681  1.00  0.00     0.049 A 
ATOM     53  H   UNL A   1      44.634  28.936  28.279  1.00  0.00     0.167 HD
ATOM     54  C   UNL A   1      43.869  24.737  27.223  1.00  0.00     0.031 A 
ATOM     55  C   UNL A   1      46.187  31.251  28.541  1.00  0.00     0.031 A 
ATOM     56  C   UNL A   1      45.270  24.967  26.969  1.00  0.00     0.049 A 
ATOM     57  C   UNL A   1      47.114  30.165  28.073  1.00  0.00     0.074 A 
ATOM     58  C   UNL A   1      46.210  24.074  26.488  1.00  0.00     0.029 A 
ATOM     59  N   UNL A   1      45.932  26.169  27.182  1.00  0.00    -0.354 N 
ATOM     60  N   UNL A   1      46.830  28.922  27.763  1.00  0.00    -0.248 NA
ATOM     61  C   UNL A   1      48.531  30.518  27.914  1.00  0.00     0.031 C 
ATOM     62  C   UNL A   1      47.451  24.712  26.479  1.00  0.00     0.029 A 
ATOM     63  C   UNL A   1      47.274  26.030  26.871  1.00  0.00     0.049 A 
ATOM     64  H   UNL A   1      45.508  26.997  27.505  1.00  0.00     0.167 HD
ATOM     65  C   UNL A   1      48.028  28.347  27.358  1.00  0.00     0.074 A 
ATOM     66  C   UNL A   1      49.036  29.385  27.438  1.00  0.00     0.031 C 
ATOM     67  C   UNL A   1      48.269  27.073  26.960  1.00  0.00     0.031 A 
BRANCH  54  68
ATOM     68  C   UNL A   1      43.325  23.354  26.961  1.00  0.00    -0.014 A 
ATOM     69  C   UNL A   1      43.038  22.489  28.035  1.00  0.00     0.010 A 
ATOM     70  C   UNL A   1      43.234  22.858  25.646  1.00  0.00     0.010 A 
ATOM     71  C   UNL A   1      42.712  21.150  27.802  1.00  0.00     0.020 A 
ATOM     72  C   UNL A   1      42.878  21.527  25.408  1.00  0.00     0.020 A 
ATOM     73  C   UNL A   1      42.646  20.674  26.490  1.00  0.00     0.054 A 
BRANCH  73  74
ATOM     74  S   UNL A   1      42.274  18.920  26.210  1.00  0.00     0.124 S 
ATOM     75  O   UNL A   1      42.528  18.336  27.523  1.00  0.00    -0.237 OA
ATOM     76  O   UNL A   1      40.875  18.954  25.792  1.00  0.00    -0.237 OA
ATOM     77  O   UNL A   1      43.216  18.533  25.161  1.00  0.00    -0.744 OA
ENDBRANCH  73  74
ENDBRANCH  54  68
BRANCH  55  78
ATOM     78  C   UNL A   1      46.650  32.646  28.778  1.00  0.00    -0.014 A 
ATOM     79  C   UNL A   1      46.710  33.568  27.714  1.00  0.00     0.010 A 
ATOM     80  C   UNL A   1      47.148  33.027  30.037  1.00  0.00     0.010 A 
ATOM     81  C   UNL A   1      47.320  34.812  27.885  1.00  0.00     0.020 A 
ATOM     82  C   UNL A   1      47.730  34.286  30.221  1.00  0.00     0.020 A 
ATOM     83  C   UNL A   1      47.843  35.156  29.135  1.00  0.00     0.054 A 
BRANCH  83  84
ATOM     84  S   UNL A   1      48.706  36.742  29.309  1.00  0.00     0.124 S 
ATOM     85  O   UNL A   1      49.281  36.917  27.978  1.00  0.00    -0.237 OA
ATOM     86  O   UNL A   1      47.621  37.659  29.649  1.00  0.00    -0.237 OA
ATOM     87  O   UNL A   1      49.668  36.494  30.379  1.00  0.00    -0.744 OA
ENDBRANCH  83  84
ENDBRANCH  55  78
BRANCH  67  88
ATOM     88  C   UNL A   1      49.680  26.699  26.587  1.00  0.00    -0.014 A 
ATOM     89  C   UNL A   1      50.067  26.696  25.233  1.00  0.00     0.010 A 
ATOM     90  C   UNL A   1      50.572  26.203  27.554  1.00  0.00     0.010 A 
ATOM     91  C   UNL A   1      51.296  26.157  24.848  1.00  0.00     0.020 A 
ATOM     92  C   UNL A   1      51.818  25.697  27.175  1.00  0.00     0.020 A 
ATOM     93  C   UNL A   1      52.159  25.650  25.822  1.00  0.00     0.054 A 
BRANCH  93  94
ATOM     94  S   UNL A   1      53.725  24.902  25.296  1.00  0.00     0.124 S 
ATOM     95  O   UNL A   1      54.107  25.747  24.168  1.00  0.00    -0.237 OA
ATOM     96  O   UNL A   1      54.558  25.031  26.490  1.00  0.00    -0.237 OA
ATOM     97  O   UNL A   1      53.354  23.532  24.950  1.00  0.00    -0.744 OA
ENDBRANCH  93  94
ENDBRANCH  67  88
ENDBRANCH  41  42
ENDBRANCH  34  36
ENDBRANCH  33  34
ENDBRANCH  32  33
ENDBRANCH   1  32
TORSDOF 19
ENDMDL
MODEL 3
REMARK VINA RESULT:     -12.0      4.331     10.631
REMARK SMILES O=C(C[C@H]1N=NC(=O)c2ccccc21)N[C@@H](CC1=c2ccccc2=NC1)C(=O)OCCOC(=O)c1ccc(-c2c3nc(c(-c4ccc(S(=O)(=O)[O-])cc4)c4ccc([nH]4)c(-c4ccc(S(=O)(=O)[O-])cc4)c4nc(c(-c5ccc(S(=O)(=O)[O-])cc5)c5ccc2[nH]5)C=C4)C=C3)cc1
REMARK SMILES IDX 30 1 29 2 27 3 28 4 16 5 15 6 1 7 2 8 3 10 4 11 5 12 14 13
REMARK SMILES IDX 6 14 9 15 13 16 7 17 10 18 12 19 8 20 11 21 17 22 18 23
REMARK SMILES IDX 19 24 26 25 20 26 24 27 25 28 21 29 23 30 22 31 31 32 32 33
REMARK SMILES IDX 33 34 34 35 35 36 36 37 94 38 37 39 93 40 38 41 39 42 40 43
REMARK SMILES IDX 87 44 41 45 92 46 86 47 88 48 42 49 91 50 85 51 84 52 43 54
REMARK SMILES IDX 73 55 54 56 72 57 55 58 58 59 71 60 89 61 56 62 57 63 70 65
REMARK SMILES IDX 90 66 59 67 44 68 45 69 53 70 46 71 52 72 47 73 48 74 49 75
REMARK SMILES IDX 50 76 51 77 74 78 75 79 83 80 76 81 82 82 77 83 78 84 79 85
REMARK SMILES IDX 80 86 81 87 60 88 61 89 69 90 62 91 68 92 63 93 64 94 65 95
REMARK SMILES IDX 66 96 67 97
REMARK H PARENT 15 9 88 53 58 64
REMARK Flexibility Score: inf
ROOT
ATOM      1  C   UNL A   1      34.095  29.883  27.252  1.00  0.00     0.274 C 
ENDROOT
BRANCH   1   2
ATOM      2  O   UNL A   1      33.696  28.553  27.628  1.00  0.00    -0.461 OA
BRANCH   2   3
ATOM      3  C   UNL A   1      32.442  28.191  27.243  1.00  0.00     0.329 C 
ATOM      4  O   UNL A   1      31.438  28.308  27.935  1.00  0.00    -0.250 OA
BRANCH   3   5
ATOM      5  C   UNL A   1      32.434  27.503  25.882  1.00  0.00     0.196 C 
BRANCH   5   6
ATOM      6  N   UNL A   1      32.716  26.058  25.887  1.00  0.00    -0.342 N 
ATOM      7  O   UNL A   1      30.669  25.428  26.691  1.00  0.00    -0.275 OA
ATOM      8  C   UNL A   1      31.800  25.125  26.319  1.00  0.00     0.223 C 
ATOM      9  H   UNL A   1      33.594  25.746  25.569  1.00  0.00     0.164 HD
BRANCH   8  10
ATOM     10  C   UNL A   1      32.302  23.697  26.429  1.00  0.00     0.134 C 
BRANCH  10  11
ATOM     11  C   UNL A   1      32.389  22.962  25.084  1.00  0.00     0.169 C 
ATOM     12  N   UNL A   1      31.618  23.751  24.098  1.00  0.00    -0.177 NA
ATOM     13  C   UNL A   1      33.805  22.678  24.670  1.00  0.00    -0.008 A 
ATOM     14  N   UNL A   1      32.150  24.431  23.194  1.00  0.00    -0.111 NA
ATOM     15  C   UNL A   1      34.352  23.394  23.608  1.00  0.00     0.049 A 
ATOM     16  C   UNL A   1      34.593  21.724  25.328  1.00  0.00     0.007 A 
ATOM     17  C   UNL A   1      33.501  24.385  22.919  1.00  0.00     0.295 C 
ATOM     18  C   UNL A   1      35.677  23.177  23.206  1.00  0.00     0.014 A 
ATOM     19  C   UNL A   1      35.912  21.502  24.925  1.00  0.00     0.000 A 
ATOM     20  O   UNL A   1      34.027  25.122  22.088  1.00  0.00    -0.265 OA
ATOM     21  C   UNL A   1      36.456  22.228  23.868  1.00  0.00     0.001 A 
ENDBRANCH  10  11
ENDBRANCH   8  10
ENDBRANCH   5   6
BRANCH   5  22
ATOM     22  C   UNL A   1      31.119  27.873  25.173  1.00  0.00     0.070 C 
BRANCH  22  23
ATOM     23  C   UNL A   1      31.096  28.964  24.092  1.00  0.00    -0.037 C 
ATOM     24  C   UNL A   1      29.988  29.679  23.874  1.00  0.00     0.001 A 
ATOM     25  C   UNL A   1      31.504  28.376  22.755  1.00  0.00     0.174 C 
ATOM     26  C   UNL A   1      29.655  31.064  24.056  1.00  0.00     0.010 A 
ATOM     27  C   UNL A   1      29.452  29.031  22.660  1.00  0.00     0.065 A 
ATOM     28  N   UNL A   1      30.238  28.243  21.997  1.00  0.00    -0.280 NA
ATOM     29  C   UNL A   1      28.501  31.493  23.510  1.00  0.00     0.001 A 
ATOM     30  C   UNL A   1      28.043  29.368  22.376  1.00  0.00     0.028 A 
ATOM     31  C   UNL A   1      27.609  30.558  22.830  1.00  0.00     0.002 A 
ENDBRANCH  22  23
ENDBRANCH   5  22
ENDBRANCH   3   5
ENDBRANCH   2   3
ENDBRANCH   1   2
BRANCH   1  32
ATOM     32  C   UNL A   1      35.282  30.339  28.098  1.00  0.00     0.275 C 
BRANCH  32  33
ATOM     33  O   UNL A   1      36.342  29.366  28.085  1.00  0.00    -0.458 OA
BRANCH  33  34
ATOM     34  C   UNL A   1      37.167  29.377  29.157  1.00  0.00     0.338 C 
ATOM     35  O   UNL A   1      36.844  29.396  30.339  1.00  0.00    -0.246 OA
BRANCH  34  36
ATOM     36  C   UNL A   1      38.547  29.203  28.692  1.00  0.00     0.060 A 
ATOM     37  C   UNL A   1      38.866  29.328  27.341  1.00  0.00     0.016 A 
ATOM     38  C   UNL A   1      39.542  28.929  29.632  1.00  0.00     0.016 A 
ATOM     39  C   UNL A   1      40.191  29.148  26.937  1.00  0.00     0.010 A 
ATOM     40  C   UNL A   1      40.862  28.752  29.232  1.00  0.00     0.010 A 
ATOM     41  C   UNL A   1      41.195  28.853  27.879  1.00  0.00    -0.014 A 
BRANCH  41  42
ATOM     42  C   UNL A   1      42.608  28.738  27.457  1.00  0.00     0.031 A 
ATOM     43  C   UNL A   1      43.551  29.896  27.587  1.00  0.00     0.074 A 
ATOM     44  C   UNL A   1      43.023  27.568  26.937  1.00  0.00     0.049 A 
ATOM     45  N   UNL A   1      44.843  29.923  27.384  1.00  0.00    -0.248 NA
ATOM     46  C   UNL A   1      42.979  31.193  27.986  1.00  0.00     0.031 C 
ATOM     47  C   UNL A   1      42.162  26.406  26.704  1.00  0.00     0.029 A 
ATOM     48  N   UNL A   1      44.265  27.150  26.532  1.00  0.00    -0.354 N 
ATOM     49  C   UNL A   1      45.242  31.226  27.651  1.00  0.00     0.074 A 
ATOM     50  C   UNL A   1      44.048  31.979  27.969  1.00  0.00     0.031 C 
ATOM     51  C   UNL A   1      42.909  25.391  26.252  1.00  0.00     0.029 A 
ATOM     52  C   UNL A   1      44.296  25.835  26.131  1.00  0.00     0.049 A 
ATOM     53  H   UNL A   1      45.057  27.735  26.527  1.00  0.00     0.167 HD
ATOM     54  C   UNL A   1      46.497  31.732  27.658  1.00  0.00     0.031 A 
ATOM     55  C   UNL A   1      45.327  25.063  25.734  1.00  0.00     0.031 A 
ATOM     56  C   UNL A   1      47.669  30.961  27.326  1.00  0.00     0.049 A 
ATOM     57  C   UNL A   1      46.712  25.648  25.746  1.00  0.00     0.074 A 
ATOM     58  C   UNL A   1      48.993  31.362  27.351  1.00  0.00     0.029 A 
ATOM     59  N   UNL A   1      47.660  29.638  26.904  1.00  0.00    -0.354 N 
ATOM     60  N   UNL A   1      47.088  26.853  26.101  1.00  0.00    -0.248 NA
ATOM     61  C   UNL A   1      47.811  24.771  25.325  1.00  0.00     0.031 C 
ATOM     62  C   UNL A   1      49.776  30.309  26.875  1.00  0.00     0.029 A 
ATOM     63  C   UNL A   1      48.952  29.220  26.635  1.00  0.00     0.049 A 
ATOM     64  H   UNL A   1      46.854  29.081  26.810  1.00  0.00     0.167 HD
ATOM     65  C   UNL A   1      48.471  26.877  25.963  1.00  0.00     0.074 A 
ATOM     66  C   UNL A   1      48.866  25.556  25.514  1.00  0.00     0.031 C 
ATOM     67  C   UNL A   1      49.331  27.901  26.183  1.00  0.00     0.031 A 
BRANCH  54  68
ATOM     68  C   UNL A   1      46.695  33.169  28.072  1.00  0.00    -0.014 A 
ATOM     69  C   UNL A   1      46.753  34.186  27.099  1.00  0.00     0.010 A 
ATOM     70  C   UNL A   1      46.969  33.497  29.414  1.00  0.00     0.010 A 
ATOM     71  C   UNL A   1      47.119  35.489  27.452  1.00  0.00     0.020 A 
ATOM     72  C   UNL A   1      47.306  34.805  29.775  1.00  0.00     0.020 A 
ATOM     73  C   UNL A   1      47.406  35.787  28.787  1.00  0.00     0.054 A 
BRANCH  73  74
ATOM     74  S   UNL A   1      47.931  37.470  29.217  1.00  0.00     0.124 S 
ATOM     75  O   UNL A   1      48.468  37.960  27.952  1.00  0.00    -0.237 OA
ATOM     76  O   UNL A   1      46.684  38.089  29.658  1.00  0.00    -0.237 OA
ATOM     77  O   UNL A   1      48.919  37.261  30.275  1.00  0.00    -0.744 OA
ENDBRANCH  73  74
ENDBRANCH  54  68
BRANCH  55  78
ATOM     78  C   UNL A   1      45.066  23.642  25.377  1.00  0.00    -0.014 A 
ATOM     79  C   UNL A   1      45.232  22.623  26.337  1.00  0.00     0.010 A 
ATOM     80  C   UNL A   1      44.772  23.283  24.049  1.00  0.00     0.010 A 
ATOM     81  C   UNL A   1      45.177  21.279  25.963  1.00  0.00     0.020 A 
ATOM     82  C   UNL A   1      44.682  21.937  23.678  1.00  0.00     0.020 A 
ATOM     83  C   UNL A   1      44.921  20.945  24.631  1.00  0.00     0.054 A 
BRANCH  83  84
ATOM     84  S   UNL A   1      44.939  19.194  24.155  1.00  0.00     0.124 S 
ATOM     85  O   UNL A   1      44.518  19.260  22.758  1.00  0.00    -0.237 OA
ATOM     86  O   UNL A   1      46.334  18.820  24.373  1.00  0.00    -0.237 OA
ATOM     87  O   UNL A   1      43.980  18.580  25.070  1.00  0.00    -0.744 OA
ENDBRANCH  83  84
ENDBRANCH  55  78
BRANCH  67  88
ATOM     88  C   UNL A   1      50.799  27.664  25.935  1.00  0.00    -0.014 A 
ATOM     89  C   UNL A   1      51.621  27.216  26.987  1.00  0.00     0.010 A 
ATOM     90  C   UNL A   1      51.389  28.031  24.713  1.00  0.00     0.010 A 
ATOM     91  C   UNL A   1      53.010  27.189  26.839  1.00  0.00     0.020 A 
ATOM     92  C   UNL A   1      52.776  27.970  24.550  1.00  0.00     0.020 A 
ATOM     93  C   UNL A   1      53.579  27.578  25.624  1.00  0.00     0.054 A 
BRANCH  93  94
ATOM     94  S   UNL A   1      55.386  27.591  25.471  1.00  0.00     0.124 S 
ATOM     95  O   UNL A   1      55.589  26.956  24.172  1.00  0.00    -0.237 OA
ATOM     96  O   UNL A   1      55.702  29.016  25.533  1.00  0.00    -0.237 OA
ATOM     97  O   UNL A   1      55.834  26.811  26.623  1.00  0.00    -0.744 OA
ENDBRANCH  93  94
ENDBRANCH  67  88
ENDBRANCH  41  42
ENDBRANCH  34  36
ENDBRANCH  33  34
ENDBRANCH  32  33
ENDBRANCH   1  32
TORSDOF 19
ENDMDL
