MODEL 1
REMARK VINA RESULT:     -10.5      0.000      0.000
REMARK SMILES CC[C@@H](C(=O)OCCOC(=O)c1ccc(-c2c3nc(c(-c4ccc(S(=O)(=O)[O-])cc4)c4ccc([nH]4)c(-c4ccc(S(=O)(=O)[O-])cc4)c4nc(c(-c5ccc(S(=O)(=O)[O-])cc5)c5ccc2[nH]5)C=C4)C=C3)cc1)N1CCN(Cc2cccc(C)c2)C(=O)C1=O
REMARK SMILES IDX 7 1 6 2 4 3 5 4 3 5 2 6 1 7 72 8 73 9 86 10 74 11 84 12
REMARK SMILES IDX 87 13 75 14 85 15 76 16 77 17 78 18 83 19 79 20 81 21 80 22
REMARK SMILES IDX 82 23 8 24 9 25 10 26 11 27 12 28 13 29 71 30 14 31 70 32
REMARK SMILES IDX 15 33 16 34 17 35 64 36 18 37 69 38 63 39 65 40 19 41 68 42
REMARK SMILES IDX 62 43 61 44 20 46 50 47 31 48 49 49 32 50 35 51 48 52 66 53
REMARK SMILES IDX 33 54 34 55 47 57 67 58 36 59 21 60 22 61 30 62 23 63 29 64
REMARK SMILES IDX 24 65 25 66 26 67 27 68 28 69 51 70 52 71 60 72 53 73 59 74
REMARK SMILES IDX 54 75 55 76 56 77 57 78 58 79 37 80 38 81 46 82 39 83 45 84
REMARK SMILES IDX 40 85 41 86 42 87 43 88 44 89
REMARK H PARENT 65 45 35 56
REMARK Flexibility Score: inf
ROOT
ATOM      1  C   UNL A   1      33.394  29.123  25.401  1.00  0.00     0.274 C 
ENDROOT
BRANCH   1   2
ATOM      2  O   UNL A   1      32.387  28.690  24.462  1.00  0.00    -0.461 OA
BRANCH   2   3
ATOM      3  C   UNL A   1      32.806  28.031  23.350  1.00  0.00     0.328 C 
ATOM      4  O   UNL A   1      33.488  28.538  22.463  1.00  0.00    -0.250 OA
BRANCH   3   5
ATOM      5  C   UNL A   1      32.223  26.603  23.241  1.00  0.00     0.195 C 
BRANCH   5   6
ATOM      6  C   UNL A   1      30.837  26.398  23.884  1.00  0.00     0.034 C 
ATOM      7  C   UNL A   1      30.202  25.050  23.554  1.00  0.00     0.007 C 
ENDBRANCH   5   6
BRANCH   5   8
ATOM      8  N   UNL A   1      33.241  25.621  23.699  1.00  0.00    -0.319 N 
ATOM      9  C   UNL A   1      33.440  25.434  25.130  1.00  0.00     0.142 C 
ATOM     10  C   UNL A   1      33.873  24.732  22.822  1.00  0.00     0.312 C 
ATOM     11  C   UNL A   1      33.469  23.949  25.487  1.00  0.00     0.142 C 
ATOM     12  C   UNL A   1      34.823  23.658  23.452  1.00  0.00     0.312 C 
ATOM     13  O   UNL A   1      33.669  24.721  21.615  1.00  0.00    -0.263 OA
ATOM     14  N   UNL A   1      34.528  23.263  24.762  1.00  0.00    -0.328 N 
ATOM     15  O   UNL A   1      35.715  23.172  22.768  1.00  0.00    -0.263 OA
BRANCH  14  16
ATOM     16  C   UNL A   1      35.033  21.977  25.255  1.00  0.00     0.155 C 
BRANCH  16  17
ATOM     17  C   UNL A   1      34.291  20.757  24.769  1.00  0.00    -0.028 A 
ATOM     18  C   UNL A   1      32.990  20.883  24.262  1.00  0.00     0.005 A 
ATOM     19  C   UNL A   1      34.835  19.471  24.899  1.00  0.00     0.009 A 
ATOM     20  C   UNL A   1      32.263  19.753  23.885  1.00  0.00     0.001 A 
ATOM     21  C   UNL A   1      34.132  18.335  24.483  1.00  0.00    -0.051 A 
ATOM     22  C   UNL A   1      32.836  18.484  23.983  1.00  0.00     0.003 A 
ATOM     23  C   UNL A   1      34.753  16.975  24.587  1.00  0.00     0.044 C 
ENDBRANCH  16  17
ENDBRANCH  14  16
ENDBRANCH   5   8
ENDBRANCH   3   5
ENDBRANCH   2   3
ENDBRANCH   1   2
BRANCH   1  24
ATOM     24  C   UNL A   1      32.772  30.072  26.419  1.00  0.00     0.275 C 
BRANCH  24  25
ATOM     25  O   UNL A   1      33.401  29.831  27.685  1.00  0.00    -0.458 OA
BRANCH  25  26
ATOM     26  C   UNL A   1      34.193  30.816  28.175  1.00  0.00     0.338 C 
ATOM     27  O   UNL A   1      33.852  31.947  28.469  1.00  0.00    -0.246 OA
BRANCH  26  28
ATOM     28  C   UNL A   1      35.578  30.298  28.270  1.00  0.00     0.060 A 
ATOM     29  C   UNL A   1      36.021  29.698  29.446  1.00  0.00     0.016 A 
ATOM     30  C   UNL A   1      36.466  30.453  27.205  1.00  0.00     0.016 A 
ATOM     31  C   UNL A   1      37.357  29.330  29.578  1.00  0.00     0.010 A 
ATOM     32  C   UNL A   1      37.792  30.005  27.320  1.00  0.00     0.010 A 
ATOM     33  C   UNL A   1      38.276  29.475  28.528  1.00  0.00    -0.014 A 
BRANCH  33  34
ATOM     34  C   UNL A   1      39.726  29.152  28.749  1.00  0.00     0.031 A 
ATOM     35  C   UNL A   1      40.615  30.088  29.540  1.00  0.00     0.074 A 
ATOM     36  C   UNL A   1      40.255  27.979  28.335  1.00  0.00     0.049 A 
ATOM     37  N   UNL A   1      41.918  30.050  29.694  1.00  0.00    -0.248 NA
ATOM     38  C   UNL A   1      39.970  31.224  30.216  1.00  0.00     0.031 C 
ATOM     39  C   UNL A   1      39.541  26.928  27.606  1.00  0.00     0.029 A 
ATOM     40  N   UNL A   1      41.506  27.441  28.530  1.00  0.00    -0.354 N 
ATOM     41  C   UNL A   1      42.254  31.213  30.380  1.00  0.00     0.074 A 
ATOM     42  C   UNL A   1      41.017  31.919  30.640  1.00  0.00     0.031 C 
ATOM     43  C   UNL A   1      40.311  25.831  27.545  1.00  0.00     0.029 A 
ATOM     44  C   UNL A   1      41.624  26.137  28.105  1.00  0.00     0.049 A 
ATOM     45  H   UNL A   1      42.249  27.941  28.938  1.00  0.00     0.167 HD
ATOM     46  C   UNL A   1      43.481  31.663  30.746  1.00  0.00     0.031 A 
ATOM     47  C   UNL A   1      42.669  25.285  28.126  1.00  0.00     0.031 A 
ATOM     48  C   UNL A   1      44.703  30.917  30.591  1.00  0.00     0.049 A 
ATOM     49  C   UNL A   1      44.010  25.773  28.594  1.00  0.00     0.074 A 
ATOM     50  C   UNL A   1      45.995  31.299  30.918  1.00  0.00     0.029 A 
ATOM     51  N   UNL A   1      44.785  29.621  30.108  1.00  0.00    -0.354 N 
ATOM     52  N   UNL A   1      44.335  26.940  29.094  1.00  0.00    -0.248 NA
ATOM     53  C   UNL A   1      45.140  24.843  28.448  1.00  0.00     0.031 C 
ATOM     54  C   UNL A   1      46.861  30.244  30.605  1.00  0.00     0.029 A 
ATOM     55  C   UNL A   1      46.102  29.189  30.126  1.00  0.00     0.049 A 
ATOM     56  H   UNL A   1      44.020  29.086  29.799  1.00  0.00     0.167 HD
ATOM     57  C   UNL A   1      45.711  26.896  29.290  1.00  0.00     0.074 A 
ATOM     58  C   UNL A   1      46.149  25.569  28.910  1.00  0.00     0.031 C 
ATOM     59  C   UNL A   1      46.539  27.879  29.720  1.00  0.00     0.031 A 
BRANCH  46  60
ATOM     60  C   UNL A   1      43.577  33.068  31.281  1.00  0.00    -0.014 A 
ATOM     61  C   UNL A   1      43.739  34.184  30.442  1.00  0.00     0.010 A 
ATOM     62  C   UNL A   1      43.461  33.268  32.670  1.00  0.00     0.010 A 
ATOM     63  C   UNL A   1      43.823  35.470  30.989  1.00  0.00     0.020 A 
ATOM     64  C   UNL A   1      43.517  34.553  33.217  1.00  0.00     0.020 A 
ATOM     65  C   UNL A   1      43.717  35.645  32.373  1.00  0.00     0.054 A 
BRANCH  65  66
ATOM     66  S   UNL A   1      43.807  37.322  33.060  1.00  0.00     0.124 S 
ATOM     67  O   UNL A   1      42.637  37.356  33.933  1.00  0.00    -0.237 OA
ATOM     68  O   UNL A   1      45.099  37.325  33.741  1.00  0.00    -0.237 OA
ATOM     69  O   UNL A   1      43.731  38.185  31.882  1.00  0.00    -0.744 OA
ENDBRANCH  65  66
ENDBRANCH  46  60
BRANCH  47  70
ATOM     70  C   UNL A   1      42.501  23.889  27.635  1.00  0.00    -0.014 A 
ATOM     71  C   UNL A   1      42.460  23.623  26.254  1.00  0.00     0.010 A 
ATOM     72  C   UNL A   1      42.403  22.818  28.541  1.00  0.00     0.010 A 
ATOM     73  C   UNL A   1      42.335  22.310  25.790  1.00  0.00     0.020 A 
ATOM     74  C   UNL A   1      42.313  21.502  28.081  1.00  0.00     0.020 A 
ATOM     75  C   UNL A   1      42.272  21.257  26.707  1.00  0.00     0.054 A 
BRANCH  75  76
ATOM     76  S   UNL A   1      42.222  19.548  26.096  1.00  0.00     0.124 S 
ATOM     77  O   UNL A   1      42.591  18.789  27.286  1.00  0.00    -0.237 OA
ATOM     78  O   UNL A   1      40.835  19.404  25.657  1.00  0.00    -0.237 OA
ATOM     79  O   UNL A   1      43.207  19.550  25.017  1.00  0.00    -0.744 OA
ENDBRANCH  75  76
ENDBRANCH  47  70
BRANCH  59  80
ATOM     80  C   UNL A   1      48.009  27.562  29.778  1.00  0.00    -0.014 A 
ATOM     81  C   UNL A   1      48.569  26.958  30.919  1.00  0.00     0.010 A 
ATOM     82  C   UNL A   1      48.838  27.848  28.679  1.00  0.00     0.010 A 
ATOM     83  C   UNL A   1      49.938  26.685  30.977  1.00  0.00     0.020 A 
ATOM     84  C   UNL A   1      50.204  27.556  28.725  1.00  0.00     0.020 A 
ATOM     85  C   UNL A   1      50.749  26.994  29.882  1.00  0.00     0.054 A 
BRANCH  85  86
ATOM     86  S   UNL A   1      52.523  26.623  29.975  1.00  0.00     0.124 S 
ATOM     87  O   UNL A   1      52.822  26.228  28.601  1.00  0.00    -0.237 OA
ATOM     88  O   UNL A   1      53.099  27.896  30.402  1.00  0.00    -0.237 OA
ATOM     89  O   UNL A   1      52.600  25.549  30.963  1.00  0.00    -0.744 OA
ENDBRANCH  85  86
ENDBRANCH  59  80
ENDBRANCH  33  34
ENDBRANCH  26  28
ENDBRANCH  25  26
ENDBRANCH  24  25
ENDBRANCH   1  24
TORSDOF 18
ENDMDL
MODEL 2
REMARK VINA RESULT:     -10.5      2.781      8.110
REMARK SMILES CC[C@@H](C(=O)OCCOC(=O)c1ccc(-c2c3nc(c(-c4ccc(S(=O)(=O)[O-])cc4)c4ccc([nH]4)c(-c4ccc(S(=O)(=O)[O-])cc4)c4nc(c(-c5ccc(S(=O)(=O)[O-])cc5)c5ccc2[nH]5)C=C4)C=C3)cc1)N1CCN(Cc2cccc(C)c2)C(=O)C1=O
REMARK SMILES IDX 7 1 6 2 4 3 5 4 3 5 2 6 1 7 72 8 73 9 86 10 74 11 84 12
REMARK SMILES IDX 87 13 75 14 85 15 76 16 77 17 78 18 83 19 79 20 81 21 80 22
REMARK SMILES IDX 82 23 8 24 9 25 10 26 11 27 12 28 13 29 71 30 14 31 70 32
REMARK SMILES IDX 15 33 16 34 17 35 64 36 18 37 69 38 63 39 65 40 19 41 68 42
REMARK SMILES IDX 62 43 61 44 20 46 50 47 31 48 49 49 32 50 35 51 48 52 66 53
REMARK SMILES IDX 33 54 34 55 47 57 67 58 36 59 21 60 22 61 30 62 23 63 29 64
REMARK SMILES IDX 24 65 25 66 26 67 27 68 28 69 51 70 52 71 60 72 53 73 59 74
REMARK SMILES IDX 54 75 55 76 56 77 57 78 58 79 37 80 38 81 46 82 39 83 45 84
REMARK SMILES IDX 40 85 41 86 42 87 43 88 44 89
REMARK H PARENT 65 45 35 56
REMARK Flexibility Score: inf
ROOT
ATOM      1  C   UNL A   1      36.626  21.832  24.446  1.00  0.00     0.274 C 
ENDROOT
BRANCH   1   2
ATOM      2  O   UNL A   1      35.474  21.079  24.880  1.00  0.00    -0.461 OA
BRANCH   2   3
ATOM      3  C   UNL A   1      34.606  21.691  25.728  1.00  0.00     0.328 C 
ATOM      4  O   UNL A   1      34.719  21.690  26.952  1.00  0.00    -0.250 OA
BRANCH   3   5
ATOM      5  C   UNL A   1      33.374  22.282  25.005  1.00  0.00     0.195 C 
BRANCH   5   6
ATOM      6  C   UNL A   1      33.274  21.973  23.498  1.00  0.00     0.034 C 
ATOM      7  C   UNL A   1      31.881  22.204  22.916  1.00  0.00     0.007 C 
ENDBRANCH   5   6
BRANCH   5   8
ATOM      8  N   UNL A   1      33.267  23.731  25.323  1.00  0.00    -0.319 N 
ATOM      9  C   UNL A   1      34.299  24.634  24.830  1.00  0.00     0.142 C 
ATOM     10  C   UNL A   1      32.122  24.289  25.903  1.00  0.00     0.312 C 
ATOM     11  C   UNL A   1      33.678  25.870  24.182  1.00  0.00     0.142 C 
ATOM     12  C   UNL A   1      32.085  25.848  26.059  1.00  0.00     0.312 C 
ATOM     13  O   UNL A   1      31.144  23.629  26.228  1.00  0.00    -0.263 OA
ATOM     14  N   UNL A   1      32.831  26.581  25.129  1.00  0.00    -0.328 N 
ATOM     15  O   UNL A   1      31.371  26.346  26.920  1.00  0.00    -0.263 OA
BRANCH  14  16
ATOM     16  C   UNL A   1      32.500  27.990  24.895  1.00  0.00     0.155 C 
BRANCH  16  17
ATOM     17  C   UNL A   1      33.026  28.960  25.925  1.00  0.00    -0.028 A 
ATOM     18  C   UNL A   1      32.282  30.100  26.258  1.00  0.00     0.005 A 
ATOM     19  C   UNL A   1      34.297  28.801  26.496  1.00  0.00     0.009 A 
ATOM     20  C   UNL A   1      32.793  31.045  27.148  1.00  0.00     0.001 A 
ATOM     21  C   UNL A   1      34.800  29.720  27.424  1.00  0.00    -0.051 A 
ATOM     22  C   UNL A   1      34.043  30.851  27.739  1.00  0.00     0.003 A 
ATOM     23  C   UNL A   1      36.142  29.504  28.057  1.00  0.00     0.044 C 
ENDBRANCH  16  17
ENDBRANCH  14  16
ENDBRANCH   5   8
ENDBRANCH   3   5
ENDBRANCH   2   3
ENDBRANCH   1   2
BRANCH   1  24
ATOM     24  C   UNL A   1      37.870  21.327  25.168  1.00  0.00     0.275 C 
BRANCH  24  25
ATOM     25  O   UNL A   1      38.467  22.441  25.847  1.00  0.00    -0.458 OA
BRANCH  25  26
ATOM     26  C   UNL A   1      39.613  22.201  26.530  1.00  0.00     0.338 C 
ATOM     27  O   UNL A   1      40.128  21.117  26.732  1.00  0.00    -0.246 OA
BRANCH  26  28
ATOM     28  C   UNL A   1      40.139  23.493  27.029  1.00  0.00     0.060 A 
ATOM     29  C   UNL A   1      39.676  24.691  26.492  1.00  0.00     0.016 A 
ATOM     30  C   UNL A   1      41.138  23.521  28.002  1.00  0.00     0.016 A 
ATOM     31  C   UNL A   1      40.263  25.895  26.870  1.00  0.00     0.010 A 
ATOM     32  C   UNL A   1      41.668  24.748  28.436  1.00  0.00     0.010 A 
ATOM     33  C   UNL A   1      41.272  25.958  27.843  1.00  0.00    -0.014 A 
BRANCH  33  34
ATOM     34  C   UNL A   1      41.939  27.268  28.149  1.00  0.00     0.031 A 
ATOM     35  C   UNL A   1      41.181  28.378  28.847  1.00  0.00     0.074 A 
ATOM     36  C   UNL A   1      43.253  27.463  27.899  1.00  0.00     0.049 A 
ATOM     37  N   UNL A   1      41.545  29.623  29.046  1.00  0.00    -0.248 NA
ATOM     38  C   UNL A   1      39.839  28.063  29.357  1.00  0.00     0.031 C 
ATOM     39  C   UNL A   1      44.160  26.492  27.281  1.00  0.00     0.029 A 
ATOM     40  N   UNL A   1      44.076  28.524  28.198  1.00  0.00    -0.354 N 
ATOM     41  C   UNL A   1      40.436  30.260  29.595  1.00  0.00     0.074 A 
ATOM     42  C   UNL A   1      39.400  29.258  29.726  1.00  0.00     0.031 C 
ATOM     43  C   UNL A   1      45.421  26.939  27.379  1.00  0.00     0.029 A 
ATOM     44  C   UNL A   1      45.407  28.288  27.939  1.00  0.00     0.049 A 
ATOM     45  H   UNL A   1      43.744  29.375  28.565  1.00  0.00     0.167 HD
ATOM     46  C   UNL A   1      40.287  31.563  29.942  1.00  0.00     0.031 A 
ATOM     47  C   UNL A   1      46.496  29.066  28.098  1.00  0.00     0.031 A 
ATOM     48  C   UNL A   1      41.344  32.541  29.919  1.00  0.00     0.049 A 
ATOM     49  C   UNL A   1      46.328  30.490  28.547  1.00  0.00     0.074 A 
ATOM     50  C   UNL A   1      41.281  33.888  30.238  1.00  0.00     0.029 A 
ATOM     51  N   UNL A   1      42.666  32.271  29.601  1.00  0.00    -0.354 N 
ATOM     52  N   UNL A   1      45.236  31.116  28.910  1.00  0.00    -0.248 NA
ATOM     53  C   UNL A   1      47.536  31.328  28.551  1.00  0.00     0.031 C 
ATOM     54  C   UNL A   1      42.560  34.439  30.085  1.00  0.00     0.029 A 
ATOM     55  C   UNL A   1      43.427  33.424  29.714  1.00  0.00     0.049 A 
ATOM     56  H   UNL A   1      43.013  31.390  29.336  1.00  0.00     0.167 HD
ATOM     57  C   UNL A   1      45.620  32.431  29.153  1.00  0.00     0.074 A 
ATOM     58  C   UNL A   1      47.053  32.496  28.953  1.00  0.00     0.031 C 
ATOM     59  C   UNL A   1      44.846  33.493  29.486  1.00  0.00     0.031 A 
BRANCH  46  60
ATOM     60  C   UNL A   1      38.902  32.034  30.304  1.00  0.00    -0.014 A 
ATOM     61  C   UNL A   1      38.477  32.172  31.636  1.00  0.00     0.010 A 
ATOM     62  C   UNL A   1      38.017  32.383  29.265  1.00  0.00     0.010 A 
ATOM     63  C   UNL A   1      37.179  32.613  31.920  1.00  0.00     0.020 A 
ATOM     64  C   UNL A   1      36.730  32.848  29.545  1.00  0.00     0.020 A 
ATOM     65  C   UNL A   1      36.313  32.943  30.872  1.00  0.00     0.054 A 
BRANCH  65  66
ATOM     66  S   UNL A   1      34.641  33.532  31.262  1.00  0.00     0.124 S 
ATOM     67  O   UNL A   1      34.916  34.798  31.937  1.00  0.00    -0.237 OA
ATOM     68  O   UNL A   1      34.021  33.643  29.945  1.00  0.00    -0.237 OA
ATOM     69  O   UNL A   1      34.092  32.479  32.115  1.00  0.00    -0.744 OA
ENDBRANCH  65  66
ENDBRANCH  46  60
BRANCH  47  70
ATOM     70  C   UNL A   1      47.848  28.529  27.777  1.00  0.00    -0.014 A 
ATOM     71  C   UNL A   1      48.340  28.588  26.460  1.00  0.00     0.010 A 
ATOM     72  C   UNL A   1      48.658  27.977  28.785  1.00  0.00     0.010 A 
ATOM     73  C   UNL A   1      49.621  28.114  26.162  1.00  0.00     0.020 A 
ATOM     74  C   UNL A   1      49.951  27.535  28.498  1.00  0.00     0.020 A 
ATOM     75  C   UNL A   1      50.422  27.599  27.185  1.00  0.00     0.054 A 
BRANCH  75  76
ATOM     76  S   UNL A   1      52.123  27.089  26.809  1.00  0.00     0.124 S 
ATOM     77  O   UNL A   1      52.601  28.199  25.993  1.00  0.00    -0.237 OA
ATOM     78  O   UNL A   1      52.726  26.974  28.136  1.00  0.00    -0.237 OA
ATOM     79  O   UNL A   1      51.945  25.820  26.107  1.00  0.00    -0.744 OA
ENDBRANCH  75  76
ENDBRANCH  47  70
BRANCH  59  80
ATOM     80  C   UNL A   1      45.533  34.824  29.630  1.00  0.00    -0.014 A 
ATOM     81  C   UNL A   1      45.720  35.403  30.899  1.00  0.00     0.010 A 
ATOM     82  C   UNL A   1      46.017  35.496  28.494  1.00  0.00     0.010 A 
ATOM     83  C   UNL A   1      46.339  36.649  31.026  1.00  0.00     0.020 A 
ATOM     84  C   UNL A   1      46.657  36.733  28.619  1.00  0.00     0.020 A 
ATOM     85  C   UNL A   1      46.796  37.310  29.883  1.00  0.00     0.054 A 
BRANCH  85  86
ATOM     86  S   UNL A   1      47.606  38.924  30.071  1.00  0.00     0.124 S 
ATOM     87  O   UNL A   1      48.038  38.886  31.465  1.00  0.00    -0.237 OA
ATOM     88  O   UNL A   1      48.678  38.866  29.080  1.00  0.00    -0.237 OA
ATOM     89  O   UNL A   1      46.542  39.881  29.774  1.00  0.00    -0.744 OA
ENDBRANCH  85  86
ENDBRANCH  59  80
ENDBRANCH  33  34
ENDBRANCH  26  28
ENDBRANCH  25  26
ENDBRANCH  24  25
ENDBRANCH   1  24
TORSDOF 18
ENDMDL
MODEL 3
REMARK VINA RESULT:     -10.4      3.254      8.727
REMARK SMILES CC[C@@H](C(=O)OCCOC(=O)c1ccc(-c2c3nc(c(-c4ccc(S(=O)(=O)[O-])cc4)c4ccc([nH]4)c(-c4ccc(S(=O)(=O)[O-])cc4)c4nc(c(-c5ccc(S(=O)(=O)[O-])cc5)c5ccc2[nH]5)C=C4)C=C3)cc1)N1CCN(Cc2cccc(C)c2)C(=O)C1=O
REMARK SMILES IDX 7 1 6 2 4 3 5 4 3 5 2 6 1 7 72 8 73 9 86 10 74 11 84 12
REMARK SMILES IDX 87 13 75 14 85 15 76 16 77 17 78 18 83 19 79 20 81 21 80 22
REMARK SMILES IDX 82 23 8 24 9 25 10 26 11 27 12 28 13 29 71 30 14 31 70 32
REMARK SMILES IDX 15 33 16 34 17 35 64 36 18 37 69 38 63 39 65 40 19 41 68 42
REMARK SMILES IDX 62 43 61 44 20 46 50 47 31 48 49 49 32 50 35 51 48 52 66 53
REMARK SMILES IDX 33 54 34 55 47 57 67 58 36 59 21 60 22 61 30 62 23 63 29 64
REMARK SMILES IDX 24 65 25 66 26 67 27 68 28 69 51 70 52 71 60 72 53 73 59 74
REMARK SMILES IDX 54 75 55 76 56 77 57 78 58 79 37 80 38 81 46 82 39 83 45 84
REMARK SMILES IDX 40 85 41 86 42 87 43 88 44 89
REMARK H PARENT 65 45 35 56
REMARK Flexibility Score: inf
ROOT
ATOM      1  C   UNL A   1      32.540  28.601  27.283  1.00  0.00     0.274 C 
ENDROOT
BRANCH   1   2
ATOM      2  O   UNL A   1      32.280  27.992  26.000  1.00  0.00    -0.461 OA
BRANCH   2   3
ATOM      3  C   UNL A   1      31.366  26.989  25.955  1.00  0.00     0.328 C 
ATOM      4  O   UNL A   1      30.645  26.668  26.897  1.00  0.00    -0.250 OA
BRANCH   3   5
ATOM      5  C   UNL A   1      31.411  26.192  24.631  1.00  0.00     0.195 C 
BRANCH   5   6
ATOM      6  C   UNL A   1      30.114  25.448  24.257  1.00  0.00     0.034 C 
ATOM      7  C   UNL A   1      28.948  26.377  23.928  1.00  0.00     0.007 C 
ENDBRANCH   5   6
BRANCH   5   8
ATOM      8  N   UNL A   1      32.618  25.323  24.622  1.00  0.00    -0.319 N 
ATOM      9  C   UNL A   1      33.074  24.744  25.880  1.00  0.00     0.142 C 
ATOM     10  C   UNL A   1      33.215  24.880  23.437  1.00  0.00     0.312 C 
ATOM     11  C   UNL A   1      33.367  23.254  25.720  1.00  0.00     0.142 C 
ATOM     12  C   UNL A   1      34.396  23.860  23.566  1.00  0.00     0.312 C 
ATOM     13  O   UNL A   1      32.819  25.204  22.324  1.00  0.00    -0.263 OA
ATOM     14  N   UNL A   1      34.378  23.033  24.696  1.00  0.00    -0.328 N 
ATOM     15  O   UNL A   1      35.222  23.783  22.666  1.00  0.00    -0.263 OA
BRANCH  14  16
ATOM     16  C   UNL A   1      35.132  21.775  24.677  1.00  0.00     0.155 C 
BRANCH  16  17
ATOM     17  C   UNL A   1      36.568  21.872  25.130  1.00  0.00    -0.028 A 
ATOM     18  C   UNL A   1      37.418  20.764  25.007  1.00  0.00     0.005 A 
ATOM     19  C   UNL A   1      37.057  23.022  25.766  1.00  0.00     0.009 A 
ATOM     20  C   UNL A   1      38.724  20.815  25.496  1.00  0.00     0.001 A 
ATOM     21  C   UNL A   1      38.379  23.099  26.220  1.00  0.00    -0.051 A 
ATOM     22  C   UNL A   1      39.207  21.982  26.090  1.00  0.00     0.003 A 
ATOM     23  C   UNL A   1      38.893  24.356  26.854  1.00  0.00     0.044 C 
ENDBRANCH  16  17
ENDBRANCH  14  16
ENDBRANCH   5   8
ENDBRANCH   3   5
ENDBRANCH   2   3
ENDBRANCH   1   2
BRANCH   1  24
ATOM     24  C   UNL A   1      32.594  30.117  27.129  1.00  0.00     0.275 C 
BRANCH  24  25
ATOM     25  O   UNL A   1      33.971  30.495  26.986  1.00  0.00    -0.458 OA
BRANCH  25  26
ATOM     26  C   UNL A   1      34.431  31.463  27.815  1.00  0.00     0.338 C 
ATOM     27  O   UNL A   1      33.891  32.525  28.066  1.00  0.00    -0.246 OA
BRANCH  26  28
ATOM     28  C   UNL A   1      35.740  31.030  28.359  1.00  0.00     0.060 A 
ATOM     29  C   UNL A   1      35.887  29.754  28.894  1.00  0.00     0.016 A 
ATOM     30  C   UNL A   1      36.820  31.913  28.388  1.00  0.00     0.016 A 
ATOM     31  C   UNL A   1      37.077  29.395  29.520  1.00  0.00     0.010 A 
ATOM     32  C   UNL A   1      38.044  31.513  28.951  1.00  0.00     0.010 A 
ATOM     33  C   UNL A   1      38.181  30.259  29.570  1.00  0.00    -0.014 A 
BRANCH  33  34
ATOM     34  C   UNL A   1      39.410  29.864  30.338  1.00  0.00     0.031 A 
ATOM     35  C   UNL A   1      40.379  28.845  29.775  1.00  0.00     0.074 A 
ATOM     36  C   UNL A   1      39.736  30.469  31.501  1.00  0.00     0.049 A 
ATOM     37  N   UNL A   1      41.400  28.269  30.364  1.00  0.00    -0.248 NA
ATOM     38  C   UNL A   1      40.159  28.394  28.393  1.00  0.00     0.031 C 
ATOM     39  C   UNL A   1      38.956  31.512  32.173  1.00  0.00     0.029 A 
ATOM     40  N   UNL A   1      40.853  30.344  32.295  1.00  0.00    -0.354 N 
ATOM     41  C   UNL A   1      41.865  27.310  29.468  1.00  0.00     0.074 A 
ATOM     42  C   UNL A   1      41.035  27.405  28.286  1.00  0.00     0.031 C 
ATOM     43  C   UNL A   1      39.677  32.023  33.181  1.00  0.00     0.029 A 
ATOM     44  C   UNL A   1      40.913  31.259  33.321  1.00  0.00     0.049 A 
ATOM     45  H   UNL A   1      41.547  29.662  32.143  1.00  0.00     0.167 HD
ATOM     46  C   UNL A   1      42.877  26.420  29.622  1.00  0.00     0.031 A 
ATOM     47  C   UNL A   1      41.831  31.452  34.289  1.00  0.00     0.031 A 
ATOM     48  C   UNL A   1      43.776  26.392  30.747  1.00  0.00     0.049 A 
ATOM     49  C   UNL A   1      42.987  30.500  34.412  1.00  0.00     0.074 A 
ATOM     50  C   UNL A   1      44.822  25.516  30.994  1.00  0.00     0.029 A 
ATOM     51  N   UNL A   1      43.770  27.305  31.789  1.00  0.00    -0.354 N 
ATOM     52  N   UNL A   1      43.315  29.497  33.635  1.00  0.00    -0.248 NA
ATOM     53  C   UNL A   1      43.865  30.673  35.578  1.00  0.00     0.031 C 
ATOM     54  C   UNL A   1      45.428  25.882  32.203  1.00  0.00     0.029 A 
ATOM     55  C   UNL A   1      44.789  27.013  32.683  1.00  0.00     0.049 A 
ATOM     56  H   UNL A   1      43.135  28.051  31.881  1.00  0.00     0.167 HD
ATOM     57  C   UNL A   1      44.416  28.899  34.237  1.00  0.00     0.074 A 
ATOM     58  C   UNL A   1      44.735  29.687  35.410  1.00  0.00     0.031 C 
ATOM     59  C   UNL A   1      45.085  27.781  33.864  1.00  0.00     0.031 A 
BRANCH  46  60
ATOM     60  C   UNL A   1      43.021  25.342  28.579  1.00  0.00    -0.014 A 
ATOM     61  C   UNL A   1      42.276  24.151  28.619  1.00  0.00     0.010 A 
ATOM     62  C   UNL A   1      43.907  25.558  27.505  1.00  0.00     0.010 A 
ATOM     63  C   UNL A   1      42.447  23.179  27.626  1.00  0.00     0.020 A 
ATOM     64  C   UNL A   1      44.059  24.602  26.498  1.00  0.00     0.020 A 
ATOM     65  C   UNL A   1      43.341  23.409  26.575  1.00  0.00     0.054 A 
BRANCH  65  66
ATOM     66  S   UNL A   1      43.532  22.146  25.286  1.00  0.00     0.124 S 
ATOM     67  O   UNL A   1      44.901  21.690  25.510  1.00  0.00    -0.237 OA
ATOM     68  O   UNL A   1      42.486  21.182  25.620  1.00  0.00    -0.237 OA
ATOM     69  O   UNL A   1      43.316  22.884  24.043  1.00  0.00    -0.744 OA
ENDBRANCH  65  66
ENDBRANCH  46  60
BRANCH  47  70
ATOM     70  C   UNL A   1      41.666  32.569  35.260  1.00  0.00    -0.014 A 
ATOM     71  C   UNL A   1      42.347  33.785  35.065  1.00  0.00     0.010 A 
ATOM     72  C   UNL A   1      40.814  32.433  36.370  1.00  0.00     0.010 A 
ATOM     73  C   UNL A   1      42.169  34.846  35.958  1.00  0.00     0.020 A 
ATOM     74  C   UNL A   1      40.606  33.503  37.244  1.00  0.00     0.020 A 
ATOM     75  C   UNL A   1      41.292  34.702  37.036  1.00  0.00     0.054 A 
BRANCH  75  76
ATOM     76  S   UNL A   1      40.982  36.120  38.126  1.00  0.00     0.124 S 
ATOM     77  O   UNL A   1      42.142  36.965  37.863  1.00  0.00    -0.237 OA
ATOM     78  O   UNL A   1      39.703  36.630  37.636  1.00  0.00    -0.237 OA
ATOM     79  O   UNL A   1      40.930  35.515  39.455  1.00  0.00    -0.744 OA
ENDBRANCH  75  76
ENDBRANCH  47  70
BRANCH  59  80
ATOM     80  C   UNL A   1      46.214  27.328  34.750  1.00  0.00    -0.014 A 
ATOM     81  C   UNL A   1      45.988  26.405  35.788  1.00  0.00     0.010 A 
ATOM     82  C   UNL A   1      47.518  27.809  34.535  1.00  0.00     0.010 A 
ATOM     83  C   UNL A   1      47.036  26.005  36.621  1.00  0.00     0.020 A 
ATOM     84  C   UNL A   1      48.573  27.394  35.353  1.00  0.00     0.020 A 
ATOM     85  C   UNL A   1      48.320  26.510  36.403  1.00  0.00     0.054 A 
BRANCH  85  86
ATOM     86  S   UNL A   1      49.668  25.969  37.492  1.00  0.00     0.124 S 
ATOM     87  O   UNL A   1      50.805  25.939  36.576  1.00  0.00    -0.237 OA
ATOM     88  O   UNL A   1      49.708  27.021  38.506  1.00  0.00    -0.237 OA
ATOM     89  O   UNL A   1      49.221  24.664  37.975  1.00  0.00    -0.744 OA
ENDBRANCH  85  86
ENDBRANCH  59  80
ENDBRANCH  33  34
ENDBRANCH  26  28
ENDBRANCH  25  26
ENDBRANCH  24  25
ENDBRANCH   1  24
TORSDOF 18
ENDMDL
