MODEL 1
REMARK VINA RESULT:     -14.6      0.000      0.000
REMARK SMILES O=C(Cn1c(SCCc2ccccc2)nc2ccccc21)OCCOC(=O)c1ccc(-c2c3nc(c(-c4ccc(S(=O)(=O)[O-])cc4)c4ccc([nH]4)c(-c4ccc(S(=O)(=O)[O-])cc4)c4nc(c(-c5ccc(S(=O)(=O)[O-])cc5)c5ccc2[nH]5)C=C4)C=C3)cc1
REMARK SMILES IDX 23 1 22 2 2 3 1 4 3 5 4 6 5 7 21 8 15 9 16 10 20 11 17 12
REMARK SMILES IDX 19 13 18 14 6 15 7 16 8 17 9 18 10 19 14 20 11 21 13 22
REMARK SMILES IDX 12 23 24 24 25 25 26 26 27 27 28 28 29 29 87 30 30 31 86 32
REMARK SMILES IDX 31 33 32 34 33 35 80 36 34 37 85 38 79 39 81 40 35 41 84 42
REMARK SMILES IDX 78 43 77 44 36 46 66 47 47 48 65 49 48 50 51 51 64 52 82 53
REMARK SMILES IDX 49 54 50 55 63 57 83 58 52 59 37 60 38 61 46 62 39 63 45 64
REMARK SMILES IDX 40 65 41 66 42 67 43 68 44 69 67 70 68 71 76 72 69 73 75 74
REMARK SMILES IDX 70 75 71 76 72 77 73 78 74 79 53 80 54 81 62 82 55 83 61 84
REMARK SMILES IDX 56 85 57 86 58 87 59 88 60 89
REMARK H PARENT 81 45 51 56
REMARK Flexibility Score: inf
ROOT
ATOM      1  C   UNL A   1      37.831  22.076  25.583  1.00  0.00     0.274 C 
ENDROOT
BRANCH   1   2
ATOM      2  O   UNL A   1      36.209  22.568  25.686  1.00  0.00    -0.461 OA
BRANCH   2   3
ATOM      3  C   UNL A   1      35.198  23.464  26.078  1.00  0.00     0.326 C 
ATOM      4  O   UNL A   1      34.554  23.062  27.066  1.00  0.00    -0.250 OA
BRANCH   3   5
ATOM      5  C   UNL A   1      34.610  24.865  25.427  1.00  0.00     0.247 C 
BRANCH   5   6
ATOM      6  N   UNL A   1      33.204  25.437  25.492  1.00  0.00    -0.308 N 
ATOM      7  C   UNL A   1      32.121  25.166  26.441  1.00  0.00     0.169 A 
ATOM      8  C   UNL A   1      33.047  26.756  25.064  1.00  0.00     0.069 A 
ATOM      9  N   UNL A   1      31.664  26.360  26.822  1.00  0.00    -0.222 NA
ATOM     10  C   UNL A   1      32.065  27.280  25.888  1.00  0.00     0.090 A 
ATOM     11  C   UNL A   1      33.706  27.518  24.086  1.00  0.00     0.028 A 
ATOM     12  C   UNL A   1      31.626  28.595  25.664  1.00  0.00     0.030 A 
ATOM     13  C   UNL A   1      33.233  28.808  23.852  1.00  0.00     0.002 A 
ATOM     14  C   UNL A   1      32.194  29.335  24.616  1.00  0.00     0.002 A 
BRANCH   7  15
ATOM     15  S   UNL A   1      30.569  23.998  26.357  1.00  0.00    -0.088 SA
BRANCH  15  16
ATOM     16  C   UNL A   1      30.726  22.224  25.635  1.00  0.00     0.083 C 
BRANCH  16  17
ATOM     17  C   UNL A   1      32.156  21.244  25.367  1.00  0.00     0.047 C 
BRANCH  17  18
ATOM     18  C   UNL A   1      32.947  20.982  23.815  1.00  0.00    -0.047 A 
ATOM     19  C   UNL A   1      34.125  20.055  24.706  1.00  0.00     0.004 A 
ATOM     20  C   UNL A   1      32.103  20.286  22.327  1.00  0.00     0.004 A 
ATOM     21  C   UNL A   1      34.247  18.406  24.541  1.00  0.00     0.000 A 
ATOM     22  C   UNL A   1      32.208  18.441  22.070  1.00  0.00     0.000 A 
ATOM     23  C   UNL A   1      33.245  17.546  23.365  1.00  0.00     0.000 A 
ENDBRANCH  17  18
ENDBRANCH  16  17
ENDBRANCH  15  16
ENDBRANCH   7  15
ENDBRANCH   5   6
ENDBRANCH   3   5
ENDBRANCH   2   3
ENDBRANCH   1   2
BRANCH   1  24
ATOM     24  C   UNL A   1      39.252  22.711  26.502  1.00  0.00     0.275 C 
BRANCH  24  25
ATOM     25  O   UNL A   1      40.641  21.660  26.967  1.00  0.00    -0.458 OA
BRANCH  25  26
ATOM     26  C   UNL A   1      42.258  21.082  26.084  1.00  0.00     0.338 C 
ATOM     27  O   UNL A   1      42.735  19.944  26.124  1.00  0.00    -0.246 OA
BRANCH  26  28
ATOM     28  C   UNL A   1      43.649  22.052  25.588  1.00  0.00     0.060 A 
ATOM     29  C   UNL A   1      44.461  22.407  26.641  1.00  0.00     0.016 A 
ATOM     30  C   UNL A   1      43.377  23.148  24.732  1.00  0.00     0.016 A 
ATOM     31  C   UNL A   1      44.247  23.652  27.209  1.00  0.00     0.010 A 
ATOM     32  C   UNL A   1      43.296  24.456  25.210  1.00  0.00     0.010 A 
ATOM     33  C   UNL A   1      43.527  24.668  26.550  1.00  0.00    -0.014 A 
BRANCH  33  34
ATOM     34  C   UNL A   1      43.120  25.861  27.335  1.00  0.00     0.031 A 
ATOM     35  C   UNL A   1      44.142  26.943  27.294  1.00  0.00     0.074 A 
ATOM     36  C   UNL A   1      42.000  26.085  28.062  1.00  0.00     0.049 A 
ATOM     37  N   UNL A   1      44.915  27.345  28.251  1.00  0.00    -0.248 NA
ATOM     38  C   UNL A   1      44.526  27.416  25.949  1.00  0.00     0.031 C 
ATOM     39  C   UNL A   1      40.766  25.300  28.097  1.00  0.00     0.029 A 
ATOM     40  N   UNL A   1      41.696  27.151  28.883  1.00  0.00    -0.354 N 
ATOM     41  C   UNL A   1      45.785  28.243  27.649  1.00  0.00     0.074 A 
ATOM     42  C   UNL A   1      45.668  28.041  26.228  1.00  0.00     0.031 C 
ATOM     43  C   UNL A   1      39.787  26.019  28.684  1.00  0.00     0.029 A 
ATOM     44  C   UNL A   1      40.340  27.271  29.167  1.00  0.00     0.049 A 
ATOM     45  H   UNL A   1      42.377  27.771  29.235  1.00  0.00     0.167 HD
ATOM     46  C   UNL A   1      46.320  29.301  28.311  1.00  0.00     0.031 A 
ATOM     47  C   UNL A   1      39.681  28.346  29.670  1.00  0.00     0.031 A 
ATOM     48  C   UNL A   1      46.249  29.166  29.735  1.00  0.00     0.049 A 
ATOM     49  C   UNL A   1      40.643  29.208  30.388  1.00  0.00     0.074 A 
ATOM     50  C   UNL A   1      46.928  28.478  30.714  1.00  0.00     0.029 A 
ATOM     51  N   UNL A   1      45.075  29.609  30.281  1.00  0.00    -0.354 N 
ATOM     52  N   UNL A   1      41.195  28.891  31.524  1.00  0.00    -0.248 NA
ATOM     53  C   UNL A   1      41.225  30.357  29.704  1.00  0.00     0.031 C 
ATOM     54  C   UNL A   1      46.038  28.380  31.822  1.00  0.00     0.029 A 
ATOM     55  C   UNL A   1      44.848  29.031  31.502  1.00  0.00     0.049 A 
ATOM     56  H   UNL A   1      44.471  30.259  29.852  1.00  0.00     0.167 HD
ATOM     57  C   UNL A   1      42.424  29.522  31.494  1.00  0.00     0.074 A 
ATOM     58  C   UNL A   1      42.318  30.529  30.449  1.00  0.00     0.031 C 
ATOM     59  C   UNL A   1      43.518  28.960  32.079  1.00  0.00     0.031 A 
BRANCH  46  60
ATOM     60  C   UNL A   1      46.458  30.644  27.629  1.00  0.00    -0.014 A 
ATOM     61  C   UNL A   1      45.335  31.437  27.300  1.00  0.00     0.010 A 
ATOM     62  C   UNL A   1      47.717  31.260  27.519  1.00  0.00     0.010 A 
ATOM     63  C   UNL A   1      45.444  32.726  26.796  1.00  0.00     0.020 A 
ATOM     64  C   UNL A   1      47.838  32.585  27.066  1.00  0.00     0.020 A 
ATOM     65  C   UNL A   1      46.699  33.297  26.683  1.00  0.00     0.054 A 
BRANCH  65  66
ATOM     66  S   UNL A   1      46.775  35.000  26.088  1.00  0.00     0.124 S 
ATOM     67  O   UNL A   1      47.581  34.852  24.878  1.00  0.00    -0.237 OA
ATOM     68  O   UNL A   1      45.367  35.317  25.868  1.00  0.00    -0.237 OA
ATOM     69  O   UNL A   1      47.416  35.718  27.184  1.00  0.00    -0.744 OA
ENDBRANCH  65  66
ENDBRANCH  46  60
BRANCH  47  70
ATOM     70  C   UNL A   1      38.343  28.850  29.251  1.00  0.00    -0.014 A 
ATOM     71  C   UNL A   1      38.154  29.331  27.940  1.00  0.00     0.010 A 
ATOM     72  C   UNL A   1      37.350  29.157  30.206  1.00  0.00     0.010 A 
ATOM     73  C   UNL A   1      37.086  30.169  27.614  1.00  0.00     0.020 A 
ATOM     74  C   UNL A   1      36.276  30.008  29.888  1.00  0.00     0.020 A 
ATOM     75  C   UNL A   1      36.181  30.544  28.603  1.00  0.00     0.054 A 
BRANCH  75  76
ATOM     76  S   UNL A   1      34.970  31.831  28.193  1.00  0.00     0.124 S 
ATOM     77  O   UNL A   1      35.811  32.848  27.568  1.00  0.00    -0.237 OA
ATOM     78  O   UNL A   1      34.059  31.133  27.288  1.00  0.00    -0.237 OA
ATOM     79  O   UNL A   1      34.400  32.200  29.486  1.00  0.00    -0.744 OA
ENDBRANCH  75  76
ENDBRANCH  47  70
BRANCH  59  80
ATOM     80  C   UNL A   1      43.326  28.059  33.269  1.00  0.00    -0.014 A 
ATOM     81  C   UNL A   1      43.254  28.689  34.526  1.00  0.00     0.010 A 
ATOM     82  C   UNL A   1      43.346  26.655  33.221  1.00  0.00     0.010 A 
ATOM     83  C   UNL A   1      43.250  27.948  35.704  1.00  0.00     0.020 A 
ATOM     84  C   UNL A   1      43.317  25.899  34.405  1.00  0.00     0.020 A 
ATOM     85  C   UNL A   1      43.294  26.555  35.640  1.00  0.00     0.054 A 
BRANCH  85  86
ATOM     86  S   UNL A   1      43.328  25.638  37.205  1.00  0.00     0.124 S 
ATOM     87  O   UNL A   1      44.536  24.826  37.071  1.00  0.00    -0.237 OA
ATOM     88  O   UNL A   1      43.412  26.705  38.200  1.00  0.00    -0.237 OA
ATOM     89  O   UNL A   1      42.073  24.889  37.215  1.00  0.00    -0.744 OA
ENDBRANCH  85  86
ENDBRANCH  59  80
ENDBRANCH  33  34
ENDBRANCH  26  28
ENDBRANCH  25  26
ENDBRANCH  24  25
ENDBRANCH   1  24
TORSDOF 19
ENDMDL
MODEL 2
REMARK VINA RESULT:     -13.7      2.367      8.834
REMARK SMILES O=C(Cn1c(SCCc2ccccc2)nc2ccccc21)OCCOC(=O)c1ccc(-c2c3nc(c(-c4ccc(S(=O)(=O)[O-])cc4)c4ccc([nH]4)c(-c4ccc(S(=O)(=O)[O-])cc4)c4nc(c(-c5ccc(S(=O)(=O)[O-])cc5)c5ccc2[nH]5)C=C4)C=C3)cc1
REMARK SMILES IDX 23 1 22 2 2 3 1 4 3 5 4 6 5 7 21 8 15 9 16 10 20 11 17 12
REMARK SMILES IDX 19 13 18 14 6 15 7 16 8 17 9 18 10 19 14 20 11 21 13 22
REMARK SMILES IDX 12 23 24 24 25 25 26 26 27 27 28 28 29 29 87 30 30 31 86 32
REMARK SMILES IDX 31 33 32 34 33 35 80 36 34 37 85 38 79 39 81 40 35 41 84 42
REMARK SMILES IDX 78 43 77 44 36 46 66 47 47 48 65 49 48 50 51 51 64 52 82 53
REMARK SMILES IDX 49 54 50 55 63 57 83 58 52 59 37 60 38 61 46 62 39 63 45 64
REMARK SMILES IDX 40 65 41 66 42 67 43 68 44 69 67 70 68 71 76 72 69 73 75 74
REMARK SMILES IDX 70 75 71 76 72 77 73 78 74 79 53 80 54 81 62 82 55 83 61 84
REMARK SMILES IDX 56 85 57 86 58 87 59 88 60 89
REMARK H PARENT 81 45 51 56
REMARK Flexibility Score: inf
ROOT
ATOM      1  C   UNL A   1      34.467  30.334  27.851  1.00  0.00     0.274 C 
ENDROOT
BRANCH   1   2
ATOM      2  O   UNL A   1      33.119  29.886  26.920  1.00  0.00    -0.461 OA
BRANCH   2   3
ATOM      3  C   UNL A   1      32.200  28.943  26.427  1.00  0.00     0.326 C 
ATOM      4  O   UNL A   1      31.332  29.454  25.693  1.00  0.00    -0.250 OA
BRANCH   3   5
ATOM      5  C   UNL A   1      31.958  27.335  26.719  1.00  0.00     0.247 C 
BRANCH   5   6
ATOM      6  N   UNL A   1      31.955  26.172  25.742  1.00  0.00    -0.308 N 
ATOM      7  C   UNL A   1      31.038  25.033  25.637  1.00  0.00     0.169 A 
ATOM      8  C   UNL A   1      32.418  26.439  24.453  1.00  0.00     0.069 A 
ATOM      9  N   UNL A   1      30.701  24.956  24.348  1.00  0.00    -0.222 NA
ATOM     10  C   UNL A   1      31.642  25.644  23.627  1.00  0.00     0.090 A 
ATOM     11  C   UNL A   1      33.390  27.325  23.962  1.00  0.00     0.028 A 
ATOM     12  C   UNL A   1      31.910  25.637  22.248  1.00  0.00     0.030 A 
ATOM     13  C   UNL A   1      33.670  27.277  22.597  1.00  0.00     0.002 A 
ATOM     14  C   UNL A   1      32.955  26.431  21.752  1.00  0.00     0.002 A 
BRANCH   7  15
ATOM     15  S   UNL A   1      31.149  23.200  26.275  1.00  0.00    -0.088 SA
BRANCH  15  16
ATOM     16  C   UNL A   1      32.579  22.663  27.442  1.00  0.00     0.083 C 
BRANCH  16  17
ATOM     17  C   UNL A   1      33.855  21.488  27.187  1.00  0.00     0.047 C 
BRANCH  17  18
ATOM     18  C   UNL A   1      34.748  21.249  25.687  1.00  0.00    -0.047 A 
ATOM     19  C   UNL A   1      33.515  20.086  25.277  1.00  0.00     0.004 A 
ATOM     20  C   UNL A   1      35.208  22.611  24.528  1.00  0.00     0.004 A 
ATOM     21  C   UNL A   1      32.421  20.365  24.058  1.00  0.00     0.000 A 
ATOM     22  C   UNL A   1      34.032  22.973  23.126  1.00  0.00     0.000 A 
ATOM     23  C   UNL A   1      32.542  21.819  23.059  1.00  0.00     0.000 A 
ENDBRANCH  17  18
ENDBRANCH  16  17
ENDBRANCH  15  16
ENDBRANCH   7  15
ENDBRANCH   5   6
ENDBRANCH   3   5
ENDBRANCH   2   3
ENDBRANCH   1   2
BRANCH   1  24
ATOM     24  C   UNL A   1      35.669  31.643  27.521  1.00  0.00     0.275 C 
BRANCH  24  25
ATOM     25  O   UNL A   1      35.656  33.207  28.417  1.00  0.00    -0.458 OA
BRANCH  25  26
ATOM     26  C   UNL A   1      34.881  33.809  30.080  1.00  0.00     0.338 C 
ATOM     27  O   UNL A   1      34.145  34.789  30.220  1.00  0.00    -0.246 OA
BRANCH  26  28
ATOM     28  C   UNL A   1      35.465  33.542  31.727  1.00  0.00     0.060 A 
ATOM     29  C   UNL A   1      36.722  34.061  31.943  1.00  0.00     0.016 A 
ATOM     30  C   UNL A   1      35.338  32.226  32.233  1.00  0.00     0.016 A 
ATOM     31  C   UNL A   1      37.792  33.193  31.805  1.00  0.00     0.010 A 
ATOM     32  C   UNL A   1      36.415  31.339  32.267  1.00  0.00     0.010 A 
ATOM     33  C   UNL A   1      37.636  31.793  31.823  1.00  0.00    -0.014 A 
BRANCH  33  34
ATOM     34  C   UNL A   1      38.786  30.953  31.402  1.00  0.00     0.031 A 
ATOM     35  C   UNL A   1      39.754  30.720  32.510  1.00  0.00     0.074 A 
ATOM     36  C   UNL A   1      39.070  30.404  30.197  1.00  0.00     0.049 A 
ATOM     37  N   UNL A   1      40.949  31.201  32.637  1.00  0.00    -0.248 NA
ATOM     38  C   UNL A   1      39.197  30.114  33.735  1.00  0.00     0.031 C 
ATOM     39  C   UNL A   1      38.205  30.294  29.022  1.00  0.00     0.029 A 
ATOM     40  N   UNL A   1      40.204  29.730  29.795  1.00  0.00    -0.354 N 
ATOM     41  C   UNL A   1      41.348  30.820  33.910  1.00  0.00     0.074 A 
ATOM     42  C   UNL A   1      40.160  30.401  34.607  1.00  0.00     0.031 C 
ATOM     43  C   UNL A   1      38.734  29.409  28.151  1.00  0.00     0.029 A 
ATOM     44  C   UNL A   1      40.025  28.967  28.646  1.00  0.00     0.049 A 
ATOM     45  H   UNL A   1      41.061  29.784  30.277  1.00  0.00     0.167 HD
ATOM     46  C   UNL A   1      42.645  30.575  34.228  1.00  0.00     0.031 A 
ATOM     47  C   UNL A   1      40.816  27.972  28.169  1.00  0.00     0.031 A 
ATOM     48  C   UNL A   1      43.569  31.137  33.289  1.00  0.00     0.049 A 
ATOM     49  C   UNL A   1      42.179  28.135  28.716  1.00  0.00     0.074 A 
ATOM     50  C   UNL A   1      44.090  32.380  33.014  1.00  0.00     0.029 A 
ATOM     51  N   UNL A   1      43.835  30.331  32.216  1.00  0.00    -0.354 N 
ATOM     52  N   UNL A   1      42.994  29.087  28.361  1.00  0.00    -0.248 NA
ATOM     53  C   UNL A   1      42.574  27.375  29.896  1.00  0.00     0.031 C 
ATOM     54  C   UNL A   1      44.532  32.336  31.660  1.00  0.00     0.029 A 
ATOM     55  C   UNL A   1      44.293  31.060  31.150  1.00  0.00     0.049 A 
ATOM     56  H   UNL A   1      43.715  29.354  32.209  1.00  0.00     0.167 HD
ATOM     57  C   UNL A   1      43.767  29.310  29.484  1.00  0.00     0.074 A 
ATOM     58  C   UNL A   1      43.584  28.134  30.322  1.00  0.00     0.031 C 
ATOM     59  C   UNL A   1      44.219  30.558  29.790  1.00  0.00     0.031 A 
BRANCH  46  60
ATOM     60  C   UNL A   1      43.010  29.417  35.131  1.00  0.00    -0.014 A 
ATOM     61  C   UNL A   1      42.882  28.073  34.716  1.00  0.00     0.010 A 
ATOM     62  C   UNL A   1      43.718  29.642  36.325  1.00  0.00     0.010 A 
ATOM     63  C   UNL A   1      43.333  27.002  35.476  1.00  0.00     0.020 A 
ATOM     64  C   UNL A   1      44.232  28.570  37.075  1.00  0.00     0.020 A 
ATOM     65  C   UNL A   1      44.010  27.257  36.655  1.00  0.00     0.054 A 
BRANCH  65  66
ATOM     66  S   UNL A   1      44.634  25.829  37.567  1.00  0.00     0.124 S 
ATOM     67  O   UNL A   1      46.027  25.786  37.129  1.00  0.00    -0.237 OA
ATOM     68  O   UNL A   1      44.425  26.229  38.956  1.00  0.00    -0.237 OA
ATOM     69  O   UNL A   1      43.796  24.730  37.098  1.00  0.00    -0.744 OA
ENDBRANCH  65  66
ENDBRANCH  46  60
BRANCH  47  70
ATOM     70  C   UNL A   1      40.366  26.686  27.564  1.00  0.00    -0.014 A 
ATOM     71  C   UNL A   1      39.539  25.816  28.302  1.00  0.00     0.010 A 
ATOM     72  C   UNL A   1      40.992  26.167  26.411  1.00  0.00     0.010 A 
ATOM     73  C   UNL A   1      39.423  24.463  27.975  1.00  0.00     0.020 A 
ATOM     74  C   UNL A   1      40.888  24.804  26.081  1.00  0.00     0.020 A 
ATOM     75  C   UNL A   1      40.140  23.954  26.896  1.00  0.00     0.054 A 
BRANCH  75  76
ATOM     76  S   UNL A   1      40.159  22.154  26.671  1.00  0.00     0.124 S 
ATOM     77  O   UNL A   1      38.821  21.902  26.141  1.00  0.00    -0.237 OA
ATOM     78  O   UNL A   1      41.252  21.965  25.720  1.00  0.00    -0.237 OA
ATOM     79  O   UNL A   1      40.408  21.637  28.014  1.00  0.00    -0.744 OA
ENDBRANCH  75  76
ENDBRANCH  47  70
BRANCH  59  80
ATOM     80  C   UNL A   1      44.471  31.536  28.676  1.00  0.00    -0.014 A 
ATOM     81  C   UNL A   1      45.671  31.371  27.957  1.00  0.00     0.010 A 
ATOM     82  C   UNL A   1      43.668  32.655  28.396  1.00  0.00     0.010 A 
ATOM     83  C   UNL A   1      46.086  32.317  27.023  1.00  0.00     0.020 A 
ATOM     84  C   UNL A   1      44.069  33.600  27.437  1.00  0.00     0.020 A 
ATOM     85  C   UNL A   1      45.289  33.435  26.775  1.00  0.00     0.054 A 
BRANCH  85  86
ATOM     86  S   UNL A   1      45.896  34.656  25.578  1.00  0.00     0.124 S 
ATOM     87  O   UNL A   1      45.094  34.362  24.391  1.00  0.00    -0.237 OA
ATOM     88  O   UNL A   1      45.584  35.926  26.231  1.00  0.00    -0.237 OA
ATOM     89  O   UNL A   1      47.322  34.366  25.453  1.00  0.00    -0.744 OA
ENDBRANCH  85  86
ENDBRANCH  59  80
ENDBRANCH  33  34
ENDBRANCH  26  28
ENDBRANCH  25  26
ENDBRANCH  24  25
ENDBRANCH   1  24
TORSDOF 19
ENDMDL
MODEL 3
REMARK VINA RESULT:     -13.3      4.608     11.181
REMARK SMILES O=C(Cn1c(SCCc2ccccc2)nc2ccccc21)OCCOC(=O)c1ccc(-c2c3nc(c(-c4ccc(S(=O)(=O)[O-])cc4)c4ccc([nH]4)c(-c4ccc(S(=O)(=O)[O-])cc4)c4nc(c(-c5ccc(S(=O)(=O)[O-])cc5)c5ccc2[nH]5)C=C4)C=C3)cc1
REMARK SMILES IDX 23 1 22 2 2 3 1 4 3 5 4 6 5 7 21 8 15 9 16 10 20 11 17 12
REMARK SMILES IDX 19 13 18 14 6 15 7 16 8 17 9 18 10 19 14 20 11 21 13 22
REMARK SMILES IDX 12 23 24 24 25 25 26 26 27 27 28 28 29 29 87 30 30 31 86 32
REMARK SMILES IDX 31 33 32 34 33 35 80 36 34 37 85 38 79 39 81 40 35 41 84 42
REMARK SMILES IDX 78 43 77 44 36 46 66 47 47 48 65 49 48 50 51 51 64 52 82 53
REMARK SMILES IDX 49 54 50 55 63 57 83 58 52 59 37 60 38 61 46 62 39 63 45 64
REMARK SMILES IDX 40 65 41 66 42 67 43 68 44 69 67 70 68 71 76 72 69 73 75 74
REMARK SMILES IDX 70 75 71 76 72 77 73 78 74 79 53 80 54 81 62 82 55 83 61 84
REMARK SMILES IDX 56 85 57 86 58 87 59 88 60 89
REMARK H PARENT 81 45 51 56
REMARK Flexibility Score: inf
ROOT
ATOM      1  C   UNL A   1      39.778  32.835  35.694  1.00  0.00     0.274 C 
ENDROOT
BRANCH   1   2
ATOM      2  O   UNL A   1      38.393  33.055  36.652  1.00  0.00    -0.461 OA
BRANCH   2   3
ATOM      3  C   UNL A   1      37.049  33.427  36.838  1.00  0.00     0.326 C 
ATOM      4  O   UNL A   1      36.631  33.168  37.983  1.00  0.00    -0.250 OA
BRANCH   3   5
ATOM      5  C   UNL A   1      35.883  34.012  35.824  1.00  0.00     0.247 C 
BRANCH   5   6
ATOM      6  N   UNL A   1      35.784  33.904  34.312  1.00  0.00    -0.308 N 
ATOM      7  C   UNL A   1      35.910  32.731  33.442  1.00  0.00     0.169 A 
ATOM      8  C   UNL A   1      34.905  34.785  33.680  1.00  0.00     0.069 A 
ATOM      9  N   UNL A   1      34.863  32.779  32.615  1.00  0.00    -0.222 NA
ATOM     10  C   UNL A   1      34.384  34.063  32.619  1.00  0.00     0.090 A 
ATOM     11  C   UNL A   1      34.502  36.096  33.979  1.00  0.00     0.028 A 
ATOM     12  C   UNL A   1      33.500  34.704  31.735  1.00  0.00     0.030 A 
ATOM     13  C   UNL A   1      33.654  36.729  33.071  1.00  0.00     0.002 A 
ATOM     14  C   UNL A   1      33.174  36.051  31.953  1.00  0.00     0.002 A 
BRANCH   7  15
ATOM     15  S   UNL A   1      37.391  32.029  32.398  1.00  0.00    -0.088 SA
BRANCH  15  16
ATOM     16  C   UNL A   1      38.819  33.187  31.837  1.00  0.00     0.083 C 
BRANCH  16  17
ATOM     17  C   UNL A   1      40.496  32.813  31.487  1.00  0.00     0.047 C 
BRANCH  17  18
ATOM     18  C   UNL A   1      41.822  33.972  31.448  1.00  0.00    -0.047 A 
ATOM     19  C   UNL A   1      42.734  32.778  32.334  1.00  0.00     0.004 A 
ATOM     20  C   UNL A   1      42.484  34.735  29.903  1.00  0.00     0.004 A 
ATOM     21  C   UNL A   1      44.013  31.968  31.647  1.00  0.00     0.000 A 
ATOM     22  C   UNL A   1      43.930  33.887  29.082  1.00  0.00     0.000 A 
ATOM     23  C   UNL A   1      44.559  32.374  30.015  1.00  0.00     0.000 A 
ENDBRANCH  17  18
ENDBRANCH  16  17
ENDBRANCH  15  16
ENDBRANCH   7  15
ENDBRANCH   5   6
ENDBRANCH   3   5
ENDBRANCH   2   3
ENDBRANCH   1   2
BRANCH   1  24
ATOM     24  C   UNL A   1      40.578  31.284  35.225  1.00  0.00     0.275 C 
BRANCH  24  25
ATOM     25  O   UNL A   1      40.298  29.748  36.126  1.00  0.00    -0.458 OA
BRANCH  25  26
ATOM     26  C   UNL A   1      41.292  28.108  36.350  1.00  0.00     0.338 C 
ATOM     27  O   UNL A   1      41.028  27.209  37.153  1.00  0.00    -0.246 OA
BRANCH  26  28
ATOM     28  C   UNL A   1      42.990  27.790  35.977  1.00  0.00     0.060 A 
ATOM     29  C   UNL A   1      43.652  28.896  35.495  1.00  0.00     0.016 A 
ATOM     30  C   UNL A   1      43.257  26.632  35.207  1.00  0.00     0.016 A 
ATOM     31  C   UNL A   1      43.744  29.024  34.119  1.00  0.00     0.010 A 
ATOM     32  C   UNL A   1      43.510  26.698  33.836  1.00  0.00     0.010 A 
ATOM     33  C   UNL A   1      43.531  27.940  33.244  1.00  0.00    -0.014 A 
BRANCH  33  34
ATOM     34  C   UNL A   1      43.386  28.227  31.795  1.00  0.00     0.031 A 
ATOM     35  C   UNL A   1      41.963  28.401  31.391  1.00  0.00     0.074 A 
ATOM     36  C   UNL A   1      44.328  28.336  30.829  1.00  0.00     0.049 A 
ATOM     37  N   UNL A   1      41.236  27.605  30.674  1.00  0.00    -0.248 NA
ATOM     38  C   UNL A   1      41.208  29.440  32.120  1.00  0.00     0.031 C 
ATOM     39  C   UNL A   1      45.781  28.426  30.981  1.00  0.00     0.029 A 
ATOM     40  N   UNL A   1      44.163  28.483  29.467  1.00  0.00    -0.354 N 
ATOM     41  C   UNL A   1      39.957  28.139  30.741  1.00  0.00     0.074 A 
ATOM     42  C   UNL A   1      39.959  29.081  31.830  1.00  0.00     0.031 C 
ATOM     43  C   UNL A   1      46.332  28.845  29.824  1.00  0.00     0.029 A 
ATOM     44  C   UNL A   1      45.297  28.952  28.812  1.00  0.00     0.049 A 
ATOM     45  H   UNL A   1      43.320  28.275  29.002  1.00  0.00     0.167 HD
ATOM     46  C   UNL A   1      39.060  28.020  29.728  1.00  0.00     0.031 A 
ATOM     47  C   UNL A   1      45.385  29.485  27.567  1.00  0.00     0.031 A 
ATOM     48  C   UNL A   1      39.388  26.974  28.808  1.00  0.00     0.049 A 
ATOM     49  C   UNL A   1      44.232  29.028  26.764  1.00  0.00     0.074 A 
ATOM     50  C   UNL A   1      39.295  25.602  28.771  1.00  0.00     0.029 A 
ATOM     51  N   UNL A   1      40.241  27.356  27.808  1.00  0.00    -0.354 N 
ATOM     52  N   UNL A   1      44.082  27.807  26.338  1.00  0.00    -0.248 NA
ATOM     53  C   UNL A   1      43.060  29.887  26.642  1.00  0.00     0.031 C 
ATOM     54  C   UNL A   1      40.258  25.162  27.818  1.00  0.00     0.029 A 
ATOM     55  C   UNL A   1      40.897  26.277  27.278  1.00  0.00     0.049 A 
ATOM     56  H   UNL A   1      40.366  28.285  27.507  1.00  0.00     0.167 HD
ATOM     57  C   UNL A   1      42.712  27.631  26.283  1.00  0.00     0.074 A 
ATOM     58  C   UNL A   1      42.147  28.971  26.314  1.00  0.00     0.031 C 
ATOM     59  C   UNL A   1      42.147  26.422  26.553  1.00  0.00     0.031 A 
BRANCH  46  60
ATOM     60  C   UNL A   1      38.168  29.183  29.351  1.00  0.00    -0.014 A 
ATOM     61  C   UNL A   1      36.815  29.252  29.755  1.00  0.00     0.010 A 
ATOM     62  C   UNL A   1      38.719  30.350  28.794  1.00  0.00     0.010 A 
ATOM     63  C   UNL A   1      36.018  30.367  29.534  1.00  0.00     0.020 A 
ATOM     64  C   UNL A   1      37.939  31.506  28.618  1.00  0.00     0.020 A 
ATOM     65  C   UNL A   1      36.587  31.493  28.966  1.00  0.00     0.054 A 
BRANCH  65  66
ATOM     66  S   UNL A   1      35.520  32.937  28.765  1.00  0.00     0.124 S 
ATOM     67  O   UNL A   1      36.151  33.896  29.670  1.00  0.00    -0.237 OA
ATOM     68  O   UNL A   1      35.659  33.233  27.342  1.00  0.00    -0.237 OA
ATOM     69  O   UNL A   1      34.207  32.453  29.180  1.00  0.00    -0.744 OA
ENDBRANCH  65  66
ENDBRANCH  46  60
BRANCH  47  70
ATOM     70  C   UNL A   1      46.212  30.654  27.152  1.00  0.00    -0.014 A 
ATOM     71  C   UNL A   1      47.495  30.837  27.705  1.00  0.00     0.010 A 
ATOM     72  C   UNL A   1      45.634  31.747  26.472  1.00  0.00     0.010 A 
ATOM     73  C   UNL A   1      48.132  32.079  27.680  1.00  0.00     0.020 A 
ATOM     74  C   UNL A   1      46.266  33.004  26.451  1.00  0.00     0.020 A 
ATOM     75  C   UNL A   1      47.491  33.168  27.098  1.00  0.00     0.054 A 
BRANCH  75  76
ATOM     76  S   UNL A   1      48.241  34.805  27.319  1.00  0.00     0.124 S 
ATOM     77  O   UNL A   1      47.076  35.684  27.244  1.00  0.00    -0.237 OA
ATOM     78  O   UNL A   1      48.855  34.696  28.641  1.00  0.00    -0.237 OA
ATOM     79  O   UNL A   1      49.179  34.913  26.206  1.00  0.00    -0.744 OA
ENDBRANCH  75  76
ENDBRANCH  47  70
BRANCH  59  80
ATOM     80  C   UNL A   1      42.932  25.170  26.269  1.00  0.00    -0.014 A 
ATOM     81  C   UNL A   1      43.131  24.850  24.912  1.00  0.00     0.010 A 
ATOM     82  C   UNL A   1      43.357  24.253  27.245  1.00  0.00     0.010 A 
ATOM     83  C   UNL A   1      43.691  23.633  24.534  1.00  0.00     0.020 A 
ATOM     84  C   UNL A   1      43.946  23.034  26.871  1.00  0.00     0.020 A 
ATOM     85  C   UNL A   1      44.086  22.723  25.515  1.00  0.00     0.054 A 
BRANCH  85  86
ATOM     86  S   UNL A   1      44.773  21.136  24.968  1.00  0.00     0.124 S 
ATOM     87  O   UNL A   1      44.606  21.201  23.517  1.00  0.00    -0.237 OA
ATOM     88  O   UNL A   1      46.158  21.210  25.431  1.00  0.00    -0.237 OA
ATOM     89  O   UNL A   1      43.955  20.133  25.644  1.00  0.00    -0.744 OA
ENDBRANCH  85  86
ENDBRANCH  59  80
ENDBRANCH  33  34
ENDBRANCH  26  28
ENDBRANCH  25  26
ENDBRANCH  24  25
ENDBRANCH   1  24
TORSDOF 19
ENDMDL
