MODEL 1
REMARK VINA RESULT:     -12.8      0.000      0.000
REMARK SMILES COc1ccccc1[C@@H]1C[N@@H+](Cc2cn3cc(C)ccc3n2)C[C@H]1C(=O)OCCOC(=O)c1ccc(-c2c3nc(c(-c4ccc(S(=O)(=O)[O-])cc4)c4ccc([nH]4)c(-c4ccc(S(=O)(=O)[O-])cc4)c4nc(c(-c5ccc(S(=O)(=O)[O-])cc5)c5ccc2[nH]5)C=C4)C=C3)cc1
REMARK SMILES IDX 29 1 28 2 27 3 25 4 26 5 24 6 9 7 10 8 11 9 23 10 8 12 3 13
REMARK SMILES IDX 4 14 5 15 7 16 6 17 2 18 1 19 12 20 13 21 14 22 22 23 15 24
REMARK SMILES IDX 21 25 16 26 20 27 17 28 19 29 18 30 30 31 31 32 32 33 33 34
REMARK SMILES IDX 34 35 92 36 35 37 91 38 36 39 37 40 38 41 85 42 39 43 90 44
REMARK SMILES IDX 84 45 86 46 40 47 89 48 83 49 82 50 41 52 71 53 52 54 70 55
REMARK SMILES IDX 53 56 56 57 69 58 87 59 54 60 55 61 68 63 88 64 57 65 42 66
REMARK SMILES IDX 43 67 51 68 44 69 50 70 45 71 46 72 47 73 48 74 49 75 72 76
REMARK SMILES IDX 73 77 81 78 74 79 80 80 75 81 76 82 77 83 78 84 79 85 58 86
REMARK SMILES IDX 59 87 67 88 60 89 66 90 61 91 62 92 63 93 64 94 65 95
REMARK H PARENT 11 11 86 51 56 62
REMARK Flexibility Score: inf
ROOT
ATOM      1  C   UNL A   1      32.527  30.328  27.067  1.00  0.00     0.275 C 
ENDROOT
BRANCH   1   2
ATOM      2  C   UNL A   1      32.208  28.894  26.661  1.00  0.00     0.274 C 
BRANCH   2   3
ATOM      3  O   UNL A   1      33.382  28.073  26.509  1.00  0.00    -0.462 OA
BRANCH   3   4
ATOM      4  C   UNL A   1      33.217  26.842  25.960  1.00  0.00     0.315 C 
ATOM      5  O   UNL A   1      34.141  26.143  25.552  1.00  0.00    -0.252 OA
BRANCH   4   6
ATOM      6  C   UNL A   1      31.766  26.449  25.771  1.00  0.00     0.167 C 
ATOM      7  C   UNL A   1      31.198  26.296  24.357  1.00  0.00     0.098 C 
ATOM      8  C   UNL A   1      30.045  25.306  24.592  1.00  0.00     0.272 C 
ATOM      9  N   UNL A   1      30.502  24.373  25.629  1.00  0.00    -0.329 N 
ATOM     10  C   UNL A   1      31.506  25.089  26.433  1.00  0.00     0.278 C 
ATOM     11  H   UNL A   1      29.715  24.098  26.217  1.00  0.00     0.348 HD
BRANCH   7  12
ATOM     12  C   UNL A   1      30.728  27.495  23.544  1.00  0.00     0.004 A 
ATOM     13  C   UNL A   1      31.557  28.446  22.924  1.00  0.00     0.122 A 
ATOM     14  C   UNL A   1      31.009  29.539  22.232  1.00  0.00     0.047 A 
ATOM     15  C   UNL A   1      29.627  29.728  22.180  1.00  0.00     0.004 A 
ATOM     16  C   UNL A   1      29.336  27.741  23.511  1.00  0.00     0.008 A 
ATOM     17  C   UNL A   1      28.791  28.840  22.842  1.00  0.00     0.001 A 
BRANCH  13  18
ATOM     18  O   UNL A   1      32.901  28.487  23.183  1.00  0.00    -0.496 OA
ATOM     19  C   UNL A   1      33.694  27.813  22.214  1.00  0.00     0.278 C 
ENDBRANCH  13  18
ENDBRANCH   7  12
BRANCH   9  20
ATOM     20  C   UNL A   1      30.961  23.069  25.114  1.00  0.00     0.321 C 
BRANCH  20  21
ATOM     21  C   UNL A   1      32.449  22.923  25.014  1.00  0.00     0.114 A 
ATOM     22  C   UNL A   1      33.306  22.279  25.890  1.00  0.00     0.122 A 
ATOM     23  N   UNL A   1      33.154  23.414  23.933  1.00  0.00    -0.228 NA
ATOM     24  N   UNL A   1      34.526  22.255  25.267  1.00  0.00    -0.306 N 
ATOM     25  C   UNL A   1      34.385  22.972  24.087  1.00  0.00     0.137 A 
ATOM     26  C   UNL A   1      35.708  21.637  25.664  1.00  0.00     0.096 A 
ATOM     27  C   UNL A   1      35.534  23.068  23.255  1.00  0.00     0.048 A 
ATOM     28  C   UNL A   1      36.798  21.721  24.876  1.00  0.00    -0.034 A 
ATOM     29  C   UNL A   1      36.683  22.464  23.619  1.00  0.00     0.009 A 
ATOM     30  C   UNL A   1      38.107  21.072  25.203  1.00  0.00     0.046 C 
ENDBRANCH  20  21
ENDBRANCH   9  20
ENDBRANCH   4   6
ENDBRANCH   3   4
ENDBRANCH   2   3
ENDBRANCH   1   2
BRANCH   1  31
ATOM     31  O   UNL A   1      33.894  30.668  26.837  1.00  0.00    -0.458 OA
BRANCH  31  32
ATOM     32  C   UNL A   1      34.349  31.596  27.707  1.00  0.00     0.338 C 
ATOM     33  O   UNL A   1      33.952  32.741  27.841  1.00  0.00    -0.246 OA
BRANCH  32  34
ATOM     34  C   UNL A   1      35.560  31.120  28.357  1.00  0.00     0.060 A 
ATOM     35  C   UNL A   1      36.502  32.058  28.772  1.00  0.00     0.016 A 
ATOM     36  C   UNL A   1      35.854  29.757  28.276  1.00  0.00     0.016 A 
ATOM     37  C   UNL A   1      37.802  31.646  28.984  1.00  0.00     0.010 A 
ATOM     38  C   UNL A   1      37.146  29.342  28.509  1.00  0.00     0.010 A 
ATOM     39  C   UNL A   1      38.123  30.296  28.801  1.00  0.00    -0.014 A 
BRANCH  39  40
ATOM     40  C   UNL A   1      39.489  29.878  29.081  1.00  0.00     0.031 A 
ATOM     41  C   UNL A   1      39.835  29.919  30.521  1.00  0.00     0.074 A 
ATOM     42  C   UNL A   1      40.290  29.311  28.160  1.00  0.00     0.049 A 
ATOM     43  N   UNL A   1      40.784  30.572  31.105  1.00  0.00    -0.248 NA
ATOM     44  C   UNL A   1      38.917  29.229  31.446  1.00  0.00     0.031 C 
ATOM     45  C   UNL A   1      39.910  28.918  26.799  1.00  0.00     0.029 A 
ATOM     46  N   UNL A   1      41.562  28.832  28.283  1.00  0.00    -0.354 N 
ATOM     47  C   UNL A   1      40.716  30.194  32.443  1.00  0.00     0.074 A 
ATOM     48  C   UNL A   1      39.449  29.537  32.625  1.00  0.00     0.031 C 
ATOM     49  C   UNL A   1      40.827  28.052  26.319  1.00  0.00     0.029 A 
ATOM     50  C   UNL A   1      41.921  27.952  27.272  1.00  0.00     0.049 A 
ATOM     51  H   UNL A   1      42.166  29.085  29.019  1.00  0.00     0.167 HD
ATOM     52  C   UNL A   1      41.826  30.167  33.227  1.00  0.00     0.031 A 
ATOM     53  C   UNL A   1      43.007  27.145  27.230  1.00  0.00     0.031 A 
ATOM     54  C   UNL A   1      42.914  30.913  32.655  1.00  0.00     0.049 A 
ATOM     55  C   UNL A   1      44.023  27.665  28.173  1.00  0.00     0.074 A 
ATOM     56  C   UNL A   1      43.284  32.233  32.551  1.00  0.00     0.029 A 
ATOM     57  N   UNL A   1      43.684  30.199  31.776  1.00  0.00    -0.354 N 
ATOM     58  N   UNL A   1      44.619  28.814  28.025  1.00  0.00    -0.248 NA
ATOM     59  C   UNL A   1      44.193  27.039  29.480  1.00  0.00     0.031 C 
ATOM     60  C   UNL A   1      44.197  32.310  31.457  1.00  0.00     0.029 A 
ATOM     61  C   UNL A   1      44.367  31.033  30.927  1.00  0.00     0.049 A 
ATOM     62  H   UNL A   1      43.742  29.216  31.755  1.00  0.00     0.167 HD
ATOM     63  C   UNL A   1      44.883  29.235  29.312  1.00  0.00     0.074 A 
ATOM     64  C   UNL A   1      44.764  28.048  30.143  1.00  0.00     0.031 C 
ATOM     65  C   UNL A   1      44.846  30.557  29.644  1.00  0.00     0.031 A 
BRANCH  52  66
ATOM     66  C   UNL A   1      42.086  29.070  34.240  1.00  0.00    -0.014 A 
ATOM     67  C   UNL A   1      42.408  27.782  33.769  1.00  0.00     0.010 A 
ATOM     68  C   UNL A   1      41.733  29.179  35.603  1.00  0.00     0.010 A 
ATOM     69  C   UNL A   1      42.314  26.657  34.601  1.00  0.00     0.020 A 
ATOM     70  C   UNL A   1      41.675  28.073  36.451  1.00  0.00     0.020 A 
ATOM     71  C   UNL A   1      41.930  26.811  35.934  1.00  0.00     0.054 A 
BRANCH  71  72
ATOM     72  S   UNL A   1      41.684  25.348  36.968  1.00  0.00     0.124 S 
ATOM     73  O   UNL A   1      40.500  25.720  37.737  1.00  0.00    -0.237 OA
ATOM     74  O   UNL A   1      41.492  24.295  35.975  1.00  0.00    -0.237 OA
ATOM     75  O   UNL A   1      42.926  25.257  37.733  1.00  0.00    -0.744 OA
ENDBRANCH  71  72
ENDBRANCH  52  66
BRANCH  53  76
ATOM     76  C   UNL A   1      43.134  25.829  26.567  1.00  0.00    -0.014 A 
ATOM     77  C   UNL A   1      43.890  25.683  25.391  1.00  0.00     0.010 A 
ATOM     78  C   UNL A   1      42.719  24.659  27.237  1.00  0.00     0.010 A 
ATOM     79  C   UNL A   1      44.264  24.411  24.931  1.00  0.00     0.020 A 
ATOM     80  C   UNL A   1      43.078  23.388  26.777  1.00  0.00     0.020 A 
ATOM     81  C   UNL A   1      43.870  23.272  25.638  1.00  0.00     0.054 A 
BRANCH  81  82
ATOM     82  S   UNL A   1      44.504  21.648  25.130  1.00  0.00     0.124 S 
ATOM     83  O   UNL A   1      45.833  21.631  25.736  1.00  0.00    -0.237 OA
ATOM     84  O   UNL A   1      43.531  20.730  25.713  1.00  0.00    -0.237 OA
ATOM     85  O   UNL A   1      44.491  21.717  23.669  1.00  0.00    -0.744 OA
ENDBRANCH  81  82
ENDBRANCH  53  76
BRANCH  65  86
ATOM     86  C   UNL A   1      45.126  31.565  28.566  1.00  0.00    -0.014 A 
ATOM     87  C   UNL A   1      44.131  32.165  27.774  1.00  0.00     0.010 A 
ATOM     88  C   UNL A   1      46.463  31.968  28.392  1.00  0.00     0.010 A 
ATOM     89  C   UNL A   1      44.472  33.131  26.814  1.00  0.00     0.020 A 
ATOM     90  C   UNL A   1      46.805  32.942  27.453  1.00  0.00     0.020 A 
ATOM     91  C   UNL A   1      45.808  33.513  26.662  1.00  0.00     0.054 A 
BRANCH  91  92
ATOM     92  S   UNL A   1      46.236  34.797  25.452  1.00  0.00     0.124 S 
ATOM     93  O   UNL A   1      45.916  36.028  26.168  1.00  0.00    -0.237 OA
ATOM     94  O   UNL A   1      47.658  34.557  25.214  1.00  0.00    -0.237 OA
ATOM     95  O   UNL A   1      45.370  34.501  24.311  1.00  0.00    -0.744 OA
ENDBRANCH  91  92
ENDBRANCH  65  86
ENDBRANCH  39  40
ENDBRANCH  32  34
ENDBRANCH  31  32
ENDBRANCH   1  31
TORSDOF 18
ENDMDL
MODEL 2
REMARK VINA RESULT:     -12.8      1.401      4.089
REMARK SMILES COc1ccccc1[C@@H]1C[N@@H+](Cc2cn3cc(C)ccc3n2)C[C@H]1C(=O)OCCOC(=O)c1ccc(-c2c3nc(c(-c4ccc(S(=O)(=O)[O-])cc4)c4ccc([nH]4)c(-c4ccc(S(=O)(=O)[O-])cc4)c4nc(c(-c5ccc(S(=O)(=O)[O-])cc5)c5ccc2[nH]5)C=C4)C=C3)cc1
REMARK SMILES IDX 29 1 28 2 27 3 25 4 26 5 24 6 9 7 10 8 11 9 23 10 8 12 3 13
REMARK SMILES IDX 4 14 5 15 7 16 6 17 2 18 1 19 12 20 13 21 14 22 22 23 15 24
REMARK SMILES IDX 21 25 16 26 20 27 17 28 19 29 18 30 30 31 31 32 32 33 33 34
REMARK SMILES IDX 34 35 92 36 35 37 91 38 36 39 37 40 38 41 85 42 39 43 90 44
REMARK SMILES IDX 84 45 86 46 40 47 89 48 83 49 82 50 41 52 71 53 52 54 70 55
REMARK SMILES IDX 53 56 56 57 69 58 87 59 54 60 55 61 68 63 88 64 57 65 42 66
REMARK SMILES IDX 43 67 51 68 44 69 50 70 45 71 46 72 47 73 48 74 49 75 72 76
REMARK SMILES IDX 73 77 81 78 74 79 80 80 75 81 76 82 77 83 78 84 79 85 58 86
REMARK SMILES IDX 59 87 67 88 60 89 66 90 61 91 62 92 63 93 64 94 65 95
REMARK H PARENT 11 11 86 51 56 62
REMARK Flexibility Score: inf
ROOT
ATOM      1  C   UNL A   1      32.520  30.361  26.710  1.00  0.00     0.275 C 
ENDROOT
BRANCH   1   2
ATOM      2  C   UNL A   1      31.918  29.070  27.254  1.00  0.00     0.274 C 
BRANCH   2   3
ATOM      3  O   UNL A   1      32.831  27.956  27.211  1.00  0.00    -0.462 OA
BRANCH   3   4
ATOM      4  C   UNL A   1      32.400  26.818  26.607  1.00  0.00     0.315 C 
ATOM      5  O   UNL A   1      31.349  26.248  26.888  1.00  0.00    -0.252 OA
BRANCH   4   6
ATOM      6  C   UNL A   1      33.401  26.229  25.633  1.00  0.00     0.167 C 
ATOM      7  C   UNL A   1      33.070  24.928  24.898  1.00  0.00     0.098 C 
ATOM      8  C   UNL A   1      33.931  25.060  23.631  1.00  0.00     0.272 C 
ATOM      9  N   UNL A   1      33.924  26.482  23.269  1.00  0.00    -0.329 N 
ATOM     10  C   UNL A   1      33.687  27.237  24.511  1.00  0.00     0.278 C 
ATOM     11  H   UNL A   1      34.826  26.741  22.869  1.00  0.00     0.348 HD
BRANCH   7  12
ATOM     12  C   UNL A   1      33.264  23.564  25.548  1.00  0.00     0.004 A 
ATOM     13  C   UNL A   1      32.713  22.351  25.101  1.00  0.00     0.122 A 
ATOM     14  C   UNL A   1      32.927  21.157  25.808  1.00  0.00     0.047 A 
ATOM     15  C   UNL A   1      33.659  21.155  26.996  1.00  0.00     0.004 A 
ATOM     16  C   UNL A   1      33.961  23.535  26.778  1.00  0.00     0.008 A 
ATOM     17  C   UNL A   1      34.155  22.351  27.495  1.00  0.00     0.001 A 
BRANCH  13  18
ATOM     18  O   UNL A   1      31.754  22.330  24.123  1.00  0.00    -0.496 OA
ATOM     19  C   UNL A   1      32.186  21.732  22.907  1.00  0.00     0.278 C 
ENDBRANCH  13  18
ENDBRANCH   7  12
BRANCH   9  20
ATOM     20  C   UNL A   1      33.000  26.825  22.171  1.00  0.00     0.321 C 
BRANCH  20  21
ATOM     21  C   UNL A   1      31.780  27.586  22.592  1.00  0.00     0.114 A 
ATOM     22  C   UNL A   1      31.649  28.948  22.794  1.00  0.00     0.122 A 
ATOM     23  N   UNL A   1      30.566  26.956  22.789  1.00  0.00    -0.228 NA
ATOM     24  N   UNL A   1      30.309  29.171  22.978  1.00  0.00    -0.306 N 
ATOM     25  C   UNL A   1      29.696  27.926  22.983  1.00  0.00     0.137 A 
ATOM     26  C   UNL A   1      29.625  30.375  23.118  1.00  0.00     0.096 A 
ATOM     27  C   UNL A   1      28.283  27.909  23.145  1.00  0.00     0.048 A 
ATOM     28  C   UNL A   1      28.285  30.363  23.266  1.00  0.00    -0.034 A 
ATOM     29  C   UNL A   1      27.605  29.067  23.268  1.00  0.00     0.009 A 
ATOM     30  C   UNL A   1      27.458  31.603  23.400  1.00  0.00     0.046 C 
ENDBRANCH  20  21
ENDBRANCH   9  20
ENDBRANCH   4   6
ENDBRANCH   3   4
ENDBRANCH   2   3
ENDBRANCH   1   2
BRANCH   1  31
ATOM     31  O   UNL A   1      33.944  30.375  26.795  1.00  0.00    -0.458 OA
BRANCH  31  32
ATOM     32  C   UNL A   1      34.403  31.340  27.621  1.00  0.00     0.338 C 
ATOM     33  O   UNL A   1      33.996  32.484  27.719  1.00  0.00    -0.246 OA
BRANCH  32  34
ATOM     34  C   UNL A   1      35.630  30.901  28.269  1.00  0.00     0.060 A 
ATOM     35  C   UNL A   1      36.556  31.866  28.657  1.00  0.00     0.016 A 
ATOM     36  C   UNL A   1      35.952  29.543  28.210  1.00  0.00     0.016 A 
ATOM     37  C   UNL A   1      37.866  31.485  28.863  1.00  0.00     0.010 A 
ATOM     38  C   UNL A   1      37.255  29.160  28.437  1.00  0.00     0.010 A 
ATOM     39  C   UNL A   1      38.214  30.140  28.702  1.00  0.00    -0.014 A 
BRANCH  39  40
ATOM     40  C   UNL A   1      39.591  29.755  28.976  1.00  0.00     0.031 A 
ATOM     41  C   UNL A   1      39.938  29.789  30.416  1.00  0.00     0.074 A 
ATOM     42  C   UNL A   1      40.406  29.220  28.048  1.00  0.00     0.049 A 
ATOM     43  N   UNL A   1      40.869  30.461  31.006  1.00  0.00    -0.248 NA
ATOM     44  C   UNL A   1      39.039  29.064  31.334  1.00  0.00     0.031 C 
ATOM     45  C   UNL A   1      40.035  28.832  26.683  1.00  0.00     0.029 A 
ATOM     46  N   UNL A   1      41.691  28.774  28.165  1.00  0.00    -0.354 N 
ATOM     47  C   UNL A   1      40.813  30.067  32.340  1.00  0.00     0.074 A 
ATOM     48  C   UNL A   1      39.564  29.374  32.516  1.00  0.00     0.031 C 
ATOM     49  C   UNL A   1      40.975  27.997  26.193  1.00  0.00     0.029 A 
ATOM     50  C   UNL A   1      42.072  27.915  27.144  1.00  0.00     0.049 A 
ATOM     51  H   UNL A   1      42.288  29.035  28.903  1.00  0.00     0.167 HD
ATOM     52  C   UNL A   1      41.924  30.061  33.123  1.00  0.00     0.031 A 
ATOM     53  C   UNL A   1      43.179  27.139  27.092  1.00  0.00     0.031 A 
ATOM     54  C   UNL A   1      42.991  30.842  32.559  1.00  0.00     0.049 A 
ATOM     55  C   UNL A   1      44.181  27.675  28.040  1.00  0.00     0.074 A 
ATOM     56  C   UNL A   1      43.325  32.173  32.469  1.00  0.00     0.029 A 
ATOM     57  N   UNL A   1      43.779  30.159  31.671  1.00  0.00    -0.354 N 
ATOM     58  N   UNL A   1      44.746  28.842  27.904  1.00  0.00    -0.248 NA
ATOM     59  C   UNL A   1      44.370  27.040  29.340  1.00  0.00     0.031 C 
ATOM     60  C   UNL A   1      44.234  32.287  31.375  1.00  0.00     0.029 A 
ATOM     61  C   UNL A   1      44.438  31.021  30.831  1.00  0.00     0.049 A 
ATOM     62  H   UNL A   1      43.863  29.179  31.639  1.00  0.00     0.167 HD
ATOM     63  C   UNL A   1      45.001  29.256  29.196  1.00  0.00     0.074 A 
ATOM     64  C   UNL A   1      44.915  28.056  30.013  1.00  0.00     0.031 C 
ATOM     65  C   UNL A   1      44.929  30.572  29.542  1.00  0.00     0.031 A 
BRANCH  52  66
ATOM     66  C   UNL A   1      42.215  28.961  34.124  1.00  0.00    -0.014 A 
ATOM     67  C   UNL A   1      41.818  27.645  33.812  1.00  0.00     0.010 A 
ATOM     68  C   UNL A   1      42.579  29.214  35.465  1.00  0.00     0.010 A 
ATOM     69  C   UNL A   1      41.726  26.657  34.802  1.00  0.00     0.020 A 
ATOM     70  C   UNL A   1      42.530  28.228  36.451  1.00  0.00     0.020 A 
ATOM     71  C   UNL A   1      42.067  26.963  36.120  1.00  0.00     0.054 A 
BRANCH  71  72
ATOM     72  S   UNL A   1      41.824  25.726  37.416  1.00  0.00     0.124 S 
ATOM     73  O   UNL A   1      40.412  25.904  37.740  1.00  0.00    -0.237 OA
ATOM     74  O   UNL A   1      42.167  24.485  36.728  1.00  0.00    -0.237 OA
ATOM     75  O   UNL A   1      42.763  26.134  38.459  1.00  0.00    -0.744 OA
ENDBRANCH  71  72
ENDBRANCH  52  66
BRANCH  53  76
ATOM     76  C   UNL A   1      43.341  25.833  26.415  1.00  0.00    -0.014 A 
ATOM     77  C   UNL A   1      44.347  25.639  25.453  1.00  0.00     0.010 A 
ATOM     78  C   UNL A   1      42.664  24.697  26.903  1.00  0.00     0.010 A 
ATOM     79  C   UNL A   1      44.701  24.348  25.034  1.00  0.00     0.020 A 
ATOM     80  C   UNL A   1      43.003  23.408  26.481  1.00  0.00     0.020 A 
ATOM     81  C   UNL A   1      44.038  23.238  25.565  1.00  0.00     0.054 A 
BRANCH  81  82
ATOM     82  S   UNL A   1      44.621  21.571  25.146  1.00  0.00     0.124 S 
ATOM     83  O   UNL A   1      45.963  21.558  25.722  1.00  0.00    -0.237 OA
ATOM     84  O   UNL A   1      43.641  20.716  25.807  1.00  0.00    -0.237 OA
ATOM     85  O   UNL A   1      44.575  21.549  23.684  1.00  0.00    -0.744 OA
ENDBRANCH  81  82
ENDBRANCH  53  76
BRANCH  65  86
ATOM     86  C   UNL A   1      45.180  31.599  28.475  1.00  0.00    -0.014 A 
ATOM     87  C   UNL A   1      44.166  32.197  27.705  1.00  0.00     0.010 A 
ATOM     88  C   UNL A   1      46.509  32.023  28.289  1.00  0.00     0.010 A 
ATOM     89  C   UNL A   1      44.480  33.181  26.756  1.00  0.00     0.020 A 
ATOM     90  C   UNL A   1      46.825  33.014  27.360  1.00  0.00     0.020 A 
ATOM     91  C   UNL A   1      45.809  33.583  26.590  1.00  0.00     0.054 A 
BRANCH  91  92
ATOM     92  S   UNL A   1      46.203  34.889  25.394  1.00  0.00     0.124 S 
ATOM     93  O   UNL A   1      47.621  34.663  25.131  1.00  0.00    -0.237 OA
ATOM     94  O   UNL A   1      45.300  34.593  24.282  1.00  0.00    -0.237 OA
ATOM     95  O   UNL A   1      45.897  36.125  26.114  1.00  0.00    -0.744 OA
ENDBRANCH  91  92
ENDBRANCH  65  86
ENDBRANCH  39  40
ENDBRANCH  32  34
ENDBRANCH  31  32
ENDBRANCH   1  31
TORSDOF 18
ENDMDL
MODEL 3
REMARK VINA RESULT:     -12.6      2.586      9.344
REMARK SMILES COc1ccccc1[C@@H]1C[N@@H+](Cc2cn3cc(C)ccc3n2)C[C@H]1C(=O)OCCOC(=O)c1ccc(-c2c3nc(c(-c4ccc(S(=O)(=O)[O-])cc4)c4ccc([nH]4)c(-c4ccc(S(=O)(=O)[O-])cc4)c4nc(c(-c5ccc(S(=O)(=O)[O-])cc5)c5ccc2[nH]5)C=C4)C=C3)cc1
REMARK SMILES IDX 29 1 28 2 27 3 25 4 26 5 24 6 9 7 10 8 11 9 23 10 8 12 3 13
REMARK SMILES IDX 4 14 5 15 7 16 6 17 2 18 1 19 12 20 13 21 14 22 22 23 15 24
REMARK SMILES IDX 21 25 16 26 20 27 17 28 19 29 18 30 30 31 31 32 32 33 33 34
REMARK SMILES IDX 34 35 92 36 35 37 91 38 36 39 37 40 38 41 85 42 39 43 90 44
REMARK SMILES IDX 84 45 86 46 40 47 89 48 83 49 82 50 41 52 71 53 52 54 70 55
REMARK SMILES IDX 53 56 56 57 69 58 87 59 54 60 55 61 68 63 88 64 57 65 42 66
REMARK SMILES IDX 43 67 51 68 44 69 50 70 45 71 46 72 47 73 48 74 49 75 72 76
REMARK SMILES IDX 73 77 81 78 74 79 80 80 75 81 76 82 77 83 78 84 79 85 58 86
REMARK SMILES IDX 59 87 67 88 60 89 66 90 61 91 62 92 63 93 64 94 65 95
REMARK H PARENT 11 11 86 51 56 62
REMARK Flexibility Score: inf
ROOT
ATOM      1  C   UNL A   1      37.542  21.497  25.004  1.00  0.00     0.275 C 
ENDROOT
BRANCH   1   2
ATOM      2  C   UNL A   1      36.558  22.350  24.209  1.00  0.00     0.274 C 
BRANCH   2   3
ATOM      3  O   UNL A   1      36.352  23.656  24.780  1.00  0.00    -0.462 OA
BRANCH   3   4
ATOM      4  C   UNL A   1      35.092  24.163  24.742  1.00  0.00     0.315 C 
ATOM      5  O   UNL A   1      34.632  24.922  25.591  1.00  0.00    -0.252 OA
BRANCH   4   6
ATOM      6  C   UNL A   1      34.244  23.603  23.618  1.00  0.00     0.167 C 
ATOM      7  C   UNL A   1      32.918  22.909  23.940  1.00  0.00     0.098 C 
ATOM      8  C   UNL A   1      32.135  23.115  22.633  1.00  0.00     0.272 C 
ATOM      9  N   UNL A   1      32.512  24.440  22.126  1.00  0.00    -0.329 N 
ATOM     10  C   UNL A   1      33.858  24.729  22.649  1.00  0.00     0.278 C 
ATOM     11  H   UNL A   1      32.529  24.428  21.106  1.00  0.00     0.348 HD
BRANCH   7  12
ATOM     12  C   UNL A   1      32.858  21.454  24.386  1.00  0.00     0.004 A 
ATOM     13  C   UNL A   1      33.256  20.959  25.640  1.00  0.00     0.122 A 
ATOM     14  C   UNL A   1      33.195  19.585  25.926  1.00  0.00     0.047 A 
ATOM     15  C   UNL A   1      32.775  18.674  24.956  1.00  0.00     0.004 A 
ATOM     16  C   UNL A   1      32.481  20.500  23.412  1.00  0.00     0.008 A 
ATOM     17  C   UNL A   1      32.442  19.131  23.688  1.00  0.00     0.001 A 
BRANCH  13  18
ATOM     18  O   UNL A   1      33.948  21.745  26.522  1.00  0.00    -0.496 OA
ATOM     19  C   UNL A   1      33.153  22.252  27.586  1.00  0.00     0.278 C 
ENDBRANCH  13  18
ENDBRANCH   7  12
BRANCH   9  20
ATOM     20  C   UNL A   1      31.521  25.499  22.396  1.00  0.00     0.321 C 
BRANCH  20  21
ATOM     21  C   UNL A   1      31.855  26.390  23.554  1.00  0.00     0.114 A 
ATOM     22  C   UNL A   1      32.497  27.615  23.533  1.00  0.00     0.122 A 
ATOM     23  N   UNL A   1      31.483  26.069  24.845  1.00  0.00    -0.228 NA
ATOM     24  N   UNL A   1      32.392  28.113  24.805  1.00  0.00    -0.306 N 
ATOM     25  C   UNL A   1      31.782  27.129  25.569  1.00  0.00     0.137 A 
ATOM     26  C   UNL A   1      32.776  29.355  25.302  1.00  0.00     0.096 A 
ATOM     27  C   UNL A   1      31.550  27.432  26.939  1.00  0.00     0.048 A 
ATOM     28  C   UNL A   1      32.553  29.649  26.598  1.00  0.00    -0.034 A 
ATOM     29  C   UNL A   1      31.904  28.635  27.432  1.00  0.00     0.009 A 
ATOM     30  C   UNL A   1      32.907  30.964  27.220  1.00  0.00     0.046 C 
ENDBRANCH  20  21
ENDBRANCH   9  20
ENDBRANCH   4   6
ENDBRANCH   3   4
ENDBRANCH   2   3
ENDBRANCH   1   2
BRANCH   1  31
ATOM     31  O   UNL A   1      38.014  22.159  26.176  1.00  0.00    -0.458 OA
BRANCH  31  32
ATOM     32  C   UNL A   1      39.344  22.010  26.354  1.00  0.00     0.338 C 
ATOM     33  O   UNL A   1      39.971  20.966  26.398  1.00  0.00    -0.246 OA
BRANCH  32  34
ATOM     34  C   UNL A   1      39.947  23.286  26.708  1.00  0.00     0.060 A 
ATOM     35  C   UNL A   1      41.025  23.287  27.590  1.00  0.00     0.016 A 
ATOM     36  C   UNL A   1      39.248  24.452  26.386  1.00  0.00     0.016 A 
ATOM     37  C   UNL A   1      41.330  24.451  28.265  1.00  0.00     0.010 A 
ATOM     38  C   UNL A   1      39.567  25.619  27.045  1.00  0.00     0.010 A 
ATOM     39  C   UNL A   1      40.564  25.596  28.023  1.00  0.00    -0.014 A 
BRANCH  39  40
ATOM     40  C   UNL A   1      40.938  26.824  28.709  1.00  0.00     0.031 A 
ATOM     41  C   UNL A   1      42.181  27.438  28.184  1.00  0.00     0.074 A 
ATOM     42  C   UNL A   1      40.134  27.454  29.585  1.00  0.00     0.049 A 
ATOM     43  N   UNL A   1      43.271  27.718  28.815  1.00  0.00    -0.248 NA
ATOM     44  C   UNL A   1      42.250  27.656  26.727  1.00  0.00     0.031 C 
ATOM     45  C   UNL A   1      38.747  27.100  29.904  1.00  0.00     0.029 A 
ATOM     46  N   UNL A   1      40.326  28.622  30.265  1.00  0.00    -0.354 N 
ATOM     47  C   UNL A   1      44.082  28.353  27.878  1.00  0.00     0.074 A 
ATOM     48  C   UNL A   1      43.493  28.110  26.588  1.00  0.00     0.031 C 
ATOM     49  C   UNL A   1      38.151  28.151  30.505  1.00  0.00     0.029 A 
ATOM     50  C   UNL A   1      39.150  29.182  30.743  1.00  0.00     0.049 A 
ATOM     51  H   UNL A   1      41.213  29.028  30.402  1.00  0.00     0.167 HD
ATOM     52  C   UNL A   1      44.994  29.289  28.251  1.00  0.00     0.031 A 
ATOM     53  C   UNL A   1      38.977  30.425  31.250  1.00  0.00     0.031 A 
ATOM     54  C   UNL A   1      45.278  29.241  29.659  1.00  0.00     0.049 A 
ATOM     55  C   UNL A   1      40.292  30.951  31.679  1.00  0.00     0.074 A 
ATOM     56  C   UNL A   1      46.042  28.472  30.506  1.00  0.00     0.029 A 
ATOM     57  N   UNL A   1      44.415  29.972  30.432  1.00  0.00    -0.354 N 
ATOM     58  N   UNL A   1      40.991  30.433  32.650  1.00  0.00    -0.248 NA
ATOM     59  C   UNL A   1      41.007  31.904  30.837  1.00  0.00     0.031 C 
ATOM     60  C   UNL A   1      45.495  28.649  31.812  1.00  0.00     0.029 A 
ATOM     61  C   UNL A   1      44.418  29.527  31.730  1.00  0.00     0.049 A 
ATOM     62  H   UNL A   1      43.866  30.719  30.101  1.00  0.00     0.167 HD
ATOM     63  C   UNL A   1      42.303  30.673  32.298  1.00  0.00     0.074 A 
ATOM     64  C   UNL A   1      42.250  31.717  31.286  1.00  0.00     0.031 C 
ATOM     65  C   UNL A   1      43.290  29.785  32.605  1.00  0.00     0.031 A 
BRANCH  52  66
ATOM     66  C   UNL A   1      45.243  30.553  27.453  1.00  0.00    -0.014 A 
ATOM     67  C   UNL A   1      46.575  30.937  27.197  1.00  0.00     0.010 A 
ATOM     68  C   UNL A   1      44.245  31.523  27.212  1.00  0.00     0.010 A 
ATOM     69  C   UNL A   1      46.893  32.241  26.790  1.00  0.00     0.020 A 
ATOM     70  C   UNL A   1      44.546  32.811  26.768  1.00  0.00     0.020 A 
ATOM     71  C   UNL A   1      45.873  33.173  26.595  1.00  0.00     0.054 A 
BRANCH  71  72
ATOM     72  S   UNL A   1      46.295  34.886  26.197  1.00  0.00     0.124 S 
ATOM     73  O   UNL A   1      47.036  34.730  24.949  1.00  0.00    -0.237 OA
ATOM     74  O   UNL A   1      44.980  35.510  26.081  1.00  0.00    -0.237 OA
ATOM     75  O   UNL A   1      47.086  35.320  27.346  1.00  0.00    -0.744 OA
ENDBRANCH  71  72
ENDBRANCH  52  66
BRANCH  53  76
ATOM     76  C   UNL A   1      37.761  31.266  31.194  1.00  0.00    -0.014 A 
ATOM     77  C   UNL A   1      36.720  31.092  32.121  1.00  0.00     0.010 A 
ATOM     78  C   UNL A   1      37.737  32.417  30.380  1.00  0.00     0.010 A 
ATOM     79  C   UNL A   1      35.718  32.064  32.268  1.00  0.00     0.020 A 
ATOM     80  C   UNL A   1      36.735  33.384  30.512  1.00  0.00     0.020 A 
ATOM     81  C   UNL A   1      35.744  33.214  31.473  1.00  0.00     0.054 A 
BRANCH  81  82
ATOM     82  S   UNL A   1      34.544  34.539  31.792  1.00  0.00     0.124 S 
ATOM     83  O   UNL A   1      34.184  34.962  30.442  1.00  0.00    -0.237 OA
ATOM     84  O   UNL A   1      33.498  33.848  32.539  1.00  0.00    -0.237 OA
ATOM     85  O   UNL A   1      35.311  35.518  32.564  1.00  0.00    -0.744 OA
ENDBRANCH  81  82
ENDBRANCH  53  76
BRANCH  65  86
ATOM     86  C   UNL A   1      43.096  28.898  33.802  1.00  0.00    -0.014 A 
ATOM     87  C   UNL A   1      43.352  29.297  35.126  1.00  0.00     0.010 A 
ATOM     88  C   UNL A   1      42.567  27.614  33.573  1.00  0.00     0.010 A 
ATOM     89  C   UNL A   1      43.103  28.421  36.194  1.00  0.00     0.020 A 
ATOM     90  C   UNL A   1      42.301  26.746  34.633  1.00  0.00     0.020 A 
ATOM     91  C   UNL A   1      42.578  27.151  35.938  1.00  0.00     0.054 A 
BRANCH  91  92
ATOM     92  S   UNL A   1      42.216  26.040  37.327  1.00  0.00     0.124 S 
ATOM     93  O   UNL A   1      40.826  26.359  37.635  1.00  0.00    -0.237 OA
ATOM     94  O   UNL A   1      42.447  24.716  36.752  1.00  0.00    -0.237 OA
ATOM     95  O   UNL A   1      43.184  26.436  38.351  1.00  0.00    -0.744 OA
ENDBRANCH  91  92
ENDBRANCH  65  86
ENDBRANCH  39  40
ENDBRANCH  32  34
ENDBRANCH  31  32
ENDBRANCH   1  31
TORSDOF 18
ENDMDL
