MODEL 1
REMARK VINA RESULT:     -12.1      0.000      0.000
REMARK SMILES C[NH+]1CCN(C(=O)c2ccc3c(c2)N(CC(=O)OCCOC(=O)c2ccc(-c4c5nc(c(-c6ccc(S(=O)(=O)[O-])cc6)c6ccc([nH]6)c(-c6ccc(S(=O)(=O)[O-])cc6)c6nc(c(-c7ccc(S(=O)(=O)[O-])cc7)c7ccc4[nH]7)C=C6)C=C5)cc2)C(=O)CO3)CC1
REMARK SMILES IDX 20 1 19 2 18 3 16 4 17 5 15 6 14 7 8 8 9 9 13 10 10 11 12 12
REMARK SMILES IDX 11 13 87 14 84 15 86 16 85 17 6 18 1 19 2 20 3 21 89 22 4 24
REMARK SMILES IDX 88 25 5 26 7 27 21 28 22 29 23 30 24 31 25 32 83 33 26 34
REMARK SMILES IDX 82 35 27 36 28 37 29 38 76 39 30 40 81 41 75 42 77 43 31 44
REMARK SMILES IDX 80 45 74 46 73 47 32 49 62 50 43 51 61 52 44 53 47 54 60 55
REMARK SMILES IDX 78 56 45 57 46 58 59 60 79 61 48 62 33 63 34 64 42 65 35 66
REMARK SMILES IDX 41 67 36 68 37 69 38 70 39 71 40 72 63 73 64 74 72 75 65 76
REMARK SMILES IDX 71 77 66 78 67 79 68 80 69 81 70 82 49 83 50 84 58 85 51 86
REMARK SMILES IDX 57 87 52 88 53 89 54 90 55 91 56 92
REMARK H PARENT 2 23 77 48 47 59
REMARK Flexibility Score: inf
ROOT
ATOM      1  C   UNL A   1      41.149  22.634  26.091  1.00  0.00     0.275 C 
ENDROOT
BRANCH   1   2
ATOM      2  C   UNL A   1      39.767  22.611  26.764  1.00  0.00     0.274 C 
BRANCH   2   3
ATOM      3  O   UNL A   1      38.768  21.890  26.011  1.00  0.00    -0.461 OA
BRANCH   3   4
ATOM      4  C   UNL A   1      37.735  22.655  25.560  1.00  0.00     0.326 C 
ATOM      5  O   UNL A   1      37.429  23.743  26.044  1.00  0.00    -0.250 OA
BRANCH   4   6
ATOM      6  C   UNL A   1      37.077  22.138  24.282  1.00  0.00     0.248 C 
BRANCH   6   7
ATOM      7  N   UNL A   1      35.708  21.654  24.346  1.00  0.00    -0.295 N 
ATOM      8  C   UNL A   1      33.508  24.414  23.015  1.00  0.00     0.042 A 
ATOM      9  C   UNL A   1      32.276  23.762  22.959  1.00  0.00     0.018 A 
ATOM     10  C   UNL A   1      34.632  23.766  23.559  1.00  0.00     0.044 A 
ATOM     11  C   UNL A   1      32.182  22.449  23.413  1.00  0.00     0.049 A 
ATOM     12  C   UNL A   1      34.569  22.420  23.948  1.00  0.00     0.087 A 
ATOM     13  C   UNL A   1      33.314  21.786  23.899  1.00  0.00     0.143 A 
ATOM     14  O   UNL A   1      33.108  20.483  24.274  1.00  0.00    -0.482 OA
ATOM     15  C   UNL A   1      35.536  20.356  24.810  1.00  0.00     0.265 C 
ATOM     16  C   UNL A   1      34.101  20.012  25.166  1.00  0.00     0.330 C 
ATOM     17  O   UNL A   1      36.465  19.579  25.029  1.00  0.00    -0.270 OA
BRANCH   8  18
ATOM     18  C   UNL A   1      33.580  25.838  22.612  1.00  0.00     0.254 C 
ATOM     19  C   UNL A   1      31.602  29.930  25.493  1.00  0.00     0.332 C 
ATOM     20  N   UNL A   1      32.784  29.112  25.184  1.00  0.00    -0.334 N 
ATOM     21  C   UNL A   1      33.126  29.256  23.750  1.00  0.00     0.283 C 
ATOM     22  C   UNL A   1      32.535  27.707  25.577  1.00  0.00     0.283 C 
ATOM     23  H   UNL A   1      33.591  29.434  25.720  1.00  0.00     0.347 HD
ATOM     24  C   UNL A   1      34.088  28.190  23.185  1.00  0.00     0.181 C 
ATOM     25  C   UNL A   1      33.536  26.669  25.019  1.00  0.00     0.181 C 
ATOM     26  N   UNL A   1      33.723  26.830  23.578  1.00  0.00    -0.327 N 
ATOM     27  O   UNL A   1      33.558  26.064  21.405  1.00  0.00    -0.269 OA
ENDBRANCH   8  18
ENDBRANCH   6   7
ENDBRANCH   4   6
ENDBRANCH   3   4
ENDBRANCH   2   3
ENDBRANCH   1   2
BRANCH   1  28
ATOM     28  O   UNL A   1      42.032  23.633  26.641  1.00  0.00    -0.458 OA
BRANCH  28  29
ATOM     29  C   UNL A   1      41.581  24.884  26.408  1.00  0.00     0.338 C 
ATOM     30  O   UNL A   1      41.301  25.334  25.306  1.00  0.00    -0.246 OA
BRANCH  29  31
ATOM     31  C   UNL A   1      41.439  25.725  27.606  1.00  0.00     0.060 A 
ATOM     32  C   UNL A   1      40.305  25.699  28.414  1.00  0.00     0.016 A 
ATOM     33  C   UNL A   1      42.372  26.749  27.751  1.00  0.00     0.016 A 
ATOM     34  C   UNL A   1      40.087  26.747  29.319  1.00  0.00     0.010 A 
ATOM     35  C   UNL A   1      42.187  27.763  28.684  1.00  0.00     0.010 A 
ATOM     36  C   UNL A   1      41.036  27.779  29.471  1.00  0.00    -0.014 A 
BRANCH  36  37
ATOM     37  C   UNL A   1      40.973  28.743  30.597  1.00  0.00     0.031 A 
ATOM     38  C   UNL A   1      41.813  28.609  31.839  1.00  0.00     0.074 A 
ATOM     39  C   UNL A   1      39.982  29.654  30.545  1.00  0.00     0.049 A 
ATOM     40  N   UNL A   1      41.774  29.323  32.938  1.00  0.00    -0.248 NA
ATOM     41  C   UNL A   1      42.799  27.521  31.871  1.00  0.00     0.031 C 
ATOM     42  C   UNL A   1      39.025  29.789  29.441  1.00  0.00     0.029 A 
ATOM     43  N   UNL A   1      39.592  30.609  31.443  1.00  0.00    -0.354 N 
ATOM     44  C   UNL A   1      42.708  28.756  33.801  1.00  0.00     0.074 A 
ATOM     45  C   UNL A   1      43.286  27.627  33.103  1.00  0.00     0.031 C 
ATOM     46  C   UNL A   1      38.171  30.780  29.718  1.00  0.00     0.029 A 
ATOM     47  C   UNL A   1      38.498  31.327  31.027  1.00  0.00     0.049 A 
ATOM     48  H   UNL A   1      40.048  30.765  32.300  1.00  0.00     0.167 HD
ATOM     49  C   UNL A   1      43.046  29.147  35.056  1.00  0.00     0.031 A 
ATOM     50  C   UNL A   1      37.821  32.320  31.629  1.00  0.00     0.031 A 
ATOM     51  C   UNL A   1      42.465  30.285  35.729  1.00  0.00     0.049 A 
ATOM     52  C   UNL A   1      38.279  32.798  32.967  1.00  0.00     0.074 A 
ATOM     53  C   UNL A   1      42.809  30.831  36.955  1.00  0.00     0.029 A 
ATOM     54  N   UNL A   1      41.419  31.050  35.235  1.00  0.00    -0.354 N 
ATOM     55  N   UNL A   1      39.231  32.313  33.726  1.00  0.00    -0.248 NA
ATOM     56  C   UNL A   1      37.590  33.970  33.518  1.00  0.00     0.031 C 
ATOM     57  C   UNL A   1      41.949  31.905  37.216  1.00  0.00     0.029 A 
ATOM     58  C   UNL A   1      41.096  32.052  36.134  1.00  0.00     0.049 A 
ATOM     59  H   UNL A   1      40.971  30.901  34.371  1.00  0.00     0.167 HD
ATOM     60  C   UNL A   1      39.266  33.128  34.848  1.00  0.00     0.074 A 
ATOM     61  C   UNL A   1      38.249  34.146  34.655  1.00  0.00     0.031 C 
ATOM     62  C   UNL A   1      40.067  33.042  35.936  1.00  0.00     0.031 A 
BRANCH  49  63
ATOM     63  C   UNL A   1      44.096  28.354  35.798  1.00  0.00    -0.014 A 
ATOM     64  C   UNL A   1      45.459  28.693  35.713  1.00  0.00     0.010 A 
ATOM     65  C   UNL A   1      43.709  27.320  36.673  1.00  0.00     0.010 A 
ATOM     66  C   UNL A   1      46.414  28.002  36.467  1.00  0.00     0.020 A 
ATOM     67  C   UNL A   1      44.659  26.639  37.445  1.00  0.00     0.020 A 
ATOM     68  C   UNL A   1      46.008  26.977  37.328  1.00  0.00     0.054 A 
BRANCH  68  69
ATOM     69  S   UNL A   1      47.259  26.133  38.339  1.00  0.00     0.124 S 
ATOM     70  O   UNL A   1      47.607  27.163  39.314  1.00  0.00    -0.237 OA
ATOM     71  O   UNL A   1      46.526  24.986  38.873  1.00  0.00    -0.237 OA
ATOM     72  O   UNL A   1      48.311  25.800  37.382  1.00  0.00    -0.744 OA
ENDBRANCH  68  69
ENDBRANCH  49  63
BRANCH  50  73
ATOM     73  C   UNL A   1      36.689  32.945  30.906  1.00  0.00    -0.014 A 
ATOM     74  C   UNL A   1      35.386  32.822  31.417  1.00  0.00     0.010 A 
ATOM     75  C   UNL A   1      36.923  33.770  29.792  1.00  0.00     0.010 A 
ATOM     76  C   UNL A   1      34.333  33.525  30.830  1.00  0.00     0.020 A 
ATOM     77  C   UNL A   1      35.873  34.487  29.214  1.00  0.00     0.020 A 
ATOM     78  C   UNL A   1      34.584  34.358  29.736  1.00  0.00     0.054 A 
BRANCH  78  79
ATOM     79  S   UNL A   1      33.224  35.351  29.059  1.00  0.00     0.124 S 
ATOM     80  O   UNL A   1      32.525  35.769  30.269  1.00  0.00    -0.237 OA
ATOM     81  O   UNL A   1      33.929  36.409  28.338  1.00  0.00    -0.237 OA
ATOM     82  O   UNL A   1      32.504  34.405  28.210  1.00  0.00    -0.744 OA
ENDBRANCH  78  79
ENDBRANCH  50  73
BRANCH  62  83
ATOM     83  C   UNL A   1      39.869  34.087  36.994  1.00  0.00    -0.014 A 
ATOM     84  C   UNL A   1      39.187  33.784  38.186  1.00  0.00     0.010 A 
ATOM     85  C   UNL A   1      40.363  35.387  36.790  1.00  0.00     0.010 A 
ATOM     86  C   UNL A   1      38.961  34.780  39.139  1.00  0.00     0.020 A 
ATOM     87  C   UNL A   1      40.156  36.380  37.750  1.00  0.00     0.020 A 
ATOM     88  C   UNL A   1      39.437  36.074  38.909  1.00  0.00     0.054 A 
BRANCH  88  89
ATOM     89  S   UNL A   1      39.139  37.354  40.159  1.00  0.00     0.124 S 
ATOM     90  O   UNL A   1      38.416  36.609  41.186  1.00  0.00    -0.237 OA
ATOM     91  O   UNL A   1      40.490  37.775  40.523  1.00  0.00    -0.237 OA
ATOM     92  O   UNL A   1      38.352  38.356  39.444  1.00  0.00    -0.744 OA
ENDBRANCH  88  89
ENDBRANCH  62  83
ENDBRANCH  36  37
ENDBRANCH  29  31
ENDBRANCH  28  29
ENDBRANCH   1  28
TORSDOF 16
ENDMDL
MODEL 2
REMARK VINA RESULT:     -11.8      6.319     11.937
REMARK SMILES C[NH+]1CCN(C(=O)c2ccc3c(c2)N(CC(=O)OCCOC(=O)c2ccc(-c4c5nc(c(-c6ccc(S(=O)(=O)[O-])cc6)c6ccc([nH]6)c(-c6ccc(S(=O)(=O)[O-])cc6)c6nc(c(-c7ccc(S(=O)(=O)[O-])cc7)c7ccc4[nH]7)C=C6)C=C5)cc2)C(=O)CO3)CC1
REMARK SMILES IDX 20 1 19 2 18 3 16 4 17 5 15 6 14 7 8 8 9 9 13 10 10 11 12 12
REMARK SMILES IDX 11 13 87 14 84 15 86 16 85 17 6 18 1 19 2 20 3 21 89 22 4 24
REMARK SMILES IDX 88 25 5 26 7 27 21 28 22 29 23 30 24 31 25 32 83 33 26 34
REMARK SMILES IDX 82 35 27 36 28 37 29 38 76 39 30 40 81 41 75 42 77 43 31 44
REMARK SMILES IDX 80 45 74 46 73 47 32 49 62 50 43 51 61 52 44 53 47 54 60 55
REMARK SMILES IDX 78 56 45 57 46 58 59 60 79 61 48 62 33 63 34 64 42 65 35 66
REMARK SMILES IDX 41 67 36 68 37 69 38 70 39 71 40 72 63 73 64 74 72 75 65 76
REMARK SMILES IDX 71 77 66 78 67 79 68 80 69 81 70 82 49 83 50 84 58 85 51 86
REMARK SMILES IDX 57 87 52 88 53 89 54 90 55 91 56 92
REMARK H PARENT 2 23 77 48 47 59
REMARK Flexibility Score: inf
ROOT
ATOM      1  C   UNL A   1      34.824  30.996  28.337  1.00  0.00     0.275 C 
ENDROOT
BRANCH   1   2
ATOM      2  C   UNL A   1      34.824  29.695  27.518  1.00  0.00     0.274 C 
BRANCH   2   3
ATOM      3  O   UNL A   1      34.020  29.764  26.321  1.00  0.00    -0.461 OA
BRANCH   3   4
ATOM      4  C   UNL A   1      33.684  28.555  25.791  1.00  0.00     0.326 C 
ATOM      5  O   UNL A   1      33.656  27.510  26.438  1.00  0.00    -0.250 OA
BRANCH   4   6
ATOM      6  C   UNL A   1      33.172  28.615  24.353  1.00  0.00     0.248 C 
BRANCH   6   7
ATOM      7  N   UNL A   1      31.958  27.893  24.013  1.00  0.00    -0.295 N 
ATOM      8  C   UNL A   1      32.959  24.317  23.357  1.00  0.00     0.042 A 
ATOM      9  C   UNL A   1      31.707  23.714  23.230  1.00  0.00     0.018 A 
ATOM     10  C   UNL A   1      33.065  25.710  23.520  1.00  0.00     0.044 A 
ATOM     11  C   UNL A   1      30.563  24.504  23.306  1.00  0.00     0.049 A 
ATOM     12  C   UNL A   1      31.920  26.506  23.674  1.00  0.00     0.087 A 
ATOM     13  C   UNL A   1      30.668  25.881  23.528  1.00  0.00     0.143 A 
ATOM     14  O   UNL A   1      29.473  26.546  23.628  1.00  0.00    -0.482 OA
ATOM     15  C   UNL A   1      30.777  28.626  24.047  1.00  0.00     0.265 C 
ATOM     16  C   UNL A   1      29.602  27.934  23.380  1.00  0.00     0.330 C 
ATOM     17  O   UNL A   1      30.698  29.778  24.472  1.00  0.00    -0.270 OA
BRANCH   8  18
ATOM     18  C   UNL A   1      34.172  23.483  23.188  1.00  0.00     0.254 C 
ATOM     19  C   UNL A   1      38.461  23.646  26.433  1.00  0.00     0.332 C 
ATOM     20  N   UNL A   1      37.182  22.989  26.133  1.00  0.00    -0.334 N 
ATOM     21  C   UNL A   1      37.241  22.380  24.784  1.00  0.00     0.283 C 
ATOM     22  C   UNL A   1      36.075  23.961  26.275  1.00  0.00     0.283 C 
ATOM     23  H   UNL A   1      37.003  22.234  26.796  1.00  0.00     0.347 HD
ATOM     24  C   UNL A   1      35.882  21.988  24.169  1.00  0.00     0.181 C 
ATOM     25  C   UNL A   1      34.719  23.524  25.675  1.00  0.00     0.181 C 
ATOM     26  N   UNL A   1      34.873  23.038  24.305  1.00  0.00    -0.327 N 
ATOM     27  O   UNL A   1      34.471  23.183  22.035  1.00  0.00    -0.269 OA
ENDBRANCH   8  18
ENDBRANCH   6   7
ENDBRANCH   4   6
ENDBRANCH   3   4
ENDBRANCH   2   3
ENDBRANCH   1   2
BRANCH   1  28
ATOM     28  O   UNL A   1      36.139  31.385  28.786  1.00  0.00    -0.458 OA
BRANCH  28  29
ATOM     29  C   UNL A   1      36.578  30.601  29.794  1.00  0.00     0.338 C 
ATOM     30  O   UNL A   1      35.926  30.302  30.783  1.00  0.00    -0.246 OA
BRANCH  29  31
ATOM     31  C   UNL A   1      37.951  30.101  29.637  1.00  0.00     0.060 A 
ATOM     32  C   UNL A   1      38.853  30.031  30.695  1.00  0.00     0.016 A 
ATOM     33  C   UNL A   1      38.405  29.955  28.328  1.00  0.00     0.016 A 
ATOM     34  C   UNL A   1      40.219  29.878  30.420  1.00  0.00     0.010 A 
ATOM     35  C   UNL A   1      39.752  29.751  28.052  1.00  0.00     0.010 A 
ATOM     36  C   UNL A   1      40.676  29.721  29.096  1.00  0.00    -0.014 A 
BRANCH  36  37
ATOM     37  C   UNL A   1      42.062  29.289  28.790  1.00  0.00     0.031 A 
ATOM     38  C   UNL A   1      43.217  30.248  28.690  1.00  0.00     0.074 A 
ATOM     39  C   UNL A   1      42.213  28.004  28.413  1.00  0.00     0.049 A 
ATOM     40  N   UNL A   1      44.453  30.010  28.324  1.00  0.00    -0.248 NA
ATOM     41  C   UNL A   1      42.952  31.657  29.008  1.00  0.00     0.031 C 
ATOM     42  C   UNL A   1      41.131  27.016  28.350  1.00  0.00     0.029 A 
ATOM     43  N   UNL A   1      43.316  27.319  27.982  1.00  0.00    -0.354 N 
ATOM     44  C   UNL A   1      45.105  31.240  28.340  1.00  0.00     0.074 A 
ATOM     45  C   UNL A   1      44.123  32.226  28.738  1.00  0.00     0.031 C 
ATOM     46  C   UNL A   1      41.626  25.848  27.925  1.00  0.00     0.029 A 
ATOM     47  C   UNL A   1      43.048  26.013  27.656  1.00  0.00     0.049 A 
ATOM     48  H   UNL A   1      44.211  27.722  27.913  1.00  0.00     0.167 HD
ATOM     49  C   UNL A   1      46.403  31.513  28.051  1.00  0.00     0.031 A 
ATOM     50  C   UNL A   1      43.852  25.044  27.187  1.00  0.00     0.031 A 
ATOM     51  C   UNL A   1      47.371  30.512  27.669  1.00  0.00     0.049 A 
ATOM     52  C   UNL A   1      45.298  25.346  26.975  1.00  0.00     0.074 A 
ATOM     53  C   UNL A   1      48.732  30.662  27.458  1.00  0.00     0.029 A 
ATOM     54  N   UNL A   1      47.080  29.175  27.439  1.00  0.00    -0.354 N 
ATOM     55  N   UNL A   1      45.919  26.493  27.093  1.00  0.00    -0.248 NA
ATOM     56  C   UNL A   1      46.156  24.219  26.591  1.00  0.00     0.031 C 
ATOM     57  C   UNL A   1      49.257  29.424  27.068  1.00  0.00     0.029 A 
ATOM     58  C   UNL A   1      48.231  28.494  27.076  1.00  0.00     0.049 A 
ATOM     59  H   UNL A   1      46.187  28.770  27.521  1.00  0.00     0.167 HD
ATOM     60  C   UNL A   1      47.250  26.229  26.807  1.00  0.00     0.074 A 
ATOM     61  C   UNL A   1      47.342  24.808  26.528  1.00  0.00     0.031 C 
ATOM     62  C   UNL A   1      48.299  27.085  26.779  1.00  0.00     0.031 A 
BRANCH  49  63
ATOM     63  C   UNL A   1      46.874  32.946  28.138  1.00  0.00    -0.014 A 
ATOM     64  C   UNL A   1      47.412  33.463  29.330  1.00  0.00     0.010 A 
ATOM     65  C   UNL A   1      46.873  33.757  26.987  1.00  0.00     0.010 A 
ATOM     66  C   UNL A   1      47.918  34.767  29.376  1.00  0.00     0.020 A 
ATOM     67  C   UNL A   1      47.396  35.056  27.023  1.00  0.00     0.020 A 
ATOM     68  C   UNL A   1      47.906  35.557  28.223  1.00  0.00     0.054 A 
BRANCH  68  69
ATOM     69  S   UNL A   1      48.619  37.226  28.292  1.00  0.00     0.124 S 
ATOM     70  O   UNL A   1      48.873  37.388  29.721  1.00  0.00    -0.237 OA
ATOM     71  O   UNL A   1      49.811  37.106  27.454  1.00  0.00    -0.237 OA
ATOM     72  O   UNL A   1      47.565  38.077  27.746  1.00  0.00    -0.744 OA
ENDBRANCH  68  69
ENDBRANCH  49  63
BRANCH  50  73
ATOM     73  C   UNL A   1      43.281  23.694  26.966  1.00  0.00    -0.014 A 
ATOM     74  C   UNL A   1      42.985  23.271  25.659  1.00  0.00     0.010 A 
ATOM     75  C   UNL A   1      43.158  22.788  28.034  1.00  0.00     0.010 A 
ATOM     76  C   UNL A   1      42.584  21.955  25.422  1.00  0.00     0.020 A 
ATOM     77  C   UNL A   1      42.774  21.467  27.795  1.00  0.00     0.020 A 
ATOM     78  C   UNL A   1      42.488  21.059  26.490  1.00  0.00     0.054 A 
BRANCH  78  79
ATOM     79  S   UNL A   1      42.079  19.325  26.147  1.00  0.00     0.124 S 
ATOM     80  O   UNL A   1      42.471  18.672  27.391  1.00  0.00    -0.237 OA
ATOM     81  O   UNL A   1      40.641  19.380  25.887  1.00  0.00    -0.237 OA
ATOM     82  O   UNL A   1      42.901  19.007  24.982  1.00  0.00    -0.744 OA
ENDBRANCH  78  79
ENDBRANCH  50  73
BRANCH  62  83
ATOM     83  C   UNL A   1      49.635  26.492  26.439  1.00  0.00    -0.014 A 
ATOM     84  C   UNL A   1      50.426  25.885  27.431  1.00  0.00     0.010 A 
ATOM     85  C   UNL A   1      50.105  26.548  25.116  1.00  0.00     0.010 A 
ATOM     86  C   UNL A   1      51.690  25.384  27.113  1.00  0.00     0.020 A 
ATOM     87  C   UNL A   1      51.362  26.031  24.791  1.00  0.00     0.020 A 
ATOM     88  C   UNL A   1      52.154  25.471  25.797  1.00  0.00     0.054 A 
BRANCH  88  89
ATOM     89  S   UNL A   1      53.797  24.813  25.400  1.00  0.00     0.124 S 
ATOM     90  O   UNL A   1      54.188  25.642  24.264  1.00  0.00    -0.237 OA
ATOM     91  O   UNL A   1      54.547  25.045  26.633  1.00  0.00    -0.237 OA
ATOM     92  O   UNL A   1      53.540  23.408  25.090  1.00  0.00    -0.744 OA
ENDBRANCH  88  89
ENDBRANCH  62  83
ENDBRANCH  36  37
ENDBRANCH  29  31
ENDBRANCH  28  29
ENDBRANCH   1  28
TORSDOF 16
ENDMDL
MODEL 3
REMARK VINA RESULT:     -11.7      3.411      4.252
REMARK SMILES C[NH+]1CCN(C(=O)c2ccc3c(c2)N(CC(=O)OCCOC(=O)c2ccc(-c4c5nc(c(-c6ccc(S(=O)(=O)[O-])cc6)c6ccc([nH]6)c(-c6ccc(S(=O)(=O)[O-])cc6)c6nc(c(-c7ccc(S(=O)(=O)[O-])cc7)c7ccc4[nH]7)C=C6)C=C5)cc2)C(=O)CO3)CC1
REMARK SMILES IDX 20 1 19 2 18 3 16 4 17 5 15 6 14 7 8 8 9 9 13 10 10 11 12 12
REMARK SMILES IDX 11 13 87 14 84 15 86 16 85 17 6 18 1 19 2 20 3 21 89 22 4 24
REMARK SMILES IDX 88 25 5 26 7 27 21 28 22 29 23 30 24 31 25 32 83 33 26 34
REMARK SMILES IDX 82 35 27 36 28 37 29 38 76 39 30 40 81 41 75 42 77 43 31 44
REMARK SMILES IDX 80 45 74 46 73 47 32 49 62 50 43 51 61 52 44 53 47 54 60 55
REMARK SMILES IDX 78 56 45 57 46 58 59 60 79 61 48 62 33 63 34 64 42 65 35 66
REMARK SMILES IDX 41 67 36 68 37 69 38 70 39 71 40 72 63 73 64 74 72 75 65 76
REMARK SMILES IDX 71 77 66 78 67 79 68 80 69 81 70 82 49 83 50 84 58 85 51 86
REMARK SMILES IDX 57 87 52 88 53 89 54 90 55 91 56 92
REMARK H PARENT 2 23 77 48 47 59
REMARK Flexibility Score: inf
ROOT
ATOM      1  C   UNL A   1      36.631  23.780  26.104  1.00  0.00     0.275 C 
ENDROOT
BRANCH   1   2
ATOM      2  C   UNL A   1      35.429  22.834  26.259  1.00  0.00     0.274 C 
BRANCH   2   3
ATOM      3  O   UNL A   1      34.207  23.507  26.631  1.00  0.00    -0.461 OA
BRANCH   3   4
ATOM      4  C   UNL A   1      33.240  22.691  27.137  1.00  0.00     0.326 C 
ATOM      5  O   UNL A   1      33.251  22.251  28.285  1.00  0.00    -0.250 OA
BRANCH   4   6
ATOM      6  C   UNL A   1      32.035  22.496  26.220  1.00  0.00     0.248 C 
BRANCH   6   7
ATOM      7  N   UNL A   1      32.230  22.574  24.782  1.00  0.00    -0.295 N 
ATOM      8  C   UNL A   1      31.708  26.179  23.802  1.00  0.00     0.042 A 
ATOM      9  C   UNL A   1      32.100  26.145  22.464  1.00  0.00     0.018 A 
ATOM     10  C   UNL A   1      31.652  24.993  24.557  1.00  0.00     0.044 A 
ATOM     11  C   UNL A   1      32.473  24.929  21.896  1.00  0.00     0.049 A 
ATOM     12  C   UNL A   1      32.098  23.776  24.021  1.00  0.00     0.087 A 
ATOM     13  C   UNL A   1      32.474  23.761  22.666  1.00  0.00     0.143 A 
ATOM     14  O   UNL A   1      32.903  22.634  22.011  1.00  0.00    -0.482 OA
ATOM     15  C   UNL A   1      32.584  21.391  24.145  1.00  0.00     0.265 C 
ATOM     16  C   UNL A   1      32.458  21.444  22.633  1.00  0.00     0.330 C 
ATOM     17  O   UNL A   1      32.865  20.351  24.739  1.00  0.00    -0.270 OA
BRANCH   8  18
ATOM     18  C   UNL A   1      31.230  27.460  24.374  1.00  0.00     0.254 C 
ATOM     19  C   UNL A   1      34.048  30.518  27.788  1.00  0.00     0.332 C 
ATOM     20  N   UNL A   1      33.691  30.265  26.385  1.00  0.00    -0.334 N 
ATOM     21  C   UNL A   1      32.229  30.429  26.208  1.00  0.00     0.283 C 
ATOM     22  C   UNL A   1      34.171  28.925  25.981  1.00  0.00     0.283 C 
ATOM     23  H   UNL A   1      34.146  30.943  25.773  1.00  0.00     0.347 HD
ATOM     24  C   UNL A   1      31.645  29.839  24.909  1.00  0.00     0.181 C 
ATOM     25  C   UNL A   1      33.589  28.377  24.657  1.00  0.00     0.181 C 
ATOM     26  N   UNL A   1      32.132  28.489  24.628  1.00  0.00    -0.327 N 
ATOM     27  O   UNL A   1      30.018  27.559  24.550  1.00  0.00    -0.269 OA
ENDBRANCH   8  18
ENDBRANCH   6   7
ENDBRANCH   4   6
ENDBRANCH   3   4
ENDBRANCH   2   3
ENDBRANCH   1   2
BRANCH   1  28
ATOM     28  O   UNL A   1      37.721  23.196  25.362  1.00  0.00    -0.458 OA
BRANCH  28  29
ATOM     29  C   UNL A   1      38.775  22.913  26.157  1.00  0.00     0.338 C 
ATOM     30  O   UNL A   1      39.274  21.805  26.292  1.00  0.00    -0.246 OA
BRANCH  29  31
ATOM     31  C   UNL A   1      39.321  24.062  26.895  1.00  0.00     0.060 A 
ATOM     32  C   UNL A   1      38.978  24.341  28.215  1.00  0.00     0.016 A 
ATOM     33  C   UNL A   1      39.987  25.019  26.134  1.00  0.00     0.016 A 
ATOM     34  C   UNL A   1      39.252  25.613  28.738  1.00  0.00     0.010 A 
ATOM     35  C   UNL A   1      40.309  26.263  26.663  1.00  0.00     0.010 A 
ATOM     36  C   UNL A   1      39.934  26.578  27.970  1.00  0.00    -0.014 A 
BRANCH  36  37
ATOM     37  C   UNL A   1      40.478  27.820  28.572  1.00  0.00     0.031 A 
ATOM     38  C   UNL A   1      41.846  27.898  29.195  1.00  0.00     0.074 A 
ATOM     39  C   UNL A   1      39.611  28.842  28.710  1.00  0.00     0.049 A 
ATOM     40  N   UNL A   1      42.394  28.893  29.850  1.00  0.00    -0.248 NA
ATOM     41  C   UNL A   1      42.697  26.704  29.105  1.00  0.00     0.031 C 
ATOM     42  C   UNL A   1      38.217  28.826  28.254  1.00  0.00     0.029 A 
ATOM     43  N   UNL A   1      39.756  30.070  29.295  1.00  0.00    -0.354 N 
ATOM     44  C   UNL A   1      43.641  28.437  30.272  1.00  0.00     0.074 A 
ATOM     45  C   UNL A   1      43.761  27.070  29.813  1.00  0.00     0.031 C 
ATOM     46  C   UNL A   1      37.641  29.993  28.560  1.00  0.00     0.029 A 
ATOM     47  C   UNL A   1      38.611  30.825  29.259  1.00  0.00     0.049 A 
ATOM     48  H   UNL A   1      40.597  30.380  29.702  1.00  0.00     0.167 HD
ATOM     49  C   UNL A   1      44.591  29.105  30.975  1.00  0.00     0.031 A 
ATOM     50  C   UNL A   1      38.356  32.055  29.736  1.00  0.00     0.031 A 
ATOM     51  C   UNL A   1      44.456  30.474  31.412  1.00  0.00     0.049 A 
ATOM     52  C   UNL A   1      39.453  32.806  30.416  1.00  0.00     0.074 A 
ATOM     53  C   UNL A   1      45.397  31.279  32.037  1.00  0.00     0.029 A 
ATOM     54  N   UNL A   1      43.309  31.242  31.274  1.00  0.00    -0.354 N 
ATOM     55  N   UNL A   1      40.660  32.395  30.718  1.00  0.00    -0.248 NA
ATOM     56  C   UNL A   1      39.162  34.192  30.798  1.00  0.00     0.031 C 
ATOM     57  C   UNL A   1      44.807  32.520  32.304  1.00  0.00     0.029 A 
ATOM     58  C   UNL A   1      43.512  32.503  31.810  1.00  0.00     0.049 A 
ATOM     59  H   UNL A   1      42.473  30.936  30.854  1.00  0.00     0.167 HD
ATOM     60  C   UNL A   1      41.283  33.478  31.319  1.00  0.00     0.074 A 
ATOM     61  C   UNL A   1      40.322  34.565  31.321  1.00  0.00     0.031 C 
ATOM     62  C   UNL A   1      42.538  33.564  31.823  1.00  0.00     0.031 A 
BRANCH  49  63
ATOM     63  C   UNL A   1      45.871  28.381  31.320  1.00  0.00    -0.014 A 
ATOM     64  C   UNL A   1      46.991  28.439  30.470  1.00  0.00     0.010 A 
ATOM     65  C   UNL A   1      45.994  27.719  32.557  1.00  0.00     0.010 A 
ATOM     66  C   UNL A   1      48.197  27.832  30.838  1.00  0.00     0.020 A 
ATOM     67  C   UNL A   1      47.205  27.127  32.938  1.00  0.00     0.020 A 
ATOM     68  C   UNL A   1      48.296  27.177  32.069  1.00  0.00     0.054 A 
BRANCH  68  69
ATOM     69  S   UNL A   1      49.888  26.445  32.549  1.00  0.00     0.124 S 
ATOM     70  O   UNL A   1      50.596  27.596  33.103  1.00  0.00    -0.237 OA
ATOM     71  O   UNL A   1      49.497  25.424  33.519  1.00  0.00    -0.237 OA
ATOM     72  O   UNL A   1      50.425  25.929  31.293  1.00  0.00    -0.744 OA
ENDBRANCH  68  69
ENDBRANCH  49  63
BRANCH  50  73
ATOM     73  C   UNL A   1      37.016  32.642  29.504  1.00  0.00    -0.014 A 
ATOM     74  C   UNL A   1      36.079  32.670  30.551  1.00  0.00     0.010 A 
ATOM     75  C   UNL A   1      36.720  33.289  28.291  1.00  0.00     0.010 A 
ATOM     76  C   UNL A   1      34.869  33.347  30.393  1.00  0.00     0.020 A 
ATOM     77  C   UNL A   1      35.517  33.981  28.137  1.00  0.00     0.020 A 
ATOM     78  C   UNL A   1      34.598  34.004  29.190  1.00  0.00     0.054 A 
BRANCH  78  79
ATOM     79  S   UNL A   1      33.072  34.974  29.044  1.00  0.00     0.124 S 
ATOM     80  O   UNL A   1      32.322  34.209  28.054  1.00  0.00    -0.237 OA
ATOM     81  O   UNL A   1      32.540  34.943  30.405  1.00  0.00    -0.237 OA
ATOM     82  O   UNL A   1      33.545  36.284  28.601  1.00  0.00    -0.744 OA
ENDBRANCH  78  79
ENDBRANCH  50  73
BRANCH  62  83
ATOM     83  C   UNL A   1      42.931  34.887  32.411  1.00  0.00    -0.014 A 
ATOM     84  C   UNL A   1      42.728  35.157  33.776  1.00  0.00     0.010 A 
ATOM     85  C   UNL A   1      43.500  35.873  31.587  1.00  0.00     0.010 A 
ATOM     86  C   UNL A   1      43.048  36.412  34.300  1.00  0.00     0.020 A 
ATOM     87  C   UNL A   1      43.839  37.123  32.112  1.00  0.00     0.020 A 
ATOM     88  C   UNL A   1      43.591  37.390  33.461  1.00  0.00     0.054 A 
BRANCH  88  89
ATOM     89  S   UNL A   1      44.003  39.013  34.158  1.00  0.00     0.124 S 
ATOM     90  O   UNL A   1      42.902  39.839  33.671  1.00  0.00    -0.237 OA
ATOM     91  O   UNL A   1      44.007  38.757  35.597  1.00  0.00    -0.237 OA
ATOM     92  O   UNL A   1      45.312  39.313  33.582  1.00  0.00    -0.744 OA
ENDBRANCH  88  89
ENDBRANCH  62  83
ENDBRANCH  36  37
ENDBRANCH  29  31
ENDBRANCH  28  29
ENDBRANCH   1  28
TORSDOF 16
ENDMDL
