MODEL 1
REMARK VINA RESULT:     -13.7      0.000      0.000
REMARK SMILES Cc1ccc(-c2csc(NC(=O)[C@H]3[C@@H](C(=O)OCCOC(=O)c4ccc(-c5c6nc(c(-c7ccc(S(=O)(=O)[O-])cc7)c7ccc([nH]7)c(-c7ccc(S(=O)(=O)[O-])cc7)c7nc(c(-c8ccc(S(=O)(=O)[O-])cc8)c8ccc5[nH]8)C=C7)C=C6)cc4)[C@H]4C=C[C@@H]3C4)c2C(=O)NC2CC2)cc1
REMARK SMILES IDX 18 1 17 2 15 3 16 4 14 5 13 6 86 7 83 8 85 9 87 10 84 11
REMARK SMILES IDX 11 12 10 13 12 15 9 16 6 17 7 18 88 19 8 20 5 21 1 22 2 23
REMARK SMILES IDX 3 24 96 25 4 26 95 27 89 28 90 29 91 30 92 32 93 33 94 34
REMARK SMILES IDX 19 35 20 36 21 37 22 38 23 39 24 40 82 41 25 42 81 43 26 44
REMARK SMILES IDX 27 45 28 46 75 47 29 48 80 49 74 50 76 51 30 52 79 53 73 54
REMARK SMILES IDX 72 55 31 57 61 58 42 59 60 60 43 61 46 62 59 63 77 64 44 65
REMARK SMILES IDX 45 66 58 68 78 69 47 70 32 71 33 72 41 73 34 74 40 75 35 76
REMARK SMILES IDX 36 77 37 78 38 79 39 80 62 81 63 82 71 83 64 84 70 85 65 86
REMARK SMILES IDX 66 87 67 88 68 89 69 90 48 91 49 92 57 93 50 94 56 95 51 96
REMARK SMILES IDX 52 97 53 98 54 99 55 100
REMARK H PARENT 10 14 91 31 76 56 46 67
REMARK Flexibility Score: inf
ROOT
ATOM      1  C   UNL A   1      32.876  30.626  27.247  1.00  0.00     0.274 C 
ENDROOT
BRANCH   1   2
ATOM      2  O   UNL A   1      32.769  29.778  26.075  1.00  0.00    -0.462 OA
BRANCH   2   3
ATOM      3  C   UNL A   1      32.145  28.600  26.293  1.00  0.00     0.310 C 
ATOM      4  O   UNL A   1      32.174  28.026  27.384  1.00  0.00    -0.252 OA
BRANCH   3   5
ATOM      5  C   UNL A   1      31.261  28.082  25.169  1.00  0.00     0.119 C 
ATOM      6  C   UNL A   1      31.608  26.734  24.428  1.00  0.00     0.100 C 
ATOM      7  C   UNL A   1      30.822  26.944  23.102  1.00  0.00     0.025 C 
ATOM      8  C   UNL A   1      30.631  28.970  24.053  1.00  0.00     0.027 C 
ATOM      9  C   UNL A   1      31.554  27.888  22.213  1.00  0.00    -0.027 C 
ATOM     10  C   UNL A   1      29.676  27.902  23.502  1.00  0.00     0.017 C 
ATOM     11  C   UNL A   1      31.417  29.095  22.766  1.00  0.00    -0.027 C 
BRANCH   6  12
ATOM     12  C   UNL A   1      33.120  26.428  24.466  1.00  0.00     0.229 C 
ATOM     13  N   UNL A   1      33.689  25.199  24.380  1.00  0.00    -0.317 N 
ATOM     14  H   UNL A   1      34.611  25.208  24.034  1.00  0.00     0.170 HD
ATOM     15  O   UNL A   1      33.895  27.378  24.642  1.00  0.00    -0.274 OA
BRANCH  13  16
ATOM     16  C   UNL A   1      33.220  23.939  24.688  1.00  0.00     0.108 A 
ATOM     17  C   UNL A   1      32.742  21.666  24.629  1.00  0.00     0.007 A 
ATOM     18  C   UNL A   1      31.737  22.185  25.430  1.00  0.00     0.076 A 
ATOM     19  C   UNL A   1      33.710  22.703  24.253  1.00  0.00     0.082 A 
ATOM     20  S   UNL A   1      32.115  23.747  25.960  1.00  0.00    -0.125 S 
BRANCH  17  21
ATOM     21  C   UNL A   1      32.743  20.209  24.544  1.00  0.00    -0.017 A 
ATOM     22  C   UNL A   1      33.082  15.921  24.547  1.00  0.00     0.044 C 
ATOM     23  C   UNL A   1      32.796  17.394  24.554  1.00  0.00    -0.051 A 
ATOM     24  C   UNL A   1      32.911  18.099  25.753  1.00  0.00     0.004 A 
ATOM     25  C   UNL A   1      32.557  18.102  23.364  1.00  0.00     0.004 A 
ATOM     26  C   UNL A   1      32.859  19.491  25.747  1.00  0.00     0.009 A 
ATOM     27  C   UNL A   1      32.528  19.509  23.357  1.00  0.00     0.009 A 
ENDBRANCH  17  21
BRANCH  19  28
ATOM     28  C   UNL A   1      35.019  22.664  23.564  1.00  0.00     0.255 C 
ATOM     29  O   UNL A   1      35.162  23.120  22.427  1.00  0.00    -0.269 OA
ATOM     30  N   UNL A   1      36.115  22.180  24.245  1.00  0.00    -0.349 N 
ATOM     31  H   UNL A   1      36.194  21.213  24.408  1.00  0.00     0.164 HD
BRANCH  30  32
ATOM     32  C   UNL A   1      37.147  23.071  24.722  1.00  0.00     0.082 C 
ATOM     33  C   UNL A   1      37.152  23.613  26.124  1.00  0.00     0.027 C 
ATOM     34  C   UNL A   1      38.103  22.518  25.738  1.00  0.00     0.027 C 
ENDBRANCH  30  32
ENDBRANCH  19  28
ENDBRANCH  13  16
ENDBRANCH   6  12
ENDBRANCH   3   5
ENDBRANCH   2   3
ENDBRANCH   1   2
BRANCH   1  35
ATOM     35  C   UNL A   1      34.281  31.228  27.488  1.00  0.00     0.275 C 
BRANCH  35  36
ATOM     36  O   UNL A   1      35.312  30.278  27.823  1.00  0.00    -0.458 OA
BRANCH  36  37
ATOM     37  C   UNL A   1      36.552  30.825  27.998  1.00  0.00     0.338 C 
ATOM     38  O   UNL A   1      36.775  31.968  28.316  1.00  0.00    -0.246 OA
BRANCH  37  39
ATOM     39  C   UNL A   1      37.485  29.677  28.012  1.00  0.00     0.060 A 
ATOM     40  C   UNL A   1      38.504  29.671  27.059  1.00  0.00     0.016 A 
ATOM     41  C   UNL A   1      37.574  28.920  29.189  1.00  0.00     0.016 A 
ATOM     42  C   UNL A   1      39.697  29.046  27.375  1.00  0.00     0.010 A 
ATOM     43  C   UNL A   1      38.784  28.368  29.526  1.00  0.00     0.010 A 
ATOM     44  C   UNL A   1      39.848  28.467  28.627  1.00  0.00    -0.014 A 
BRANCH  44  45
ATOM     45  C   UNL A   1      41.002  27.658  28.933  1.00  0.00     0.031 A 
ATOM     46  C   UNL A   1      41.082  26.228  28.579  1.00  0.00     0.074 A 
ATOM     47  C   UNL A   1      41.969  28.415  29.490  1.00  0.00     0.049 A 
ATOM     48  N   UNL A   1      41.907  25.406  29.128  1.00  0.00    -0.248 NA
ATOM     49  C   UNL A   1      40.179  25.558  27.635  1.00  0.00     0.031 C 
ATOM     50  C   UNL A   1      43.383  28.166  29.645  1.00  0.00     0.029 A 
ATOM     51  N   UNL A   1      41.742  29.591  30.232  1.00  0.00    -0.354 N 
ATOM     52  C   UNL A   1      41.929  24.270  28.342  1.00  0.00     0.074 A 
ATOM     53  C   UNL A   1      40.724  24.335  27.554  1.00  0.00     0.031 C 
ATOM     54  C   UNL A   1      43.831  28.952  30.646  1.00  0.00     0.029 A 
ATOM     55  C   UNL A   1      42.663  29.572  31.273  1.00  0.00     0.049 A 
ATOM     56  H   UNL A   1      41.069  30.286  30.049  1.00  0.00     0.167 HD
ATOM     57  C   UNL A   1      43.080  23.541  28.288  1.00  0.00     0.031 A 
ATOM     58  C   UNL A   1      42.245  29.387  32.564  1.00  0.00     0.031 A 
ATOM     59  C   UNL A   1      44.066  24.096  29.214  1.00  0.00     0.049 A 
ATOM     60  C   UNL A   1      42.785  28.089  33.118  1.00  0.00     0.074 A 
ATOM     61  C   UNL A   1      45.129  24.963  29.030  1.00  0.00     0.029 A 
ATOM     62  N   UNL A   1      43.796  24.082  30.570  1.00  0.00    -0.354 N 
ATOM     63  N   UNL A   1      43.173  27.087  32.378  1.00  0.00    -0.248 NA
ATOM     64  C   UNL A   1      42.905  27.809  34.546  1.00  0.00     0.031 C 
ATOM     65  C   UNL A   1      45.469  25.509  30.298  1.00  0.00     0.029 A 
ATOM     66  C   UNL A   1      44.615  24.967  31.241  1.00  0.00     0.049 A 
ATOM     67  H   UNL A   1      43.113  23.518  31.000  1.00  0.00     0.167 HD
ATOM     68  C   UNL A   1      43.755  26.144  33.172  1.00  0.00     0.074 A 
ATOM     69  C   UNL A   1      43.475  26.591  34.526  1.00  0.00     0.031 C 
ATOM     70  C   UNL A   1      44.473  25.098  32.676  1.00  0.00     0.031 A 
BRANCH  57  71
ATOM     71  C   UNL A   1      43.467  22.578  27.182  1.00  0.00    -0.014 A 
ATOM     72  C   UNL A   1      42.667  21.428  26.990  1.00  0.00     0.010 A 
ATOM     73  C   UNL A   1      44.601  22.685  26.356  1.00  0.00     0.010 A 
ATOM     74  C   UNL A   1      43.024  20.397  26.114  1.00  0.00     0.020 A 
ATOM     75  C   UNL A   1      44.975  21.653  25.472  1.00  0.00     0.020 A 
ATOM     76  C   UNL A   1      44.194  20.503  25.374  1.00  0.00     0.054 A 
BRANCH  76  77
ATOM     77  S   UNL A   1      44.662  19.124  24.294  1.00  0.00     0.124 S 
ATOM     78  O   UNL A   1      43.669  18.109  24.637  1.00  0.00    -0.237 OA
ATOM     79  O   UNL A   1      44.530  19.707  22.961  1.00  0.00    -0.237 OA
ATOM     80  O   UNL A   1      46.030  18.813  24.702  1.00  0.00    -0.744 OA
ENDBRANCH  76  77
ENDBRANCH  57  71
BRANCH  58  81
ATOM     81  C   UNL A   1      40.907  29.964  32.919  1.00  0.00    -0.014 A 
ATOM     82  C   UNL A   1      40.677  31.336  32.671  1.00  0.00     0.010 A 
ATOM     83  C   UNL A   1      39.795  29.144  33.181  1.00  0.00     0.010 A 
ATOM     84  C   UNL A   1      39.376  31.847  32.558  1.00  0.00     0.020 A 
ATOM     85  C   UNL A   1      38.487  29.657  33.082  1.00  0.00     0.020 A 
ATOM     86  C   UNL A   1      38.285  30.994  32.727  1.00  0.00     0.054 A 
BRANCH  86  87
ATOM     87  S   UNL A   1      36.640  31.576  32.194  1.00  0.00     0.124 S 
ATOM     88  O   UNL A   1      36.935  32.700  31.308  1.00  0.00    -0.237 OA
ATOM     89  O   UNL A   1      36.100  30.389  31.539  1.00  0.00    -0.237 OA
ATOM     90  O   UNL A   1      35.996  31.955  33.447  1.00  0.00    -0.744 OA
ENDBRANCH  86  87
ENDBRANCH  58  81
BRANCH  70  91
ATOM     91  C   UNL A   1      45.159  24.087  33.536  1.00  0.00    -0.014 A 
ATOM     92  C   UNL A   1      46.454  24.276  34.035  1.00  0.00     0.010 A 
ATOM     93  C   UNL A   1      44.534  22.843  33.764  1.00  0.00     0.010 A 
ATOM     94  C   UNL A   1      47.060  23.295  34.824  1.00  0.00     0.020 A 
ATOM     95  C   UNL A   1      45.141  21.847  34.523  1.00  0.00     0.020 A 
ATOM     96  C   UNL A   1      46.388  22.096  35.078  1.00  0.00     0.054 A 
BRANCH  96  97
ATOM     97  S   UNL A   1      47.175  20.850  36.121  1.00  0.00     0.124 S 
ATOM     98  O   UNL A   1      48.466  21.460  36.430  1.00  0.00    -0.237 OA
ATOM     99  O   UNL A   1      46.237  20.766  37.238  1.00  0.00    -0.237 OA
ATOM    100  O   UNL A   1      47.237  19.668  35.265  1.00  0.00    -0.744 OA
ENDBRANCH  96  97
ENDBRANCH  70  91
ENDBRANCH  44  45
ENDBRANCH  37  39
ENDBRANCH  36  37
ENDBRANCH  35  36
ENDBRANCH   1  35
TORSDOF 19
ENDMDL
MODEL 2
REMARK VINA RESULT:     -13.3      4.289     11.115
REMARK SMILES Cc1ccc(-c2csc(NC(=O)[C@H]3[C@@H](C(=O)OCCOC(=O)c4ccc(-c5c6nc(c(-c7ccc(S(=O)(=O)[O-])cc7)c7ccc([nH]7)c(-c7ccc(S(=O)(=O)[O-])cc7)c7nc(c(-c8ccc(S(=O)(=O)[O-])cc8)c8ccc5[nH]8)C=C7)C=C6)cc4)[C@H]4C=C[C@@H]3C4)c2C(=O)NC2CC2)cc1
REMARK SMILES IDX 18 1 17 2 15 3 16 4 14 5 13 6 86 7 83 8 85 9 87 10 84 11
REMARK SMILES IDX 11 12 10 13 12 15 9 16 6 17 7 18 88 19 8 20 5 21 1 22 2 23
REMARK SMILES IDX 3 24 96 25 4 26 95 27 89 28 90 29 91 30 92 32 93 33 94 34
REMARK SMILES IDX 19 35 20 36 21 37 22 38 23 39 24 40 82 41 25 42 81 43 26 44
REMARK SMILES IDX 27 45 28 46 75 47 29 48 80 49 74 50 76 51 30 52 79 53 73 54
REMARK SMILES IDX 72 55 31 57 61 58 42 59 60 60 43 61 46 62 59 63 77 64 44 65
REMARK SMILES IDX 45 66 58 68 78 69 47 70 32 71 33 72 41 73 34 74 40 75 35 76
REMARK SMILES IDX 36 77 37 78 38 79 39 80 62 81 63 82 71 83 64 84 70 85 65 86
REMARK SMILES IDX 66 87 67 88 68 89 69 90 48 91 49 92 57 93 50 94 56 95 51 96
REMARK SMILES IDX 52 97 53 98 54 99 55 100
REMARK H PARENT 10 14 91 31 76 56 46 67
REMARK Flexibility Score: inf
ROOT
ATOM      1  C   UNL A   1      36.186  23.734  25.277  1.00  0.00     0.274 C 
ENDROOT
BRANCH   1   2
ATOM      2  O   UNL A   1      35.773  23.497  23.907  1.00  0.00    -0.462 OA
BRANCH   2   3
ATOM      3  C   UNL A   1      34.448  23.645  23.690  1.00  0.00     0.310 C 
ATOM      4  O   UNL A   1      33.965  24.671  23.205  1.00  0.00    -0.252 OA
BRANCH   3   5
ATOM      5  C   UNL A   1      33.581  22.417  23.924  1.00  0.00     0.119 C 
ATOM      6  C   UNL A   1      32.295  22.501  24.834  1.00  0.00     0.100 C 
ATOM      7  C   UNL A   1      32.127  21.000  25.202  1.00  0.00     0.025 C 
ATOM      8  C   UNL A   1      34.127  20.980  24.180  1.00  0.00     0.027 C 
ATOM      9  C   UNL A   1      33.119  20.609  26.243  1.00  0.00    -0.027 C 
ATOM     10  C   UNL A   1      32.784  20.254  24.017  1.00  0.00     0.017 C 
ATOM     11  C   UNL A   1      34.302  20.572  25.627  1.00  0.00    -0.027 C 
BRANCH   6  12
ATOM     12  C   UNL A   1      32.412  23.615  25.895  1.00  0.00     0.229 C 
ATOM     13  N   UNL A   1      31.664  24.746  25.953  1.00  0.00    -0.317 N 
ATOM     14  H   UNL A   1      31.588  25.130  26.857  1.00  0.00     0.170 HD
ATOM     15  O   UNL A   1      33.303  23.506  26.749  1.00  0.00    -0.274 OA
BRANCH  13  16
ATOM     16  C   UNL A   1      30.989  25.459  24.985  1.00  0.00     0.108 A 
ATOM     17  C   UNL A   1      29.927  27.155  23.804  1.00  0.00     0.007 A 
ATOM     18  C   UNL A   1      29.379  26.000  23.269  1.00  0.00     0.076 A 
ATOM     19  C   UNL A   1      30.980  26.842  24.777  1.00  0.00     0.082 A 
ATOM     20  S   UNL A   1      30.299  24.637  23.672  1.00  0.00    -0.125 S 
BRANCH  17  21
ATOM     21  C   UNL A   1      29.515  28.380  23.125  1.00  0.00    -0.017 A 
ATOM     22  C   UNL A   1      27.942  31.790  21.029  1.00  0.00     0.044 C 
ATOM     23  C   UNL A   1      28.550  30.710  21.875  1.00  0.00    -0.051 A 
ATOM     24  C   UNL A   1      27.733  30.001  22.757  1.00  0.00     0.004 A 
ATOM     25  C   UNL A   1      29.883  30.302  21.699  1.00  0.00     0.004 A 
ATOM     26  C   UNL A   1      28.222  28.863  23.392  1.00  0.00     0.009 A 
ATOM     27  C   UNL A   1      30.368  29.139  22.324  1.00  0.00     0.009 A 
ENDBRANCH  17  21
BRANCH  19  28
ATOM     28  C   UNL A   1      31.968  27.672  25.502  1.00  0.00     0.255 C 
ATOM     29  O   UNL A   1      33.172  27.405  25.483  1.00  0.00    -0.269 OA
ATOM     30  N   UNL A   1      31.536  28.812  26.144  1.00  0.00    -0.349 N 
ATOM     31  H   UNL A   1      31.020  28.731  26.978  1.00  0.00     0.164 HD
BRANCH  30  32
ATOM     32  C   UNL A   1      31.827  30.122  25.610  1.00  0.00     0.082 C 
ATOM     33  C   UNL A   1      30.754  31.147  25.371  1.00  0.00     0.027 C 
ATOM     34  C   UNL A   1      31.678  31.284  26.547  1.00  0.00     0.027 C 
ENDBRANCH  30  32
ENDBRANCH  19  28
ENDBRANCH  13  16
ENDBRANCH   6  12
ENDBRANCH   3   5
ENDBRANCH   2   3
ENDBRANCH   1   2
BRANCH   1  35
ATOM     35  C   UNL A   1      37.715  23.694  25.511  1.00  0.00     0.275 C 
BRANCH  35  36
ATOM     36  O   UNL A   1      38.216  24.621  26.495  1.00  0.00    -0.458 OA
BRANCH  36  37
ATOM     37  C   UNL A   1      39.257  24.148  27.243  1.00  0.00     0.338 C 
ATOM     38  O   UNL A   1      39.730  23.040  27.162  1.00  0.00    -0.246 OA
BRANCH  37  39
ATOM     39  C   UNL A   1      39.830  25.338  27.907  1.00  0.00     0.060 A 
ATOM     40  C   UNL A   1      40.410  26.308  27.089  1.00  0.00     0.016 A 
ATOM     41  C   UNL A   1      39.395  25.636  29.206  1.00  0.00     0.016 A 
ATOM     42  C   UNL A   1      40.385  27.626  27.512  1.00  0.00     0.010 A 
ATOM     43  C   UNL A   1      39.306  26.952  29.585  1.00  0.00     0.010 A 
ATOM     44  C   UNL A   1      39.772  27.940  28.716  1.00  0.00    -0.014 A 
BRANCH  44  45
ATOM     45  C   UNL A   1      39.877  29.266  29.275  1.00  0.00     0.031 A 
ATOM     46  C   UNL A   1      38.847  30.299  29.056  1.00  0.00     0.074 A 
ATOM     47  C   UNL A   1      40.973  29.360  30.054  1.00  0.00     0.049 A 
ATOM     48  N   UNL A   1      39.058  31.558  29.227  1.00  0.00    -0.248 NA
ATOM     49  C   UNL A   1      37.500  30.028  28.538  1.00  0.00     0.031 C 
ATOM     50  C   UNL A   1      41.320  30.320  31.074  1.00  0.00     0.029 A 
ATOM     51  N   UNL A   1      42.144  28.592  29.891  1.00  0.00    -0.354 N 
ATOM     52  C   UNL A   1      37.821  32.174  29.254  1.00  0.00     0.074 A 
ATOM     53  C   UNL A   1      36.918  31.232  28.643  1.00  0.00     0.031 C 
ATOM     54  C   UNL A   1      42.660  30.294  31.227  1.00  0.00     0.029 A 
ATOM     55  C   UNL A   1      43.205  29.448  30.163  1.00  0.00     0.049 A 
ATOM     56  H   UNL A   1      42.199  27.642  29.637  1.00  0.00     0.167 HD
ATOM     57  C   UNL A   1      37.677  33.304  30.002  1.00  0.00     0.031 A 
ATOM     58  C   UNL A   1      44.043  29.853  29.159  1.00  0.00     0.031 A 
ATOM     59  C   UNL A   1      38.968  33.701  30.562  1.00  0.00     0.049 A 
ATOM     60  C   UNL A   1      43.932  31.344  28.940  1.00  0.00     0.074 A 
ATOM     61  C   UNL A   1      39.550  33.487  31.800  1.00  0.00     0.029 A 
ATOM     62  N   UNL A   1      39.988  34.070  29.704  1.00  0.00    -0.354 N 
ATOM     63  N   UNL A   1      42.896  32.056  29.291  1.00  0.00    -0.248 NA
ATOM     64  C   UNL A   1      44.965  32.144  28.288  1.00  0.00     0.031 C 
ATOM     65  C   UNL A   1      40.950  33.691  31.663  1.00  0.00     0.029 A 
ATOM     66  C   UNL A   1      41.208  34.030  30.348  1.00  0.00     0.049 A 
ATOM     67  H   UNL A   1      39.862  34.326  28.761  1.00  0.00     0.167 HD
ATOM     68  C   UNL A   1      43.180  33.377  29.107  1.00  0.00     0.074 A 
ATOM     69  C   UNL A   1      44.441  33.378  28.386  1.00  0.00     0.031 C 
ATOM     70  C   UNL A   1      42.400  34.378  29.604  1.00  0.00     0.031 A 
BRANCH  57  71
ATOM     71  C   UNL A   1      36.367  33.853  30.534  1.00  0.00    -0.014 A 
ATOM     72  C   UNL A   1      35.355  34.183  29.603  1.00  0.00     0.010 A 
ATOM     73  C   UNL A   1      36.077  34.131  31.883  1.00  0.00     0.010 A 
ATOM     74  C   UNL A   1      34.178  34.844  29.969  1.00  0.00     0.020 A 
ATOM     75  C   UNL A   1      34.897  34.800  32.266  1.00  0.00     0.020 A 
ATOM     76  C   UNL A   1      33.964  35.173  31.301  1.00  0.00     0.054 A 
BRANCH  76  77
ATOM     77  S   UNL A   1      32.459  36.086  31.735  1.00  0.00     0.124 S 
ATOM     78  O   UNL A   1      31.906  36.417  30.424  1.00  0.00    -0.237 OA
ATOM     79  O   UNL A   1      31.703  35.101  32.505  1.00  0.00    -0.237 OA
ATOM     80  O   UNL A   1      32.954  37.225  32.504  1.00  0.00    -0.744 OA
ENDBRANCH  76  77
ENDBRANCH  57  71
BRANCH  58  81
ATOM     81  C   UNL A   1      44.302  28.858  28.067  1.00  0.00    -0.014 A 
ATOM     82  C   UNL A   1      44.872  27.611  28.412  1.00  0.00     0.010 A 
ATOM     83  C   UNL A   1      43.719  28.988  26.795  1.00  0.00     0.010 A 
ATOM     84  C   UNL A   1      44.747  26.496  27.571  1.00  0.00     0.020 A 
ATOM     85  C   UNL A   1      43.604  27.874  25.941  1.00  0.00     0.020 A 
ATOM     86  C   UNL A   1      44.078  26.624  26.354  1.00  0.00     0.054 A 
BRANCH  86  87
ATOM     87  S   UNL A   1      43.586  25.105  25.471  1.00  0.00     0.124 S 
ATOM     88  O   UNL A   1      42.454  25.529  24.649  1.00  0.00    -0.237 OA
ATOM     89  O   UNL A   1      44.803  24.778  24.736  1.00  0.00    -0.237 OA
ATOM     90  O   UNL A   1      43.232  24.189  26.550  1.00  0.00    -0.744 OA
ENDBRANCH  86  87
ENDBRANCH  58  81
BRANCH  70  91
ATOM     91  C   UNL A   1      42.726  35.828  29.454  1.00  0.00    -0.014 A 
ATOM     92  C   UNL A   1      43.552  36.512  30.356  1.00  0.00     0.010 A 
ATOM     93  C   UNL A   1      42.091  36.573  28.437  1.00  0.00     0.010 A 
ATOM     94  C   UNL A   1      43.817  37.873  30.182  1.00  0.00     0.020 A 
ATOM     95  C   UNL A   1      42.323  37.935  28.274  1.00  0.00     0.020 A 
ATOM     96  C   UNL A   1      43.215  38.568  29.129  1.00  0.00     0.054 A 
BRANCH  96  97
ATOM     97  S   UNL A   1      43.589  40.320  28.904  1.00  0.00     0.124 S 
ATOM     98  O   UNL A   1      42.264  40.937  28.936  1.00  0.00    -0.237 OA
ATOM     99  O   UNL A   1      44.437  40.592  30.061  1.00  0.00    -0.237 OA
ATOM    100  O   UNL A   1      44.262  40.368  27.608  1.00  0.00    -0.744 OA
ENDBRANCH  96  97
ENDBRANCH  70  91
ENDBRANCH  44  45
ENDBRANCH  37  39
ENDBRANCH  36  37
ENDBRANCH  35  36
ENDBRANCH   1  35
TORSDOF 19
ENDMDL
MODEL 3
REMARK VINA RESULT:     -12.0      4.144      9.982
REMARK SMILES Cc1ccc(-c2csc(NC(=O)[C@H]3[C@@H](C(=O)OCCOC(=O)c4ccc(-c5c6nc(c(-c7ccc(S(=O)(=O)[O-])cc7)c7ccc([nH]7)c(-c7ccc(S(=O)(=O)[O-])cc7)c7nc(c(-c8ccc(S(=O)(=O)[O-])cc8)c8ccc5[nH]8)C=C7)C=C6)cc4)[C@H]4C=C[C@@H]3C4)c2C(=O)NC2CC2)cc1
REMARK SMILES IDX 18 1 17 2 15 3 16 4 14 5 13 6 86 7 83 8 85 9 87 10 84 11
REMARK SMILES IDX 11 12 10 13 12 15 9 16 6 17 7 18 88 19 8 20 5 21 1 22 2 23
REMARK SMILES IDX 3 24 96 25 4 26 95 27 89 28 90 29 91 30 92 32 93 33 94 34
REMARK SMILES IDX 19 35 20 36 21 37 22 38 23 39 24 40 82 41 25 42 81 43 26 44
REMARK SMILES IDX 27 45 28 46 75 47 29 48 80 49 74 50 76 51 30 52 79 53 73 54
REMARK SMILES IDX 72 55 31 57 61 58 42 59 60 60 43 61 46 62 59 63 77 64 44 65
REMARK SMILES IDX 45 66 58 68 78 69 47 70 32 71 33 72 41 73 34 74 40 75 35 76
REMARK SMILES IDX 36 77 37 78 38 79 39 80 62 81 63 82 71 83 64 84 70 85 65 86
REMARK SMILES IDX 66 87 67 88 68 89 69 90 48 91 49 92 57 93 50 94 56 95 51 96
REMARK SMILES IDX 52 97 53 98 54 99 55 100
REMARK H PARENT 10 14 91 31 76 56 46 67
REMARK Flexibility Score: inf
ROOT
ATOM      1  C   UNL A   1      35.630  25.103  26.005  1.00  0.00     0.274 C 
ENDROOT
BRANCH   1   2
ATOM      2  O   UNL A   1      34.583  25.174  25.002  1.00  0.00    -0.462 OA
BRANCH   2   3
ATOM      3  C   UNL A   1      34.098  26.417  24.790  1.00  0.00     0.310 C 
ATOM      4  O   UNL A   1      33.819  26.837  23.665  1.00  0.00    -0.252 OA
BRANCH   3   5
ATOM      5  C   UNL A   1      33.756  27.232  26.028  1.00  0.00     0.119 C 
ATOM      6  C   UNL A   1      32.333  27.119  26.698  1.00  0.00     0.100 C 
ATOM      7  C   UNL A   1      32.296  28.463  27.480  1.00  0.00     0.025 C 
ATOM      8  C   UNL A   1      34.157  28.722  26.250  1.00  0.00     0.027 C 
ATOM      9  C   UNL A   1      32.022  29.594  26.551  1.00  0.00    -0.027 C 
ATOM     10  C   UNL A   1      33.787  28.780  27.739  1.00  0.00     0.017 C 
ATOM     11  C   UNL A   1      33.139  29.763  25.839  1.00  0.00    -0.027 C 
BRANCH   6  12
ATOM     12  C   UNL A   1      31.247  26.713  25.679  1.00  0.00     0.229 C 
ATOM     13  N   UNL A   1      30.812  25.451  25.436  1.00  0.00    -0.317 N 
ATOM     14  H   UNL A   1      29.896  25.406  25.078  1.00  0.00     0.170 HD
ATOM     15  O   UNL A   1      30.756  27.606  24.975  1.00  0.00    -0.274 OA
BRANCH  13  16
ATOM     16  C   UNL A   1      31.410  24.219  25.595  1.00  0.00     0.108 A 
ATOM     17  C   UNL A   1      32.032  21.996  25.333  1.00  0.00     0.007 A 
ATOM     18  C   UNL A   1      32.313  22.253  26.666  1.00  0.00     0.076 A 
ATOM     19  C   UNL A   1      31.578  23.209  24.643  1.00  0.00     0.082 A 
ATOM     20  S   UNL A   1      32.339  23.915  26.981  1.00  0.00    -0.125 S 
BRANCH  17  21
ATOM     21  C   UNL A   1      32.467  20.680  24.876  1.00  0.00    -0.017 A 
ATOM     22  C   UNL A   1      33.361  16.754  23.365  1.00  0.00     0.044 C 
ATOM     23  C   UNL A   1      33.205  18.167  23.842  1.00  0.00    -0.051 A 
ATOM     24  C   UNL A   1      32.526  19.082  23.036  1.00  0.00     0.004 A 
ATOM     25  C   UNL A   1      33.598  18.555  25.134  1.00  0.00     0.004 A 
ATOM     26  C   UNL A   1      32.184  20.333  23.543  1.00  0.00     0.009 A 
ATOM     27  C   UNL A   1      33.233  19.811  25.652  1.00  0.00     0.009 A 
ENDBRANCH  17  21
BRANCH  19  28
ATOM     28  C   UNL A   1      31.307  23.524  23.222  1.00  0.00     0.255 C 
ATOM     29  O   UNL A   1      30.182  23.849  22.838  1.00  0.00    -0.269 OA
ATOM     30  N   UNL A   1      32.357  23.531  22.331  1.00  0.00    -0.349 N 
ATOM     31  H   UNL A   1      32.755  22.677  22.045  1.00  0.00     0.164 HD
BRANCH  30  32
ATOM     32  C   UNL A   1      32.883  24.772  21.810  1.00  0.00     0.082 C 
ATOM     33  C   UNL A   1      32.786  25.136  20.355  1.00  0.00     0.027 C 
ATOM     34  C   UNL A   1      31.883  25.795  21.358  1.00  0.00     0.027 C 
ENDBRANCH  30  32
ENDBRANCH  19  28
ENDBRANCH  13  16
ENDBRANCH   6  12
ENDBRANCH   3   5
ENDBRANCH   2   3
ENDBRANCH   1   2
BRANCH   1  35
ATOM     35  C   UNL A   1      36.700  24.015  25.750  1.00  0.00     0.275 C 
BRANCH  35  36
ATOM     36  O   UNL A   1      38.065  24.480  25.736  1.00  0.00    -0.458 OA
BRANCH  36  37
ATOM     37  C   UNL A   1      38.872  23.900  26.673  1.00  0.00     0.338 C 
ATOM     38  O   UNL A   1      39.178  22.732  26.706  1.00  0.00    -0.246 OA
BRANCH  37  39
ATOM     39  C   UNL A   1      39.492  25.026  27.404  1.00  0.00     0.060 A 
ATOM     40  C   UNL A   1      40.042  26.056  26.640  1.00  0.00     0.016 A 
ATOM     41  C   UNL A   1      39.125  25.218  28.744  1.00  0.00     0.016 A 
ATOM     42  C   UNL A   1      40.054  27.334  27.171  1.00  0.00     0.010 A 
ATOM     43  C   UNL A   1      39.071  26.499  29.234  1.00  0.00     0.010 A 
ATOM     44  C   UNL A   1      39.506  27.552  28.427  1.00  0.00    -0.014 A 
BRANCH  44  45
ATOM     45  C   UNL A   1      39.653  28.826  29.087  1.00  0.00     0.031 A 
ATOM     46  C   UNL A   1      38.701  29.934  28.888  1.00  0.00     0.074 A 
ATOM     47  C   UNL A   1      40.705  28.795  29.931  1.00  0.00     0.049 A 
ATOM     48  N   UNL A   1      38.975  31.163  29.162  1.00  0.00    -0.248 NA
ATOM     49  C   UNL A   1      37.375  29.786  28.276  1.00  0.00     0.031 C 
ATOM     50  C   UNL A   1      41.044  29.658  31.038  1.00  0.00     0.029 A 
ATOM     51  N   UNL A   1      41.836  27.969  29.778  1.00  0.00    -0.354 N 
ATOM     52  C   UNL A   1      37.777  31.852  29.165  1.00  0.00     0.074 A 
ATOM     53  C   UNL A   1      36.859  31.014  28.437  1.00  0.00     0.031 C 
ATOM     54  C   UNL A   1      42.369  29.536  31.262  1.00  0.00     0.029 A 
ATOM     55  C   UNL A   1      42.927  28.735  30.171  1.00  0.00     0.049 A 
ATOM     56  H   UNL A   1      41.850  27.038  29.458  1.00  0.00     0.167 HD
ATOM     57  C   UNL A   1      37.654  32.933  29.986  1.00  0.00     0.031 A 
ATOM     58  C   UNL A   1      43.847  29.157  29.249  1.00  0.00     0.031 A 
ATOM     59  C   UNL A   1      38.930  33.208  30.645  1.00  0.00     0.049 A 
ATOM     60  C   UNL A   1      43.837  30.664  29.135  1.00  0.00     0.074 A 
ATOM     61  C   UNL A   1      39.422  32.871  31.895  1.00  0.00     0.029 A 
ATOM     62  N   UNL A   1      40.020  33.571  29.875  1.00  0.00    -0.354 N 
ATOM     63  N   UNL A   1      42.825  31.413  29.479  1.00  0.00    -0.248 NA
ATOM     64  C   UNL A   1      44.952  31.440  28.603  1.00  0.00     0.031 C 
ATOM     65  C   UNL A   1      40.838  32.995  31.853  1.00  0.00     0.029 A 
ATOM     66  C   UNL A   1      41.194  33.410  30.582  1.00  0.00     0.049 A 
ATOM     67  H   UNL A   1      39.967  33.900  28.949  1.00  0.00     0.167 HD
ATOM     68  C   UNL A   1      43.196  32.723  29.410  1.00  0.00     0.074 A 
ATOM     69  C   UNL A   1      44.496  32.695  28.762  1.00  0.00     0.031 C 
ATOM     70  C   UNL A   1      42.448  33.734  29.934  1.00  0.00     0.031 A 
BRANCH  57  71
ATOM     71  C   UNL A   1      36.349  33.524  30.483  1.00  0.00    -0.014 A 
ATOM     72  C   UNL A   1      35.488  34.128  29.537  1.00  0.00     0.010 A 
ATOM     73  C   UNL A   1      35.931  33.589  31.826  1.00  0.00     0.010 A 
ATOM     74  C   UNL A   1      34.344  34.844  29.906  1.00  0.00     0.020 A 
ATOM     75  C   UNL A   1      34.783  34.310  32.212  1.00  0.00     0.020 A 
ATOM     76  C   UNL A   1      34.009  34.953  31.249  1.00  0.00     0.054 A 
BRANCH  76  77
ATOM     77  S   UNL A   1      32.556  35.939  31.700  1.00  0.00     0.124 S 
ATOM     78  O   UNL A   1      31.766  34.991  32.481  1.00  0.00    -0.237 OA
ATOM     79  O   UNL A   1      33.145  37.041  32.459  1.00  0.00    -0.237 OA
ATOM     80  O   UNL A   1      31.978  36.314  30.412  1.00  0.00    -0.744 OA
ENDBRANCH  76  77
ENDBRANCH  57  71
BRANCH  58  81
ATOM     81  C   UNL A   1      44.113  28.226  28.103  1.00  0.00    -0.014 A 
ATOM     82  C   UNL A   1      44.889  27.069  28.339  1.00  0.00     0.010 A 
ATOM     83  C   UNL A   1      43.371  28.291  26.910  1.00  0.00     0.010 A 
ATOM     84  C   UNL A   1      44.823  25.961  27.482  1.00  0.00     0.020 A 
ATOM     85  C   UNL A   1      43.313  27.186  26.040  1.00  0.00     0.020 A 
ATOM     86  C   UNL A   1      44.004  26.011  26.355  1.00  0.00     0.054 A 
BRANCH  86  87
ATOM     87  S   UNL A   1      43.630  24.452  25.485  1.00  0.00     0.124 S 
ATOM     88  O   UNL A   1      42.380  24.733  24.782  1.00  0.00    -0.237 OA
ATOM     89  O   UNL A   1      44.804  24.295  24.633  1.00  0.00    -0.237 OA
ATOM     90  O   UNL A   1      43.502  23.485  26.570  1.00  0.00    -0.744 OA
ENDBRANCH  86  87
ENDBRANCH  58  81
BRANCH  70  91
ATOM     91  C   UNL A   1      42.867  35.167  29.911  1.00  0.00    -0.014 A 
ATOM     92  C   UNL A   1      42.596  36.015  28.830  1.00  0.00     0.010 A 
ATOM     93  C   UNL A   1      43.667  35.665  30.962  1.00  0.00     0.010 A 
ATOM     94  C   UNL A   1      43.020  37.346  28.849  1.00  0.00     0.020 A 
ATOM     95  C   UNL A   1      44.121  36.979  30.976  1.00  0.00     0.020 A 
ATOM     96  C   UNL A   1      43.763  37.822  29.932  1.00  0.00     0.054 A 
BRANCH  96  97
ATOM     97  S   UNL A   1      44.281  39.551  29.953  1.00  0.00     0.124 S 
ATOM     98  O   UNL A   1      43.947  40.002  28.603  1.00  0.00    -0.237 OA
ATOM     99  O   UNL A   1      43.449  40.096  31.021  1.00  0.00    -0.237 OA
ATOM    100  O   UNL A   1      45.711  39.483  30.246  1.00  0.00    -0.744 OA
ENDBRANCH  96  97
ENDBRANCH  70  91
ENDBRANCH  44  45
ENDBRANCH  37  39
ENDBRANCH  36  37
ENDBRANCH  35  36
ENDBRANCH   1  35
TORSDOF 19
ENDMDL
