MODEL 1
REMARK VINA RESULT:     -11.0      0.000      0.000
REMARK SMILES Cc1ncn(CC[C@@H]2CCC[C@@]2([NH3+])C(=O)OCCOC(=O)c2ccc(-c3c4nc(c(-c5ccc(S(=O)(=O)[O-])cc5)c5ccc([nH]5)c(-c5ccc(S(=O)(=O)[O-])cc5)c5nc(c(-c6ccc(S(=O)(=O)[O-])cc6)c6ccc3[nH]6)C=C5)C=C4)cc2)c1C
REMARK SMILES IDX 17 1 16 2 14 3 15 4 12 5 8 6 9 7 10 8 11 9 7 10 6 11 5 12
REMARK SMILES IDX 1 13 2 14 3 15 82 16 4 17 83 18 13 19 18 23 19 24 20 25
REMARK SMILES IDX 21 26 22 27 23 28 81 29 24 30 80 31 25 32 26 33 27 34 74 35
REMARK SMILES IDX 28 36 79 37 73 38 75 39 29 40 78 41 72 42 71 43 30 45 60 46
REMARK SMILES IDX 41 47 59 48 42 49 45 50 58 51 76 52 43 53 44 54 57 56 77 57
REMARK SMILES IDX 46 58 31 59 32 60 40 61 33 62 39 63 34 64 35 65 36 66 37 67
REMARK SMILES IDX 38 68 61 69 62 70 70 71 63 72 69 73 64 74 65 75 66 76 67 77
REMARK SMILES IDX 68 78 47 79 48 80 56 81 49 82 55 83 50 84 51 85 52 86 53 87
REMARK SMILES IDX 54 88
REMARK H PARENT 13 20 13 21 13 22 75 44 45 55
REMARK Flexibility Score: inf
ROOT
ATOM      1  C   UNL A   1      34.091  33.917  29.145  1.00  0.00     0.274 C 
ENDROOT
BRANCH   1   2
ATOM      2  O   UNL A   1      34.220  35.320  29.467  1.00  0.00    -0.457 OA
BRANCH   2   3
ATOM      3  C   UNL A   1      33.121  35.880  30.045  1.00  0.00     0.368 C 
ATOM      4  O   UNL A   1      32.208  36.409  29.409  1.00  0.00    -0.245 OA
BRANCH   3   5
ATOM      5  C   UNL A   1      33.175  35.953  31.590  1.00  0.00     0.195 C 
ATOM      6  C   UNL A   1      34.389  35.376  32.371  1.00  0.00     0.064 C 
ATOM      7  C   UNL A   1      34.355  36.221  33.661  1.00  0.00     0.011 C 
ATOM      8  C   UNL A   1      33.907  37.613  33.258  1.00  0.00     0.008 C 
ATOM      9  C   UNL A   1      33.311  37.468  31.872  1.00  0.00     0.081 C 
BRANCH   6  10
ATOM     10  C   UNL A   1      34.378  33.863  32.708  1.00  0.00     0.032 C 
BRANCH  10  11
ATOM     11  C   UNL A   1      35.003  33.488  34.071  1.00  0.00     0.124 C 
BRANCH  11  12
ATOM     12  N   UNL A   1      36.233  32.723  33.961  1.00  0.00    -0.335 N 
ATOM     13  C   UNL A   1      38.911  30.745  35.360  1.00  0.00     0.069 C 
ATOM     14  C   UNL A   1      37.932  31.506  34.553  1.00  0.00     0.058 A 
ATOM     15  N   UNL A   1      37.451  30.970  33.385  1.00  0.00    -0.242 NA
ATOM     16  C   UNL A   1      37.294  32.704  34.842  1.00  0.00     0.037 A 
ATOM     17  C   UNL A   1      36.458  31.751  33.026  1.00  0.00     0.199 A 
ATOM     18  C   UNL A   1      37.499  33.684  35.935  1.00  0.00     0.066 C 
ENDBRANCH  11  12
ENDBRANCH  10  11
ENDBRANCH   6  10
BRANCH   5  19
ATOM     19  N   UNL A   1      31.900  35.435  32.143  1.00  0.00    -0.343 N 
ATOM     20  H   UNL A   1      31.116  35.874  31.661  1.00  0.00     0.345 HD
ATOM     21  H   UNL A   1      31.849  35.651  33.140  1.00  0.00     0.345 HD
ATOM     22  H   UNL A   1      31.858  34.424  32.012  1.00  0.00     0.345 HD
ENDBRANCH   5  19
ENDBRANCH   3   5
ENDBRANCH   2   3
ENDBRANCH   1   2
BRANCH   1  23
ATOM     23  C   UNL A   1      34.339  33.595  27.671  1.00  0.00     0.275 C 
BRANCH  23  24
ATOM     24  O   UNL A   1      35.437  32.703  27.492  1.00  0.00    -0.458 OA
BRANCH  24  25
ATOM     25  C   UNL A   1      35.080  31.406  27.636  1.00  0.00     0.338 C 
ATOM     26  O   UNL A   1      34.034  30.902  27.265  1.00  0.00    -0.246 OA
BRANCH  25  27
ATOM     27  C   UNL A   1      36.052  30.683  28.457  1.00  0.00     0.060 A 
ATOM     28  C   UNL A   1      36.792  31.434  29.378  1.00  0.00     0.016 A 
ATOM     29  C   UNL A   1      36.444  29.403  28.054  1.00  0.00     0.016 A 
ATOM     30  C   UNL A   1      38.046  30.990  29.733  1.00  0.00     0.010 A 
ATOM     31  C   UNL A   1      37.698  28.964  28.404  1.00  0.00     0.010 A 
ATOM     32  C   UNL A   1      38.516  29.807  29.162  1.00  0.00    -0.014 A 
BRANCH  32  33
ATOM     33  C   UNL A   1      39.907  29.454  29.366  1.00  0.00     0.031 A 
ATOM     34  C   UNL A   1      40.294  29.246  30.778  1.00  0.00     0.074 A 
ATOM     35  C   UNL A   1      40.711  29.166  28.324  1.00  0.00     0.049 A 
ATOM     36  N   UNL A   1      41.210  29.848  31.461  1.00  0.00    -0.248 NA
ATOM     37  C   UNL A   1      39.463  28.317  31.562  1.00  0.00     0.031 C 
ATOM     38  C   UNL A   1      40.326  29.028  26.915  1.00  0.00     0.029 A 
ATOM     39  N   UNL A   1      42.014  28.774  28.330  1.00  0.00    -0.354 N 
ATOM     40  C   UNL A   1      41.205  29.231  32.709  1.00  0.00     0.074 A 
ATOM     41  C   UNL A   1      40.006  28.435  32.769  1.00  0.00     0.031 C 
ATOM     42  C   UNL A   1      41.290  28.343  26.261  1.00  0.00     0.029 A 
ATOM     43  C   UNL A   1      42.399  28.111  27.172  1.00  0.00     0.049 A 
ATOM     44  H   UNL A   1      42.625  28.943  29.083  1.00  0.00     0.167 HD
ATOM     45  C   UNL A   1      42.307  29.204  33.506  1.00  0.00     0.031 A 
ATOM     46  C   UNL A   1      43.498  27.334  27.016  1.00  0.00     0.031 A 
ATOM     47  C   UNL A   1      43.274  30.202  33.135  1.00  0.00     0.049 A 
ATOM     48  C   UNL A   1      44.440  27.666  28.113  1.00  0.00     0.074 A 
ATOM     49  C   UNL A   1      43.260  31.579  33.040  1.00  0.00     0.029 A 
ATOM     50  N   UNL A   1      44.379  29.782  32.435  1.00  0.00    -0.354 N 
ATOM     51  N   UNL A   1      45.035  28.820  28.236  1.00  0.00    -0.248 NA
ATOM     52  C   UNL A   1      44.417  26.851  29.319  1.00  0.00     0.031 C 
ATOM     53  C   UNL A   1      44.089  31.883  31.922  1.00  0.00     0.029 A 
ATOM     54  C   UNL A   1      44.592  30.680  31.421  1.00  0.00     0.049 A 
ATOM     55  H   UNL A   1      44.921  28.982  32.626  1.00  0.00     0.167 HD
ATOM     56  C   UNL A   1      45.089  29.053  29.603  1.00  0.00     0.074 A 
ATOM     57  C   UNL A   1      44.803  27.761  30.217  1.00  0.00     0.031 C 
ATOM     58  C   UNL A   1      45.082  30.324  30.104  1.00  0.00     0.031 A 
BRANCH  45  59
ATOM     59  C   UNL A   1      42.666  28.000  34.346  1.00  0.00    -0.014 A 
ATOM     60  C   UNL A   1      42.816  28.157  35.737  1.00  0.00     0.010 A 
ATOM     61  C   UNL A   1      43.141  26.795  33.784  1.00  0.00     0.010 A 
ATOM     62  C   UNL A   1      43.486  27.194  36.505  1.00  0.00     0.020 A 
ATOM     63  C   UNL A   1      43.763  25.809  34.546  1.00  0.00     0.020 A 
ATOM     64  C   UNL A   1      43.973  26.037  35.896  1.00  0.00     0.054 A 
BRANCH  64  65
ATOM     65  S   UNL A   1      44.970  24.874  36.858  1.00  0.00     0.124 S 
ATOM     66  O   UNL A   1      46.317  25.390  36.641  1.00  0.00    -0.237 OA
ATOM     67  O   UNL A   1      44.432  25.043  38.204  1.00  0.00    -0.237 OA
ATOM     68  O   UNL A   1      44.683  23.583  36.235  1.00  0.00    -0.744 OA
ENDBRANCH  64  65
ENDBRANCH  45  59
BRANCH  46  69
ATOM     69  C   UNL A   1      43.616  26.106  26.191  1.00  0.00    -0.014 A 
ATOM     70  C   UNL A   1      44.779  25.840  25.447  1.00  0.00     0.010 A 
ATOM     71  C   UNL A   1      42.678  25.061  26.335  1.00  0.00     0.010 A 
ATOM     72  C   UNL A   1      45.018  24.562  24.912  1.00  0.00     0.020 A 
ATOM     73  C   UNL A   1      42.901  23.791  25.793  1.00  0.00     0.020 A 
ATOM     74  C   UNL A   1      44.083  23.540  25.103  1.00  0.00     0.054 A 
BRANCH  74  75
ATOM     75  S   UNL A   1      44.471  21.853  24.554  1.00  0.00     0.124 S 
ATOM     76  O   UNL A   1      45.817  21.657  25.084  1.00  0.00    -0.237 OA
ATOM     77  O   UNL A   1      43.419  21.063  25.188  1.00  0.00    -0.237 OA
ATOM     78  O   UNL A   1      44.386  21.936  23.097  1.00  0.00    -0.744 OA
ENDBRANCH  74  75
ENDBRANCH  46  69
BRANCH  58  79
ATOM     79  C   UNL A   1      45.328  31.475  29.153  1.00  0.00    -0.014 A 
ATOM     80  C   UNL A   1      46.614  31.962  28.849  1.00  0.00     0.010 A 
ATOM     81  C   UNL A   1      44.235  31.962  28.415  1.00  0.00     0.010 A 
ATOM     82  C   UNL A   1      46.798  32.923  27.845  1.00  0.00     0.020 A 
ATOM     83  C   UNL A   1      44.413  32.907  27.400  1.00  0.00     0.020 A 
ATOM     84  C   UNL A   1      45.694  33.386  27.123  1.00  0.00     0.054 A 
BRANCH  84  85
ATOM     85  S   UNL A   1      45.950  34.571  25.771  1.00  0.00     0.124 S 
ATOM     86  O   UNL A   1      47.371  34.416  25.477  1.00  0.00    -0.237 OA
ATOM     87  O   UNL A   1      45.037  34.089  24.738  1.00  0.00    -0.237 OA
ATOM     88  O   UNL A   1      45.577  35.857  26.362  1.00  0.00    -0.744 OA
ENDBRANCH  84  85
ENDBRANCH  58  79
ENDBRANCH  32  33
ENDBRANCH  25  27
ENDBRANCH  24  25
ENDBRANCH  23  24
ENDBRANCH   1  23
TORSDOF 18
ENDMDL
MODEL 2
REMARK VINA RESULT:     -10.5      3.491      5.452
REMARK SMILES Cc1ncn(CC[C@@H]2CCC[C@@]2([NH3+])C(=O)OCCOC(=O)c2ccc(-c3c4nc(c(-c5ccc(S(=O)(=O)[O-])cc5)c5ccc([nH]5)c(-c5ccc(S(=O)(=O)[O-])cc5)c5nc(c(-c6ccc(S(=O)(=O)[O-])cc6)c6ccc3[nH]6)C=C5)C=C4)cc2)c1C
REMARK SMILES IDX 17 1 16 2 14 3 15 4 12 5 8 6 9 7 10 8 11 9 7 10 6 11 5 12
REMARK SMILES IDX 1 13 2 14 3 15 82 16 4 17 83 18 13 19 18 23 19 24 20 25
REMARK SMILES IDX 21 26 22 27 23 28 81 29 24 30 80 31 25 32 26 33 27 34 74 35
REMARK SMILES IDX 28 36 79 37 73 38 75 39 29 40 78 41 72 42 71 43 30 45 60 46
REMARK SMILES IDX 41 47 59 48 42 49 45 50 58 51 76 52 43 53 44 54 57 56 77 57
REMARK SMILES IDX 46 58 31 59 32 60 40 61 33 62 39 63 34 64 35 65 36 66 37 67
REMARK SMILES IDX 38 68 61 69 62 70 70 71 63 72 69 73 64 74 65 75 66 76 67 77
REMARK SMILES IDX 68 78 47 79 48 80 56 81 49 82 55 83 50 84 51 85 52 86 53 87
REMARK SMILES IDX 54 88
REMARK H PARENT 13 20 13 21 13 22 75 44 45 55
REMARK Flexibility Score: inf
ROOT
ATOM      1  C   UNL A   1      37.538  34.093  32.808  1.00  0.00     0.274 C 
ENDROOT
BRANCH   1   2
ATOM      2  O   UNL A   1      36.817  34.608  31.666  1.00  0.00    -0.457 OA
BRANCH   2   3
ATOM      3  C   UNL A   1      35.665  33.946  31.367  1.00  0.00     0.368 C 
ATOM      4  O   UNL A   1      34.997  33.325  32.196  1.00  0.00    -0.245 OA
BRANCH   3   5
ATOM      5  C   UNL A   1      35.330  33.891  29.857  1.00  0.00     0.195 C 
ATOM      6  C   UNL A   1      34.963  32.543  29.174  1.00  0.00     0.064 C 
ATOM      7  C   UNL A   1      34.103  33.025  27.987  1.00  0.00     0.011 C 
ATOM      8  C   UNL A   1      33.314  34.223  28.479  1.00  0.00     0.008 C 
ATOM      9  C   UNL A   1      33.995  34.667  29.758  1.00  0.00     0.081 C 
BRANCH   6  10
ATOM     10  C   UNL A   1      36.125  31.645  28.678  1.00  0.00     0.032 C 
BRANCH  10  11
ATOM     11  C   UNL A   1      35.914  30.127  28.874  1.00  0.00     0.124 C 
BRANCH  11  12
ATOM     12  N   UNL A   1      37.015  29.464  29.549  1.00  0.00    -0.335 N 
ATOM     13  C   UNL A   1      38.414  27.528  32.258  1.00  0.00     0.069 C 
ATOM     14  C   UNL A   1      38.086  28.306  31.043  1.00  0.00     0.058 A 
ATOM     15  N   UNL A   1      38.524  27.869  29.817  1.00  0.00    -0.242 NA
ATOM     16  C   UNL A   1      37.269  29.419  30.904  1.00  0.00     0.037 A 
ATOM     17  C   UNL A   1      37.898  28.617  28.937  1.00  0.00     0.199 A 
ATOM     18  C   UNL A   1      36.614  30.285  31.913  1.00  0.00     0.066 C 
ENDBRANCH  11  12
ENDBRANCH  10  11
ENDBRANCH   6  10
BRANCH   5  19
ATOM     19  N   UNL A   1      36.395  34.592  29.100  1.00  0.00    -0.343 N 
ATOM     20  H   UNL A   1      36.389  35.583  29.341  1.00  0.00     0.345 HD
ATOM     21  H   UNL A   1      36.228  34.484  28.099  1.00  0.00     0.345 HD
ATOM     22  H   UNL A   1      37.302  34.189  29.338  1.00  0.00     0.345 HD
ENDBRANCH   5  19
ENDBRANCH   3   5
ENDBRANCH   2   3
ENDBRANCH   1   2
BRANCH   1  23
ATOM     23  C   UNL A   1      39.058  34.160  32.662  1.00  0.00     0.275 C 
BRANCH  23  24
ATOM     24  O   UNL A   1      39.496  33.722  31.378  1.00  0.00    -0.458 OA
BRANCH  24  25
ATOM     25  C   UNL A   1      40.842  33.602  31.302  1.00  0.00     0.338 C 
ATOM     26  O   UNL A   1      41.660  34.341  31.823  1.00  0.00    -0.246 OA
BRANCH  25  27
ATOM     27  C   UNL A   1      41.221  32.547  30.362  1.00  0.00     0.060 A 
ATOM     28  C   UNL A   1      40.318  31.491  30.191  1.00  0.00     0.016 A 
ATOM     29  C   UNL A   1      42.559  32.454  29.969  1.00  0.00     0.016 A 
ATOM     30  C   UNL A   1      40.810  30.258  29.824  1.00  0.00     0.010 A 
ATOM     31  C   UNL A   1      43.050  31.221  29.610  1.00  0.00     0.010 A 
ATOM     32  C   UNL A   1      42.186  30.123  29.634  1.00  0.00    -0.014 A 
BRANCH  32  33
ATOM     33  C   UNL A   1      42.724  28.789  29.462  1.00  0.00     0.031 A 
ATOM     34  C   UNL A   1      43.537  28.297  30.595  1.00  0.00     0.074 A 
ATOM     35  C   UNL A   1      42.346  28.015  28.426  1.00  0.00     0.049 A 
ATOM     36  N   UNL A   1      44.764  27.892  30.593  1.00  0.00    -0.248 NA
ATOM     37  C   UNL A   1      42.925  28.378  31.932  1.00  0.00     0.031 C 
ATOM     38  C   UNL A   1      41.298  28.300  27.439  1.00  0.00     0.029 A 
ATOM     39  N   UNL A   1      42.708  26.736  28.135  1.00  0.00    -0.354 N 
ATOM     40  C   UNL A   1      45.017  27.476  31.897  1.00  0.00     0.074 A 
ATOM     41  C   UNL A   1      43.926  27.962  32.703  1.00  0.00     0.031 C 
ATOM     42  C   UNL A   1      40.936  27.146  26.837  1.00  0.00     0.029 A 
ATOM     43  C   UNL A   1      41.807  26.080  27.306  1.00  0.00     0.049 A 
ATOM     44  H   UNL A   1      43.528  26.316  28.480  1.00  0.00     0.167 HD
ATOM     45  C   UNL A   1      45.963  26.544  32.188  1.00  0.00     0.031 A 
ATOM     46  C   UNL A   1      41.719  24.742  27.111  1.00  0.00     0.031 A 
ATOM     47  C   UNL A   1      46.912  26.378  31.120  1.00  0.00     0.049 A 
ATOM     48  C   UNL A   1      42.997  24.139  27.559  1.00  0.00     0.074 A 
ATOM     49  C   UNL A   1      47.799  27.212  30.471  1.00  0.00     0.029 A 
ATOM     50  N   UNL A   1      46.775  25.269  30.318  1.00  0.00    -0.354 N 
ATOM     51  N   UNL A   1      44.143  24.344  26.972  1.00  0.00    -0.248 NA
ATOM     52  C   UNL A   1      43.083  23.623  28.918  1.00  0.00     0.031 C 
ATOM     53  C   UNL A   1      47.798  26.774  29.115  1.00  0.00     0.029 A 
ATOM     54  C   UNL A   1      46.942  25.676  29.020  1.00  0.00     0.049 A 
ATOM     55  H   UNL A   1      46.591  24.350  30.621  1.00  0.00     0.167 HD
ATOM     56  C   UNL A   1      45.074  24.383  28.000  1.00  0.00     0.074 A 
ATOM     57  C   UNL A   1      44.383  23.818  29.155  1.00  0.00     0.031 C 
ATOM     58  C   UNL A   1      46.216  25.125  27.892  1.00  0.00     0.031 A 
BRANCH  45  59
ATOM     59  C   UNL A   1      45.767  25.503  33.267  1.00  0.00    -0.014 A 
ATOM     60  C   UNL A   1      46.738  25.377  34.279  1.00  0.00     0.010 A 
ATOM     61  C   UNL A   1      44.819  24.463  33.157  1.00  0.00     0.010 A 
ATOM     62  C   UNL A   1      46.804  24.226  35.077  1.00  0.00     0.020 A 
ATOM     63  C   UNL A   1      44.844  23.339  33.979  1.00  0.00     0.020 A 
ATOM     64  C   UNL A   1      45.867  23.206  34.904  1.00  0.00     0.054 A 
BRANCH  64  65
ATOM     65  S   UNL A   1      46.048  21.661  35.825  1.00  0.00     0.124 S 
ATOM     66  O   UNL A   1      47.464  21.367  35.633  1.00  0.00    -0.237 OA
ATOM     67  O   UNL A   1      45.657  22.057  37.175  1.00  0.00    -0.237 OA
ATOM     68  O   UNL A   1      45.120  20.753  35.154  1.00  0.00    -0.744 OA
ENDBRANCH  64  65
ENDBRANCH  45  59
BRANCH  46  69
ATOM     69  C   UNL A   1      40.483  23.950  26.890  1.00  0.00    -0.014 A 
ATOM     70  C   UNL A   1      39.241  24.581  26.696  1.00  0.00     0.010 A 
ATOM     71  C   UNL A   1      40.564  22.568  26.616  1.00  0.00     0.010 A 
ATOM     72  C   UNL A   1      38.138  23.866  26.196  1.00  0.00     0.020 A 
ATOM     73  C   UNL A   1      39.468  21.847  26.132  1.00  0.00     0.020 A 
ATOM     74  C   UNL A   1      38.264  22.505  25.902  1.00  0.00     0.054 A 
BRANCH  74  75
ATOM     75  S   UNL A   1      36.890  21.628  25.103  1.00  0.00     0.124 S 
ATOM     76  O   UNL A   1      36.758  22.344  23.837  1.00  0.00    -0.237 OA
ATOM     77  O   UNL A   1      37.396  20.262  25.009  1.00  0.00    -0.237 OA
ATOM     78  O   UNL A   1      35.777  21.809  26.035  1.00  0.00    -0.744 OA
ENDBRANCH  74  75
ENDBRANCH  46  69
BRANCH  58  79
ATOM     79  C   UNL A   1      46.606  25.652  26.529  1.00  0.00    -0.014 A 
ATOM     80  C   UNL A   1      45.979  26.756  25.921  1.00  0.00     0.010 A 
ATOM     81  C   UNL A   1      47.757  25.118  25.923  1.00  0.00     0.010 A 
ATOM     82  C   UNL A   1      46.480  27.301  24.730  1.00  0.00     0.020 A 
ATOM     83  C   UNL A   1      48.273  25.667  24.746  1.00  0.00     0.020 A 
ATOM     84  C   UNL A   1      47.630  26.754  24.152  1.00  0.00     0.054 A 
BRANCH  84  85
ATOM     85  S   UNL A   1      48.319  27.513  22.654  1.00  0.00     0.124 S 
ATOM     86  O   UNL A   1      47.268  28.446  22.258  1.00  0.00    -0.237 OA
ATOM     87  O   UNL A   1      49.555  28.125  23.138  1.00  0.00    -0.237 OA
ATOM     88  O   UNL A   1      48.514  26.380  21.748  1.00  0.00    -0.744 OA
ENDBRANCH  84  85
ENDBRANCH  58  79
ENDBRANCH  32  33
ENDBRANCH  25  27
ENDBRANCH  24  25
ENDBRANCH  23  24
ENDBRANCH   1  23
TORSDOF 18
ENDMDL
MODEL 3
REMARK VINA RESULT:     -10.3      3.529      6.040
REMARK SMILES Cc1ncn(CC[C@@H]2CCC[C@@]2([NH3+])C(=O)OCCOC(=O)c2ccc(-c3c4nc(c(-c5ccc(S(=O)(=O)[O-])cc5)c5ccc([nH]5)c(-c5ccc(S(=O)(=O)[O-])cc5)c5nc(c(-c6ccc(S(=O)(=O)[O-])cc6)c6ccc3[nH]6)C=C5)C=C4)cc2)c1C
REMARK SMILES IDX 17 1 16 2 14 3 15 4 12 5 8 6 9 7 10 8 11 9 7 10 6 11 5 12
REMARK SMILES IDX 1 13 2 14 3 15 82 16 4 17 83 18 13 19 18 23 19 24 20 25
REMARK SMILES IDX 21 26 22 27 23 28 81 29 24 30 80 31 25 32 26 33 27 34 74 35
REMARK SMILES IDX 28 36 79 37 73 38 75 39 29 40 78 41 72 42 71 43 30 45 60 46
REMARK SMILES IDX 41 47 59 48 42 49 45 50 58 51 76 52 43 53 44 54 57 56 77 57
REMARK SMILES IDX 46 58 31 59 32 60 40 61 33 62 39 63 34 64 35 65 36 66 37 67
REMARK SMILES IDX 38 68 61 69 62 70 70 71 63 72 69 73 64 74 65 75 66 76 67 77
REMARK SMILES IDX 68 78 47 79 48 80 56 81 49 82 55 83 50 84 51 85 52 86 53 87
REMARK SMILES IDX 54 88
REMARK H PARENT 13 20 13 21 13 22 75 44 45 55
REMARK Flexibility Score: inf
ROOT
ATOM      1  C   UNL A   1      38.531  32.906  32.874  1.00  0.00     0.274 C 
ENDROOT
BRANCH   1   2
ATOM      2  O   UNL A   1      38.068  32.361  31.619  1.00  0.00    -0.457 OA
BRANCH   2   3
ATOM      3  C   UNL A   1      37.156  31.355  31.731  1.00  0.00     0.368 C 
ATOM      4  O   UNL A   1      36.657  30.998  32.799  1.00  0.00    -0.245 OA
BRANCH   3   5
ATOM      5  C   UNL A   1      36.906  30.568  30.422  1.00  0.00     0.195 C 
ATOM      6  C   UNL A   1      37.244  31.195  29.040  1.00  0.00     0.064 C 
ATOM      7  C   UNL A   1      37.487  29.936  28.182  1.00  0.00     0.011 C 
ATOM      8  C   UNL A   1      38.154  28.916  29.085  1.00  0.00     0.008 C 
ATOM      9  C   UNL A   1      37.928  29.409  30.500  1.00  0.00     0.081 C 
BRANCH   6  10
ATOM     10  C   UNL A   1      36.179  32.108  28.381  1.00  0.00     0.032 C 
BRANCH  10  11
ATOM     11  C   UNL A   1      36.151  33.565  28.897  1.00  0.00     0.124 C 
BRANCH  11  12
ATOM     12  N   UNL A   1      34.823  34.039  29.244  1.00  0.00    -0.335 N 
ATOM     13  C   UNL A   1      32.566  36.255  30.985  1.00  0.00     0.069 C 
ATOM     14  C   UNL A   1      33.269  35.247  30.163  1.00  0.00     0.058 A 
ATOM     15  N   UNL A   1      32.902  35.063  28.852  1.00  0.00    -0.242 NA
ATOM     16  C   UNL A   1      34.378  34.474  30.474  1.00  0.00     0.037 A 
ATOM     17  C   UNL A   1      33.832  34.292  28.336  1.00  0.00     0.199 A 
ATOM     18  C   UNL A   1      35.103  34.271  31.751  1.00  0.00     0.066 C 
ENDBRANCH  11  12
ENDBRANCH  10  11
ENDBRANCH   6  10
BRANCH   5  19
ATOM     19  N   UNL A   1      35.520  30.038  30.434  1.00  0.00    -0.343 N 
ATOM     20  H   UNL A   1      35.270  29.760  31.382  1.00  0.00     0.345 HD
ATOM     21  H   UNL A   1      35.460  29.229  29.815  1.00  0.00     0.345 HD
ATOM     22  H   UNL A   1      34.877  30.762  30.111  1.00  0.00     0.345 HD
ENDBRANCH   5  19
ENDBRANCH   3   5
ENDBRANCH   2   3
ENDBRANCH   1   2
BRANCH   1  23
ATOM     23  C   UNL A   1      39.589  33.999  32.722  1.00  0.00     0.275 C 
BRANCH  23  24
ATOM     24  O   UNL A   1      40.064  34.106  31.382  1.00  0.00    -0.458 OA
BRANCH  24  25
ATOM     25  C   UNL A   1      41.389  33.855  31.279  1.00  0.00     0.338 C 
ATOM     26  O   UNL A   1      42.287  34.516  31.773  1.00  0.00    -0.246 OA
BRANCH  25  27
ATOM     27  C   UNL A   1      41.644  32.757  30.347  1.00  0.00     0.060 A 
ATOM     28  C   UNL A   1      40.721  31.704  30.335  1.00  0.00     0.016 A 
ATOM     29  C   UNL A   1      42.922  32.633  29.795  1.00  0.00     0.016 A 
ATOM     30  C   UNL A   1      41.157  30.451  29.965  1.00  0.00     0.010 A 
ATOM     31  C   UNL A   1      43.358  31.381  29.433  1.00  0.00     0.010 A 
ATOM     32  C   UNL A   1      42.498  30.294  29.612  1.00  0.00    -0.014 A 
BRANCH  32  33
ATOM     33  C   UNL A   1      43.004  28.948  29.432  1.00  0.00     0.031 A 
ATOM     34  C   UNL A   1      43.828  28.440  30.551  1.00  0.00     0.074 A 
ATOM     35  C   UNL A   1      42.589  28.180  28.406  1.00  0.00     0.049 A 
ATOM     36  N   UNL A   1      45.045  28.009  30.526  1.00  0.00    -0.248 NA
ATOM     37  C   UNL A   1      43.245  28.537  31.899  1.00  0.00     0.031 C 
ATOM     38  C   UNL A   1      41.528  28.486  27.439  1.00  0.00     0.029 A 
ATOM     39  N   UNL A   1      42.917  26.893  28.111  1.00  0.00    -0.354 N 
ATOM     40  C   UNL A   1      45.315  27.591  31.826  1.00  0.00     0.074 A 
ATOM     41  C   UNL A   1      44.251  28.102  32.651  1.00  0.00     0.031 C 
ATOM     42  C   UNL A   1      41.130  27.338  26.847  1.00  0.00     0.029 A 
ATOM     43  C   UNL A   1      41.986  26.255  27.301  1.00  0.00     0.049 A 
ATOM     44  H   UNL A   1      43.735  26.456  28.441  1.00  0.00     0.167 HD
ATOM     45  C   UNL A   1      46.247  26.639  32.101  1.00  0.00     0.031 A 
ATOM     46  C   UNL A   1      41.865  24.919  27.112  1.00  0.00     0.031 A 
ATOM     47  C   UNL A   1      47.170  26.450  31.014  1.00  0.00     0.049 A 
ATOM     48  C   UNL A   1      43.139  24.289  27.537  1.00  0.00     0.074 A 
ATOM     49  C   UNL A   1      48.062  27.264  30.346  1.00  0.00     0.029 A 
ATOM     50  N   UNL A   1      46.994  25.343  30.218  1.00  0.00    -0.354 N 
ATOM     51  N   UNL A   1      44.277  24.468  26.926  1.00  0.00    -0.248 NA
ATOM     52  C   UNL A   1      43.241  23.774  28.895  1.00  0.00     0.031 C 
ATOM     53  C   UNL A   1      48.025  26.823  28.991  1.00  0.00     0.029 A 
ATOM     54  C   UNL A   1      47.144  25.743  28.916  1.00  0.00     0.049 A 
ATOM     55  H   UNL A   1      46.796  24.429  30.527  1.00  0.00     0.167 HD
ATOM     56  C   UNL A   1      45.229  24.489  27.936  1.00  0.00     0.074 A 
ATOM     57  C   UNL A   1      44.549  23.941  29.106  1.00  0.00     0.031 C 
ATOM     58  C   UNL A   1      46.384  25.206  27.804  1.00  0.00     0.031 A 
BRANCH  45  59
ATOM     59  C   UNL A   1      46.049  25.605  33.185  1.00  0.00    -0.014 A 
ATOM     60  C   UNL A   1      47.098  25.357  34.092  1.00  0.00     0.010 A 
ATOM     61  C   UNL A   1      44.988  24.675  33.165  1.00  0.00     0.010 A 
ATOM     62  C   UNL A   1      47.120  24.191  34.870  1.00  0.00     0.020 A 
ATOM     63  C   UNL A   1      44.975  23.539  33.971  1.00  0.00     0.020 A 
ATOM     64  C   UNL A   1      46.066  23.281  34.786  1.00  0.00     0.054 A 
BRANCH  64  65
ATOM     65  S   UNL A   1      46.171  21.708  35.671  1.00  0.00     0.124 S 
ATOM     66  O   UNL A   1      45.639  22.070  36.981  1.00  0.00    -0.237 OA
ATOM     67  O   UNL A   1      45.325  20.837  34.860  1.00  0.00    -0.237 OA
ATOM     68  O   UNL A   1      47.598  21.391  35.637  1.00  0.00    -0.744 OA
ENDBRANCH  64  65
ENDBRANCH  45  59
BRANCH  46  69
ATOM     69  C   UNL A   1      40.608  24.153  26.918  1.00  0.00    -0.014 A 
ATOM     70  C   UNL A   1      39.381  24.810  26.721  1.00  0.00     0.010 A 
ATOM     71  C   UNL A   1      40.654  22.764  26.669  1.00  0.00     0.010 A 
ATOM     72  C   UNL A   1      38.256  24.113  26.245  1.00  0.00     0.020 A 
ATOM     73  C   UNL A   1      39.536  22.061  26.210  1.00  0.00     0.020 A 
ATOM     74  C   UNL A   1      38.347  22.744  25.977  1.00  0.00     0.054 A 
BRANCH  74  75
ATOM     75  S   UNL A   1      36.944  21.885  25.208  1.00  0.00     0.124 S 
ATOM     76  O   UNL A   1      36.809  22.589  23.935  1.00  0.00    -0.237 OA
ATOM     77  O   UNL A   1      37.422  20.508  25.122  1.00  0.00    -0.237 OA
ATOM     78  O   UNL A   1      35.848  22.099  26.152  1.00  0.00    -0.744 OA
ENDBRANCH  74  75
ENDBRANCH  46  69
BRANCH  58  79
ATOM     79  C   UNL A   1      46.759  25.721  26.432  1.00  0.00    -0.014 A 
ATOM     80  C   UNL A   1      46.252  26.920  25.894  1.00  0.00     0.010 A 
ATOM     81  C   UNL A   1      47.787  25.058  25.740  1.00  0.00     0.010 A 
ATOM     82  C   UNL A   1      46.750  27.432  24.687  1.00  0.00     0.020 A 
ATOM     83  C   UNL A   1      48.300  25.572  24.545  1.00  0.00     0.020 A 
ATOM     84  C   UNL A   1      47.776  26.755  24.022  1.00  0.00     0.054 A 
BRANCH  84  85
ATOM     85  S   UNL A   1      48.470  27.464  22.502  1.00  0.00     0.124 S 
ATOM     86  O   UNL A   1      47.415  28.373  22.065  1.00  0.00    -0.237 OA
ATOM     87  O   UNL A   1      49.697  28.105  22.972  1.00  0.00    -0.237 OA
ATOM     88  O   UNL A   1      48.682  26.301  21.640  1.00  0.00    -0.744 OA
ENDBRANCH  84  85
ENDBRANCH  58  79
ENDBRANCH  32  33
ENDBRANCH  25  27
ENDBRANCH  24  25
ENDBRANCH  23  24
ENDBRANCH   1  23
TORSDOF 18
ENDMDL
