MODEL 1
REMARK VINA RESULT:     -10.6      0.000      0.000
REMARK SMILES CC(C)(C)OC(=O)N1C[C@@H](Oc2cccnc2)C[C@H]1C(=O)OCCOC(=O)c1ccc(-c2c3nc(c(-c4ccc(S(=O)(=O)[O-])cc4)c4ccc([nH]4)c(-c4ccc(S(=O)(=O)[O-])cc4)c4nc(c(-c5ccc(S(=O)(=O)[O-])cc5)c5ccc2[nH]5)C=C4)C=C3)cc1
REMARK SMILES IDX 23 1 22 2 20 3 21 4 19 5 8 6 9 7 10 8 18 9 6 10 7 11 5 12
REMARK SMILES IDX 2 13 1 14 3 15 4 16 11 17 12 18 13 19 17 20 14 21 16 22
REMARK SMILES IDX 15 23 24 24 25 25 26 26 27 27 28 28 29 29 87 30 30 31 86 32
REMARK SMILES IDX 31 33 32 34 33 35 80 36 34 37 85 38 79 39 81 40 35 41 84 42
REMARK SMILES IDX 78 43 77 44 36 46 66 47 47 48 65 49 48 50 51 51 64 52 82 53
REMARK SMILES IDX 49 54 50 55 63 57 83 58 52 59 37 60 38 61 46 62 39 63 45 64
REMARK SMILES IDX 40 65 41 66 42 67 43 68 44 69 67 70 68 71 76 72 69 73 75 74
REMARK SMILES IDX 70 75 71 76 72 77 73 78 74 79 53 80 54 81 62 82 55 83 61 84
REMARK SMILES IDX 56 85 57 86 58 87 59 88 60 89
REMARK H PARENT 81 45 51 56
REMARK Flexibility Score: inf
ROOT
ATOM      1  C   UNL A   1      38.264  21.286  25.348  1.00  0.00     0.274 C 
ENDROOT
BRANCH   1   2
ATOM      2  O   UNL A   1      37.004  21.859  25.756  1.00  0.00    -0.461 OA
BRANCH   2   3
ATOM      3  C   UNL A   1      35.902  21.115  25.455  1.00  0.00     0.329 C 
ATOM      4  O   UNL A   1      35.964  19.989  24.980  1.00  0.00    -0.250 OA
BRANCH   3   5
ATOM      5  C   UNL A   1      34.596  21.884  25.721  1.00  0.00     0.202 C 
ATOM      6  N   UNL A   1      34.090  22.483  24.495  1.00  0.00    -0.291 N 
ATOM      7  C   UNL A   1      32.922  21.805  23.954  1.00  0.00     0.169 C 
ATOM      8  C   UNL A   1      32.378  20.979  25.112  1.00  0.00     0.195 C 
ATOM      9  C   UNL A   1      33.416  21.063  26.245  1.00  0.00     0.084 C 
BRANCH   6  10
ATOM     10  C   UNL A   1      34.647  23.641  24.030  1.00  0.00     0.411 C 
ATOM     11  O   UNL A   1      35.279  23.703  22.990  1.00  0.00    -0.224 OA
BRANCH  10  12
ATOM     12  O   UNL A   1      34.493  24.647  24.922  1.00  0.00    -0.444 OA
BRANCH  12  13
ATOM     13  C   UNL A   1      33.299  25.464  24.914  1.00  0.00     0.106 C 
ATOM     14  C   UNL A   1      33.806  26.886  25.192  1.00  0.00     0.056 C 
ATOM     15  C   UNL A   1      32.384  25.004  26.047  1.00  0.00     0.056 C 
ATOM     16  C   UNL A   1      32.574  25.481  23.559  1.00  0.00     0.056 C 
ENDBRANCH  12  13
ENDBRANCH  10  12
ENDBRANCH   6  10
BRANCH   8  17
ATOM     17  O   UNL A   1      31.801  19.698  24.871  1.00  0.00    -0.487 OA
BRANCH  17  18
ATOM     18  C   UNL A   1      32.471  18.540  24.660  1.00  0.00     0.138 A 
ATOM     19  C   UNL A   1      32.863  17.606  25.600  1.00  0.00     0.050 A 
ATOM     20  C   UNL A   1      32.772  18.230  23.337  1.00  0.00     0.157 A 
ATOM     21  C   UNL A   1      33.493  16.417  25.220  1.00  0.00     0.024 A 
ATOM     22  N   UNL A   1      33.417  17.108  22.931  1.00  0.00    -0.261 NA
ATOM     23  C   UNL A   1      33.756  16.217  23.881  1.00  0.00     0.111 A 
ENDBRANCH  17  18
ENDBRANCH   8  17
ENDBRANCH   3   5
ENDBRANCH   2   3
ENDBRANCH   1   2
BRANCH   1  24
ATOM     24  C   UNL A   1      39.390  21.650  26.314  1.00  0.00     0.275 C 
BRANCH  24  25
ATOM     25  O   UNL A   1      40.041  20.476  26.833  1.00  0.00    -0.458 OA
BRANCH  25  26
ATOM     26  C   UNL A   1      41.264  20.239  26.308  1.00  0.00     0.338 C 
ATOM     27  O   UNL A   1      41.627  19.250  25.692  1.00  0.00    -0.246 OA
BRANCH  26  28
ATOM     28  C   UNL A   1      42.134  21.410  26.479  1.00  0.00     0.060 A 
ATOM     29  C   UNL A   1      42.540  21.724  27.769  1.00  0.00     0.016 A 
ATOM     30  C   UNL A   1      42.361  22.303  25.436  1.00  0.00     0.016 A 
ATOM     31  C   UNL A   1      43.026  22.992  28.056  1.00  0.00     0.010 A 
ATOM     32  C   UNL A   1      42.987  23.527  25.706  1.00  0.00     0.010 A 
ATOM     33  C   UNL A   1      43.286  23.906  27.027  1.00  0.00    -0.014 A 
BRANCH  33  34
ATOM     34  C   UNL A   1      43.869  25.237  27.357  1.00  0.00     0.031 A 
ATOM     35  C   UNL A   1      43.043  26.298  28.030  1.00  0.00     0.074 A 
ATOM     36  C   UNL A   1      45.169  25.481  27.089  1.00  0.00     0.049 A 
ATOM     37  N   UNL A   1      43.353  27.544  28.283  1.00  0.00    -0.248 NA
ATOM     38  C   UNL A   1      41.689  25.917  28.462  1.00  0.00     0.031 C 
ATOM     39  C   UNL A   1      46.098  24.521  26.492  1.00  0.00     0.029 A 
ATOM     40  N   UNL A   1      45.947  26.590  27.318  1.00  0.00    -0.354 N 
ATOM     41  C   UNL A   1      42.211  28.117  28.832  1.00  0.00     0.074 A 
ATOM     42  C   UNL A   1      41.208  27.075  28.894  1.00  0.00     0.031 C 
ATOM     43  C   UNL A   1      47.330  25.046  26.483  1.00  0.00     0.029 A 
ATOM     44  C   UNL A   1      47.268  26.415  26.970  1.00  0.00     0.049 A 
ATOM     45  H   UNL A   1      45.594  27.428  27.693  1.00  0.00     0.167 HD
ATOM     46  C   UNL A   1      42.015  29.402  29.217  1.00  0.00     0.031 A 
ATOM     47  C   UNL A   1      48.314  27.262  27.005  1.00  0.00     0.031 A 
ATOM     48  C   UNL A   1      43.028  30.425  29.165  1.00  0.00     0.049 A 
ATOM     49  C   UNL A   1      48.073  28.679  27.432  1.00  0.00     0.074 A 
ATOM     50  C   UNL A   1      42.921  31.763  29.505  1.00  0.00     0.029 A 
ATOM     51  N   UNL A   1      44.339  30.221  28.755  1.00  0.00    -0.354 N 
ATOM     52  N   UNL A   1      46.963  29.226  27.871  1.00  0.00    -0.248 NA
ATOM     53  C   UNL A   1      49.208  29.604  27.332  1.00  0.00     0.031 C 
ATOM     54  C   UNL A   1      44.153  32.378  29.251  1.00  0.00     0.029 A 
ATOM     55  C   UNL A   1      45.045  31.413  28.809  1.00  0.00     0.049 A 
ATOM     56  H   UNL A   1      44.712  29.357  28.469  1.00  0.00     0.167 HD
ATOM     57  C   UNL A   1      47.259  30.567  28.073  1.00  0.00     0.074 A 
ATOM     58  C   UNL A   1      48.665  30.736  27.759  1.00  0.00     0.031 C 
ATOM     59  C   UNL A   1      46.436  31.570  28.464  1.00  0.00     0.031 A 
BRANCH  46  60
ATOM     60  C   UNL A   1      40.618  29.787  29.635  1.00  0.00    -0.014 A 
ATOM     61  C   UNL A   1      39.608  30.065  28.699  1.00  0.00     0.010 A 
ATOM     62  C   UNL A   1      40.322  29.887  31.008  1.00  0.00     0.010 A 
ATOM     63  C   UNL A   1      38.345  30.490  29.127  1.00  0.00     0.020 A 
ATOM     64  C   UNL A   1      39.055  30.284  31.441  1.00  0.00     0.020 A 
ATOM     65  C   UNL A   1      38.081  30.609  30.496  1.00  0.00     0.054 A 
BRANCH  65  66
ATOM     66  S   UNL A   1      36.447  31.190  31.027  1.00  0.00     0.124 S 
ATOM     67  O   UNL A   1      36.661  32.630  31.137  1.00  0.00    -0.237 OA
ATOM     68  O   UNL A   1      35.581  30.766  29.928  1.00  0.00    -0.237 OA
ATOM     69  O   UNL A   1      36.225  30.494  32.293  1.00  0.00    -0.744 OA
ENDBRANCH  65  66
ENDBRANCH  46  60
BRANCH  47  70
ATOM     70  C   UNL A   1      49.661  26.799  26.562  1.00  0.00    -0.014 A 
ATOM     71  C   UNL A   1      50.449  25.984  27.394  1.00  0.00     0.010 A 
ATOM     72  C   UNL A   1      50.142  27.127  25.279  1.00  0.00     0.010 A 
ATOM     73  C   UNL A   1      51.685  25.500  26.949  1.00  0.00     0.020 A 
ATOM     74  C   UNL A   1      51.359  26.617  24.819  1.00  0.00     0.020 A 
ATOM     75  C   UNL A   1      52.128  25.812  25.661  1.00  0.00     0.054 A 
BRANCH  75  76
ATOM     76  S   UNL A   1      53.688  25.104  25.064  1.00  0.00     0.124 S 
ATOM     77  O   UNL A   1      53.697  25.520  23.665  1.00  0.00    -0.237 OA
ATOM     78  O   UNL A   1      54.684  25.745  25.919  1.00  0.00    -0.237 OA
ATOM     79  O   UNL A   1      53.520  23.670  25.289  1.00  0.00    -0.744 OA
ENDBRANCH  75  76
ENDBRANCH  47  70
BRANCH  59  80
ATOM     80  C   UNL A   1      47.035  32.946  28.552  1.00  0.00    -0.014 A 
ATOM     81  C   UNL A   1      47.005  33.817  27.447  1.00  0.00     0.010 A 
ATOM     82  C   UNL A   1      47.602  33.388  29.760  1.00  0.00     0.010 A 
ATOM     83  C   UNL A   1      47.557  35.096  27.541  1.00  0.00     0.020 A 
ATOM     84  C   UNL A   1      48.133  34.676  29.865  1.00  0.00     0.020 A 
ATOM     85  C   UNL A   1      48.119  35.517  28.750  1.00  0.00     0.054 A 
BRANCH  85  86
ATOM     86  S   UNL A   1      48.795  37.197  28.859  1.00  0.00     0.124 S 
ATOM     87  O   UNL A   1      49.185  37.458  27.475  1.00  0.00    -0.237 OA
ATOM     88  O   UNL A   1      47.657  37.971  29.347  1.00  0.00    -0.237 OA
ATOM     89  O   UNL A   1      49.901  37.064  29.804  1.00  0.00    -0.744 OA
ENDBRANCH  85  86
ENDBRANCH  59  80
ENDBRANCH  33  34
ENDBRANCH  26  28
ENDBRANCH  25  26
ENDBRANCH  24  25
ENDBRANCH   1  24
TORSDOF 19
ENDMDL
MODEL 2
REMARK VINA RESULT:     -10.6      1.643      2.386
REMARK SMILES CC(C)(C)OC(=O)N1C[C@@H](Oc2cccnc2)C[C@H]1C(=O)OCCOC(=O)c1ccc(-c2c3nc(c(-c4ccc(S(=O)(=O)[O-])cc4)c4ccc([nH]4)c(-c4ccc(S(=O)(=O)[O-])cc4)c4nc(c(-c5ccc(S(=O)(=O)[O-])cc5)c5ccc2[nH]5)C=C4)C=C3)cc1
REMARK SMILES IDX 23 1 22 2 20 3 21 4 19 5 8 6 9 7 10 8 18 9 6 10 7 11 5 12
REMARK SMILES IDX 2 13 1 14 3 15 4 16 11 17 12 18 13 19 17 20 14 21 16 22
REMARK SMILES IDX 15 23 24 24 25 25 26 26 27 27 28 28 29 29 87 30 30 31 86 32
REMARK SMILES IDX 31 33 32 34 33 35 80 36 34 37 85 38 79 39 81 40 35 41 84 42
REMARK SMILES IDX 78 43 77 44 36 46 66 47 47 48 65 49 48 50 51 51 64 52 82 53
REMARK SMILES IDX 49 54 50 55 63 57 83 58 52 59 37 60 38 61 46 62 39 63 45 64
REMARK SMILES IDX 40 65 41 66 42 67 43 68 44 69 67 70 68 71 76 72 69 73 75 74
REMARK SMILES IDX 70 75 71 76 72 77 73 78 74 79 53 80 54 81 62 82 55 83 61 84
REMARK SMILES IDX 56 85 57 86 58 87 59 88 60 89
REMARK H PARENT 81 45 51 56
REMARK Flexibility Score: inf
ROOT
ATOM      1  C   UNL A   1      35.918  21.287  25.700  1.00  0.00     0.274 C 
ENDROOT
BRANCH   1   2
ATOM      2  O   UNL A   1      35.516  22.671  25.758  1.00  0.00    -0.461 OA
BRANCH   2   3
ATOM      3  C   UNL A   1      34.433  22.930  26.545  1.00  0.00     0.329 C 
ATOM      4  O   UNL A   1      34.482  22.946  27.767  1.00  0.00    -0.250 OA
BRANCH   3   5
ATOM      5  C   UNL A   1      33.151  23.128  25.716  1.00  0.00     0.202 C 
ATOM      6  N   UNL A   1      33.441  23.055  24.292  1.00  0.00    -0.291 N 
ATOM      7  C   UNL A   1      32.984  21.823  23.666  1.00  0.00     0.169 C 
ATOM      8  C   UNL A   1      31.966  21.245  24.640  1.00  0.00     0.195 C 
ATOM      9  C   UNL A   1      32.041  22.095  25.920  1.00  0.00     0.084 C 
BRANCH   6  10
ATOM     10  C   UNL A   1      33.987  24.135  23.658  1.00  0.00     0.411 C 
ATOM     11  O   UNL A   1      34.841  24.036  22.793  1.00  0.00    -0.224 OA
BRANCH  10  12
ATOM     12  O   UNL A   1      33.537  25.293  24.194  1.00  0.00    -0.444 OA
BRANCH  12  13
ATOM     13  C   UNL A   1      32.500  26.057  23.533  1.00  0.00     0.106 C 
ATOM     14  C   UNL A   1      33.258  27.159  22.780  1.00  0.00     0.056 C 
ATOM     15  C   UNL A   1      31.596  26.677  24.598  1.00  0.00     0.056 C 
ATOM     16  C   UNL A   1      31.701  25.247  22.501  1.00  0.00     0.056 C 
ENDBRANCH  12  13
ENDBRANCH  10  12
ENDBRANCH   6  10
BRANCH   8  17
ATOM     17  O   UNL A   1      31.863  19.834  24.818  1.00  0.00    -0.487 OA
BRANCH  17  18
ATOM     18  C   UNL A   1      32.688  18.895  24.295  1.00  0.00     0.138 A 
ATOM     19  C   UNL A   1      33.865  18.409  24.833  1.00  0.00     0.050 A 
ATOM     20  C   UNL A   1      32.291  18.321  23.091  1.00  0.00     0.157 A 
ATOM     21  C   UNL A   1      34.577  17.383  24.205  1.00  0.00     0.024 A 
ATOM     22  N   UNL A   1      32.973  17.353  22.431  1.00  0.00    -0.261 NA
ATOM     23  C   UNL A   1      34.100  16.895  23.006  1.00  0.00     0.111 A 
ENDBRANCH  17  18
ENDBRANCH   8  17
ENDBRANCH   3   5
ENDBRANCH   2   3
ENDBRANCH   1   2
BRANCH   1  24
ATOM     24  C   UNL A   1      37.337  21.132  25.156  1.00  0.00     0.275 C 
BRANCH  24  25
ATOM     25  O   UNL A   1      38.159  22.263  25.498  1.00  0.00    -0.458 OA
BRANCH  25  26
ATOM     26  C   UNL A   1      39.260  21.954  26.219  1.00  0.00     0.338 C 
ATOM     27  O   UNL A   1      39.836  20.879  26.268  1.00  0.00    -0.246 OA
BRANCH  26  28
ATOM     28  C   UNL A   1      39.783  23.147  26.898  1.00  0.00     0.060 A 
ATOM     29  C   UNL A   1      39.426  24.386  26.383  1.00  0.00     0.016 A 
ATOM     30  C   UNL A   1      40.772  23.052  27.873  1.00  0.00     0.016 A 
ATOM     31  C   UNL A   1      40.162  25.515  26.715  1.00  0.00     0.010 A 
ATOM     32  C   UNL A   1      41.414  24.216  28.314  1.00  0.00     0.010 A 
ATOM     33  C   UNL A   1      41.149  25.457  27.707  1.00  0.00    -0.014 A 
BRANCH  33  34
ATOM     34  C   UNL A   1      41.878  26.699  28.090  1.00  0.00     0.031 A 
ATOM     35  C   UNL A   1      41.186  27.800  28.847  1.00  0.00     0.074 A 
ATOM     36  C   UNL A   1      43.188  26.822  27.793  1.00  0.00     0.049 A 
ATOM     37  N   UNL A   1      41.632  28.990  29.157  1.00  0.00    -0.248 NA
ATOM     38  C   UNL A   1      39.812  27.536  29.302  1.00  0.00     0.031 C 
ATOM     39  C   UNL A   1      43.995  25.808  27.113  1.00  0.00     0.029 A 
ATOM     40  N   UNL A   1      44.084  27.830  28.056  1.00  0.00    -0.354 N 
ATOM     41  C   UNL A   1      40.573  29.645  29.774  1.00  0.00     0.074 A 
ATOM     42  C   UNL A   1      39.467  28.711  29.813  1.00  0.00     0.031 C 
ATOM     43  C   UNL A   1      45.274  26.203  27.092  1.00  0.00     0.029 A 
ATOM     44  C   UNL A   1      45.370  27.540  27.656  1.00  0.00     0.049 A 
ATOM     45  H   UNL A   1      43.832  28.677  28.487  1.00  0.00     0.167 HD
ATOM     46  C   UNL A   1      40.523  30.919  30.236  1.00  0.00     0.031 A 
ATOM     47  C   UNL A   1      46.500  28.271  27.701  1.00  0.00     0.031 A 
ATOM     48  C   UNL A   1      41.636  31.833  30.206  1.00  0.00     0.049 A 
ATOM     49  C   UNL A   1      46.420  29.678  28.214  1.00  0.00     0.074 A 
ATOM     50  C   UNL A   1      41.680  33.153  30.622  1.00  0.00     0.029 A 
ATOM     51  N   UNL A   1      42.907  31.519  29.742  1.00  0.00    -0.354 N 
ATOM     52  N   UNL A   1      45.387  30.310  28.718  1.00  0.00    -0.248 NA
ATOM     53  C   UNL A   1      47.643  30.485  28.127  1.00  0.00     0.031 C 
ATOM     54  C   UNL A   1      42.963  33.651  30.361  1.00  0.00     0.029 A 
ATOM     55  C   UNL A   1      43.735  32.626  29.838  1.00  0.00     0.049 A 
ATOM     56  H   UNL A   1      43.179  30.639  29.396  1.00  0.00     0.167 HD
ATOM     57  C   UNL A   1      45.828  31.599  28.984  1.00  0.00     0.074 A 
ATOM     58  C   UNL A   1      47.234  31.641  28.633  1.00  0.00     0.031 C 
ATOM     59  C   UNL A   1      45.125  32.658  29.456  1.00  0.00     0.031 A 
BRANCH  46  60
ATOM     60  C   UNL A   1      39.187  31.422  30.720  1.00  0.00    -0.014 A 
ATOM     61  C   UNL A   1      38.261  32.032  29.857  1.00  0.00     0.010 A 
ATOM     62  C   UNL A   1      38.864  31.289  32.084  1.00  0.00     0.010 A 
ATOM     63  C   UNL A   1      37.062  32.551  30.360  1.00  0.00     0.020 A 
ATOM     64  C   UNL A   1      37.656  31.781  32.586  1.00  0.00     0.020 A 
ATOM     65  C   UNL A   1      36.774  32.433  31.724  1.00  0.00     0.054 A 
BRANCH  65  66
ATOM     66  S   UNL A   1      35.227  33.139  32.358  1.00  0.00     0.124 S 
ATOM     67  O   UNL A   1      35.308  32.811  33.779  1.00  0.00    -0.237 OA
ATOM     68  O   UNL A   1      35.363  34.557  32.033  1.00  0.00    -0.237 OA
ATOM     69  O   UNL A   1      34.190  32.430  31.612  1.00  0.00    -0.744 OA
ENDBRANCH  65  66
ENDBRANCH  46  60
BRANCH  47  70
ATOM     70  C   UNL A   1      47.778  27.697  27.190  1.00  0.00    -0.014 A 
ATOM     71  C   UNL A   1      48.163  27.884  25.851  1.00  0.00     0.010 A 
ATOM     72  C   UNL A   1      48.645  27.003  28.056  1.00  0.00     0.010 A 
ATOM     73  C   UNL A   1      49.393  27.397  25.392  1.00  0.00     0.020 A 
ATOM     74  C   UNL A   1      49.888  26.547  27.611  1.00  0.00     0.020 A 
ATOM     75  C   UNL A   1      50.252  26.740  26.277  1.00  0.00     0.054 A 
BRANCH  75  76
ATOM     76  S   UNL A   1      51.881  26.195  25.691  1.00  0.00     0.124 S 
ATOM     77  O   UNL A   1      52.779  27.097  26.406  1.00  0.00    -0.237 OA
ATOM     78  O   UNL A   1      51.926  24.797  26.110  1.00  0.00    -0.237 OA
ATOM     79  O   UNL A   1      51.809  26.399  24.246  1.00  0.00    -0.744 OA
ENDBRANCH  75  76
ENDBRANCH  47  70
BRANCH  59  80
ATOM     80  C   UNL A   1      45.868  33.958  29.599  1.00  0.00    -0.014 A 
ATOM     81  C   UNL A   1      45.884  34.897  28.552  1.00  0.00     0.010 A 
ATOM     82  C   UNL A   1      46.526  34.259  30.803  1.00  0.00     0.010 A 
ATOM     83  C   UNL A   1      46.571  36.105  28.697  1.00  0.00     0.020 A 
ATOM     84  C   UNL A   1      47.193  35.478  30.962  1.00  0.00     0.020 A 
ATOM     85  C   UNL A   1      47.222  36.387  29.902  1.00  0.00     0.054 A 
BRANCH  85  86
ATOM     86  S   UNL A   1      48.074  37.978  30.080  1.00  0.00     0.124 S 
ATOM     87  O   UNL A   1      49.403  37.672  29.559  1.00  0.00    -0.237 OA
ATOM     88  O   UNL A   1      47.265  38.870  29.254  1.00  0.00    -0.237 OA
ATOM     89  O   UNL A   1      48.012  38.244  31.516  1.00  0.00    -0.744 OA
ENDBRANCH  85  86
ENDBRANCH  59  80
ENDBRANCH  33  34
ENDBRANCH  26  28
ENDBRANCH  25  26
ENDBRANCH  24  25
ENDBRANCH   1  24
TORSDOF 19
ENDMDL
MODEL 3
REMARK VINA RESULT:     -10.4      3.106      8.039
REMARK SMILES CC(C)(C)OC(=O)N1C[C@@H](Oc2cccnc2)C[C@H]1C(=O)OCCOC(=O)c1ccc(-c2c3nc(c(-c4ccc(S(=O)(=O)[O-])cc4)c4ccc([nH]4)c(-c4ccc(S(=O)(=O)[O-])cc4)c4nc(c(-c5ccc(S(=O)(=O)[O-])cc5)c5ccc2[nH]5)C=C4)C=C3)cc1
REMARK SMILES IDX 23 1 22 2 20 3 21 4 19 5 8 6 9 7 10 8 18 9 6 10 7 11 5 12
REMARK SMILES IDX 2 13 1 14 3 15 4 16 11 17 12 18 13 19 17 20 14 21 16 22
REMARK SMILES IDX 15 23 24 24 25 25 26 26 27 27 28 28 29 29 87 30 30 31 86 32
REMARK SMILES IDX 31 33 32 34 33 35 80 36 34 37 85 38 79 39 81 40 35 41 84 42
REMARK SMILES IDX 78 43 77 44 36 46 66 47 47 48 65 49 48 50 51 51 64 52 82 53
REMARK SMILES IDX 49 54 50 55 63 57 83 58 52 59 37 60 38 61 46 62 39 63 45 64
REMARK SMILES IDX 40 65 41 66 42 67 43 68 44 69 67 70 68 71 76 72 69 73 75 74
REMARK SMILES IDX 70 75 71 76 72 77 73 78 74 79 53 80 54 81 62 82 55 83 61 84
REMARK SMILES IDX 56 85 57 86 58 87 59 88 60 89
REMARK H PARENT 81 45 51 56
REMARK Flexibility Score: inf
ROOT
ATOM      1  C   UNL A   1      32.041  27.185  26.705  1.00  0.00     0.274 C 
ENDROOT
BRANCH   1   2
ATOM      2  O   UNL A   1      32.055  26.069  25.790  1.00  0.00    -0.461 OA
BRANCH   2   3
ATOM      3  C   UNL A   1      32.304  24.854  26.357  1.00  0.00     0.329 C 
ATOM      4  O   UNL A   1      31.638  24.395  27.275  1.00  0.00    -0.250 OA
BRANCH   3   5
ATOM      5  C   UNL A   1      33.547  24.179  25.751  1.00  0.00     0.202 C 
ATOM      6  N   UNL A   1      33.170  23.013  24.966  1.00  0.00    -0.291 N 
ATOM      7  C   UNL A   1      33.274  23.219  23.529  1.00  0.00     0.169 C 
ATOM      8  C   UNL A   1      34.170  24.440  23.373  1.00  0.00     0.195 C 
ATOM      9  C   UNL A   1      34.378  25.023  24.782  1.00  0.00     0.084 C 
BRANCH   6  10
ATOM     10  C   UNL A   1      32.873  21.840  25.599  1.00  0.00     0.411 C 
ATOM     11  O   UNL A   1      33.139  21.632  26.771  1.00  0.00    -0.224 OA
BRANCH  10  12
ATOM     12  O   UNL A   1      32.362  20.934  24.733  1.00  0.00    -0.444 OA
BRANCH  12  13
ATOM     13  C   UNL A   1      32.955  19.621  24.604  1.00  0.00     0.106 C 
ATOM     14  C   UNL A   1      34.468  19.880  24.628  1.00  0.00     0.056 C 
ATOM     15  C   UNL A   1      32.547  19.029  23.256  1.00  0.00     0.056 C 
ATOM     16  C   UNL A   1      32.622  18.677  25.771  1.00  0.00     0.056 C 
ENDBRANCH  12  13
ENDBRANCH  10  12
ENDBRANCH   6  10
BRANCH   8  17
ATOM     17  O   UNL A   1      33.931  25.377  22.326  1.00  0.00    -0.487 OA
BRANCH  17  18
ATOM     18  C   UNL A   1      33.032  26.391  22.342  1.00  0.00     0.138 A 
ATOM     19  C   UNL A   1      31.655  26.301  22.283  1.00  0.00     0.050 A 
ATOM     20  C   UNL A   1      33.550  27.677  22.472  1.00  0.00     0.157 A 
ATOM     21  C   UNL A   1      30.851  27.441  22.380  1.00  0.00     0.024 A 
ATOM     22  N   UNL A   1      32.806  28.810  22.529  1.00  0.00    -0.261 NA
ATOM     23  C   UNL A   1      31.468  28.669  22.492  1.00  0.00     0.111 A 
ENDBRANCH  17  18
ENDBRANCH   8  17
ENDBRANCH   3   5
ENDBRANCH   2   3
ENDBRANCH   1   2
BRANCH   1  24
ATOM     24  C   UNL A   1      33.184  28.158  26.426  1.00  0.00     0.275 C 
BRANCH  24  25
ATOM     25  O   UNL A   1      33.814  28.597  27.644  1.00  0.00    -0.458 OA
BRANCH  25  26
ATOM     26  C   UNL A   1      34.305  29.856  27.596  1.00  0.00     0.338 C 
ATOM     27  O   UNL A   1      33.703  30.875  27.298  1.00  0.00    -0.246 OA
BRANCH  26  28
ATOM     28  C   UNL A   1      35.696  29.885  28.065  1.00  0.00     0.060 A 
ATOM     29  C   UNL A   1      36.684  30.152  27.127  1.00  0.00     0.016 A 
ATOM     30  C   UNL A   1      36.041  29.444  29.340  1.00  0.00     0.016 A 
ATOM     31  C   UNL A   1      38.006  29.826  27.397  1.00  0.00     0.010 A 
ATOM     32  C   UNL A   1      37.392  29.255  29.658  1.00  0.00     0.010 A 
ATOM     33  C   UNL A   1      38.389  29.400  28.676  1.00  0.00    -0.014 A 
BRANCH  33  34
ATOM     34  C   UNL A   1      39.825  29.121  28.957  1.00  0.00     0.031 A 
ATOM     35  C   UNL A   1      40.688  30.135  29.655  1.00  0.00     0.074 A 
ATOM     36  C   UNL A   1      40.351  27.925  28.619  1.00  0.00     0.049 A 
ATOM     37  N   UNL A   1      41.978  30.106  29.874  1.00  0.00    -0.248 NA
ATOM     38  C   UNL A   1      40.021  31.345  30.161  1.00  0.00     0.031 C 
ATOM     39  C   UNL A   1      39.612  26.830  27.989  1.00  0.00     0.029 A 
ATOM     40  N   UNL A   1      41.613  27.411  28.792  1.00  0.00    -0.354 N 
ATOM     41  C   UNL A   1      42.291  31.322  30.472  1.00  0.00     0.074 A 
ATOM     42  C   UNL A   1      41.050  32.057  30.601  1.00  0.00     0.031 C 
ATOM     43  C   UNL A   1      40.403  25.752  27.910  1.00  0.00     0.029 A 
ATOM     44  C   UNL A   1      41.734  26.102  28.380  1.00  0.00     0.049 A 
ATOM     45  H   UNL A   1      42.359  27.927  29.172  1.00  0.00     0.167 HD
ATOM     46  C   UNL A   1      43.507  31.788  30.848  1.00  0.00     0.031 A 
ATOM     47  C   UNL A   1      42.797  25.276  28.349  1.00  0.00     0.031 A 
ATOM     48  C   UNL A   1      44.731  31.039  30.730  1.00  0.00     0.049 A 
ATOM     49  C   UNL A   1      44.133  25.814  28.768  1.00  0.00     0.074 A 
ATOM     50  C   UNL A   1      46.019  31.432  31.056  1.00  0.00     0.029 A 
ATOM     51  N   UNL A   1      44.821  29.736  30.257  1.00  0.00    -0.354 N 
ATOM     52  N   UNL A   1      44.424  26.998  29.254  1.00  0.00    -0.248 NA
ATOM     53  C   UNL A   1      45.288  24.926  28.596  1.00  0.00     0.031 C 
ATOM     54  C   UNL A   1      46.891  30.386  30.730  1.00  0.00     0.029 A 
ATOM     55  C   UNL A   1      46.142  29.319  30.258  1.00  0.00     0.049 A 
ATOM     56  H   UNL A   1      44.057  29.189  29.964  1.00  0.00     0.167 HD
ATOM     57  C   UNL A   1      45.802  27.006  29.422  1.00  0.00     0.074 A 
ATOM     58  C   UNL A   1      46.279  25.693  29.034  1.00  0.00     0.031 C 
ATOM     59  C   UNL A   1      46.602  28.018  29.840  1.00  0.00     0.031 A 
BRANCH  46  60
ATOM     60  C   UNL A   1      43.576  33.215  31.331  1.00  0.00    -0.014 A 
ATOM     61  C   UNL A   1      43.692  34.299  30.445  1.00  0.00     0.010 A 
ATOM     62  C   UNL A   1      43.537  33.467  32.716  1.00  0.00     0.010 A 
ATOM     63  C   UNL A   1      43.827  35.603  30.936  1.00  0.00     0.020 A 
ATOM     64  C   UNL A   1      43.643  34.769  33.211  1.00  0.00     0.020 A 
ATOM     65  C   UNL A   1      43.814  35.827  32.317  1.00  0.00     0.054 A 
BRANCH  65  66
ATOM     66  S   UNL A   1      44.019  37.522  32.932  1.00  0.00     0.124 S 
ATOM     67  O   UNL A   1      42.884  37.651  33.841  1.00  0.00    -0.237 OA
ATOM     68  O   UNL A   1      45.333  37.476  33.571  1.00  0.00    -0.237 OA
ATOM     69  O   UNL A   1      43.948  38.341  31.724  1.00  0.00    -0.744 OA
ENDBRANCH  65  66
ENDBRANCH  46  60
BRANCH  47  70
ATOM     70  C   UNL A   1      42.640  23.881  27.845  1.00  0.00    -0.014 A 
ATOM     71  C   UNL A   1      42.315  22.833  28.723  1.00  0.00     0.010 A 
ATOM     72  C   UNL A   1      42.763  23.602  26.469  1.00  0.00     0.010 A 
ATOM     73  C   UNL A   1      42.108  21.537  28.236  1.00  0.00     0.020 A 
ATOM     74  C   UNL A   1      42.522  22.317  25.975  1.00  0.00     0.020 A 
ATOM     75  C   UNL A   1      42.203  21.289  26.864  1.00  0.00     0.054 A 
BRANCH  75  76
ATOM     76  S   UNL A   1      41.842  19.625  26.236  1.00  0.00     0.124 S 
ATOM     77  O   UNL A   1      42.350  18.777  27.310  1.00  0.00    -0.237 OA
ATOM     78  O   UNL A   1      40.390  19.645  26.081  1.00  0.00    -0.237 OA
ATOM     79  O   UNL A   1      42.590  19.564  24.982  1.00  0.00    -0.744 OA
ENDBRANCH  75  76
ENDBRANCH  47  70
BRANCH  59  80
ATOM     80  C   UNL A   1      48.080  27.745  29.877  1.00  0.00    -0.014 A 
ATOM     81  C   UNL A   1      48.895  28.038  28.768  1.00  0.00     0.010 A 
ATOM     82  C   UNL A   1      48.667  27.223  31.043  1.00  0.00     0.010 A 
ATOM     83  C   UNL A   1      50.269  27.788  28.815  1.00  0.00     0.020 A 
ATOM     84  C   UNL A   1      50.045  26.996  31.102  1.00  0.00     0.020 A 
ATOM     85  C   UNL A   1      50.834  27.267  29.983  1.00  0.00     0.054 A 
BRANCH  85  86
ATOM     86  S   UNL A   1      52.626  26.988  30.033  1.00  0.00     0.124 S 
ATOM     87  O   UNL A   1      53.137  28.335  30.272  1.00  0.00    -0.237 OA
ATOM     88  O   UNL A   1      52.775  26.052  31.144  1.00  0.00    -0.237 OA
ATOM     89  O   UNL A   1      52.926  26.432  28.715  1.00  0.00    -0.744 OA
ENDBRANCH  85  86
ENDBRANCH  59  80
ENDBRANCH  33  34
ENDBRANCH  26  28
ENDBRANCH  25  26
ENDBRANCH  24  25
ENDBRANCH   1  24
TORSDOF 19
ENDMDL
