MODEL 1
REMARK VINA RESULT:     -11.9      0.000      0.000
REMARK SMILES Cc1ccc(CN(CC(=O)OCCOC(=O)c2ccc(-c3c4nc(c(-c5ccc(S(=O)(=O)[O-])cc5)c5ccc([nH]5)c(-c5ccc(S(=O)(=O)[O-])cc5)c5nc(c(-c6ccc(S(=O)(=O)[O-])cc6)c6ccc3[nH]6)C=C5)C=C4)cc2)C(=O)c2cc3c(s2)CCOC3)cc1
REMARK SMILES IDX 12 1 11 2 9 3 10 4 8 5 7 6 6 7 5 8 1 9 2 10 3 11 89 12 4 13
REMARK SMILES IDX 88 14 77 15 78 16 79 17 80 18 83 19 81 20 82 21 87 22 84 23
REMARK SMILES IDX 86 24 85 25 13 26 14 27 15 28 16 29 17 30 18 31 76 32 19 33
REMARK SMILES IDX 75 34 20 35 21 36 22 37 69 38 23 39 74 40 68 41 70 42 24 43
REMARK SMILES IDX 73 44 67 45 66 46 25 48 55 49 36 50 54 51 37 52 40 53 53 54
REMARK SMILES IDX 71 55 38 56 39 57 52 59 72 60 41 61 26 62 27 63 35 64 28 65
REMARK SMILES IDX 34 66 29 67 30 68 31 69 32 70 33 71 56 72 57 73 65 74 58 75
REMARK SMILES IDX 64 76 59 77 60 78 61 79 62 80 63 81 42 82 43 83 51 84 44 85
REMARK SMILES IDX 50 86 45 87 46 88 47 89 48 90 49 91
REMARK H PARENT 70 47 40 58
REMARK Flexibility Score: inf
ROOT
ATOM      1  C   UNL A   1      35.890  22.916  25.571  1.00  0.00     0.274 C 
ENDROOT
BRANCH   1   2
ATOM      2  O   UNL A   1      35.422  24.079  24.896  1.00  0.00    -0.461 OA
BRANCH   2   3
ATOM      3  C   UNL A   1      34.367  23.909  24.052  1.00  0.00     0.325 C 
ATOM      4  O   UNL A   1      33.921  22.826  23.697  1.00  0.00    -0.250 OA
BRANCH   3   5
ATOM      5  C   UNL A   1      33.790  25.259  23.648  1.00  0.00     0.242 C 
BRANCH   5   6
ATOM      6  N   UNL A   1      32.467  25.369  24.253  1.00  0.00    -0.323 N 
BRANCH   6   7
ATOM      7  C   UNL A   1      32.472  25.315  25.710  1.00  0.00     0.156 C 
BRANCH   7   8
ATOM      8  C   UNL A   1      32.708  26.687  26.283  1.00  0.00    -0.029 A 
ATOM      9  C   UNL A   1      33.170  30.826  27.332  1.00  0.00     0.044 C 
ATOM     10  C   UNL A   1      33.026  29.363  27.057  1.00  0.00    -0.051 A 
ATOM     11  C   UNL A   1      34.121  28.636  26.579  1.00  0.00     0.004 A 
ATOM     12  C   UNL A   1      31.793  28.722  27.214  1.00  0.00     0.004 A 
ATOM     13  C   UNL A   1      33.966  27.305  26.203  1.00  0.00     0.006 A 
ATOM     14  C   UNL A   1      31.636  27.393  26.832  1.00  0.00     0.006 A 
ENDBRANCH   7   8
ENDBRANCH   6   7
BRANCH   6  15
ATOM     15  C   UNL A   1      31.233  25.320  23.572  1.00  0.00     0.264 C 
ATOM     16  O   UNL A   1      30.819  24.234  23.154  1.00  0.00    -0.268 OA
BRANCH  15  17
ATOM     17  C   UNL A   1      30.450  26.532  23.349  1.00  0.00     0.093 A 
ATOM     18  C   UNL A   1      29.178  26.858  23.805  1.00  0.00     0.032 A 
ATOM     19  S   UNL A   1      31.182  27.895  22.590  1.00  0.00    -0.135 S 
ATOM     20  C   UNL A   1      28.704  28.102  23.257  1.00  0.00    -0.008 A 
ATOM     21  C   UNL A   1      29.742  28.796  22.672  1.00  0.00     0.013 A 
ATOM     22  C   UNL A   1      27.280  28.590  23.087  1.00  0.00     0.196 C 
ATOM     23  C   UNL A   1      29.543  30.157  22.080  1.00  0.00     0.075 C 
ATOM     24  O   UNL A   1      27.207  29.992  22.732  1.00  0.00    -0.376 OA
ATOM     25  C   UNL A   1      28.082  30.270  21.615  1.00  0.00     0.166 C 
ENDBRANCH  15  17
ENDBRANCH   6  15
ENDBRANCH   5   6
ENDBRANCH   3   5
ENDBRANCH   2   3
ENDBRANCH   1   2
BRANCH   1  26
ATOM     26  C   UNL A   1      37.388  23.086  25.873  1.00  0.00     0.275 C 
BRANCH  26  27
ATOM     27  O   UNL A   1      37.867  24.227  26.656  1.00  0.00    -0.458 OA
BRANCH  27  28
ATOM     28  C   UNL A   1      39.125  24.320  27.141  1.00  0.00     0.338 C 
ATOM     29  O   UNL A   1      40.012  23.491  26.957  1.00  0.00    -0.246 OA
BRANCH  28  30
ATOM     30  C   UNL A   1      39.496  25.557  27.771  1.00  0.00     0.060 A 
ATOM     31  C   UNL A   1      40.001  26.598  26.954  1.00  0.00     0.016 A 
ATOM     32  C   UNL A   1      39.025  25.744  29.053  1.00  0.00     0.016 A 
ATOM     33  C   UNL A   1      39.971  27.882  27.422  1.00  0.00     0.010 A 
ATOM     34  C   UNL A   1      38.739  27.016  29.395  1.00  0.00     0.010 A 
ATOM     35  C   UNL A   1      39.333  28.047  28.642  1.00  0.00    -0.014 A 
BRANCH  35  36
ATOM     36  C   UNL A   1      39.549  29.196  29.475  1.00  0.00     0.031 A 
ATOM     37  C   UNL A   1      38.725  30.366  29.170  1.00  0.00     0.074 A 
ATOM     38  C   UNL A   1      40.288  28.794  30.540  1.00  0.00     0.049 A 
ATOM     39  N   UNL A   1      39.122  31.588  29.236  1.00  0.00    -0.248 NA
ATOM     40  C   UNL A   1      37.376  30.250  28.582  1.00  0.00     0.031 C 
ATOM     41  C   UNL A   1      40.378  29.248  31.908  1.00  0.00     0.029 A 
ATOM     42  N   UNL A   1      41.195  27.706  30.519  1.00  0.00    -0.354 N 
ATOM     43  C   UNL A   1      37.943  32.307  29.289  1.00  0.00     0.074 A 
ATOM     44  C   UNL A   1      36.978  31.527  28.561  1.00  0.00     0.031 C 
ATOM     45  C   UNL A   1      41.490  28.713  32.461  1.00  0.00     0.029 A 
ATOM     46  C   UNL A   1      42.212  27.983  31.415  1.00  0.00     0.049 A 
ATOM     47  H   UNL A   1      41.116  26.898  29.964  1.00  0.00     0.167 HD
ATOM     48  C   UNL A   1      37.754  33.165  30.333  1.00  0.00     0.031 A 
ATOM     49  C   UNL A   1      43.455  28.269  30.921  1.00  0.00     0.031 A 
ATOM     50  C   UNL A   1      38.880  33.064  31.265  1.00  0.00     0.049 A 
ATOM     51  C   UNL A   1      43.694  29.746  31.081  1.00  0.00     0.074 A 
ATOM     52  C   UNL A   1      38.999  32.439  32.496  1.00  0.00     0.029 A 
ATOM     53  N   UNL A   1      40.168  33.310  30.819  1.00  0.00    -0.354 N 
ATOM     54  N   UNL A   1      42.746  30.639  31.043  1.00  0.00    -0.248 NA
ATOM     55  C   UNL A   1      45.012  30.310  31.312  1.00  0.00     0.031 C 
ATOM     56  C   UNL A   1      40.383  32.305  32.781  1.00  0.00     0.029 A 
ATOM     57  C   UNL A   1      41.095  32.798  31.702  1.00  0.00     0.049 A 
ATOM     58  H   UNL A   1      40.391  33.787  29.987  1.00  0.00     0.167 HD
ATOM     59  C   UNL A   1      43.278  31.862  31.325  1.00  0.00     0.074 A 
ATOM     60  C   UNL A   1      44.704  31.609  31.459  1.00  0.00     0.031 C 
ATOM     61  C   UNL A   1      42.511  32.981  31.437  1.00  0.00     0.031 A 
BRANCH  48  62
ATOM     62  C   UNL A   1      36.447  33.806  30.744  1.00  0.00    -0.014 A 
ATOM     63  C   UNL A   1      36.430  34.562  31.936  1.00  0.00     0.010 A 
ATOM     64  C   UNL A   1      35.241  33.758  30.018  1.00  0.00     0.010 A 
ATOM     65  C   UNL A   1      35.282  35.202  32.404  1.00  0.00     0.020 A 
ATOM     66  C   UNL A   1      34.073  34.392  30.482  1.00  0.00     0.020 A 
ATOM     67  C   UNL A   1      34.105  35.115  31.673  1.00  0.00     0.054 A 
BRANCH  67  68
ATOM     68  S   UNL A   1      32.655  36.009  32.285  1.00  0.00     0.124 S 
ATOM     69  O   UNL A   1      33.208  36.774  33.399  1.00  0.00    -0.237 OA
ATOM     70  O   UNL A   1      32.256  36.793  31.119  1.00  0.00    -0.237 OA
ATOM     71  O   UNL A   1      31.727  34.945  32.665  1.00  0.00    -0.744 OA
ENDBRANCH  67  68
ENDBRANCH  48  62
BRANCH  49  72
ATOM     72  C   UNL A   1      43.841  27.530  29.668  1.00  0.00    -0.014 A 
ATOM     73  C   UNL A   1      43.254  26.272  29.417  1.00  0.00     0.010 A 
ATOM     74  C   UNL A   1      44.494  28.187  28.605  1.00  0.00     0.010 A 
ATOM     75  C   UNL A   1      43.225  25.738  28.125  1.00  0.00     0.020 A 
ATOM     76  C   UNL A   1      44.470  27.652  27.307  1.00  0.00     0.020 A 
ATOM     77  C   UNL A   1      43.805  26.449  27.072  1.00  0.00     0.054 A 
BRANCH  77  78
ATOM     78  S   UNL A   1      43.417  25.907  25.384  1.00  0.00     0.124 S 
ATOM     79  O   UNL A   1      42.520  26.952  24.905  1.00  0.00    -0.237 OA
ATOM     80  O   UNL A   1      44.749  25.903  24.789  1.00  0.00    -0.237 OA
ATOM     81  O   UNL A   1      42.810  24.592  25.572  1.00  0.00    -0.744 OA
ENDBRANCH  77  78
ENDBRANCH  49  72
BRANCH  61  82
ATOM     82  C   UNL A   1      43.036  34.385  31.388  1.00  0.00    -0.014 A 
ATOM     83  C   UNL A   1      43.108  35.140  30.213  1.00  0.00     0.010 A 
ATOM     84  C   UNL A   1      43.352  35.040  32.603  1.00  0.00     0.010 A 
ATOM     85  C   UNL A   1      43.597  36.446  30.231  1.00  0.00     0.020 A 
ATOM     86  C   UNL A   1      43.762  36.368  32.642  1.00  0.00     0.020 A 
ATOM     87  C   UNL A   1      43.931  37.045  31.445  1.00  0.00     0.054 A 
BRANCH  87  88
ATOM     88  S   UNL A   1      44.587  38.722  31.440  1.00  0.00     0.124 S 
ATOM     89  O   UNL A   1      44.854  38.926  30.018  1.00  0.00    -0.237 OA
ATOM     90  O   UNL A   1      43.479  39.501  31.987  1.00  0.00    -0.237 OA
ATOM     91  O   UNL A   1      45.765  38.635  32.296  1.00  0.00    -0.744 OA
ENDBRANCH  87  88
ENDBRANCH  61  82
ENDBRANCH  35  36
ENDBRANCH  28  30
ENDBRANCH  27  28
ENDBRANCH  26  27
ENDBRANCH   1  26
TORSDOF 19
ENDMDL
MODEL 2
REMARK VINA RESULT:     -11.7      3.403      8.951
REMARK SMILES Cc1ccc(CN(CC(=O)OCCOC(=O)c2ccc(-c3c4nc(c(-c5ccc(S(=O)(=O)[O-])cc5)c5ccc([nH]5)c(-c5ccc(S(=O)(=O)[O-])cc5)c5nc(c(-c6ccc(S(=O)(=O)[O-])cc6)c6ccc3[nH]6)C=C5)C=C4)cc2)C(=O)c2cc3c(s2)CCOC3)cc1
REMARK SMILES IDX 12 1 11 2 9 3 10 4 8 5 7 6 6 7 5 8 1 9 2 10 3 11 89 12 4 13
REMARK SMILES IDX 88 14 77 15 78 16 79 17 80 18 83 19 81 20 82 21 87 22 84 23
REMARK SMILES IDX 86 24 85 25 13 26 14 27 15 28 16 29 17 30 18 31 76 32 19 33
REMARK SMILES IDX 75 34 20 35 21 36 22 37 69 38 23 39 74 40 68 41 70 42 24 43
REMARK SMILES IDX 73 44 67 45 66 46 25 48 55 49 36 50 54 51 37 52 40 53 53 54
REMARK SMILES IDX 71 55 38 56 39 57 52 59 72 60 41 61 26 62 27 63 35 64 28 65
REMARK SMILES IDX 34 66 29 67 30 68 31 69 32 70 33 71 56 72 57 73 65 74 58 75
REMARK SMILES IDX 64 76 59 77 60 78 61 79 62 80 63 81 42 82 43 83 51 84 44 85
REMARK SMILES IDX 50 86 45 87 46 88 47 89 48 90 49 91
REMARK H PARENT 70 47 40 58
REMARK Flexibility Score: inf
ROOT
ATOM      1  C   UNL A   1      33.710  28.241  25.882  1.00  0.00     0.274 C 
ENDROOT
BRANCH   1   2
ATOM      2  O   UNL A   1      33.295  27.211  26.772  1.00  0.00    -0.461 OA
BRANCH   2   3
ATOM      3  C   UNL A   1      32.226  26.462  26.379  1.00  0.00     0.325 C 
ATOM      4  O   UNL A   1      31.074  26.637  26.752  1.00  0.00    -0.250 OA
BRANCH   3   5
ATOM      5  C   UNL A   1      32.661  25.405  25.373  1.00  0.00     0.242 C 
BRANCH   5   6
ATOM      6  N   UNL A   1      31.589  25.265  24.394  1.00  0.00    -0.323 N 
BRANCH   6   7
ATOM      7  C   UNL A   1      30.747  24.093  24.596  1.00  0.00     0.156 C 
BRANCH   7   8
ATOM      8  C   UNL A   1      31.584  22.841  24.593  1.00  0.00    -0.029 A 
ATOM      9  C   UNL A   1      34.479  19.672  24.717  1.00  0.00     0.044 C 
ATOM     10  C   UNL A   1      33.403  20.710  24.670  1.00  0.00    -0.051 A 
ATOM     11  C   UNL A   1      33.046  21.284  23.445  1.00  0.00     0.004 A 
ATOM     12  C   UNL A   1      32.791  21.160  25.844  1.00  0.00     0.004 A 
ATOM     13  C   UNL A   1      32.136  22.335  23.406  1.00  0.00     0.006 A 
ATOM     14  C   UNL A   1      31.885  22.217  25.805  1.00  0.00     0.006 A 
ENDBRANCH   7   8
ENDBRANCH   6   7
BRANCH   6  15
ATOM     15  C   UNL A   1      31.435  26.021  23.213  1.00  0.00     0.264 C 
ATOM     16  O   UNL A   1      32.080  25.706  22.208  1.00  0.00    -0.268 OA
BRANCH  15  17
ATOM     17  C   UNL A   1      30.536  27.171  23.170  1.00  0.00     0.093 A 
ATOM     18  C   UNL A   1      29.197  27.258  23.534  1.00  0.00     0.032 A 
ATOM     19  S   UNL A   1      31.165  28.736  22.818  1.00  0.00    -0.135 S 
ATOM     20  C   UNL A   1      28.629  28.544  23.219  1.00  0.00    -0.008 A 
ATOM     21  C   UNL A   1      29.625  29.451  22.926  1.00  0.00     0.013 A 
ATOM     22  C   UNL A   1      27.178  28.918  22.995  1.00  0.00     0.196 C 
ATOM     23  C   UNL A   1      29.319  30.885  22.627  1.00  0.00     0.075 C 
ATOM     24  O   UNL A   1      26.969  30.350  22.949  1.00  0.00    -0.376 OA
ATOM     25  C   UNL A   1      27.904  30.961  22.029  1.00  0.00     0.166 C 
ENDBRANCH  15  17
ENDBRANCH   6  15
ENDBRANCH   5   6
ENDBRANCH   3   5
ENDBRANCH   2   3
ENDBRANCH   1   2
BRANCH   1  26
ATOM     26  C   UNL A   1      33.016  29.554  26.283  1.00  0.00     0.275 C 
BRANCH  26  27
ATOM     27  O   UNL A   1      33.238  30.142  27.604  1.00  0.00    -0.458 OA
BRANCH  27  28
ATOM     28  C   UNL A   1      34.064  31.189  27.822  1.00  0.00     0.338 C 
ATOM     29  O   UNL A   1      33.702  32.354  27.955  1.00  0.00    -0.246 OA
BRANCH  28  30
ATOM     30  C   UNL A   1      35.445  30.892  28.088  1.00  0.00     0.060 A 
ATOM     31  C   UNL A   1      36.410  31.890  27.808  1.00  0.00     0.016 A 
ATOM     32  C   UNL A   1      35.681  29.798  28.893  1.00  0.00     0.016 A 
ATOM     33  C   UNL A   1      37.633  31.818  28.412  1.00  0.00     0.010 A 
ATOM     34  C   UNL A   1      36.764  29.878  29.692  1.00  0.00     0.010 A 
ATOM     35  C   UNL A   1      37.769  30.800  29.344  1.00  0.00    -0.014 A 
BRANCH  35  36
ATOM     36  C   UNL A   1      39.049  30.308  29.767  1.00  0.00     0.031 A 
ATOM     37  C   UNL A   1      39.347  28.921  29.412  1.00  0.00     0.074 A 
ATOM     38  C   UNL A   1      39.787  31.378  30.158  1.00  0.00     0.049 A 
ATOM     39  N   UNL A   1      39.988  28.087  30.154  1.00  0.00    -0.248 NA
ATOM     40  C   UNL A   1      38.783  28.275  28.210  1.00  0.00     0.031 C 
ATOM     41  C   UNL A   1      41.205  31.652  30.159  1.00  0.00     0.029 A 
ATOM     42  N   UNL A   1      39.242  32.580  30.671  1.00  0.00    -0.354 N 
ATOM     43  C   UNL A   1      40.386  27.106  29.267  1.00  0.00     0.074 A 
ATOM     44  C   UNL A   1      39.379  27.077  28.240  1.00  0.00     0.031 C 
ATOM     45  C   UNL A   1      41.427  32.733  30.942  1.00  0.00     0.029 A 
ATOM     46  C   UNL A   1      40.155  33.116  31.562  1.00  0.00     0.049 A 
ATOM     47  H   UNL A   1      38.368  32.966  30.436  1.00  0.00     0.167 HD
ATOM     48  C   UNL A   1      41.714  26.805  29.186  1.00  0.00     0.031 A 
ATOM     49  C   UNL A   1      39.852  33.097  32.895  1.00  0.00     0.031 A 
ATOM     50  C   UNL A   1      42.477  27.705  30.055  1.00  0.00     0.049 A 
ATOM     51  C   UNL A   1      40.698  32.042  33.553  1.00  0.00     0.074 A 
ATOM     52  C   UNL A   1      43.257  28.813  29.769  1.00  0.00     0.029 A 
ATOM     53  N   UNL A   1      42.196  27.756  31.410  1.00  0.00    -0.354 N 
ATOM     54  N   UNL A   1      41.098  30.958  32.952  1.00  0.00    -0.248 NA
ATOM     55  C   UNL A   1      41.164  32.148  34.926  1.00  0.00     0.031 C 
ATOM     56  C   UNL A   1      43.435  29.540  30.975  1.00  0.00     0.029 A 
ATOM     57  C   UNL A   1      42.721  28.901  31.973  1.00  0.00     0.049 A 
ATOM     58  H   UNL A   1      41.694  27.069  31.904  1.00  0.00     0.167 HD
ATOM     59  C   UNL A   1      41.928  30.269  33.785  1.00  0.00     0.074 A 
ATOM     60  C   UNL A   1      41.917  31.040  35.019  1.00  0.00     0.031 C 
ATOM     61  C   UNL A   1      42.568  29.131  33.398  1.00  0.00     0.031 A 
BRANCH  48  62
ATOM     62  C   UNL A   1      42.389  26.004  28.096  1.00  0.00    -0.014 A 
ATOM     63  C   UNL A   1      42.903  24.732  28.434  1.00  0.00     0.010 A 
ATOM     64  C   UNL A   1      42.515  26.389  26.747  1.00  0.00     0.010 A 
ATOM     65  C   UNL A   1      43.537  23.906  27.505  1.00  0.00     0.020 A 
ATOM     66  C   UNL A   1      43.159  25.569  25.801  1.00  0.00     0.020 A 
ATOM     67  C   UNL A   1      43.662  24.328  26.189  1.00  0.00     0.054 A 
BRANCH  67  68
ATOM     68  S   UNL A   1      44.438  23.202  25.004  1.00  0.00     0.124 S 
ATOM     69  O   UNL A   1      45.102  22.239  25.878  1.00  0.00    -0.237 OA
ATOM     70  O   UNL A   1      43.289  22.690  24.260  1.00  0.00    -0.237 OA
ATOM     71  O   UNL A   1      45.336  24.066  24.240  1.00  0.00    -0.744 OA
ENDBRANCH  67  68
ENDBRANCH  48  62
BRANCH  49  72
ATOM     72  C   UNL A   1      38.396  33.275  33.232  1.00  0.00    -0.014 A 
ATOM     73  C   UNL A   1      37.858  34.580  33.237  1.00  0.00     0.010 A 
ATOM     74  C   UNL A   1      37.502  32.185  33.212  1.00  0.00     0.010 A 
ATOM     75  C   UNL A   1      36.480  34.789  33.116  1.00  0.00     0.020 A 
ATOM     76  C   UNL A   1      36.118  32.391  33.096  1.00  0.00     0.020 A 
ATOM     77  C   UNL A   1      35.623  33.692  33.013  1.00  0.00     0.054 A 
BRANCH  77  78
ATOM     78  S   UNL A   1      33.916  34.012  32.487  1.00  0.00     0.124 S 
ATOM     79  O   UNL A   1      33.154  33.012  33.226  1.00  0.00    -0.237 OA
ATOM     80  O   UNL A   1      33.747  35.389  32.941  1.00  0.00    -0.237 OA
ATOM     81  O   UNL A   1      33.958  33.831  31.039  1.00  0.00    -0.744 OA
ENDBRANCH  77  78
ENDBRANCH  49  72
BRANCH  61  82
ATOM     82  C   UNL A   1      43.194  28.142  34.336  1.00  0.00    -0.014 A 
ATOM     83  C   UNL A   1      44.569  27.892  34.387  1.00  0.00     0.010 A 
ATOM     84  C   UNL A   1      42.383  27.520  35.316  1.00  0.00     0.010 A 
ATOM     85  C   UNL A   1      45.095  26.967  35.289  1.00  0.00     0.020 A 
ATOM     86  C   UNL A   1      42.908  26.660  36.274  1.00  0.00     0.020 A 
ATOM     87  C   UNL A   1      44.258  26.350  36.217  1.00  0.00     0.054 A 
BRANCH  87  88
ATOM     88  S   UNL A   1      44.955  25.139  37.352  1.00  0.00     0.124 S 
ATOM     89  O   UNL A   1      46.360  25.540  37.380  1.00  0.00    -0.237 OA
ATOM     90  O   UNL A   1      44.208  25.386  38.583  1.00  0.00    -0.237 OA
ATOM     91  O   UNL A   1      44.678  23.859  36.706  1.00  0.00    -0.744 OA
ENDBRANCH  87  88
ENDBRANCH  61  82
ENDBRANCH  35  36
ENDBRANCH  28  30
ENDBRANCH  27  28
ENDBRANCH  26  27
ENDBRANCH   1  26
TORSDOF 19
ENDMDL
MODEL 3
REMARK VINA RESULT:     -11.5      4.363     10.348
REMARK SMILES Cc1ccc(CN(CC(=O)OCCOC(=O)c2ccc(-c3c4nc(c(-c5ccc(S(=O)(=O)[O-])cc5)c5ccc([nH]5)c(-c5ccc(S(=O)(=O)[O-])cc5)c5nc(c(-c6ccc(S(=O)(=O)[O-])cc6)c6ccc3[nH]6)C=C5)C=C4)cc2)C(=O)c2cc3c(s2)CCOC3)cc1
REMARK SMILES IDX 12 1 11 2 9 3 10 4 8 5 7 6 6 7 5 8 1 9 2 10 3 11 89 12 4 13
REMARK SMILES IDX 88 14 77 15 78 16 79 17 80 18 83 19 81 20 82 21 87 22 84 23
REMARK SMILES IDX 86 24 85 25 13 26 14 27 15 28 16 29 17 30 18 31 76 32 19 33
REMARK SMILES IDX 75 34 20 35 21 36 22 37 69 38 23 39 74 40 68 41 70 42 24 43
REMARK SMILES IDX 73 44 67 45 66 46 25 48 55 49 36 50 54 51 37 52 40 53 53 54
REMARK SMILES IDX 71 55 38 56 39 57 52 59 72 60 41 61 26 62 27 63 35 64 28 65
REMARK SMILES IDX 34 66 29 67 30 68 31 69 32 70 33 71 56 72 57 73 65 74 58 75
REMARK SMILES IDX 64 76 59 77 60 78 61 79 62 80 63 81 42 82 43 83 51 84 44 85
REMARK SMILES IDX 50 86 45 87 46 88 47 89 48 90 49 91
REMARK H PARENT 70 47 40 58
REMARK Flexibility Score: inf
ROOT
ATOM      1  C   UNL A   1      33.703  29.309  26.286  1.00  0.00     0.274 C 
ENDROOT
BRANCH   1   2
ATOM      2  O   UNL A   1      32.791  28.310  26.731  1.00  0.00    -0.461 OA
BRANCH   2   3
ATOM      3  C   UNL A   1      32.936  27.068  26.187  1.00  0.00     0.325 C 
ATOM      4  O   UNL A   1      33.992  26.454  26.116  1.00  0.00    -0.250 OA
BRANCH   3   5
ATOM      5  C   UNL A   1      31.588  26.534  25.722  1.00  0.00     0.242 C 
BRANCH   5   6
ATOM      6  N   UNL A   1      31.772  25.992  24.380  1.00  0.00    -0.323 N 
BRANCH   6   7
ATOM      7  C   UNL A   1      31.843  27.004  23.334  1.00  0.00     0.156 C 
BRANCH   7   8
ATOM      8  C   UNL A   1      30.693  27.966  23.457  1.00  0.00    -0.029 A 
ATOM      9  C   UNL A   1      27.465  30.782  23.154  1.00  0.00     0.044 C 
ATOM     10  C   UNL A   1      28.564  29.788  23.350  1.00  0.00    -0.051 A 
ATOM     11  C   UNL A   1      29.850  30.230  23.676  1.00  0.00     0.004 A 
ATOM     12  C   UNL A   1      28.338  28.422  23.150  1.00  0.00     0.004 A 
ATOM     13  C   UNL A   1      30.905  29.325  23.739  1.00  0.00     0.006 A 
ATOM     14  C   UNL A   1      29.395  27.517  23.206  1.00  0.00     0.006 A 
ENDBRANCH   7   8
ENDBRANCH   6   7
BRANCH   6  15
ATOM     15  C   UNL A   1      31.686  24.633  24.012  1.00  0.00     0.264 C 
ATOM     16  O   UNL A   1      30.595  24.171  23.663  1.00  0.00    -0.268 OA
BRANCH  15  17
ATOM     17  C   UNL A   1      32.863  23.769  24.050  1.00  0.00     0.093 A 
ATOM     18  C   UNL A   1      32.960  22.426  24.396  1.00  0.00     0.032 A 
ATOM     19  S   UNL A   1      34.359  24.334  23.411  1.00  0.00    -0.135 S 
ATOM     20  C   UNL A   1      34.327  21.970  24.429  1.00  0.00    -0.008 A 
ATOM     21  C   UNL A   1      35.154  22.886  23.815  1.00  0.00     0.013 A 
ATOM     22  C   UNL A   1      34.924  20.797  25.179  1.00  0.00     0.196 C 
ATOM     23  C   UNL A   1      36.620  22.633  23.649  1.00  0.00     0.075 C 
ATOM     24  O   UNL A   1      36.281  20.502  24.768  1.00  0.00    -0.376 OA
ATOM     25  C   UNL A   1      37.081  21.707  24.787  1.00  0.00     0.166 C 
ENDBRANCH  15  17
ENDBRANCH   6  15
ENDBRANCH   5   6
ENDBRANCH   3   5
ENDBRANCH   2   3
ENDBRANCH   1   2
BRANCH   1  26
ATOM     26  C   UNL A   1      34.605  29.716  27.463  1.00  0.00     0.275 C 
BRANCH  26  27
ATOM     27  O   UNL A   1      35.892  29.053  27.681  1.00  0.00    -0.458 OA
BRANCH  27  28
ATOM     28  C   UNL A   1      37.042  29.723  27.915  1.00  0.00     0.338 C 
ATOM     29  O   UNL A   1      37.119  30.922  28.165  1.00  0.00    -0.246 OA
BRANCH  28  30
ATOM     30  C   UNL A   1      38.240  28.942  28.051  1.00  0.00     0.060 A 
ATOM     31  C   UNL A   1      39.288  29.156  27.123  1.00  0.00     0.016 A 
ATOM     32  C   UNL A   1      38.402  28.293  29.257  1.00  0.00     0.016 A 
ATOM     33  C   UNL A   1      40.555  28.761  27.449  1.00  0.00     0.010 A 
ATOM     34  C   UNL A   1      39.672  28.162  29.689  1.00  0.00     0.010 A 
ATOM     35  C   UNL A   1      40.703  28.270  28.737  1.00  0.00    -0.014 A 
BRANCH  35  36
ATOM     36  C   UNL A   1      41.813  27.446  29.125  1.00  0.00     0.031 A 
ATOM     37  C   UNL A   1      41.735  26.043  28.722  1.00  0.00     0.074 A 
ATOM     38  C   UNL A   1      42.808  28.273  29.538  1.00  0.00     0.049 A 
ATOM     39  N   UNL A   1      42.141  25.046  29.427  1.00  0.00    -0.248 NA
ATOM     40  C   UNL A   1      41.014  25.609  27.509  1.00  0.00     0.031 C 
ATOM     41  C   UNL A   1      44.248  28.167  29.526  1.00  0.00     0.029 A 
ATOM     42  N   UNL A   1      42.599  29.557  30.097  1.00  0.00    -0.354 N 
ATOM     43  C   UNL A   1      42.262  24.026  28.504  1.00  0.00     0.074 A 
ATOM     44  C   UNL A   1      41.276  24.297  27.492  1.00  0.00     0.031 C 
ATOM     45  C   UNL A   1      44.751  29.125  30.339  1.00  0.00     0.029 A 
ATOM     46  C   UNL A   1      43.627  29.805  30.990  1.00  0.00     0.049 A 
ATOM     47  H   UNL A   1      41.855  30.166  29.888  1.00  0.00     0.167 HD
ATOM     48  C   UNL A   1      43.465  23.391  28.393  1.00  0.00     0.031 A 
ATOM     49  C   UNL A   1      43.338  29.820  32.326  1.00  0.00     0.031 A 
ATOM     50  C   UNL A   1      44.443  24.030  29.278  1.00  0.00     0.049 A 
ATOM     51  C   UNL A   1      43.883  28.558  32.938  1.00  0.00     0.074 A 
ATOM     52  C   UNL A   1      45.484  24.905  29.014  1.00  0.00     0.029 A 
ATOM     53  N   UNL A   1      44.194  24.106  30.638  1.00  0.00    -0.354 N 
ATOM     54  N   UNL A   1      43.982  27.429  32.296  1.00  0.00    -0.248 NA
ATOM     55  C   UNL A   1      44.370  28.492  34.305  1.00  0.00     0.031 C 
ATOM     56  C   UNL A   1      45.854  25.519  30.240  1.00  0.00     0.029 A 
ATOM     57  C   UNL A   1      45.004  25.055  31.228  1.00  0.00     0.049 A 
ATOM     58  H   UNL A   1      43.533  23.558  31.118  1.00  0.00     0.167 HD
ATOM     59  C   UNL A   1      44.609  26.519  33.095  1.00  0.00     0.074 A 
ATOM     60  C   UNL A   1      44.808  27.223  34.352  1.00  0.00     0.031 C 
ATOM     61  C   UNL A   1      44.926  25.267  32.662  1.00  0.00     0.031 A 
BRANCH  48  62
ATOM     62  C   UNL A   1      43.900  22.480  27.268  1.00  0.00    -0.014 A 
ATOM     63  C   UNL A   1      43.074  21.378  26.955  1.00  0.00     0.010 A 
ATOM     64  C   UNL A   1      45.041  22.653  26.460  1.00  0.00     0.010 A 
ATOM     65  C   UNL A   1      43.375  20.479  25.932  1.00  0.00     0.020 A 
ATOM     66  C   UNL A   1      45.361  21.749  25.429  1.00  0.00     0.020 A 
ATOM     67  C   UNL A   1      44.519  20.669  25.170  1.00  0.00     0.054 A 
BRANCH  67  68
ATOM     68  S   UNL A   1      44.841  19.513  23.815  1.00  0.00     0.124 S 
ATOM     69  O   UNL A   1      44.452  20.292  22.642  1.00  0.00    -0.237 OA
ATOM     70  O   UNL A   1      46.272  19.258  23.954  1.00  0.00    -0.237 OA
ATOM     71  O   UNL A   1      43.975  18.374  24.116  1.00  0.00    -0.744 OA
ENDBRANCH  67  68
ENDBRANCH  48  62
BRANCH  49  72
ATOM     72  C   UNL A   1      41.982  30.360  32.691  1.00  0.00    -0.014 A 
ATOM     73  C   UNL A   1      41.659  31.684  32.320  1.00  0.00     0.010 A 
ATOM     74  C   UNL A   1      40.934  29.502  33.082  1.00  0.00     0.010 A 
ATOM     75  C   UNL A   1      40.327  32.101  32.237  1.00  0.00     0.020 A 
ATOM     76  C   UNL A   1      39.595  29.919  33.004  1.00  0.00     0.020 A 
ATOM     77  C   UNL A   1      39.303  31.205  32.548  1.00  0.00     0.054 A 
BRANCH  77  78
ATOM     78  S   UNL A   1      37.614  31.666  32.069  1.00  0.00     0.124 S 
ATOM     79  O   UNL A   1      37.015  30.386  31.713  1.00  0.00    -0.237 OA
ATOM     80  O   UNL A   1      37.133  32.258  33.314  1.00  0.00    -0.237 OA
ATOM     81  O   UNL A   1      37.809  32.602  30.965  1.00  0.00    -0.744 OA
ENDBRANCH  77  78
ENDBRANCH  49  72
BRANCH  61  82
ATOM     82  C   UNL A   1      45.278  24.118  33.559  1.00  0.00    -0.014 A 
ATOM     83  C   UNL A   1      46.547  23.936  34.117  1.00  0.00     0.010 A 
ATOM     84  C   UNL A   1      44.251  23.237  33.978  1.00  0.00     0.010 A 
ATOM     85  C   UNL A   1      46.813  22.852  34.953  1.00  0.00     0.020 A 
ATOM     86  C   UNL A   1      44.485  22.202  34.876  1.00  0.00     0.020 A 
ATOM     87  C   UNL A   1      45.781  21.987  35.315  1.00  0.00     0.054 A 
BRANCH  87  88
ATOM     88  S   UNL A   1      46.154  20.578  36.373  1.00  0.00     0.124 S 
ATOM     89  O   UNL A   1      47.591  20.423  36.156  1.00  0.00    -0.237 OA
ATOM     90  O   UNL A   1      45.768  21.059  37.697  1.00  0.00    -0.237 OA
ATOM     91  O   UNL A   1      45.318  19.510  35.834  1.00  0.00    -0.744 OA
ENDBRANCH  87  88
ENDBRANCH  61  82
ENDBRANCH  35  36
ENDBRANCH  28  30
ENDBRANCH  27  28
ENDBRANCH  26  27
ENDBRANCH   1  26
TORSDOF 19
ENDMDL
