MODEL 1
REMARK VINA RESULT:     -10.7      0.000      0.000
REMARK SMILES CCc1cc(OC(F)(F)F)cc2c1O[C@@H](C(F)(F)F)C(C(=O)OCCOC(=O)c1ccc(-c3c4nc(c(-c5ccc(S(=O)(=O)[O-])cc5)c5ccc([nH]5)c(-c5ccc(S(=O)(=O)[O-])cc5)c5nc(c(-c6ccc(S(=O)(=O)[O-])cc6)c6ccc3[nH]6)C=C5)C=C4)cc1)=C2
REMARK SMILES IDX 25 1 24 2 23 3 21 4 22 5 20 6 3 7 4 8 13 9 5 10 12 11 14 12
REMARK SMILES IDX 11 13 89 14 15 15 2 16 1 17 6 18 7 19 8 20 9 21 10 22 16 23
REMARK SMILES IDX 17 24 18 25 19 26 26 27 27 28 28 29 29 30 30 31 88 32 31 33
REMARK SMILES IDX 87 34 32 35 33 36 34 37 81 38 35 39 86 40 80 41 82 42 36 43
REMARK SMILES IDX 85 44 79 45 78 46 37 48 67 49 48 50 66 51 49 52 52 53 65 54
REMARK SMILES IDX 83 55 50 56 51 57 64 59 84 60 53 61 38 62 39 63 47 64 40 65
REMARK SMILES IDX 46 66 41 67 42 68 43 69 44 70 45 71 68 72 69 73 77 74 70 75
REMARK SMILES IDX 76 76 71 77 72 78 73 79 74 80 75 81 54 82 55 83 63 84 56 85
REMARK SMILES IDX 62 86 57 87 58 88 59 89 60 90 61 91
REMARK H PARENT 82 47 52 58
REMARK Flexibility Score: inf
ROOT
ATOM      1  C   UNL A   1      32.519  29.513  27.198  1.00  0.00     0.275 C 
ENDROOT
BRANCH   1   2
ATOM      2  C   UNL A   1      32.046  29.661  25.749  1.00  0.00     0.275 C 
BRANCH   2   3
ATOM      3  O   UNL A   1      33.109  29.402  24.807  1.00  0.00    -0.459 OA
BRANCH   3   4
ATOM      4  C   UNL A   1      32.769  28.645  23.733  1.00  0.00     0.338 C 
ATOM      5  O   UNL A   1      32.409  29.078  22.652  1.00  0.00    -0.246 OA
BRANCH   4   6
ATOM      6  C   UNL A   1      32.918  27.198  24.005  1.00  0.00     0.087 C 
ATOM      7  C   UNL A   1      33.042  23.083  24.791  1.00  0.00    -0.002 A 
ATOM      8  C   UNL A   1      34.244  22.523  25.268  1.00  0.00     0.054 A 
ATOM      9  C   UNL A   1      32.983  24.475  24.640  1.00  0.00     0.131 A 
ATOM     10  C   UNL A   1      35.336  23.325  25.607  1.00  0.00     0.130 A 
ATOM     11  C   UNL A   1      34.100  25.289  24.887  1.00  0.00     0.021 A 
ATOM     12  O   UNL A   1      31.778  25.043  24.342  1.00  0.00    -0.475 OA
ATOM     13  C   UNL A   1      35.271  24.704  25.378  1.00  0.00     0.058 A 
ATOM     14  C   UNL A   1      34.004  26.733  24.649  1.00  0.00     0.027 C 
ATOM     15  C   UNL A   1      31.820  26.255  23.552  1.00  0.00     0.316 C 
BRANCH   7  16
ATOM     16  C   UNL A   1      31.949  22.118  24.371  1.00  0.00     0.036 C 
ATOM     17  C   UNL A   1      32.262  20.630  24.304  1.00  0.00     0.009 C 
ENDBRANCH   7  16
BRANCH  10  18
ATOM     18  O   UNL A   1      36.512  22.880  26.143  1.00  0.00    -0.406 OA
BRANCH  18  19
ATOM     19  C   UNL A   1      37.396  22.185  25.277  1.00  0.00     0.573 C 
ATOM     20  F   UNL A   1      37.194  20.850  25.320  1.00  0.00    -0.132 F 
ATOM     21  F   UNL A   1      37.267  22.619  24.005  1.00  0.00    -0.132 F 
ATOM     22  F   UNL A   1      38.668  22.423  25.672  1.00  0.00    -0.132 F 
ENDBRANCH  18  19
ENDBRANCH  10  18
BRANCH  15  23
ATOM     23  C   UNL A   1      30.375  26.782  23.456  1.00  0.00     0.430 C 
ATOM     24  F   UNL A   1      29.468  25.806  23.684  1.00  0.00    -0.167 F 
ATOM     25  F   UNL A   1      30.156  27.717  24.419  1.00  0.00    -0.167 F 
ATOM     26  F   UNL A   1      30.112  27.367  22.269  1.00  0.00    -0.167 F 
ENDBRANCH  15  23
ENDBRANCH   4   6
ENDBRANCH   3   4
ENDBRANCH   2   3
ENDBRANCH   1   2
BRANCH   1  27
ATOM     27  O   UNL A   1      33.949  29.372  27.279  1.00  0.00    -0.458 OA
BRANCH  27  28
ATOM     28  C   UNL A   1      34.592  30.403  27.882  1.00  0.00     0.338 C 
ATOM     29  O   UNL A   1      34.110  31.479  28.195  1.00  0.00    -0.246 OA
BRANCH  28  30
ATOM     30  C   UNL A   1      35.938  29.973  28.307  1.00  0.00     0.060 A 
ATOM     31  C   UNL A   1      36.950  30.043  27.347  1.00  0.00     0.016 A 
ATOM     32  C   UNL A   1      36.223  29.508  29.592  1.00  0.00     0.016 A 
ATOM     33  C   UNL A   1      38.269  29.742  27.684  1.00  0.00     0.010 A 
ATOM     34  C   UNL A   1      37.539  29.146  29.915  1.00  0.00     0.010 A 
ATOM     35  C   UNL A   1      38.573  29.282  28.970  1.00  0.00    -0.014 A 
BRANCH  35  36
ATOM     36  C   UNL A   1      39.961  28.875  29.292  1.00  0.00     0.031 A 
ATOM     37  C   UNL A   1      40.875  29.843  29.988  1.00  0.00     0.074 A 
ATOM     38  C   UNL A   1      40.395  27.633  29.003  1.00  0.00     0.049 A 
ATOM     39  N   UNL A   1      42.132  29.704  30.315  1.00  0.00    -0.248 NA
ATOM     40  C   UNL A   1      40.287  31.135  30.380  1.00  0.00     0.031 C 
ATOM     41  C   UNL A   1      39.582  26.568  28.418  1.00  0.00     0.029 A 
ATOM     42  N   UNL A   1      41.634  27.061  29.163  1.00  0.00    -0.354 N 
ATOM     43  C   UNL A   1      42.490  30.884  30.956  1.00  0.00     0.074 A 
ATOM     44  C   UNL A   1      41.318  31.734  30.959  1.00  0.00     0.031 C 
ATOM     45  C   UNL A   1      40.350  25.477  28.247  1.00  0.00     0.029 A 
ATOM     46  C   UNL A   1      41.717  25.779  28.673  1.00  0.00     0.049 A 
ATOM     47  H   UNL A   1      42.391  27.525  29.587  1.00  0.00     0.167 HD
ATOM     48  C   UNL A   1      43.687  31.231  31.484  1.00  0.00     0.031 A 
ATOM     49  C   UNL A   1      42.779  24.956  28.548  1.00  0.00     0.031 A 
ATOM     50  C   UNL A   1      44.865  30.405  31.439  1.00  0.00     0.049 A 
ATOM     51  C   UNL A   1      44.135  25.424  29.020  1.00  0.00     0.074 A 
ATOM     52  C   UNL A   1      46.131  30.687  31.924  1.00  0.00     0.029 A 
ATOM     53  N   UNL A   1      44.930  29.144  30.866  1.00  0.00    -0.354 N 
ATOM     54  N   UNL A   1      44.460  26.544  29.620  1.00  0.00    -0.248 NA
ATOM     55  C   UNL A   1      45.268  24.514  28.793  1.00  0.00     0.031 C 
ATOM     56  C   UNL A   1      46.976  29.624  31.587  1.00  0.00     0.029 A 
ATOM     57  C   UNL A   1      46.221  28.650  30.955  1.00  0.00     0.049 A 
ATOM     58  H   UNL A   1      44.170  28.670  30.458  1.00  0.00     0.167 HD
ATOM     59  C   UNL A   1      45.828  26.460  29.867  1.00  0.00     0.074 A 
ATOM     60  C   UNL A   1      46.266  25.173  29.367  1.00  0.00     0.031 C 
ATOM     61  C   UNL A   1      46.648  27.367  30.455  1.00  0.00     0.031 A 
BRANCH  48  62
ATOM     62  C   UNL A   1      43.798  32.594  32.111  1.00  0.00    -0.014 A 
ATOM     63  C   UNL A   1      44.125  33.725  31.343  1.00  0.00     0.010 A 
ATOM     64  C   UNL A   1      43.526  32.750  33.482  1.00  0.00     0.010 A 
ATOM     65  C   UNL A   1      44.206  34.986  31.943  1.00  0.00     0.020 A 
ATOM     66  C   UNL A   1      43.581  34.012  34.080  1.00  0.00     0.020 A 
ATOM     67  C   UNL A   1      43.934  35.120  33.308  1.00  0.00     0.054 A 
BRANCH  67  68
ATOM     68  S   UNL A   1      44.023  36.771  34.053  1.00  0.00     0.124 S 
ATOM     69  O   UNL A   1      43.081  37.525  33.230  1.00  0.00    -0.237 OA
ATOM     70  O   UNL A   1      43.596  36.523  35.428  1.00  0.00    -0.237 OA
ATOM     71  O   UNL A   1      45.426  37.148  33.898  1.00  0.00    -0.744 OA
ENDBRANCH  67  68
ENDBRANCH  48  62
BRANCH  49  72
ATOM     72  C   UNL A   1      42.630  23.625  27.896  1.00  0.00    -0.014 A 
ATOM     73  C   UNL A   1      42.154  22.514  28.615  1.00  0.00     0.010 A 
ATOM     74  C   UNL A   1      43.013  23.452  26.552  1.00  0.00     0.010 A 
ATOM     75  C   UNL A   1      42.095  21.252  28.013  1.00  0.00     0.020 A 
ATOM     76  C   UNL A   1      42.925  22.199  25.938  1.00  0.00     0.020 A 
ATOM     77  C   UNL A   1      42.483  21.102  26.679  1.00  0.00     0.054 A 
BRANCH  77  78
ATOM     78  S   UNL A   1      42.383  19.460  25.913  1.00  0.00     0.124 S 
ATOM     79  O   UNL A   1      42.890  18.598  26.977  1.00  0.00    -0.237 OA
ATOM     80  O   UNL A   1      40.958  19.333  25.621  1.00  0.00    -0.237 OA
ATOM     81  O   UNL A   1      43.245  19.577  24.739  1.00  0.00    -0.744 OA
ENDBRANCH  77  78
ENDBRANCH  49  72
BRANCH  61  82
ATOM     82  C   UNL A   1      48.099  26.993  30.627  1.00  0.00    -0.014 A 
ATOM     83  C   UNL A   1      49.073  27.381  29.690  1.00  0.00     0.010 A 
ATOM     84  C   UNL A   1      48.503  26.294  31.781  1.00  0.00     0.010 A 
ATOM     85  C   UNL A   1      50.418  27.053  29.888  1.00  0.00     0.020 A 
ATOM     86  C   UNL A   1      49.851  25.990  31.997  1.00  0.00     0.020 A 
ATOM     87  C   UNL A   1      50.798  26.360  31.041  1.00  0.00     0.054 A 
BRANCH  87  88
ATOM     88  S   UNL A   1      52.556  25.989  31.298  1.00  0.00     0.124 S 
ATOM     89  O   UNL A   1      52.968  27.070  32.189  1.00  0.00    -0.237 OA
ATOM     90  O   UNL A   1      52.518  24.658  31.900  1.00  0.00    -0.237 OA
ATOM     91  O   UNL A   1      53.122  26.041  29.952  1.00  0.00    -0.744 OA
ENDBRANCH  87  88
ENDBRANCH  61  82
ENDBRANCH  35  36
ENDBRANCH  28  30
ENDBRANCH  27  28
ENDBRANCH   1  27
TORSDOF 18
ENDMDL
MODEL 2
REMARK VINA RESULT:     -10.7      4.212     10.222
REMARK SMILES CCc1cc(OC(F)(F)F)cc2c1O[C@@H](C(F)(F)F)C(C(=O)OCCOC(=O)c1ccc(-c3c4nc(c(-c5ccc(S(=O)(=O)[O-])cc5)c5ccc([nH]5)c(-c5ccc(S(=O)(=O)[O-])cc5)c5nc(c(-c6ccc(S(=O)(=O)[O-])cc6)c6ccc3[nH]6)C=C5)C=C4)cc1)=C2
REMARK SMILES IDX 25 1 24 2 23 3 21 4 22 5 20 6 3 7 4 8 13 9 5 10 12 11 14 12
REMARK SMILES IDX 11 13 89 14 15 15 2 16 1 17 6 18 7 19 8 20 9 21 10 22 16 23
REMARK SMILES IDX 17 24 18 25 19 26 26 27 27 28 28 29 29 30 30 31 88 32 31 33
REMARK SMILES IDX 87 34 32 35 33 36 34 37 81 38 35 39 86 40 80 41 82 42 36 43
REMARK SMILES IDX 85 44 79 45 78 46 37 48 67 49 48 50 66 51 49 52 52 53 65 54
REMARK SMILES IDX 83 55 50 56 51 57 64 59 84 60 53 61 38 62 39 63 47 64 40 65
REMARK SMILES IDX 46 66 41 67 42 68 43 69 44 70 45 71 68 72 69 73 77 74 70 75
REMARK SMILES IDX 76 76 71 77 72 78 73 79 74 80 75 81 54 82 55 83 63 84 56 85
REMARK SMILES IDX 62 86 57 87 58 88 59 89 60 90 61 91
REMARK H PARENT 82 47 52 58
REMARK Flexibility Score: inf
ROOT
ATOM      1  C   UNL A   1      39.457  22.414  26.504  1.00  0.00     0.275 C 
ENDROOT
BRANCH   1   2
ATOM      2  C   UNL A   1      38.211  22.025  25.702  1.00  0.00     0.275 C 
BRANCH   2   3
ATOM      3  O   UNL A   1      37.105  22.918  25.960  1.00  0.00    -0.459 OA
BRANCH   3   4
ATOM      4  C   UNL A   1      36.458  23.382  24.861  1.00  0.00     0.338 C 
ATOM      5  O   UNL A   1      36.875  23.315  23.718  1.00  0.00    -0.246 OA
BRANCH   4   6
ATOM      6  C   UNL A   1      35.140  23.963  25.198  1.00  0.00     0.087 C 
ATOM      7  C   UNL A   1      31.280  25.387  25.997  1.00  0.00    -0.002 A 
ATOM      8  C   UNL A   1      31.125  26.727  26.404  1.00  0.00     0.054 A 
ATOM      9  C   UNL A   1      32.561  24.958  25.626  1.00  0.00     0.131 A 
ATOM     10  C   UNL A   1      32.206  27.613  26.414  1.00  0.00     0.130 A 
ATOM     11  C   UNL A   1      33.675  25.808  25.719  1.00  0.00     0.021 A 
ATOM     12  O   UNL A   1      32.693  23.718  25.072  1.00  0.00    -0.475 OA
ATOM     13  C   UNL A   1      33.486  27.137  26.108  1.00  0.00     0.058 A 
ATOM     14  C   UNL A   1      35.005  25.289  25.383  1.00  0.00     0.027 C 
ATOM     15  C   UNL A   1      33.945  23.036  25.323  1.00  0.00     0.316 C 
BRANCH   7  16
ATOM     16  C   UNL A   1      30.061  24.488  26.105  1.00  0.00     0.036 C 
ATOM     17  C   UNL A   1      30.160  23.203  26.914  1.00  0.00     0.009 C 
ENDBRANCH   7  16
BRANCH  10  18
ATOM     18  O   UNL A   1      32.138  28.943  26.723  1.00  0.00    -0.406 OA
BRANCH  18  19
ATOM     19  C   UNL A   1      31.948  29.849  25.645  1.00  0.00     0.573 C 
ATOM     20  F   UNL A   1      33.030  29.901  24.839  1.00  0.00    -0.132 F 
ATOM     21  F   UNL A   1      30.860  29.514  24.919  1.00  0.00    -0.132 F 
ATOM     22  F   UNL A   1      31.748  31.088  26.150  1.00  0.00    -0.132 F 
ENDBRANCH  18  19
ENDBRANCH  10  18
BRANCH  15  23
ATOM     23  C   UNL A   1      33.922  21.733  24.500  1.00  0.00     0.430 C 
ATOM     24  F   UNL A   1      32.745  21.079  24.626  1.00  0.00    -0.167 F 
ATOM     25  F   UNL A   1      34.042  22.017  23.176  1.00  0.00    -0.167 F 
ATOM     26  F   UNL A   1      34.932  20.897  24.820  1.00  0.00    -0.167 F 
ENDBRANCH  15  23
ENDBRANCH   4   6
ENDBRANCH   3   4
ENDBRANCH   2   3
ENDBRANCH   1   2
BRANCH   1  27
ATOM     27  O   UNL A   1      39.448  23.808  26.858  1.00  0.00    -0.458 OA
BRANCH  27  28
ATOM     28  C   UNL A   1      40.657  24.420  26.801  1.00  0.00     0.338 C 
ATOM     29  O   UNL A   1      41.539  24.219  25.983  1.00  0.00    -0.246 OA
BRANCH  28  30
ATOM     30  C   UNL A   1      40.696  25.540  27.762  1.00  0.00     0.060 A 
ATOM     31  C   UNL A   1      39.585  25.691  28.595  1.00  0.00     0.016 A 
ATOM     32  C   UNL A   1      41.769  26.429  27.859  1.00  0.00     0.016 A 
ATOM     33  C   UNL A   1      39.572  26.665  29.591  1.00  0.00     0.010 A 
ATOM     34  C   UNL A   1      41.730  27.450  28.820  1.00  0.00     0.010 A 
ATOM     35  C   UNL A   1      40.643  27.559  29.706  1.00  0.00    -0.014 A 
BRANCH  35  36
ATOM     36  C   UNL A   1      40.580  28.651  30.707  1.00  0.00     0.031 A 
ATOM     37  C   UNL A   1      41.523  28.639  31.876  1.00  0.00     0.074 A 
ATOM     38  C   UNL A   1      39.713  29.671  30.554  1.00  0.00     0.049 A 
ATOM     39  N   UNL A   1      41.600  29.468  32.884  1.00  0.00    -0.248 NA
ATOM     40  C   UNL A   1      42.521  27.558  31.905  1.00  0.00     0.031 C 
ATOM     41  C   UNL A   1      38.813  29.852  29.416  1.00  0.00     0.029 A 
ATOM     42  N   UNL A   1      39.450  30.747  31.366  1.00  0.00    -0.354 N 
ATOM     43  C   UNL A   1      42.655  29.016  33.667  1.00  0.00     0.074 A 
ATOM     44  C   UNL A   1      43.180  27.831  33.022  1.00  0.00     0.031 C 
ATOM     45  C   UNL A   1      38.080  30.962  29.613  1.00  0.00     0.029 A 
ATOM     46  C   UNL A   1      38.429  31.547  30.907  1.00  0.00     0.049 A 
ATOM     47  H   UNL A   1      39.945  30.929  32.197  1.00  0.00     0.167 HD
ATOM     48  C   UNL A   1      43.136  29.535  34.820  1.00  0.00     0.031 A 
ATOM     49  C   UNL A   1      37.823  32.607  31.482  1.00  0.00     0.031 A 
ATOM     50  C   UNL A   1      42.584  30.687  35.486  1.00  0.00     0.049 A 
ATOM     51  C   UNL A   1      38.290  33.080  32.837  1.00  0.00     0.074 A 
ATOM     52  C   UNL A   1      42.990  31.267  36.676  1.00  0.00     0.029 A 
ATOM     53  N   UNL A   1      41.503  31.424  35.031  1.00  0.00    -0.354 N 
ATOM     54  N   UNL A   1      39.286  32.641  33.568  1.00  0.00    -0.248 NA
ATOM     55  C   UNL A   1      37.544  34.194  33.445  1.00  0.00     0.031 C 
ATOM     56  C   UNL A   1      42.113  32.316  36.972  1.00  0.00     0.029 A 
ATOM     57  C   UNL A   1      41.205  32.433  35.932  1.00  0.00     0.049 A 
ATOM     58  H   UNL A   1      41.018  31.256  34.190  1.00  0.00     0.167 HD
ATOM     59  C   UNL A   1      39.303  33.442  34.707  1.00  0.00     0.074 A 
ATOM     60  C   UNL A   1      38.230  34.402  34.561  1.00  0.00     0.031 C 
ATOM     61  C   UNL A   1      40.135  33.386  35.778  1.00  0.00     0.031 A 
BRANCH  48  62
ATOM     62  C   UNL A   1      44.291  28.824  35.471  1.00  0.00    -0.014 A 
ATOM     63  C   UNL A   1      45.620  29.184  35.191  1.00  0.00     0.010 A 
ATOM     64  C   UNL A   1      44.038  27.809  36.412  1.00  0.00     0.010 A 
ATOM     65  C   UNL A   1      46.679  28.522  35.820  1.00  0.00     0.020 A 
ATOM     66  C   UNL A   1      45.093  27.161  37.062  1.00  0.00     0.020 A 
ATOM     67  C   UNL A   1      46.407  27.514  36.751  1.00  0.00     0.054 A 
BRANCH  67  68
ATOM     68  S   UNL A   1      47.799  26.689  37.569  1.00  0.00     0.124 S 
ATOM     69  O   UNL A   1      48.289  25.805  36.514  1.00  0.00    -0.237 OA
ATOM     70  O   UNL A   1      48.677  27.806  37.911  1.00  0.00    -0.237 OA
ATOM     71  O   UNL A   1      47.182  26.015  38.709  1.00  0.00    -0.744 OA
ENDBRANCH  67  68
ENDBRANCH  48  62
BRANCH  49  72
ATOM     72  C   UNL A   1      36.664  33.265  30.815  1.00  0.00    -0.014 A 
ATOM     73  C   UNL A   1      36.837  34.032  29.649  1.00  0.00     0.010 A 
ATOM     74  C   UNL A   1      35.377  33.164  31.377  1.00  0.00     0.010 A 
ATOM     75  C   UNL A   1      35.755  34.711  29.078  1.00  0.00     0.020 A 
ATOM     76  C   UNL A   1      34.287  33.815  30.792  1.00  0.00     0.020 A 
ATOM     77  C   UNL A   1      34.487  34.600  29.655  1.00  0.00     0.054 A 
BRANCH  77  78
ATOM     78  S   UNL A   1      33.093  35.475  28.890  1.00  0.00     0.124 S 
ATOM     79  O   UNL A   1      33.773  36.516  28.125  1.00  0.00    -0.237 OA
ATOM     80  O   UNL A   1      32.454  34.425  28.101  1.00  0.00    -0.237 OA
ATOM     81  O   UNL A   1      32.315  35.946  30.034  1.00  0.00    -0.744 OA
ENDBRANCH  77  78
ENDBRANCH  49  72
BRANCH  61  82
ATOM     82  C   UNL A   1      39.946  34.414  36.867  1.00  0.00    -0.014 A 
ATOM     83  C   UNL A   1      39.145  34.151  37.992  1.00  0.00     0.010 A 
ATOM     84  C   UNL A   1      40.634  35.640  36.790  1.00  0.00     0.010 A 
ATOM     85  C   UNL A   1      39.013  35.106  39.005  1.00  0.00     0.020 A 
ATOM     86  C   UNL A   1      40.528  36.584  37.815  1.00  0.00     0.020 A 
ATOM     87  C   UNL A   1      39.706  36.316  38.911  1.00  0.00     0.054 A 
BRANCH  87  88
ATOM     88  S   UNL A   1      39.556  37.517  40.263  1.00  0.00     0.124 S 
ATOM     89  O   UNL A   1      40.681  38.412  40.002  1.00  0.00    -0.237 OA
ATOM     90  O   UNL A   1      38.231  38.091  40.036  1.00  0.00    -0.237 OA
ATOM     91  O   UNL A   1      39.676  36.700  41.469  1.00  0.00    -0.744 OA
ENDBRANCH  87  88
ENDBRANCH  61  82
ENDBRANCH  35  36
ENDBRANCH  28  30
ENDBRANCH  27  28
ENDBRANCH   1  27
TORSDOF 18
ENDMDL
MODEL 3
REMARK VINA RESULT:     -10.7      2.674      9.268
REMARK SMILES CCc1cc(OC(F)(F)F)cc2c1O[C@@H](C(F)(F)F)C(C(=O)OCCOC(=O)c1ccc(-c3c4nc(c(-c5ccc(S(=O)(=O)[O-])cc5)c5ccc([nH]5)c(-c5ccc(S(=O)(=O)[O-])cc5)c5nc(c(-c6ccc(S(=O)(=O)[O-])cc6)c6ccc3[nH]6)C=C5)C=C4)cc1)=C2
REMARK SMILES IDX 25 1 24 2 23 3 21 4 22 5 20 6 3 7 4 8 13 9 5 10 12 11 14 12
REMARK SMILES IDX 11 13 89 14 15 15 2 16 1 17 6 18 7 19 8 20 9 21 10 22 16 23
REMARK SMILES IDX 17 24 18 25 19 26 26 27 27 28 28 29 29 30 30 31 88 32 31 33
REMARK SMILES IDX 87 34 32 35 33 36 34 37 81 38 35 39 86 40 80 41 82 42 36 43
REMARK SMILES IDX 85 44 79 45 78 46 37 48 67 49 48 50 66 51 49 52 52 53 65 54
REMARK SMILES IDX 83 55 50 56 51 57 64 59 84 60 53 61 38 62 39 63 47 64 40 65
REMARK SMILES IDX 46 66 41 67 42 68 43 69 44 70 45 71 68 72 69 73 77 74 70 75
REMARK SMILES IDX 76 76 71 77 72 78 73 79 74 80 75 81 54 82 55 83 63 84 56 85
REMARK SMILES IDX 62 86 57 87 58 88 59 89 60 90 61 91
REMARK H PARENT 82 47 52 58
REMARK Flexibility Score: inf
ROOT
ATOM      1  C   UNL A   1      37.289  22.552  24.528  1.00  0.00     0.275 C 
ENDROOT
BRANCH   1   2
ATOM      2  C   UNL A   1      36.038  23.142  23.869  1.00  0.00     0.275 C 
BRANCH   2   3
ATOM      3  O   UNL A   1      34.847  22.407  24.223  1.00  0.00    -0.459 OA
BRANCH   3   4
ATOM      4  C   UNL A   1      34.191  22.849  25.326  1.00  0.00     0.338 C 
ATOM      5  O   UNL A   1      34.218  22.315  26.422  1.00  0.00    -0.246 OA
BRANCH   4   6
ATOM      6  C   UNL A   1      33.447  24.101  25.064  1.00  0.00     0.087 C 
ATOM      7  C   UNL A   1      31.219  27.512  24.084  1.00  0.00    -0.002 A 
ATOM      8  C   UNL A   1      31.613  28.754  24.623  1.00  0.00     0.054 A 
ATOM      9  C   UNL A   1      32.038  26.403  24.330  1.00  0.00     0.131 A 
ATOM     10  C   UNL A   1      32.794  28.886  25.357  1.00  0.00     0.130 A 
ATOM     11  C   UNL A   1      33.179  26.497  25.143  1.00  0.00     0.021 A 
ATOM     12  O   UNL A   1      31.761  25.236  23.677  1.00  0.00    -0.475 OA
ATOM     13  C   UNL A   1      33.553  27.746  25.647  1.00  0.00     0.058 A 
ATOM     14  C   UNL A   1      33.963  25.290  25.423  1.00  0.00     0.027 C 
ATOM     15  C   UNL A   1      32.097  24.016  24.378  1.00  0.00     0.316 C 
BRANCH   7  16
ATOM     16  C   UNL A   1      29.877  27.462  23.377  1.00  0.00     0.036 C 
ATOM     17  C   UNL A   1      28.743  26.661  24.000  1.00  0.00     0.009 C 
ENDBRANCH   7  16
BRANCH  10  18
ATOM     18  O   UNL A   1      33.292  30.058  25.855  1.00  0.00    -0.406 OA
BRANCH  18  19
ATOM     19  C   UNL A   1      32.633  30.613  26.984  1.00  0.00     0.573 C 
ATOM     20  F   UNL A   1      31.952  29.675  27.677  1.00  0.00    -0.132 F 
ATOM     21  F   UNL A   1      33.513  31.228  27.803  1.00  0.00    -0.132 F 
ATOM     22  F   UNL A   1      31.744  31.538  26.556  1.00  0.00    -0.132 F 
ENDBRANCH  18  19
ENDBRANCH  10  18
BRANCH  15  23
ATOM     23  C   UNL A   1      31.825  22.849  23.408  1.00  0.00     0.430 C 
ATOM     24  F   UNL A   1      31.840  21.655  24.040  1.00  0.00    -0.167 F 
ATOM     25  F   UNL A   1      30.578  22.966  22.877  1.00  0.00    -0.167 F 
ATOM     26  F   UNL A   1      32.694  22.817  22.376  1.00  0.00    -0.167 F 
ENDBRANCH  15  23
ENDBRANCH   4   6
ENDBRANCH   3   4
ENDBRANCH   2   3
ENDBRANCH   1   2
BRANCH   1  27
ATOM     27  O   UNL A   1      37.546  23.149  25.811  1.00  0.00    -0.458 OA
BRANCH  27  28
ATOM     28  C   UNL A   1      38.810  22.986  26.274  1.00  0.00     0.338 C 
ATOM     29  O   UNL A   1      39.517  22.002  26.135  1.00  0.00    -0.246 OA
BRANCH  28  30
ATOM     30  C   UNL A   1      39.315  24.265  26.812  1.00  0.00     0.060 A 
ATOM     31  C   UNL A   1      38.974  24.568  28.132  1.00  0.00     0.016 A 
ATOM     32  C   UNL A   1      40.091  25.156  26.068  1.00  0.00     0.016 A 
ATOM     33  C   UNL A   1      39.478  25.710  28.751  1.00  0.00     0.010 A 
ATOM     34  C   UNL A   1      40.548  26.337  26.671  1.00  0.00     0.010 A 
ATOM     35  C   UNL A   1      40.264  26.609  28.021  1.00  0.00    -0.014 A 
BRANCH  35  36
ATOM     36  C   UNL A   1      40.719  27.868  28.659  1.00  0.00     0.031 A 
ATOM     37  C   UNL A   1      42.133  27.979  29.153  1.00  0.00     0.074 A 
ATOM     38  C   UNL A   1      39.888  28.923  28.762  1.00  0.00     0.049 A 
ATOM     39  N   UNL A   1      42.714  28.968  29.780  1.00  0.00    -0.248 NA
ATOM     40  C   UNL A   1      43.012  26.828  28.893  1.00  0.00     0.031 C 
ATOM     41  C   UNL A   1      38.524  28.980  28.236  1.00  0.00     0.029 A 
ATOM     42  N   UNL A   1      40.073  30.151  29.347  1.00  0.00    -0.354 N 
ATOM     43  C   UNL A   1      44.028  28.565  29.987  1.00  0.00     0.074 A 
ATOM     44  C   UNL A   1      44.154  27.235  29.429  1.00  0.00     0.031 C 
ATOM     45  C   UNL A   1      37.988  30.175  28.543  1.00  0.00     0.029 A 
ATOM     46  C   UNL A   1      38.954  30.950  29.321  1.00  0.00     0.049 A 
ATOM     47  H   UNL A   1      40.927  30.433  29.749  1.00  0.00     0.167 HD
ATOM     48  C   UNL A   1      45.033  29.238  30.593  1.00  0.00     0.031 A 
ATOM     49  C   UNL A   1      38.724  32.153  29.887  1.00  0.00     0.031 A 
ATOM     50  C   UNL A   1      44.896  30.541  31.189  1.00  0.00     0.049 A 
ATOM     51  C   UNL A   1      39.823  32.819  30.679  1.00  0.00     0.074 A 
ATOM     52  C   UNL A   1      45.856  31.288  31.852  1.00  0.00     0.029 A 
ATOM     53  N   UNL A   1      43.727  31.285  31.209  1.00  0.00    -0.354 N 
ATOM     54  N   UNL A   1      41.059  32.426  30.871  1.00  0.00    -0.248 NA
ATOM     55  C   UNL A   1      39.490  34.094  31.334  1.00  0.00     0.031 C 
ATOM     56  C   UNL A   1      45.250  32.455  32.328  1.00  0.00     0.029 A 
ATOM     57  C   UNL A   1      43.931  32.468  31.902  1.00  0.00     0.049 A 
ATOM     58  H   UNL A   1      42.878  31.015  30.792  1.00  0.00     0.167 HD
ATOM     59  C   UNL A   1      41.658  33.417  31.643  1.00  0.00     0.074 A 
ATOM     60  C   UNL A   1      40.655  34.436  31.870  1.00  0.00     0.031 C 
ATOM     61  C   UNL A   1      42.927  33.478  32.122  1.00  0.00     0.031 A 
BRANCH  48  62
ATOM     62  C   UNL A   1      46.367  28.547  30.693  1.00  0.00    -0.014 A 
ATOM     63  C   UNL A   1      46.664  27.687  31.765  1.00  0.00     0.010 A 
ATOM     64  C   UNL A   1      47.319  28.728  29.674  1.00  0.00     0.010 A 
ATOM     65  C   UNL A   1      47.903  27.042  31.829  1.00  0.00     0.020 A 
ATOM     66  C   UNL A   1      48.548  28.066  29.721  1.00  0.00     0.020 A 
ATOM     67  C   UNL A   1      48.837  27.237  30.807  1.00  0.00     0.054 A 
BRANCH  67  68
ATOM     68  S   UNL A   1      50.426  26.368  30.905  1.00  0.00     0.124 S 
ATOM     69  O   UNL A   1      50.014  25.035  31.337  1.00  0.00    -0.237 OA
ATOM     70  O   UNL A   1      50.923  26.458  29.534  1.00  0.00    -0.237 OA
ATOM     71  O   UNL A   1      51.182  27.136  31.891  1.00  0.00    -0.744 OA
ENDBRANCH  67  68
ENDBRANCH  48  62
BRANCH  49  72
ATOM     72  C   UNL A   1      37.379  32.789  29.787  1.00  0.00    -0.014 A 
ATOM     73  C   UNL A   1      36.996  33.497  28.634  1.00  0.00     0.010 A 
ATOM     74  C   UNL A   1      36.488  32.726  30.875  1.00  0.00     0.010 A 
ATOM     75  C   UNL A   1      35.763  34.157  28.584  1.00  0.00     0.020 A 
ATOM     76  C   UNL A   1      35.242  33.358  30.816  1.00  0.00     0.020 A 
ATOM     77  C   UNL A   1      34.895  34.085  29.677  1.00  0.00     0.054 A 
BRANCH  77  78
ATOM     78  S   UNL A   1      33.294  34.935  29.585  1.00  0.00     0.124 S 
ATOM     79  O   UNL A   1      33.680  36.257  29.101  1.00  0.00    -0.237 OA
ATOM     80  O   UNL A   1      32.550  34.107  28.639  1.00  0.00    -0.237 OA
ATOM     81  O   UNL A   1      32.804  34.891  30.961  1.00  0.00    -0.744 OA
ENDBRANCH  77  78
ENDBRANCH  49  72
BRANCH  61  82
ATOM     82  C   UNL A   1      43.321  34.702  32.910  1.00  0.00    -0.014 A 
ATOM     83  C   UNL A   1      43.785  35.866  32.273  1.00  0.00     0.010 A 
ATOM     84  C   UNL A   1      43.165  34.706  34.310  1.00  0.00     0.010 A 
ATOM     85  C   UNL A   1      44.111  37.002  33.022  1.00  0.00     0.020 A 
ATOM     86  C   UNL A   1      43.462  35.849  35.058  1.00  0.00     0.020 A 
ATOM     87  C   UNL A   1      43.947  36.986  34.410  1.00  0.00     0.054 A 
BRANCH  87  88
ATOM     88  S   UNL A   1      44.332  38.487  35.353  1.00  0.00     0.124 S 
ATOM     89  O   UNL A   1      43.784  38.170  36.669  1.00  0.00    -0.237 OA
ATOM     90  O   UNL A   1      45.790  38.549  35.277  1.00  0.00    -0.237 OA
ATOM     91  O   UNL A   1      43.631  39.544  34.625  1.00  0.00    -0.744 OA
ENDBRANCH  87  88
ENDBRANCH  61  82
ENDBRANCH  35  36
ENDBRANCH  28  30
ENDBRANCH  27  28
ENDBRANCH   1  27
TORSDOF 18
ENDMDL
