MODEL 1
REMARK VINA RESULT:     -11.6      0.000      0.000
REMARK SMILES O=C(OCCOC(=O)[C@@H]1CCCN1S(=O)(=O)c1ccc(Br)c2ccccc12)c1ccc(-c2c3nc(c(-c4ccc(S(=O)(=O)[O-])cc4)c4ccc([nH]4)c(-c4ccc(S(=O)(=O)[O-])cc4)c4nc(c(-c5ccc(S(=O)(=O)[O-])cc5)c5ccc2[nH]5)C=C4)C=C3)cc1
REMARK SMILES IDX 4 1 3 2 2 3 1 4 28 5 29 6 87 7 30 8 86 9 31 10 32 11 33 12
REMARK SMILES IDX 80 13 34 14 85 15 79 16 81 17 35 18 84 19 78 20 77 21 36 23
REMARK SMILES IDX 66 24 47 25 65 26 48 27 51 28 64 29 82 30 49 31 50 32 63 34
REMARK SMILES IDX 83 35 52 36 37 37 38 38 46 39 39 40 45 41 40 42 41 43 42 44
REMARK SMILES IDX 43 45 44 46 67 47 68 48 76 49 69 50 75 51 70 52 71 53 72 54
REMARK SMILES IDX 73 55 74 56 53 57 54 58 62 59 55 60 61 61 56 62 57 63 58 64
REMARK SMILES IDX 59 65 60 66 5 67 6 68 7 69 8 70 9 71 10 72 13 73 11 74 12 75
REMARK SMILES IDX 14 76 15 77 16 78 17 79 18 80 27 81 19 82 22 83 26 84 20 85
REMARK SMILES IDX 23 86 25 87 21 88 24 89
REMARK H PARENT 81 22 51 33
REMARK Flexibility Score: inf
ROOT
ATOM      1  C   UNL A   1      32.921  29.791  25.947  1.00  0.00     0.275 C 
ENDROOT
BRANCH   1   2
ATOM      2  O   UNL A   1      33.308  29.831  27.329  1.00  0.00    -0.458 OA
BRANCH   2   3
ATOM      3  C   UNL A   1      34.210  30.679  27.889  1.00  0.00     0.338 C 
ATOM      4  O   UNL A   1      33.999  31.886  27.906  1.00  0.00    -0.246 OA
BRANCH   3   5
ATOM      5  C   UNL A   1      35.552  30.169  28.270  1.00  0.00     0.060 A 
ATOM      6  C   UNL A   1      35.909  29.785  29.567  1.00  0.00     0.016 A 
ATOM      7  C   UNL A   1      36.515  30.112  27.255  1.00  0.00     0.016 A 
ATOM      8  C   UNL A   1      37.160  29.221  29.828  1.00  0.00     0.010 A 
ATOM      9  C   UNL A   1      37.774  29.566  27.515  1.00  0.00     0.010 A 
ATOM     10  C   UNL A   1      38.098  29.100  28.802  1.00  0.00    -0.014 A 
BRANCH  10  11
ATOM     11  C   UNL A   1      39.497  28.726  29.106  1.00  0.00     0.031 A 
ATOM     12  C   UNL A   1      40.372  29.811  29.660  1.00  0.00     0.074 A 
ATOM     13  C   UNL A   1      39.987  27.495  28.865  1.00  0.00     0.049 A 
ATOM     14  N   UNL A   1      41.645  29.788  29.939  1.00  0.00    -0.248 NA
ATOM     15  C   UNL A   1      39.712  31.103  29.927  1.00  0.00     0.031 C 
ATOM     16  C   UNL A   1      39.225  26.345  28.382  1.00  0.00     0.029 A 
ATOM     17  N   UNL A   1      41.269  27.013  28.963  1.00  0.00    -0.354 N 
ATOM     18  C   UNL A   1      41.937  31.063  30.406  1.00  0.00     0.074 A 
ATOM     19  C   UNL A   1      40.736  31.855  30.289  1.00  0.00     0.031 C 
ATOM     20  C   UNL A   1      40.063  25.326  28.128  1.00  0.00     0.029 A 
ATOM     21  C   UNL A   1      41.417  25.731  28.484  1.00  0.00     0.049 A 
ATOM     22  H   UNL A   1      42.012  27.536  29.341  1.00  0.00     0.167 HD
ATOM     23  C   UNL A   1      43.093  31.523  30.933  1.00  0.00     0.031 A 
ATOM     24  C   UNL A   1      42.523  24.967  28.365  1.00  0.00     0.031 A 
ATOM     25  C   UNL A   1      44.275  30.724  31.047  1.00  0.00     0.049 A 
ATOM     26  C   UNL A   1      43.816  25.499  28.920  1.00  0.00     0.074 A 
ATOM     27  C   UNL A   1      45.498  31.059  31.590  1.00  0.00     0.029 A 
ATOM     28  N   UNL A   1      44.370  29.414  30.597  1.00  0.00    -0.354 N 
ATOM     29  N   UNL A   1      44.058  26.680  29.440  1.00  0.00    -0.248 NA
ATOM     30  C   UNL A   1      44.967  24.587  28.930  1.00  0.00     0.031 C 
ATOM     31  C   UNL A   1      46.345  29.954  31.446  1.00  0.00     0.029 A 
ATOM     32  C   UNL A   1      45.633  28.921  30.849  1.00  0.00     0.049 A 
ATOM     33  H   UNL A   1      43.643  28.912  30.163  1.00  0.00     0.167 HD
ATOM     34  C   UNL A   1      45.371  26.633  29.893  1.00  0.00     0.074 A 
ATOM     35  C   UNL A   1      45.877  25.315  29.566  1.00  0.00     0.031 C 
ATOM     36  C   UNL A   1      46.086  27.587  30.538  1.00  0.00     0.031 A 
BRANCH  23  37
ATOM     37  C   UNL A   1      43.080  32.953  31.401  1.00  0.00    -0.014 A 
ATOM     38  C   UNL A   1      43.539  33.985  30.558  1.00  0.00     0.010 A 
ATOM     39  C   UNL A   1      42.744  33.249  32.731  1.00  0.00     0.010 A 
ATOM     40  C   UNL A   1      43.767  35.264  31.070  1.00  0.00     0.020 A 
ATOM     41  C   UNL A   1      42.937  34.538  33.237  1.00  0.00     0.020 A 
ATOM     42  C   UNL A   1      43.489  35.524  32.414  1.00  0.00     0.054 A 
BRANCH  42  43
ATOM     43  S   UNL A   1      43.888  37.160  33.085  1.00  0.00     0.124 S 
ATOM     44  O   UNL A   1      45.201  36.926  33.681  1.00  0.00    -0.237 OA
ATOM     45  O   UNL A   1      43.882  38.009  31.897  1.00  0.00    -0.237 OA
ATOM     46  O   UNL A   1      42.806  37.415  34.034  1.00  0.00    -0.744 OA
ENDBRANCH  42  43
ENDBRANCH  23  37
BRANCH  24  47
ATOM     47  C   UNL A   1      42.432  23.608  27.763  1.00  0.00    -0.014 A 
ATOM     48  C   UNL A   1      42.670  23.410  26.392  1.00  0.00     0.010 A 
ATOM     49  C   UNL A   1      42.134  22.493  28.570  1.00  0.00     0.010 A 
ATOM     50  C   UNL A   1      42.602  22.128  25.835  1.00  0.00     0.020 A 
ATOM     51  C   UNL A   1      42.081  21.206  28.020  1.00  0.00     0.020 A 
ATOM     52  C   UNL A   1      42.309  21.033  26.653  1.00  0.00     0.054 A 
BRANCH  52  53
ATOM     53  S   UNL A   1      42.284  19.374  25.914  1.00  0.00     0.124 S 
ATOM     54  O   UNL A   1      42.751  18.541  27.018  1.00  0.00    -0.237 OA
ATOM     55  O   UNL A   1      40.877  19.215  25.553  1.00  0.00    -0.237 OA
ATOM     56  O   UNL A   1      43.201  19.489  24.783  1.00  0.00    -0.744 OA
ENDBRANCH  52  53
ENDBRANCH  24  47
BRANCH  36  57
ATOM     57  C   UNL A   1      47.471  27.236  30.999  1.00  0.00    -0.014 A 
ATOM     58  C   UNL A   1      47.675  26.505  32.180  1.00  0.00     0.010 A 
ATOM     59  C   UNL A   1      48.558  27.495  30.143  1.00  0.00     0.010 A 
ATOM     60  C   UNL A   1      48.946  26.019  32.488  1.00  0.00     0.020 A 
ATOM     61  C   UNL A   1      49.825  26.992  30.438  1.00  0.00     0.020 A 
ATOM     62  C   UNL A   1      50.009  26.251  31.607  1.00  0.00     0.054 A 
BRANCH  62  63
ATOM     63  S   UNL A   1      51.614  25.482  31.954  1.00  0.00     0.124 S 
ATOM     64  O   UNL A   1      51.254  24.072  32.081  1.00  0.00    -0.237 OA
ATOM     65  O   UNL A   1      52.398  25.828  30.771  1.00  0.00    -0.237 OA
ATOM     66  O   UNL A   1      52.047  26.129  33.190  1.00  0.00    -0.744 OA
ENDBRANCH  62  63
ENDBRANCH  36  57
ENDBRANCH  10  11
ENDBRANCH   3   5
ENDBRANCH   2   3
ENDBRANCH   1   2
BRANCH   1  67
ATOM     67  C   UNL A   1      31.601  29.069  25.647  1.00  0.00     0.274 C 
BRANCH  67  68
ATOM     68  O   UNL A   1      31.210  29.089  24.262  1.00  0.00    -0.461 OA
BRANCH  68  69
ATOM     69  C   UNL A   1      30.824  27.882  23.739  1.00  0.00     0.324 C 
ATOM     70  O   UNL A   1      29.687  27.428  23.841  1.00  0.00    -0.250 OA
BRANCH  69  71
ATOM     71  C   UNL A   1      31.940  27.122  23.057  1.00  0.00     0.183 C 
ATOM     72  C   UNL A   1      31.494  26.153  21.988  1.00  0.00     0.034 C 
ATOM     73  N   UNL A   1      33.002  26.345  23.787  1.00  0.00    -0.184 NA
ATOM     74  C   UNL A   1      32.764  25.479  21.516  1.00  0.00     0.019 C 
ATOM     75  C   UNL A   1      33.767  25.693  22.649  1.00  0.00     0.103 C 
BRANCH  73  76
ATOM     76  S   UNL A   1      32.574  25.185  24.988  1.00  0.00     0.244 S 
ATOM     77  O   UNL A   1      32.512  25.881  26.263  1.00  0.00    -0.207 OA
ATOM     78  O   UNL A   1      31.392  24.509  24.515  1.00  0.00    -0.207 OA
BRANCH  76  79
ATOM     79  C   UNL A   1      33.929  24.015  25.097  1.00  0.00     0.090 A 
ATOM     80  C   UNL A   1      35.124  24.558  25.580  1.00  0.00     0.023 A 
ATOM     81  C   UNL A   1      33.828  22.608  24.883  1.00  0.00     0.003 A 
ATOM     82  C   UNL A   1      36.286  23.810  25.641  1.00  0.00     0.018 A 
ATOM     83  C   UNL A   1      35.022  21.825  25.004  1.00  0.00    -0.003 A 
ATOM     84  C   UNL A   1      32.630  21.899  24.606  1.00  0.00     0.010 A 
ATOM     85  C   UNL A   1      36.248  22.464  25.315  1.00  0.00     0.025 A 
ATOM     86  C   UNL A   1      34.944  20.419  24.854  1.00  0.00     0.010 A 
ATOM     87  C   UNL A   1      32.579  20.505  24.515  1.00  0.00     0.001 A 
ATOM     88  Br  UNL A   1      37.928  21.559  25.369  1.00  0.00    -0.050 Br
ATOM     89  C   UNL A   1      33.737  19.765  24.639  1.00  0.00     0.001 A 
ENDBRANCH  76  79
ENDBRANCH  73  76
ENDBRANCH  69  71
ENDBRANCH  68  69
ENDBRANCH  67  68
ENDBRANCH   1  67
TORSDOF 16
ENDMDL
MODEL 2
REMARK VINA RESULT:     -11.5      4.276     11.270
REMARK SMILES O=C(OCCOC(=O)[C@@H]1CCCN1S(=O)(=O)c1ccc(Br)c2ccccc12)c1ccc(-c2c3nc(c(-c4ccc(S(=O)(=O)[O-])cc4)c4ccc([nH]4)c(-c4ccc(S(=O)(=O)[O-])cc4)c4nc(c(-c5ccc(S(=O)(=O)[O-])cc5)c5ccc2[nH]5)C=C4)C=C3)cc1
REMARK SMILES IDX 4 1 3 2 2 3 1 4 28 5 29 6 87 7 30 8 86 9 31 10 32 11 33 12
REMARK SMILES IDX 80 13 34 14 85 15 79 16 81 17 35 18 84 19 78 20 77 21 36 23
REMARK SMILES IDX 66 24 47 25 65 26 48 27 51 28 64 29 82 30 49 31 50 32 63 34
REMARK SMILES IDX 83 35 52 36 37 37 38 38 46 39 39 40 45 41 40 42 41 43 42 44
REMARK SMILES IDX 43 45 44 46 67 47 68 48 76 49 69 50 75 51 70 52 71 53 72 54
REMARK SMILES IDX 73 55 74 56 53 57 54 58 62 59 55 60 61 61 56 62 57 63 58 64
REMARK SMILES IDX 59 65 60 66 5 67 6 68 7 69 8 70 9 71 10 72 13 73 11 74 12 75
REMARK SMILES IDX 14 76 15 77 16 78 17 79 18 80 27 81 19 82 22 83 26 84 20 85
REMARK SMILES IDX 23 86 25 87 21 88 24 89
REMARK H PARENT 81 22 51 33
REMARK Flexibility Score: inf
ROOT
ATOM      1  C   UNL A   1      40.248  20.385  26.274  1.00  0.00     0.275 C 
ENDROOT
BRANCH   1   2
ATOM      2  O   UNL A   1      39.832  21.553  26.998  1.00  0.00    -0.458 OA
BRANCH   2   3
ATOM      3  C   UNL A   1      39.213  22.645  26.477  1.00  0.00     0.338 C 
ATOM      4  O   UNL A   1      38.522  22.544  25.470  1.00  0.00    -0.246 OA
BRANCH   3   5
ATOM      5  C   UNL A   1      39.560  23.995  26.991  1.00  0.00     0.060 A 
ATOM      6  C   UNL A   1      40.332  24.928  26.292  1.00  0.00     0.016 A 
ATOM      7  C   UNL A   1      39.103  24.316  28.275  1.00  0.00     0.016 A 
ATOM      8  C   UNL A   1      40.533  26.214  26.798  1.00  0.00     0.010 A 
ATOM      9  C   UNL A   1      39.317  25.596  28.793  1.00  0.00     0.010 A 
ATOM     10  C   UNL A   1      40.019  26.559  28.048  1.00  0.00    -0.014 A 
BRANCH  10  11
ATOM     11  C   UNL A   1      40.416  27.828  28.698  1.00  0.00     0.031 A 
ATOM     12  C   UNL A   1      41.758  27.841  29.369  1.00  0.00     0.074 A 
ATOM     13  C   UNL A   1      39.613  28.908  28.731  1.00  0.00     0.049 A 
ATOM     14  N   UNL A   1      42.321  28.780  30.077  1.00  0.00    -0.248 NA
ATOM     15  C   UNL A   1      42.568  26.617  29.224  1.00  0.00     0.031 C 
ATOM     16  C   UNL A   1      38.316  29.036  28.071  1.00  0.00     0.029 A 
ATOM     17  N   UNL A   1      39.761  30.106  29.386  1.00  0.00    -0.354 N 
ATOM     18  C   UNL A   1      43.547  28.255  30.465  1.00  0.00     0.074 A 
ATOM     19  C   UNL A   1      43.606  26.892  29.993  1.00  0.00     0.031 C 
ATOM     20  C   UNL A   1      37.740  30.195  28.434  1.00  0.00     0.029 A 
ATOM     21  C   UNL A   1      38.653  30.920  29.309  1.00  0.00     0.049 A 
ATOM     22  H   UNL A   1      40.582  30.359  29.866  1.00  0.00     0.167 HD
ATOM     23  C   UNL A   1      44.559  28.869  31.118  1.00  0.00     0.031 A 
ATOM     24  C   UNL A   1      38.415  32.124  29.870  1.00  0.00     0.031 A 
ATOM     25  C   UNL A   1      44.488  30.223  31.575  1.00  0.00     0.049 A 
ATOM     26  C   UNL A   1      39.532  32.788  30.627  1.00  0.00     0.074 A 
ATOM     27  C   UNL A   1      45.452  30.972  32.218  1.00  0.00     0.029 A 
ATOM     28  N   UNL A   1      43.368  31.031  31.433  1.00  0.00    -0.354 N 
ATOM     29  N   UNL A   1      40.722  32.311  30.913  1.00  0.00    -0.248 NA
ATOM     30  C   UNL A   1      39.306  34.165  31.085  1.00  0.00     0.031 C 
ATOM     31  C   UNL A   1      44.904  32.232  32.487  1.00  0.00     0.029 A 
ATOM     32  C   UNL A   1      43.613  32.275  31.976  1.00  0.00     0.049 A 
ATOM     33  H   UNL A   1      42.524  30.756  31.007  1.00  0.00     0.167 HD
ATOM     34  C   UNL A   1      41.407  33.350  31.533  1.00  0.00     0.074 A 
ATOM     35  C   UNL A   1      40.492  34.472  31.598  1.00  0.00     0.031 C 
ATOM     36  C   UNL A   1      42.683  33.378  31.988  1.00  0.00     0.031 A 
BRANCH  23  37
ATOM     37  C   UNL A   1      45.792  28.039  31.351  1.00  0.00    -0.014 A 
ATOM     38  C   UNL A   1      45.959  27.330  32.557  1.00  0.00     0.010 A 
ATOM     39  C   UNL A   1      46.847  28.082  30.426  1.00  0.00     0.010 A 
ATOM     40  C   UNL A   1      47.197  26.773  32.882  1.00  0.00     0.020 A 
ATOM     41  C   UNL A   1      48.078  27.494  30.733  1.00  0.00     0.020 A 
ATOM     42  C   UNL A   1      48.256  26.882  31.977  1.00  0.00     0.054 A 
BRANCH  42  43
ATOM     43  S   UNL A   1      49.883  26.244  32.459  1.00  0.00     0.124 S 
ATOM     44  O   UNL A   1      50.763  26.927  31.515  1.00  0.00    -0.237 OA
ATOM     45  O   UNL A   1      50.002  26.675  33.850  1.00  0.00    -0.237 OA
ATOM     46  O   UNL A   1      49.757  24.801  32.267  1.00  0.00    -0.744 OA
ENDBRANCH  42  43
ENDBRANCH  23  37
BRANCH  24  47
ATOM     47  C   UNL A   1      37.099  32.793  29.673  1.00  0.00    -0.014 A 
ATOM     48  C   UNL A   1      36.072  32.656  30.622  1.00  0.00     0.010 A 
ATOM     49  C   UNL A   1      36.876  33.602  28.541  1.00  0.00     0.010 A 
ATOM     50  C   UNL A   1      34.845  33.303  30.442  1.00  0.00     0.020 A 
ATOM     51  C   UNL A   1      35.655  34.264  28.365  1.00  0.00     0.020 A 
ATOM     52  C   UNL A   1      34.644  34.105  29.314  1.00  0.00     0.054 A 
BRANCH  52  53
ATOM     53  S   UNL A   1      33.061  34.978  29.134  1.00  0.00     0.124 S 
ATOM     54  O   UNL A   1      33.491  36.299  28.685  1.00  0.00    -0.237 OA
ATOM     55  O   UNL A   1      32.368  34.165  28.138  1.00  0.00    -0.237 OA
ATOM     56  O   UNL A   1      32.488  34.927  30.477  1.00  0.00    -0.744 OA
ENDBRANCH  52  53
ENDBRANCH  24  47
BRANCH  36  57
ATOM     57  C   UNL A   1      43.204  34.674  32.540  1.00  0.00    -0.014 A 
ATOM     58  C   UNL A   1      43.721  35.664  31.690  1.00  0.00     0.010 A 
ATOM     59  C   UNL A   1      43.009  34.957  33.905  1.00  0.00     0.010 A 
ATOM     60  C   UNL A   1      44.013  36.932  32.196  1.00  0.00     0.020 A 
ATOM     61  C   UNL A   1      43.282  36.230  34.407  1.00  0.00     0.020 A 
ATOM     62  C   UNL A   1      43.777  37.211  33.547  1.00  0.00     0.054 A 
BRANCH  62  63
ATOM     63  S   UNL A   1      44.024  38.906  34.144  1.00  0.00     0.124 S 
ATOM     64  O   UNL A   1      42.934  39.621  33.485  1.00  0.00    -0.237 OA
ATOM     65  O   UNL A   1      43.895  38.758  35.591  1.00  0.00    -0.237 OA
ATOM     66  O   UNL A   1      45.365  39.244  33.676  1.00  0.00    -0.744 OA
ENDBRANCH  62  63
ENDBRANCH  36  57
ENDBRANCH  10  11
ENDBRANCH   3   5
ENDBRANCH   2   3
ENDBRANCH   1   2
BRANCH   1  67
ATOM     67  C   UNL A   1      41.758  20.257  26.031  1.00  0.00     0.274 C 
BRANCH  67  68
ATOM     68  O   UNL A   1      42.376  21.430  25.473  1.00  0.00    -0.461 OA
BRANCH  68  69
ATOM     69  C   UNL A   1      43.745  21.399  25.398  1.00  0.00     0.324 C 
ATOM     70  O   UNL A   1      44.365  20.763  24.550  1.00  0.00    -0.250 OA
BRANCH  69  71
ATOM     71  C   UNL A   1      44.440  22.183  26.489  1.00  0.00     0.183 C 
ATOM     72  C   UNL A   1      43.541  23.089  27.297  1.00  0.00     0.034 C 
ATOM     73  N   UNL A   1      45.659  23.037  26.269  1.00  0.00    -0.184 NA
ATOM     74  C   UNL A   1      44.466  23.802  28.258  1.00  0.00     0.019 C 
ATOM     75  C   UNL A   1      45.855  23.680  27.631  1.00  0.00     0.103 C 
BRANCH  73  76
ATOM     76  S   UNL A   1      45.690  24.222  25.017  1.00  0.00     0.244 S 
ATOM     77  O   UNL A   1      46.502  23.689  23.934  1.00  0.00    -0.207 OA
ATOM     78  O   UNL A   1      44.320  24.574  24.740  1.00  0.00    -0.207 OA
BRANCH  76  79
ATOM     79  C   UNL A   1      46.557  25.651  25.665  1.00  0.00     0.090 A 
ATOM     80  C   UNL A   1      47.947  25.600  25.517  1.00  0.00     0.023 A 
ATOM     81  C   UNL A   1      45.941  26.842  26.153  1.00  0.00     0.003 A 
ATOM     82  C   UNL A   1      48.766  26.584  26.042  1.00  0.00     0.018 A 
ATOM     83  C   UNL A   1      46.794  27.885  26.644  1.00  0.00    -0.003 A 
ATOM     84  C   UNL A   1      44.547  27.111  26.153  1.00  0.00     0.010 A 
ATOM     85  C   UNL A   1      48.198  27.697  26.640  1.00  0.00     0.025 A 
ATOM     86  C   UNL A   1      46.216  29.100  27.082  1.00  0.00     0.010 A 
ATOM     87  C   UNL A   1      44.014  28.342  26.543  1.00  0.00     0.001 A 
ATOM     88  Br  UNL A   1      49.433  28.945  27.390  1.00  0.00    -0.050 Br
ATOM     89  C   UNL A   1      44.849  29.337  27.009  1.00  0.00     0.001 A 
ENDBRANCH  76  79
ENDBRANCH  73  76
ENDBRANCH  69  71
ENDBRANCH  68  69
ENDBRANCH  67  68
ENDBRANCH   1  67
TORSDOF 16
ENDMDL
MODEL 3
REMARK VINA RESULT:     -11.4      1.133      8.275
REMARK SMILES O=C(OCCOC(=O)[C@@H]1CCCN1S(=O)(=O)c1ccc(Br)c2ccccc12)c1ccc(-c2c3nc(c(-c4ccc(S(=O)(=O)[O-])cc4)c4ccc([nH]4)c(-c4ccc(S(=O)(=O)[O-])cc4)c4nc(c(-c5ccc(S(=O)(=O)[O-])cc5)c5ccc2[nH]5)C=C4)C=C3)cc1
REMARK SMILES IDX 4 1 3 2 2 3 1 4 28 5 29 6 87 7 30 8 86 9 31 10 32 11 33 12
REMARK SMILES IDX 80 13 34 14 85 15 79 16 81 17 35 18 84 19 78 20 77 21 36 23
REMARK SMILES IDX 66 24 47 25 65 26 48 27 51 28 64 29 82 30 49 31 50 32 63 34
REMARK SMILES IDX 83 35 52 36 37 37 38 38 46 39 39 40 45 41 40 42 41 43 42 44
REMARK SMILES IDX 43 45 44 46 67 47 68 48 76 49 69 50 75 51 70 52 71 53 72 54
REMARK SMILES IDX 73 55 74 56 53 57 54 58 62 59 55 60 61 61 56 62 57 63 58 64
REMARK SMILES IDX 59 65 60 66 5 67 6 68 7 69 8 70 9 71 10 72 13 73 11 74 12 75
REMARK SMILES IDX 14 76 15 77 16 78 17 79 18 80 27 81 19 82 22 83 26 84 20 85
REMARK SMILES IDX 23 86 25 87 21 88 24 89
REMARK H PARENT 81 22 51 33
REMARK Flexibility Score: inf
ROOT
ATOM      1  C   UNL A   1      33.234  28.224  27.087  1.00  0.00     0.275 C 
ENDROOT
BRANCH   1   2
ATOM      2  O   UNL A   1      33.660  29.565  26.800  1.00  0.00    -0.458 OA
BRANCH   2   3
ATOM      3  C   UNL A   1      34.320  30.399  27.646  1.00  0.00     0.338 C 
ATOM      4  O   UNL A   1      33.896  31.529  27.858  1.00  0.00    -0.246 OA
BRANCH   3   5
ATOM      5  C   UNL A   1      35.675  30.026  28.129  1.00  0.00     0.060 A 
ATOM      6  C   UNL A   1      35.963  29.638  29.441  1.00  0.00     0.016 A 
ATOM      7  C   UNL A   1      36.719  30.111  27.200  1.00  0.00     0.016 A 
ATOM      8  C   UNL A   1      37.243  29.207  29.796  1.00  0.00     0.010 A 
ATOM      9  C   UNL A   1      38.006  29.697  27.555  1.00  0.00     0.010 A 
ATOM     10  C   UNL A   1      38.270  29.225  28.853  1.00  0.00    -0.014 A 
BRANCH  10  11
ATOM     11  C   UNL A   1      39.672  28.996  29.267  1.00  0.00     0.031 A 
ATOM     12  C   UNL A   1      40.259  27.659  28.923  1.00  0.00     0.074 A 
ATOM     13  C   UNL A   1      40.385  29.911  29.953  1.00  0.00     0.049 A 
ATOM     14  N   UNL A   1      41.425  27.162  29.230  1.00  0.00    -0.248 NA
ATOM     15  C   UNL A   1      39.401  26.759  28.130  1.00  0.00     0.031 C 
ATOM     16  C   UNL A   1      39.946  31.262  30.296  1.00  0.00     0.029 A 
ATOM     17  N   UNL A   1      41.632  29.824  30.520  1.00  0.00    -0.354 N 
ATOM     18  C   UNL A   1      41.434  25.890  28.672  1.00  0.00     0.074 A 
ATOM     19  C   UNL A   1      40.133  25.661  28.089  1.00  0.00     0.031 C 
ATOM     20  C   UNL A   1      40.857  31.840  31.097  1.00  0.00     0.029 A 
ATOM     21  C   UNL A   1      41.974  30.920  31.279  1.00  0.00     0.049 A 
ATOM     22  H   UNL A   1      42.226  29.049  30.395  1.00  0.00     0.167 HD
ATOM     23  C   UNL A   1      42.454  25.005  28.606  1.00  0.00     0.031 A 
ATOM     24  C   UNL A   1      43.074  31.158  32.021  1.00  0.00     0.031 A 
ATOM     25  C   UNL A   1      43.739  25.249  29.185  1.00  0.00     0.049 A 
ATOM     26  C   UNL A   1      44.193  30.153  31.975  1.00  0.00     0.074 A 
ATOM     27  C   UNL A   1      44.866  24.452  29.162  1.00  0.00     0.029 A 
ATOM     28  N   UNL A   1      44.062  26.394  29.902  1.00  0.00    -0.354 N 
ATOM     29  N   UNL A   1      44.221  28.988  31.369  1.00  0.00    -0.248 NA
ATOM     30  C   UNL A   1      45.445  30.510  32.656  1.00  0.00     0.031 C 
ATOM     31  C   UNL A   1      45.867  25.107  29.888  1.00  0.00     0.029 A 
ATOM     32  C   UNL A   1      45.372  26.328  30.328  1.00  0.00     0.049 A 
ATOM     33  H   UNL A   1      43.447  27.141  30.078  1.00  0.00     0.167 HD
ATOM     34  C   UNL A   1      45.510  28.500  31.544  1.00  0.00     0.074 A 
ATOM     35  C   UNL A   1      46.225  29.485  32.332  1.00  0.00     0.031 C 
ATOM     36  C   UNL A   1      46.057  27.350  31.081  1.00  0.00     0.031 A 
BRANCH  23  37
ATOM     37  C   UNL A   1      42.163  23.718  27.884  1.00  0.00    -0.014 A 
ATOM     38  C   UNL A   1      41.528  22.652  28.550  1.00  0.00     0.010 A 
ATOM     39  C   UNL A   1      42.653  23.523  26.583  1.00  0.00     0.010 A 
ATOM     40  C   UNL A   1      41.488  21.382  27.971  1.00  0.00     0.020 A 
ATOM     41  C   UNL A   1      42.581  22.261  25.985  1.00  0.00     0.020 A 
ATOM     42  C   UNL A   1      42.038  21.190  26.702  1.00  0.00     0.054 A 
BRANCH  42  43
ATOM     43  S   UNL A   1      42.069  19.515  26.009  1.00  0.00     0.124 S 
ATOM     44  O   UNL A   1      42.565  18.734  27.139  1.00  0.00    -0.237 OA
ATOM     45  O   UNL A   1      40.670  19.285  25.655  1.00  0.00    -0.237 OA
ATOM     46  O   UNL A   1      42.984  19.629  24.875  1.00  0.00    -0.744 OA
ENDBRANCH  42  43
ENDBRANCH  23  37
BRANCH  24  47
ATOM     47  C   UNL A   1      43.192  32.421  32.802  1.00  0.00    -0.014 A 
ATOM     48  C   UNL A   1      42.815  32.469  34.155  1.00  0.00     0.010 A 
ATOM     49  C   UNL A   1      43.714  33.582  32.200  1.00  0.00     0.010 A 
ATOM     50  C   UNL A   1      42.945  33.653  34.889  1.00  0.00     0.020 A 
ATOM     51  C   UNL A   1      43.861  34.765  32.935  1.00  0.00     0.020 A 
ATOM     52  C   UNL A   1      43.469  34.794  34.275  1.00  0.00     0.054 A 
BRANCH  52  53
ATOM     53  S   UNL A   1      43.680  36.301  35.267  1.00  0.00     0.124 S 
ATOM     54  O   UNL A   1      44.842  36.921  34.637  1.00  0.00    -0.237 OA
ATOM     55  O   UNL A   1      42.407  36.989  35.063  1.00  0.00    -0.237 OA
ATOM     56  O   UNL A   1      43.896  35.793  36.619  1.00  0.00    -0.744 OA
ENDBRANCH  52  53
ENDBRANCH  24  47
BRANCH  36  57
ATOM     57  C   UNL A   1      47.515  27.109  31.346  1.00  0.00    -0.014 A 
ATOM     58  C   UNL A   1      47.936  26.429  32.500  1.00  0.00     0.010 A 
ATOM     59  C   UNL A   1      48.449  27.419  30.340  1.00  0.00     0.010 A 
ATOM     60  C   UNL A   1      49.270  26.041  32.632  1.00  0.00     0.020 A 
ATOM     61  C   UNL A   1      49.778  27.014  30.461  1.00  0.00     0.020 A 
ATOM     62  C   UNL A   1      50.179  26.321  31.605  1.00  0.00     0.054 A 
BRANCH  62  63
ATOM     63  S   UNL A   1      51.868  25.676  31.734  1.00  0.00     0.124 S 
ATOM     64  O   UNL A   1      52.375  26.384  32.907  1.00  0.00    -0.237 OA
ATOM     65  O   UNL A   1      51.651  24.242  31.910  1.00  0.00    -0.237 OA
ATOM     66  O   UNL A   1      52.481  26.054  30.464  1.00  0.00    -0.744 OA
ENDBRANCH  62  63
ENDBRANCH  36  57
ENDBRANCH  10  11
ENDBRANCH   3   5
ENDBRANCH   2   3
ENDBRANCH   1   2
BRANCH   1  67
ATOM     67  C   UNL A   1      31.733  27.954  26.920  1.00  0.00     0.274 C 
BRANCH  67  68
ATOM     68  O   UNL A   1      31.352  26.575  27.073  1.00  0.00    -0.461 OA
BRANCH  68  69
ATOM     69  C   UNL A   1      30.702  26.018  26.001  1.00  0.00     0.324 C 
ATOM     70  O   UNL A   1      30.178  24.908  26.026  1.00  0.00    -0.250 OA
BRANCH  69  71
ATOM     71  C   UNL A   1      30.724  26.874  24.755  1.00  0.00     0.183 C 
ATOM     72  C   UNL A   1      29.386  27.054  24.078  1.00  0.00     0.034 C 
ATOM     73  N   UNL A   1      31.655  26.653  23.594  1.00  0.00    -0.184 NA
ATOM     74  C   UNL A   1      29.679  27.875  22.842  1.00  0.00     0.019 C 
ATOM     75  C   UNL A   1      31.175  27.686  22.591  1.00  0.00     0.103 C 
BRANCH  73  76
ATOM     76  S   UNL A   1      31.794  25.098  22.861  1.00  0.00     0.244 S 
ATOM     77  O   UNL A   1      30.572  24.367  23.156  1.00  0.00    -0.207 OA
ATOM     78  O   UNL A   1      32.148  25.317  21.481  1.00  0.00    -0.207 OA
BRANCH  76  79
ATOM     79  C   UNL A   1      33.130  24.241  23.694  1.00  0.00     0.090 A 
ATOM     80  C   UNL A   1      34.039  25.082  24.344  1.00  0.00     0.023 A 
ATOM     81  C   UNL A   1      33.231  22.827  23.861  1.00  0.00     0.003 A 
ATOM     82  C   UNL A   1      35.174  24.583  24.959  1.00  0.00     0.018 A 
ATOM     83  C   UNL A   1      34.379  22.315  24.550  1.00  0.00    -0.003 A 
ATOM     84  C   UNL A   1      32.265  21.876  23.444  1.00  0.00     0.010 A 
ATOM     85  C   UNL A   1      35.367  23.212  25.025  1.00  0.00     0.025 A 
ATOM     86  C   UNL A   1      34.480  20.922  24.780  1.00  0.00     0.010 A 
ATOM     87  C   UNL A   1      32.370  20.513  23.734  1.00  0.00     0.001 A 
ATOM     88  Br  UNL A   1      37.003  22.652  25.832  1.00  0.00    -0.050 Br
ATOM     89  C   UNL A   1      33.479  20.035  24.402  1.00  0.00     0.001 A 
ENDBRANCH  76  79
ENDBRANCH  73  76
ENDBRANCH  69  71
ENDBRANCH  68  69
ENDBRANCH  67  68
ENDBRANCH   1  67
TORSDOF 16
ENDMDL
