MODEL 1
REMARK VINA RESULT:     -11.1      0.000      0.000
REMARK SMILES Nc1cc(C(=O)OCCOC(=O)c2ccc(-c3c4nc(c(-c5ccc(S(=O)(=O)[O-])cc5)c5ccc([nH]5)c(-c5ccc(S(=O)(=O)[O-])cc5)c5nc(c(-c6ccc(S(=O)(=O)[O-])cc6)c6ccc3[nH]6)C=C5)C=C4)cc2)ccc1N1CC2(CCOCC2)C1
REMARK SMILES IDX 9 1 8 2 7 3 5 4 6 5 4 6 2 7 3 8 75 9 74 10 73 11 1 12 76 15
REMARK SMILES IDX 77 16 84 17 78 18 79 19 83 20 80 21 82 22 81 23 10 24 11 25
REMARK SMILES IDX 12 26 13 27 14 28 72 29 15 30 71 31 16 32 17 33 18 34 65 35
REMARK SMILES IDX 19 36 70 37 64 38 66 39 20 40 69 41 63 42 62 43 21 45 51 46
REMARK SMILES IDX 32 47 50 48 33 49 36 50 49 51 67 52 34 53 35 54 48 56 68 57
REMARK SMILES IDX 37 58 22 59 23 60 31 61 24 62 30 63 25 64 26 65 27 66 28 67
REMARK SMILES IDX 29 68 52 69 53 70 61 71 54 72 60 73 55 74 56 75 57 76 58 77
REMARK SMILES IDX 59 78 38 79 39 80 47 81 40 82 46 83 41 84 42 85 43 86 44 87
REMARK SMILES IDX 45 88
REMARK H PARENT 1 13 1 14 66 44 36 55
REMARK Flexibility Score: inf
ROOT
ATOM      1  C   UNL A   1      35.408  30.875  28.029  1.00  0.00     0.275 C 
ENDROOT
BRANCH   1   2
ATOM      2  C   UNL A   1      34.073  30.697  27.306  1.00  0.00     0.275 C 
BRANCH   2   3
ATOM      3  O   UNL A   1      33.861  29.309  26.973  1.00  0.00    -0.458 OA
BRANCH   3   4
ATOM      4  C   UNL A   1      32.567  28.903  27.011  1.00  0.00     0.338 C 
ATOM      5  O   UNL A   1      31.597  29.589  27.290  1.00  0.00    -0.246 OA
BRANCH   4   6
ATOM      6  C   UNL A   1      32.448  27.505  26.540  1.00  0.00     0.062 A 
ATOM      7  C   UNL A   1      30.953  25.613  26.112  1.00  0.00     0.056 A 
ATOM      8  C   UNL A   1      31.182  26.911  26.584  1.00  0.00     0.043 A 
ATOM      9  C   UNL A   1      32.065  24.832  25.735  1.00  0.00     0.060 A 
ATOM     10  C   UNL A   1      33.344  25.429  25.729  1.00  0.00     0.029 A 
ATOM     11  C   UNL A   1      33.537  26.765  26.096  1.00  0.00     0.018 A 
BRANCH   7  12
ATOM     12  N   UNL A   1      29.656  25.123  26.232  1.00  0.00    -0.397 N 
ATOM     13  H   UNL A   1      29.504  24.201  26.541  1.00  0.00     0.156 HD
ATOM     14  H   UNL A   1      28.889  25.701  26.008  1.00  0.00     0.156 HD
ENDBRANCH   7  12
BRANCH   9  15
ATOM     15  N   UNL A   1      32.009  23.457  25.412  1.00  0.00    -0.369 N 
ATOM     16  C   UNL A   1      32.556  22.305  26.049  1.00  0.00     0.125 C 
ATOM     17  C   UNL A   1      32.176  22.942  24.081  1.00  0.00     0.125 C 
ATOM     18  C   UNL A   1      33.034  21.803  24.665  1.00  0.00     0.010 C 
ATOM     19  C   UNL A   1      32.574  20.390  24.300  1.00  0.00     0.039 C 
ATOM     20  C   UNL A   1      34.529  21.952  24.344  1.00  0.00     0.039 C 
ATOM     21  C   UNL A   1      33.457  19.385  25.035  1.00  0.00     0.161 C 
ATOM     22  C   UNL A   1      35.305  20.866  25.078  1.00  0.00     0.161 C 
ATOM     23  O   UNL A   1      34.828  19.576  24.684  1.00  0.00    -0.381 OA
ENDBRANCH   9  15
ENDBRANCH   4   6
ENDBRANCH   3   4
ENDBRANCH   2   3
ENDBRANCH   1   2
BRANCH   1  24
ATOM     24  O   UNL A   1      36.100  29.615  28.081  1.00  0.00    -0.458 OA
BRANCH  24  25
ATOM     25  C   UNL A   1      36.795  29.368  29.217  1.00  0.00     0.338 C 
ATOM     26  O   UNL A   1      36.377  29.441  30.360  1.00  0.00    -0.246 OA
BRANCH  25  27
ATOM     27  C   UNL A   1      38.188  28.997  28.887  1.00  0.00     0.060 A 
ATOM     28  C   UNL A   1      38.995  28.358  29.826  1.00  0.00     0.016 A 
ATOM     29  C   UNL A   1      38.727  29.369  27.657  1.00  0.00     0.016 A 
ATOM     30  C   UNL A   1      40.359  28.181  29.582  1.00  0.00     0.010 A 
ATOM     31  C   UNL A   1      40.072  29.095  27.373  1.00  0.00     0.010 A 
ATOM     32  C   UNL A   1      40.920  28.537  28.346  1.00  0.00    -0.014 A 
BRANCH  32  33
ATOM     33  C   UNL A   1      42.383  28.372  28.079  1.00  0.00     0.031 A 
ATOM     34  C   UNL A   1      43.348  29.489  28.412  1.00  0.00     0.074 A 
ATOM     35  C   UNL A   1      42.871  27.235  27.537  1.00  0.00     0.049 A 
ATOM     36  N   UNL A   1      44.608  29.621  28.082  1.00  0.00    -0.248 NA
ATOM     37  C   UNL A   1      42.822  30.610  29.208  1.00  0.00     0.031 C 
ATOM     38  C   UNL A   1      42.084  26.049  27.190  1.00  0.00     0.029 A 
ATOM     39  N   UNL A   1      44.155  26.888  27.189  1.00  0.00    -0.354 N 
ATOM     40  C   UNL A   1      45.001  30.868  28.559  1.00  0.00     0.074 A 
ATOM     41  C   UNL A   1      43.849  31.449  29.212  1.00  0.00     0.031 C 
ATOM     42  C   UNL A   1      42.905  25.092  26.729  1.00  0.00     0.029 A 
ATOM     43  C   UNL A   1      44.262  25.623  26.658  1.00  0.00     0.049 A 
ATOM     44  H   UNL A   1      44.925  27.489  27.308  1.00  0.00     0.167 HD
ATOM     45  C   UNL A   1      46.207  31.478  28.459  1.00  0.00     0.031 A 
ATOM     46  C   UNL A   1      45.318  24.970  26.132  1.00  0.00     0.031 A 
ATOM     47  C   UNL A   1      47.376  30.879  27.870  1.00  0.00     0.049 A 
ATOM     48  C   UNL A   1      46.647  25.663  26.032  1.00  0.00     0.074 A 
ATOM     49  C   UNL A   1      48.647  31.417  27.743  1.00  0.00     0.029 A 
ATOM     50  N   UNL A   1      47.429  29.604  27.332  1.00  0.00    -0.354 N 
ATOM     51  N   UNL A   1      46.977  26.868  26.430  1.00  0.00    -0.248 NA
ATOM     52  C   UNL A   1      47.740  24.917  25.392  1.00  0.00     0.031 C 
ATOM     53  C   UNL A   1      49.460  30.476  27.103  1.00  0.00     0.029 A 
ATOM     54  C   UNL A   1      48.706  29.339  26.869  1.00  0.00     0.049 A 
ATOM     55  H   UNL A   1      46.670  28.979  27.287  1.00  0.00     0.167 HD
ATOM     56  C   UNL A   1      48.316  27.021  26.090  1.00  0.00     0.074 A 
ATOM     57  C   UNL A   1      48.742  25.781  25.479  1.00  0.00     0.031 C 
ATOM     58  C   UNL A   1      49.119  28.101  26.262  1.00  0.00     0.031 A 
BRANCH  45  59
ATOM     59  C   UNL A   1      46.322  32.890  28.967  1.00  0.00    -0.014 A 
ATOM     60  C   UNL A   1      46.027  33.994  28.149  1.00  0.00     0.010 A 
ATOM     61  C   UNL A   1      46.676  33.109  30.312  1.00  0.00     0.010 A 
ATOM     62  C   UNL A   1      46.118  35.293  28.657  1.00  0.00     0.020 A 
ATOM     63  C   UNL A   1      46.745  34.405  30.830  1.00  0.00     0.020 A 
ATOM     64  C   UNL A   1      46.481  35.491  29.993  1.00  0.00     0.054 A 
BRANCH  64  65
ATOM     65  S   UNL A   1      46.560  37.185  30.639  1.00  0.00     0.124 S 
ATOM     66  O   UNL A   1      47.159  36.976  31.955  1.00  0.00    -0.237 OA
ATOM     67  O   UNL A   1      47.409  37.864  29.665  1.00  0.00    -0.237 OA
ATOM     68  O   UNL A   1      45.164  37.616  30.652  1.00  0.00    -0.744 OA
ENDBRANCH  64  65
ENDBRANCH  45  59
BRANCH  46  69
ATOM     69  C   UNL A   1      45.148  23.587  25.605  1.00  0.00    -0.014 A 
ATOM     70  C   UNL A   1      44.787  23.374  24.264  1.00  0.00     0.010 A 
ATOM     71  C   UNL A   1      45.356  22.477  26.444  1.00  0.00     0.010 A 
ATOM     72  C   UNL A   1      44.630  22.074  23.772  1.00  0.00     0.020 A 
ATOM     73  C   UNL A   1      45.227  21.176  25.949  1.00  0.00     0.020 A 
ATOM     74  C   UNL A   1      44.853  20.983  24.618  1.00  0.00     0.054 A 
BRANCH  74  75
ATOM     75  S   UNL A   1      44.710  19.302  23.951  1.00  0.00     0.124 S 
ATOM     76  O   UNL A   1      44.520  19.557  22.527  1.00  0.00    -0.237 OA
ATOM     77  O   UNL A   1      45.989  18.699  24.321  1.00  0.00    -0.237 OA
ATOM     78  O   UNL A   1      43.549  18.757  24.653  1.00  0.00    -0.744 OA
ENDBRANCH  74  75
ENDBRANCH  46  69
BRANCH  58  79
ATOM     79  C   UNL A   1      50.546  27.977  25.806  1.00  0.00    -0.014 A 
ATOM     80  C   UNL A   1      50.908  28.266  24.479  1.00  0.00     0.010 A 
ATOM     81  C   UNL A   1      51.541  27.607  26.728  1.00  0.00     0.010 A 
ATOM     82  C   UNL A   1      52.241  28.158  24.073  1.00  0.00     0.020 A 
ATOM     83  C   UNL A   1      52.878  27.517  26.329  1.00  0.00     0.020 A 
ATOM     84  C   UNL A   1      53.217  27.779  25.000  1.00  0.00     0.054 A 
BRANCH  84  85
ATOM     85  S   UNL A   1      54.947  27.679  24.462  1.00  0.00     0.124 S 
ATOM     86  O   UNL A   1      54.883  26.651  23.427  1.00  0.00    -0.237 OA
ATOM     87  O   UNL A   1      55.217  29.033  23.985  1.00  0.00    -0.237 OA
ATOM     88  O   UNL A   1      55.664  27.298  25.676  1.00  0.00    -0.744 OA
ENDBRANCH  84  85
ENDBRANCH  58  79
ENDBRANCH  32  33
ENDBRANCH  25  27
ENDBRANCH  24  25
ENDBRANCH   1  24
TORSDOF 16
ENDMDL
MODEL 2
REMARK VINA RESULT:     -10.9      1.579      2.179
REMARK SMILES Nc1cc(C(=O)OCCOC(=O)c2ccc(-c3c4nc(c(-c5ccc(S(=O)(=O)[O-])cc5)c5ccc([nH]5)c(-c5ccc(S(=O)(=O)[O-])cc5)c5nc(c(-c6ccc(S(=O)(=O)[O-])cc6)c6ccc3[nH]6)C=C5)C=C4)cc2)ccc1N1CC2(CCOCC2)C1
REMARK SMILES IDX 9 1 8 2 7 3 5 4 6 5 4 6 2 7 3 8 75 9 74 10 73 11 1 12 76 15
REMARK SMILES IDX 77 16 84 17 78 18 79 19 83 20 80 21 82 22 81 23 10 24 11 25
REMARK SMILES IDX 12 26 13 27 14 28 72 29 15 30 71 31 16 32 17 33 18 34 65 35
REMARK SMILES IDX 19 36 70 37 64 38 66 39 20 40 69 41 63 42 62 43 21 45 51 46
REMARK SMILES IDX 32 47 50 48 33 49 36 50 49 51 67 52 34 53 35 54 48 56 68 57
REMARK SMILES IDX 37 58 22 59 23 60 31 61 24 62 30 63 25 64 26 65 27 66 28 67
REMARK SMILES IDX 29 68 52 69 53 70 61 71 54 72 60 73 55 74 56 75 57 76 58 77
REMARK SMILES IDX 59 78 38 79 39 80 47 81 40 82 46 83 41 84 42 85 43 86 44 87
REMARK SMILES IDX 45 88
REMARK H PARENT 1 13 1 14 66 44 36 55
REMARK Flexibility Score: inf
ROOT
ATOM      1  C   UNL A   1      34.324  31.555  28.404  1.00  0.00     0.275 C 
ENDROOT
BRANCH   1   2
ATOM      2  C   UNL A   1      33.475  31.243  27.172  1.00  0.00     0.275 C 
BRANCH   2   3
ATOM      3  O   UNL A   1      32.707  30.039  27.379  1.00  0.00    -0.458 OA
BRANCH   3   4
ATOM      4  C   UNL A   1      32.074  29.568  26.276  1.00  0.00     0.338 C 
ATOM      5  O   UNL A   1      31.395  30.215  25.494  1.00  0.00    -0.246 OA
BRANCH   4   6
ATOM      6  C   UNL A   1      32.411  28.144  26.054  1.00  0.00     0.062 A 
ATOM      7  C   UNL A   1      31.632  25.823  26.135  1.00  0.00     0.056 A 
ATOM      8  C   UNL A   1      31.433  27.191  26.358  1.00  0.00     0.043 A 
ATOM      9  C   UNL A   1      32.915  25.389  25.744  1.00  0.00     0.060 A 
ATOM     10  C   UNL A   1      33.907  26.357  25.474  1.00  0.00     0.029 A 
ATOM     11  C   UNL A   1      33.654  27.728  25.595  1.00  0.00     0.018 A 
BRANCH   7  12
ATOM     12  N   UNL A   1      30.594  24.972  26.501  1.00  0.00    -0.397 N 
ATOM     13  H   UNL A   1      30.476  24.112  26.037  1.00  0.00     0.156 HD
ATOM     14  H   UNL A   1      29.978  25.230  27.226  1.00  0.00     0.156 HD
ENDBRANCH   7  12
BRANCH   9  15
ATOM     15  N   UNL A   1      33.313  24.036  25.654  1.00  0.00    -0.369 N 
ATOM     16  C   UNL A   1      34.468  23.348  26.132  1.00  0.00     0.125 C 
ATOM     17  C   UNL A   1      33.195  23.245  24.460  1.00  0.00     0.125 C 
ATOM     18  C   UNL A   1      34.587  22.654  24.754  1.00  0.00     0.010 C 
ATOM     19  C   UNL A   1      34.646  21.125  24.807  1.00  0.00     0.039 C 
ATOM     20  C   UNL A   1      35.674  23.173  23.800  1.00  0.00     0.039 C 
ATOM     21  C   UNL A   1      36.058  20.705  25.208  1.00  0.00     0.161 C 
ATOM     22  C   UNL A   1      37.028  22.645  24.255  1.00  0.00     0.161 C 
ATOM     23  O   UNL A   1      37.012  21.215  24.275  1.00  0.00    -0.381 OA
ENDBRANCH   9  15
ENDBRANCH   4   6
ENDBRANCH   3   4
ENDBRANCH   2   3
ENDBRANCH   1   2
BRANCH   1  24
ATOM     24  O   UNL A   1      35.394  30.598  28.507  1.00  0.00    -0.458 OA
BRANCH  24  25
ATOM     25  C   UNL A   1      36.145  30.670  29.632  1.00  0.00     0.338 C 
ATOM     26  O   UNL A   1      35.753  30.924  30.758  1.00  0.00    -0.246 OA
BRANCH  25  27
ATOM     27  C   UNL A   1      37.563  30.401  29.310  1.00  0.00     0.060 A 
ATOM     28  C   UNL A   1      37.947  30.063  28.014  1.00  0.00     0.016 A 
ATOM     29  C   UNL A   1      38.512  30.397  30.330  1.00  0.00     0.016 A 
ATOM     30  C   UNL A   1      39.247  29.626  27.752  1.00  0.00     0.010 A 
ATOM     31  C   UNL A   1      39.842  30.059  30.045  1.00  0.00     0.010 A 
ATOM     32  C   UNL A   1      40.222  29.626  28.762  1.00  0.00    -0.014 A 
BRANCH  32  33
ATOM     33  C   UNL A   1      41.612  29.140  28.501  1.00  0.00     0.031 A 
ATOM     34  C   UNL A   1      42.783  30.093  28.600  1.00  0.00     0.074 A 
ATOM     35  C   UNL A   1      41.852  27.852  28.172  1.00  0.00     0.049 A 
ATOM     36  N   UNL A   1      44.026  29.920  28.226  1.00  0.00    -0.248 NA
ATOM     37  C   UNL A   1      42.517  31.418  29.183  1.00  0.00     0.031 C 
ATOM     38  C   UNL A   1      40.843  26.794  28.069  1.00  0.00     0.029 A 
ATOM     39  N   UNL A   1      43.029  27.208  27.870  1.00  0.00    -0.354 N 
ATOM     40  C   UNL A   1      44.667  31.134  28.453  1.00  0.00     0.074 A 
ATOM     41  C   UNL A   1      43.679  32.032  29.009  1.00  0.00     0.031 C 
ATOM     42  C   UNL A   1      41.447  25.631  27.779  1.00  0.00     0.029 A 
ATOM     43  C   UNL A   1      42.873  25.871  27.582  1.00  0.00     0.049 A 
ATOM     44  H   UNL A   1      43.902  27.663  27.859  1.00  0.00     0.167 HD
ATOM     45  C   UNL A   1      45.957  31.474  28.216  1.00  0.00     0.031 A 
ATOM     46  C   UNL A   1      43.760  24.945  27.167  1.00  0.00     0.031 A 
ATOM     47  C   UNL A   1      46.962  30.568  27.727  1.00  0.00     0.049 A 
ATOM     48  C   UNL A   1      45.186  25.343  26.913  1.00  0.00     0.074 A 
ATOM     49  C   UNL A   1      48.301  30.821  27.476  1.00  0.00     0.029 A 
ATOM     50  N   UNL A   1      46.750  29.230  27.436  1.00  0.00    -0.354 N 
ATOM     51  N   UNL A   1      45.753  26.514  27.071  1.00  0.00    -0.248 NA
ATOM     52  C   UNL A   1      46.086  24.299  26.402  1.00  0.00     0.031 C 
ATOM     53  C   UNL A   1      48.891  29.642  27.008  1.00  0.00     0.029 A 
ATOM     54  C   UNL A   1      47.929  28.647  27.005  1.00  0.00     0.049 A 
ATOM     55  H   UNL A   1      45.887  28.764  27.524  1.00  0.00     0.167 HD
ATOM     56  C   UNL A   1      47.077  26.345  26.682  1.00  0.00     0.074 A 
ATOM     57  C   UNL A   1      47.233  24.957  26.305  1.00  0.00     0.031 C 
ATOM     58  C   UNL A   1      48.073  27.264  26.632  1.00  0.00     0.031 A 
BRANCH  45  59
ATOM     59  C   UNL A   1      46.358  32.907  28.449  1.00  0.00    -0.014 A 
ATOM     60  C   UNL A   1      46.220  33.882  27.447  1.00  0.00     0.010 A 
ATOM     61  C   UNL A   1      46.826  33.291  29.720  1.00  0.00     0.010 A 
ATOM     62  C   UNL A   1      46.576  35.211  27.701  1.00  0.00     0.020 A 
ATOM     63  C   UNL A   1      47.161  34.622  29.985  1.00  0.00     0.020 A 
ATOM     64  C   UNL A   1      47.049  35.570  28.967  1.00  0.00     0.054 A 
BRANCH  64  65
ATOM     65  S   UNL A   1      47.474  37.306  29.283  1.00  0.00     0.124 S 
ATOM     66  O   UNL A   1      48.010  37.723  27.990  1.00  0.00    -0.237 OA
ATOM     67  O   UNL A   1      46.188  37.894  29.648  1.00  0.00    -0.237 OA
ATOM     68  O   UNL A   1      48.450  37.232  30.367  1.00  0.00    -0.744 OA
ENDBRANCH  64  65
ENDBRANCH  45  59
BRANCH  46  69
ATOM     69  C   UNL A   1      43.309  23.549  26.912  1.00  0.00    -0.014 A 
ATOM     70  C   UNL A   1      43.208  23.060  25.598  1.00  0.00     0.010 A 
ATOM     71  C   UNL A   1      42.989  22.698  27.986  1.00  0.00     0.010 A 
ATOM     72  C   UNL A   1      42.786  21.747  25.363  1.00  0.00     0.020 A 
ATOM     73  C   UNL A   1      42.594  21.378  27.756  1.00  0.00     0.020 A 
ATOM     74  C   UNL A   1      42.484  20.914  26.443  1.00  0.00     0.054 A 
BRANCH  74  75
ATOM     75  S   UNL A   1      42.001  19.194  26.127  1.00  0.00     0.124 S 
ATOM     76  O   UNL A   1      42.308  18.555  27.402  1.00  0.00    -0.237 OA
ATOM     77  O   UNL A   1      40.581  19.313  25.803  1.00  0.00    -0.237 OA
ATOM     78  O   UNL A   1      42.855  18.804  25.006  1.00  0.00    -0.744 OA
ENDBRANCH  74  75
ENDBRANCH  46  69
BRANCH  58  79
ATOM     79  C   UNL A   1      49.425  26.791  26.180  1.00  0.00    -0.014 A 
ATOM     80  C   UNL A   1      50.257  26.052  27.039  1.00  0.00     0.010 A 
ATOM     81  C   UNL A   1      49.851  27.053  24.865  1.00  0.00     0.010 A 
ATOM     82  C   UNL A   1      51.507  25.609  26.600  1.00  0.00     0.020 A 
ATOM     83  C   UNL A   1      51.092  26.595  24.418  1.00  0.00     0.020 A 
ATOM     84  C   UNL A   1      51.920  25.887  25.293  1.00  0.00     0.054 A 
BRANCH  84  85
ATOM     85  S   UNL A   1      53.531  25.272  24.731  1.00  0.00     0.124 S 
ATOM     86  O   UNL A   1      54.456  26.059  25.542  1.00  0.00    -0.237 OA
ATOM     87  O   UNL A   1      53.467  23.849  25.056  1.00  0.00    -0.237 OA
ATOM     88  O   UNL A   1      53.538  25.579  23.303  1.00  0.00    -0.744 OA
ENDBRANCH  84  85
ENDBRANCH  58  79
ENDBRANCH  32  33
ENDBRANCH  25  27
ENDBRANCH  24  25
ENDBRANCH   1  24
TORSDOF 16
ENDMDL
MODEL 3
REMARK VINA RESULT:     -10.8      1.365      8.236
REMARK SMILES Nc1cc(C(=O)OCCOC(=O)c2ccc(-c3c4nc(c(-c5ccc(S(=O)(=O)[O-])cc5)c5ccc([nH]5)c(-c5ccc(S(=O)(=O)[O-])cc5)c5nc(c(-c6ccc(S(=O)(=O)[O-])cc6)c6ccc3[nH]6)C=C5)C=C4)cc2)ccc1N1CC2(CCOCC2)C1
REMARK SMILES IDX 9 1 8 2 7 3 5 4 6 5 4 6 2 7 3 8 75 9 74 10 73 11 1 12 76 15
REMARK SMILES IDX 77 16 84 17 78 18 79 19 83 20 80 21 82 22 81 23 10 24 11 25
REMARK SMILES IDX 12 26 13 27 14 28 72 29 15 30 71 31 16 32 17 33 18 34 65 35
REMARK SMILES IDX 19 36 70 37 64 38 66 39 20 40 69 41 63 42 62 43 21 45 51 46
REMARK SMILES IDX 32 47 50 48 33 49 36 50 49 51 67 52 34 53 35 54 48 56 68 57
REMARK SMILES IDX 37 58 22 59 23 60 31 61 24 62 30 63 25 64 26 65 27 66 28 67
REMARK SMILES IDX 29 68 52 69 53 70 61 71 54 72 60 73 55 74 56 75 57 76 58 77
REMARK SMILES IDX 59 78 38 79 39 80 47 81 40 82 46 83 41 84 42 85 43 86 44 87
REMARK SMILES IDX 45 88
REMARK H PARENT 1 13 1 14 66 44 36 55
REMARK Flexibility Score: inf
ROOT
ATOM      1  C   UNL A   1      35.213  31.167  28.841  1.00  0.00     0.275 C 
ENDROOT
BRANCH   1   2
ATOM      2  C   UNL A   1      34.294  31.264  27.624  1.00  0.00     0.275 C 
BRANCH   2   3
ATOM      3  O   UNL A   1      34.099  29.963  27.033  1.00  0.00    -0.458 OA
BRANCH   3   4
ATOM      4  C   UNL A   1      32.803  29.585  26.895  1.00  0.00     0.338 C 
ATOM      5  O   UNL A   1      31.819  30.291  27.047  1.00  0.00    -0.246 OA
BRANCH   4   6
ATOM      6  C   UNL A   1      32.719  28.192  26.402  1.00  0.00     0.062 A 
ATOM      7  C   UNL A   1      31.328  26.190  26.161  1.00  0.00     0.056 A 
ATOM      8  C   UNL A   1      31.529  27.493  26.632  1.00  0.00     0.043 A 
ATOM      9  C   UNL A   1      32.420  25.513  25.581  1.00  0.00     0.060 A 
ATOM     10  C   UNL A   1      33.630  26.215  25.386  1.00  0.00     0.029 A 
ATOM     11  C   UNL A   1      33.775  27.555  25.762  1.00  0.00     0.018 A 
BRANCH   7  12
ATOM     12  N   UNL A   1      30.112  25.592  26.475  1.00  0.00    -0.397 N 
ATOM     13  H   UNL A   1      29.931  24.667  26.192  1.00  0.00     0.156 HD
ATOM     14  H   UNL A   1      29.431  26.095  26.980  1.00  0.00     0.156 HD
ENDBRANCH   7  12
BRANCH   9  15
ATOM     15  N   UNL A   1      32.421  24.146  25.224  1.00  0.00    -0.369 N 
ATOM     16  C   UNL A   1      32.851  22.978  25.922  1.00  0.00     0.125 C 
ATOM     17  C   UNL A   1      32.812  23.657  23.931  1.00  0.00     0.125 C 
ATOM     18  C   UNL A   1      33.557  22.503  24.630  1.00  0.00     0.010 C 
ATOM     19  C   UNL A   1      33.167  21.099  24.162  1.00  0.00     0.039 C 
ATOM     20  C   UNL A   1      35.086  22.653  24.572  1.00  0.00     0.039 C 
ATOM     21  C   UNL A   1      33.911  20.076  25.017  1.00  0.00     0.161 C 
ATOM     22  C   UNL A   1      35.724  21.549  25.405  1.00  0.00     0.161 C 
ATOM     23  O   UNL A   1      35.322  20.269  24.909  1.00  0.00    -0.381 OA
ENDBRANCH   9  15
ENDBRANCH   4   6
ENDBRANCH   3   4
ENDBRANCH   2   3
ENDBRANCH   1   2
BRANCH   1  24
ATOM     24  O   UNL A   1      35.766  29.841  28.923  1.00  0.00    -0.458 OA
BRANCH  24  25
ATOM     25  C   UNL A   1      36.581  29.605  29.979  1.00  0.00     0.338 C 
ATOM     26  O   UNL A   1      36.248  29.468  31.144  1.00  0.00    -0.246 OA
BRANCH  25  27
ATOM     27  C   UNL A   1      37.988  29.543  29.526  1.00  0.00     0.060 A 
ATOM     28  C   UNL A   1      38.304  29.623  28.172  1.00  0.00     0.016 A 
ATOM     29  C   UNL A   1      39.000  29.310  30.455  1.00  0.00     0.016 A 
ATOM     30  C   UNL A   1      39.606  29.373  27.733  1.00  0.00     0.010 A 
ATOM     31  C   UNL A   1      40.325  29.164  30.022  1.00  0.00     0.010 A 
ATOM     32  C   UNL A   1      40.643  29.150  28.652  1.00  0.00    -0.014 A 
BRANCH  32  33
ATOM     33  C   UNL A   1      42.038  28.860  28.196  1.00  0.00     0.031 A 
ATOM     34  C   UNL A   1      42.420  27.464  27.755  1.00  0.00     0.074 A 
ATOM     35  C   UNL A   1      42.980  29.828  28.169  1.00  0.00     0.049 A 
ATOM     36  N   UNL A   1      43.608  26.967  27.516  1.00  0.00    -0.248 NA
ATOM     37  C   UNL A   1      41.325  26.498  27.576  1.00  0.00     0.031 C 
ATOM     38  C   UNL A   1      42.770  31.234  28.525  1.00  0.00     0.029 A 
ATOM     39  N   UNL A   1      44.308  29.777  27.817  1.00  0.00    -0.354 N 
ATOM     40  C   UNL A   1      43.410  25.618  27.237  1.00  0.00     0.074 A 
ATOM     41  C   UNL A   1      41.987  25.376  27.325  1.00  0.00     0.031 C 
ATOM     42  C   UNL A   1      43.909  31.916  28.325  1.00  0.00     0.029 A 
ATOM     43  C   UNL A   1      44.956  30.987  27.917  1.00  0.00     0.049 A 
ATOM     44  H   UNL A   1      44.754  28.950  27.520  1.00  0.00     0.167 HD
ATOM     45  C   UNL A   1      44.327  24.665  26.940  1.00  0.00     0.031 A 
ATOM     46  C   UNL A   1      46.252  31.314  27.745  1.00  0.00     0.031 A 
ATOM     47  C   UNL A   1      45.737  24.911  26.785  1.00  0.00     0.049 A 
ATOM     48  C   UNL A   1      47.252  30.243  27.413  1.00  0.00     0.074 A 
ATOM     49  C   UNL A   1      46.737  24.008  26.465  1.00  0.00     0.029 A 
ATOM     50  N   UNL A   1      46.344  26.150  26.913  1.00  0.00    -0.354 N 
ATOM     51  N   UNL A   1      47.051  28.962  27.220  1.00  0.00    -0.248 NA
ATOM     52  C   UNL A   1      48.658  30.658  27.300  1.00  0.00     0.031 C 
ATOM     53  C   UNL A   1      47.955  24.697  26.427  1.00  0.00     0.029 A 
ATOM     54  C   UNL A   1      47.705  26.034  26.683  1.00  0.00     0.049 A 
ATOM     55  H   UNL A   1      45.877  26.988  27.134  1.00  0.00     0.167 HD
ATOM     56  C   UNL A   1      48.304  28.421  26.959  1.00  0.00     0.074 A 
ATOM     57  C   UNL A   1      49.252  29.513  26.994  1.00  0.00     0.031 C 
ATOM     58  C   UNL A   1      48.639  27.129  26.721  1.00  0.00     0.031 A 
BRANCH  45  59
ATOM     59  C   UNL A   1      43.842  23.247  26.797  1.00  0.00    -0.014 A 
ATOM     60  C   UNL A   1      43.206  22.576  27.855  1.00  0.00     0.010 A 
ATOM     61  C   UNL A   1      43.976  22.597  25.555  1.00  0.00     0.010 A 
ATOM     62  C   UNL A   1      42.743  21.267  27.684  1.00  0.00     0.020 A 
ATOM     63  C   UNL A   1      43.493  21.299  25.373  1.00  0.00     0.020 A 
ATOM     64  C   UNL A   1      42.894  20.636  26.445  1.00  0.00     0.054 A 
BRANCH  64  65
ATOM     65  S   UNL A   1      42.256  18.950  26.238  1.00  0.00     0.124 S 
ATOM     66  O   UNL A   1      40.894  19.201  25.774  1.00  0.00    -0.237 OA
ATOM     67  O   UNL A   1      43.162  18.381  25.245  1.00  0.00    -0.237 OA
ATOM     68  O   UNL A   1      42.362  18.372  27.576  1.00  0.00    -0.744 OA
ENDBRANCH  64  65
ENDBRANCH  45  59
BRANCH  46  69
ATOM     69  C   UNL A   1      46.693  32.724  27.935  1.00  0.00    -0.014 A 
ATOM     70  C   UNL A   1      46.791  33.596  26.837  1.00  0.00     0.010 A 
ATOM     71  C   UNL A   1      47.006  33.203  29.220  1.00  0.00     0.010 A 
ATOM     72  C   UNL A   1      47.203  34.920  27.020  1.00  0.00     0.020 A 
ATOM     73  C   UNL A   1      47.391  34.533  29.410  1.00  0.00     0.020 A 
ATOM     74  C   UNL A   1      47.499  35.380  28.306  1.00  0.00     0.054 A 
BRANCH  74  75
ATOM     75  S   UNL A   1      47.969  37.117  28.538  1.00  0.00     0.124 S 
ATOM     76  O   UNL A   1      47.041  37.803  27.645  1.00  0.00    -0.237 OA
ATOM     77  O   UNL A   1      47.741  37.323  29.967  1.00  0.00    -0.237 OA
ATOM     78  O   UNL A   1      49.372  37.145  28.130  1.00  0.00    -0.744 OA
ENDBRANCH  74  75
ENDBRANCH  46  69
BRANCH  58  79
ATOM     79  C   UNL A   1      50.088  26.831  26.453  1.00  0.00    -0.014 A 
ATOM     80  C   UNL A   1      50.603  26.869  25.146  1.00  0.00     0.010 A 
ATOM     81  C   UNL A   1      50.951  26.550  27.527  1.00  0.00     0.010 A 
ATOM     82  C   UNL A   1      51.955  26.601  24.914  1.00  0.00     0.020 A 
ATOM     83  C   UNL A   1      52.307  26.301  27.300  1.00  0.00     0.020 A 
ATOM     84  C   UNL A   1      52.798  26.314  25.993  1.00  0.00     0.054 A 
BRANCH  84  85
ATOM     85  S   UNL A   1      54.557  26.004  25.674  1.00  0.00     0.124 S 
ATOM     86  O   UNL A   1      54.589  25.912  24.217  1.00  0.00    -0.237 OA
ATOM     87  O   UNL A   1      55.203  27.185  26.243  1.00  0.00    -0.237 OA
ATOM     88  O   UNL A   1      54.821  24.755  26.384  1.00  0.00    -0.744 OA
ENDBRANCH  84  85
ENDBRANCH  58  79
ENDBRANCH  32  33
ENDBRANCH  25  27
ENDBRANCH  24  25
ENDBRANCH   1  24
TORSDOF 16
ENDMDL
