MODEL 1
REMARK VINA RESULT:      -9.9      0.000      0.000
REMARK SMILES COc1cc(Br)c(OC)c(C(=O)NCCC(=O)OCCOC(=O)c2ccc(-c3c4nc(c(-c5ccc(S(=O)(=O)[O-])cc5)c5ccc([nH]5)c(-c5ccc(S(=O)(=O)[O-])cc5)c5nc(c(-c6ccc(S(=O)(=O)[O-])cc6)c6ccc3[nH]6)C=C5)C=C4)cc2)c1
REMARK SMILES IDX 19 1 18 2 16 3 17 4 15 5 14 6 13 7 11 8 12 9 10 11 3 12 4 13
REMARK SMILES IDX 84 14 5 15 6 16 7 17 2 18 1 19 8 20 9 21 20 22 21 23 22 24
REMARK SMILES IDX 23 25 24 26 25 27 83 28 26 29 82 30 27 31 28 32 29 33 76 34
REMARK SMILES IDX 30 35 81 36 75 37 77 38 31 39 80 40 74 41 73 42 32 44 62 45
REMARK SMILES IDX 43 46 61 47 44 48 47 49 60 50 78 51 45 52 46 53 59 55 79 56
REMARK SMILES IDX 48 57 33 58 34 59 42 60 35 61 41 62 36 63 37 64 38 65 39 66
REMARK SMILES IDX 40 67 63 68 64 69 72 70 65 71 71 72 66 73 67 74 68 75 69 76
REMARK SMILES IDX 70 77 49 78 50 79 58 80 51 81 57 82 52 83 53 84 54 85 55 86
REMARK SMILES IDX 56 87
REMARK H PARENT 13 10 77 43 47 54
REMARK Flexibility Score: inf
ROOT
ATOM      1  C   UNL A   1      34.412  32.958  28.983  1.00  0.00     0.274 C 
ENDROOT
BRANCH   1   2
ATOM      2  O   UNL A   1      34.897  32.042  27.981  1.00  0.00    -0.462 OA
BRANCH   2   3
ATOM      3  C   UNL A   1      33.976  31.178  27.479  1.00  0.00     0.307 C 
ATOM      4  O   UNL A   1      32.795  31.441  27.292  1.00  0.00    -0.252 OA
BRANCH   3   5
ATOM      5  C   UNL A   1      34.550  29.804  27.247  1.00  0.00     0.144 C 
BRANCH   5   6
ATOM      6  C   UNL A   1      33.749  28.962  26.269  1.00  0.00     0.128 C 
BRANCH   6   7
ATOM      7  N   UNL A   1      32.700  28.173  26.902  1.00  0.00    -0.351 N 
ATOM      8  C   UNL A   1      31.678  27.406  26.392  1.00  0.00     0.255 C 
ATOM      9  O   UNL A   1      30.916  26.844  27.178  1.00  0.00    -0.269 OA
ATOM     10  H   UNL A   1      32.730  28.192  27.887  1.00  0.00     0.163 HD
BRANCH   8  11
ATOM     11  C   UNL A   1      31.484  27.221  24.928  1.00  0.00     0.086 A 
ATOM     12  C   UNL A   1      30.428  27.899  22.859  1.00  0.00     0.121 A 
ATOM     13  C   UNL A   1      31.104  26.902  22.164  1.00  0.00     0.066 A 
ATOM     14  C   UNL A   1      30.681  28.117  24.210  1.00  0.00     0.064 A 
ATOM     15  C   UNL A   1      31.966  26.048  22.851  1.00  0.00     0.064 A 
ATOM     16  Br  UNL A   1      32.794  24.670  21.836  1.00  0.00    -0.047 Br
ATOM     17  C   UNL A   1      32.156  26.193  24.236  1.00  0.00     0.146 A 
BRANCH  12  18
ATOM     18  O   UNL A   1      29.495  28.698  22.257  1.00  0.00    -0.497 OA
ATOM     19  C   UNL A   1      30.089  29.905  21.760  1.00  0.00     0.278 C 
ENDBRANCH  12  18
BRANCH  17  20
ATOM     20  O   UNL A   1      32.888  25.266  24.937  1.00  0.00    -0.495 OA
ATOM     21  C   UNL A   1      34.292  25.534  24.883  1.00  0.00     0.278 C 
ENDBRANCH  17  20
ENDBRANCH   8  11
ENDBRANCH   6   7
ENDBRANCH   5   6
ENDBRANCH   3   5
ENDBRANCH   2   3
ENDBRANCH   1   2
BRANCH   1  22
ATOM     22  C   UNL A   1      34.955  32.648  30.380  1.00  0.00     0.275 C 
BRANCH  22  23
ATOM     23  O   UNL A   1      36.344  32.273  30.354  1.00  0.00    -0.458 OA
BRANCH  23  24
ATOM     24  C   UNL A   1      36.625  31.101  30.964  1.00  0.00     0.338 C 
ATOM     25  O   UNL A   1      35.956  30.543  31.824  1.00  0.00    -0.246 OA
BRANCH  24  26
ATOM     26  C   UNL A   1      37.822  30.482  30.373  1.00  0.00     0.060 A 
ATOM     27  C   UNL A   1      38.787  29.966  31.242  1.00  0.00     0.016 A 
ATOM     28  C   UNL A   1      38.052  30.509  28.995  1.00  0.00     0.016 A 
ATOM     29  C   UNL A   1      40.002  29.508  30.742  1.00  0.00     0.010 A 
ATOM     30  C   UNL A   1      39.271  30.035  28.493  1.00  0.00     0.010 A 
ATOM     31  C   UNL A   1      40.263  29.556  29.365  1.00  0.00    -0.014 A 
BRANCH  31  32
ATOM     32  C   UNL A   1      41.602  29.155  28.864  1.00  0.00     0.031 A 
ATOM     33  C   UNL A   1      42.739  30.139  28.883  1.00  0.00     0.074 A 
ATOM     34  C   UNL A   1      41.812  27.896  28.439  1.00  0.00     0.049 A 
ATOM     35  N   UNL A   1      43.985  29.968  28.518  1.00  0.00    -0.248 NA
ATOM     36  C   UNL A   1      42.437  31.489  29.381  1.00  0.00     0.031 C 
ATOM     37  C   UNL A   1      40.804  26.836  28.410  1.00  0.00     0.029 A 
ATOM     38  N   UNL A   1      42.949  27.291  27.966  1.00  0.00    -0.354 N 
ATOM     39  C   UNL A   1      44.613  31.190  28.727  1.00  0.00     0.074 A 
ATOM     40  C   UNL A   1      43.604  32.100  29.230  1.00  0.00     0.031 C 
ATOM     41  C   UNL A   1      41.376  25.702  27.972  1.00  0.00     0.029 A 
ATOM     42  C   UNL A   1      42.777  25.965  27.652  1.00  0.00     0.049 A 
ATOM     43  H   UNL A   1      43.807  27.764  27.862  1.00  0.00     0.167 HD
ATOM     44  C   UNL A   1      45.910  31.527  28.524  1.00  0.00     0.031 A 
ATOM     45  C   UNL A   1      43.648  25.062  27.160  1.00  0.00     0.031 A 
ATOM     46  C   UNL A   1      46.914  30.628  28.018  1.00  0.00     0.049 A 
ATOM     47  C   UNL A   1      45.066  25.475  26.882  1.00  0.00     0.074 A 
ATOM     48  C   UNL A   1      48.258  30.875  27.792  1.00  0.00     0.029 A 
ATOM     49  N   UNL A   1      46.683  29.311  27.651  1.00  0.00    -0.354 N 
ATOM     50  N   UNL A   1      45.643  26.633  27.095  1.00  0.00    -0.248 NA
ATOM     51  C   UNL A   1      45.949  24.456  26.296  1.00  0.00     0.031 C 
ATOM     52  C   UNL A   1      48.830  29.718  27.249  1.00  0.00     0.029 A 
ATOM     53  C   UNL A   1      47.853  28.738  27.179  1.00  0.00     0.049 A 
ATOM     54  H   UNL A   1      45.816  28.851  27.717  1.00  0.00     0.167 HD
ATOM     55  C   UNL A   1      46.965  26.475  26.692  1.00  0.00     0.074 A 
ATOM     56  C   UNL A   1      47.101  25.109  26.228  1.00  0.00     0.031 C 
ATOM     57  C   UNL A   1      47.975  27.380  26.712  1.00  0.00     0.031 A 
BRANCH  44  58
ATOM     58  C   UNL A   1      46.298  32.951  28.815  1.00  0.00    -0.014 A 
ATOM     59  C   UNL A   1      46.748  33.339  30.090  1.00  0.00     0.010 A 
ATOM     60  C   UNL A   1      46.198  33.920  27.799  1.00  0.00     0.010 A 
ATOM     61  C   UNL A   1      47.033  34.680  30.361  1.00  0.00     0.020 A 
ATOM     62  C   UNL A   1      46.505  35.258  28.060  1.00  0.00     0.020 A 
ATOM     63  C   UNL A   1      46.894  35.634  29.348  1.00  0.00     0.054 A 
BRANCH  63  64
ATOM     64  S   UNL A   1      47.237  37.375  29.727  1.00  0.00     0.124 S 
ATOM     65  O   UNL A   1      47.905  37.272  31.022  1.00  0.00    -0.237 OA
ATOM     66  O   UNL A   1      48.086  37.789  28.613  1.00  0.00    -0.237 OA
ATOM     67  O   UNL A   1      45.912  37.989  29.755  1.00  0.00    -0.744 OA
ENDBRANCH  63  64
ENDBRANCH  44  58
BRANCH  45  68
ATOM     68  C   UNL A   1      43.197  23.667  26.915  1.00  0.00    -0.014 A 
ATOM     69  C   UNL A   1      43.060  23.189  25.600  1.00  0.00     0.010 A 
ATOM     70  C   UNL A   1      42.940  22.800  27.992  1.00  0.00     0.010 A 
ATOM     71  C   UNL A   1      42.674  21.866  25.366  1.00  0.00     0.020 A 
ATOM     72  C   UNL A   1      42.575  21.471  27.762  1.00  0.00     0.020 A 
ATOM     73  C   UNL A   1      42.440  21.014  26.450  1.00  0.00     0.054 A 
BRANCH  73  74
ATOM     74  S   UNL A   1      42.023  19.278  26.124  1.00  0.00     0.124 S 
ATOM     75  O   UNL A   1      40.578  19.343  25.936  1.00  0.00    -0.237 OA
ATOM     76  O   UNL A   1      42.806  18.984  24.926  1.00  0.00    -0.237 OA
ATOM     77  O   UNL A   1      42.470  18.588  27.332  1.00  0.00    -0.744 OA
ENDBRANCH  73  74
ENDBRANCH  45  68
BRANCH  57  78
ATOM     78  C   UNL A   1      49.327  26.914  26.245  1.00  0.00    -0.014 A 
ATOM     79  C   UNL A   1      50.200  26.229  27.110  1.00  0.00     0.010 A 
ATOM     80  C   UNL A   1      49.712  27.128  24.909  1.00  0.00     0.010 A 
ATOM     81  C   UNL A   1      51.446  25.792  26.652  1.00  0.00     0.020 A 
ATOM     82  C   UNL A   1      50.948  26.674  24.443  1.00  0.00     0.020 A 
ATOM     83  C   UNL A   1      51.814  26.021  25.323  1.00  0.00     0.054 A 
BRANCH  83  84
ATOM     84  S   UNL A   1      53.420  25.410  24.738  1.00  0.00     0.124 S 
ATOM     85  O   UNL A   1      53.312  25.606  23.296  1.00  0.00    -0.237 OA
ATOM     86  O   UNL A   1      54.369  26.285  25.423  1.00  0.00    -0.237 OA
ATOM     87  O   UNL A   1      53.440  24.016  25.178  1.00  0.00    -0.744 OA
ENDBRANCH  83  84
ENDBRANCH  57  78
ENDBRANCH  31  32
ENDBRANCH  24  26
ENDBRANCH  23  24
ENDBRANCH  22  23
ENDBRANCH   1  22
TORSDOF 19
ENDMDL
MODEL 2
REMARK VINA RESULT:      -9.7      1.061      8.347
REMARK SMILES COc1cc(Br)c(OC)c(C(=O)NCCC(=O)OCCOC(=O)c2ccc(-c3c4nc(c(-c5ccc(S(=O)(=O)[O-])cc5)c5ccc([nH]5)c(-c5ccc(S(=O)(=O)[O-])cc5)c5nc(c(-c6ccc(S(=O)(=O)[O-])cc6)c6ccc3[nH]6)C=C5)C=C4)cc2)c1
REMARK SMILES IDX 19 1 18 2 16 3 17 4 15 5 14 6 13 7 11 8 12 9 10 11 3 12 4 13
REMARK SMILES IDX 84 14 5 15 6 16 7 17 2 18 1 19 8 20 9 21 20 22 21 23 22 24
REMARK SMILES IDX 23 25 24 26 25 27 83 28 26 29 82 30 27 31 28 32 29 33 76 34
REMARK SMILES IDX 30 35 81 36 75 37 77 38 31 39 80 40 74 41 73 42 32 44 62 45
REMARK SMILES IDX 43 46 61 47 44 48 47 49 60 50 78 51 45 52 46 53 59 55 79 56
REMARK SMILES IDX 48 57 33 58 34 59 42 60 35 61 41 62 36 63 37 64 38 65 39 66
REMARK SMILES IDX 40 67 63 68 64 69 72 70 65 71 71 72 66 73 67 74 68 75 69 76
REMARK SMILES IDX 70 77 49 78 50 79 58 80 51 81 57 82 52 83 53 84 54 85 55 86
REMARK SMILES IDX 56 87
REMARK H PARENT 13 10 77 43 47 54
REMARK Flexibility Score: inf
ROOT
ATOM      1  C   UNL A   1      34.261  32.584  28.663  1.00  0.00     0.274 C 
ENDROOT
BRANCH   1   2
ATOM      2  O   UNL A   1      34.678  31.676  27.623  1.00  0.00    -0.462 OA
BRANCH   2   3
ATOM      3  C   UNL A   1      33.768  30.732  27.267  1.00  0.00     0.307 C 
ATOM      4  O   UNL A   1      32.606  30.960  26.955  1.00  0.00    -0.252 OA
BRANCH   3   5
ATOM      5  C   UNL A   1      34.322  29.335  27.377  1.00  0.00     0.144 C 
BRANCH   5   6
ATOM      6  C   UNL A   1      33.856  28.402  26.273  1.00  0.00     0.128 C 
BRANCH   6   7
ATOM      7  N   UNL A   1      34.204  28.864  24.935  1.00  0.00    -0.351 N 
ATOM      8  C   UNL A   1      33.561  28.767  23.723  1.00  0.00     0.255 C 
ATOM      9  O   UNL A   1      34.103  29.250  22.730  1.00  0.00    -0.269 OA
ATOM     10  H   UNL A   1      35.067  29.337  24.891  1.00  0.00     0.163 HD
BRANCH   8  11
ATOM     11  C   UNL A   1      32.229  28.118  23.585  1.00  0.00     0.086 A 
ATOM     12  C   UNL A   1      29.832  28.308  23.312  1.00  0.00     0.121 A 
ATOM     13  C   UNL A   1      29.702  26.923  23.316  1.00  0.00     0.066 A 
ATOM     14  C   UNL A   1      31.090  28.902  23.356  1.00  0.00     0.064 A 
ATOM     15  C   UNL A   1      30.836  26.126  23.467  1.00  0.00     0.064 A 
ATOM     16  Br  UNL A   1      30.558  24.246  23.532  1.00  0.00    -0.047 Br
ATOM     17  C   UNL A   1      32.104  26.714  23.612  1.00  0.00     0.146 A 
BRANCH  12  18
ATOM     18  O   UNL A   1      28.746  29.139  23.268  1.00  0.00    -0.497 OA
ATOM     19  C   UNL A   1      27.521  28.393  23.285  1.00  0.00     0.278 C 
ENDBRANCH  12  18
BRANCH  17  20
ATOM     20  O   UNL A   1      33.199  25.939  23.907  1.00  0.00    -0.495 OA
ATOM     21  C   UNL A   1      33.761  25.334  22.741  1.00  0.00     0.278 C 
ENDBRANCH  17  20
ENDBRANCH   8  11
ENDBRANCH   6   7
ENDBRANCH   5   6
ENDBRANCH   3   5
ENDBRANCH   2   3
ENDBRANCH   1   2
BRANCH   1  22
ATOM     22  C   UNL A   1      35.106  32.456  29.933  1.00  0.00     0.275 C 
BRANCH  22  23
ATOM     23  O   UNL A   1      36.416  31.923  29.666  1.00  0.00    -0.458 OA
BRANCH  23  24
ATOM     24  C   UNL A   1      36.747  30.839  30.400  1.00  0.00     0.338 C 
ATOM     25  O   UNL A   1      36.078  30.322  31.286  1.00  0.00    -0.246 OA
BRANCH  24  26
ATOM     26  C   UNL A   1      38.008  30.253  29.922  1.00  0.00     0.060 A 
ATOM     27  C   UNL A   1      38.980  29.930  30.873  1.00  0.00     0.016 A 
ATOM     28  C   UNL A   1      38.282  30.127  28.557  1.00  0.00     0.016 A 
ATOM     29  C   UNL A   1      40.244  29.515  30.464  1.00  0.00     0.010 A 
ATOM     30  C   UNL A   1      39.551  29.696  28.149  1.00  0.00     0.010 A 
ATOM     31  C   UNL A   1      40.548  29.413  29.099  1.00  0.00    -0.014 A 
BRANCH  31  32
ATOM     32  C   UNL A   1      41.930  29.064  28.685  1.00  0.00     0.031 A 
ATOM     33  C   UNL A   1      42.247  27.672  28.215  1.00  0.00     0.074 A 
ATOM     34  C   UNL A   1      42.890  30.007  28.682  1.00  0.00     0.049 A 
ATOM     35  N   UNL A   1      43.384  27.184  27.784  1.00  0.00    -0.248 NA
ATOM     36  C   UNL A   1      41.142  26.702  28.227  1.00  0.00     0.031 C 
ATOM     37  C   UNL A   1      42.702  31.405  29.075  1.00  0.00     0.029 A 
ATOM     38  N   UNL A   1      44.212  29.935  28.321  1.00  0.00    -0.354 N 
ATOM     39  C   UNL A   1      43.136  25.849  27.488  1.00  0.00     0.074 A 
ATOM     40  C   UNL A   1      41.746  25.599  27.810  1.00  0.00     0.031 C 
ATOM     41  C   UNL A   1      43.859  32.065  28.903  1.00  0.00     0.029 A 
ATOM     42  C   UNL A   1      44.877  31.131  28.429  1.00  0.00     0.049 A 
ATOM     43  H   UNL A   1      44.641  29.104  28.013  1.00  0.00     0.167 HD
ATOM     44  C   UNL A   1      43.983  24.916  26.990  1.00  0.00     0.031 A 
ATOM     45  C   UNL A   1      46.164  31.443  28.177  1.00  0.00     0.031 A 
ATOM     46  C   UNL A   1      45.367  25.158  26.675  1.00  0.00     0.049 A 
ATOM     47  C   UNL A   1      47.103  30.376  27.686  1.00  0.00     0.074 A 
ATOM     48  C   UNL A   1      46.300  24.278  26.154  1.00  0.00     0.029 A 
ATOM     49  N   UNL A   1      46.018  26.368  26.861  1.00  0.00    -0.354 N 
ATOM     50  N   UNL A   1      46.847  29.122  27.402  1.00  0.00    -0.248 NA
ATOM     51  C   UNL A   1      48.504  30.771  27.481  1.00  0.00     0.031 C 
ATOM     52  C   UNL A   1      47.527  24.946  26.063  1.00  0.00     0.029 A 
ATOM     53  C   UNL A   1      47.348  26.253  26.486  1.00  0.00     0.049 A 
ATOM     54  H   UNL A   1      45.599  27.188  27.208  1.00  0.00     0.167 HD
ATOM     55  C   UNL A   1      48.051  28.582  26.962  1.00  0.00     0.074 A 
ATOM     56  C   UNL A   1      49.031  29.648  27.012  1.00  0.00     0.031 C 
ATOM     57  C   UNL A   1      48.316  27.318  26.548  1.00  0.00     0.031 A 
BRANCH  44  58
ATOM     58  C   UNL A   1      43.433  23.528  26.798  1.00  0.00    -0.014 A 
ATOM     59  C   UNL A   1      43.039  22.741  27.895  1.00  0.00     0.010 A 
ATOM     60  C   UNL A   1      43.322  22.998  25.499  1.00  0.00     0.010 A 
ATOM     61  C   UNL A   1      42.600  21.428  27.702  1.00  0.00     0.020 A 
ATOM     62  C   UNL A   1      42.862  21.694  25.300  1.00  0.00     0.020 A 
ATOM     63  C   UNL A   1      42.530  20.907  26.406  1.00  0.00     0.054 A 
BRANCH  63  64
ATOM     64  S   UNL A   1      41.989  19.191  26.177  1.00  0.00     0.124 S 
ATOM     65  O   UNL A   1      42.351  18.591  27.459  1.00  0.00    -0.237 OA
ATOM     66  O   UNL A   1      40.557  19.331  25.931  1.00  0.00    -0.237 OA
ATOM     67  O   UNL A   1      42.771  18.733  25.031  1.00  0.00    -0.744 OA
ENDBRANCH  63  64
ENDBRANCH  44  58
BRANCH  45  68
ATOM     68  C   UNL A   1      46.632  32.840  28.372  1.00  0.00    -0.014 A 
ATOM     69  C   UNL A   1      47.144  33.247  29.616  1.00  0.00     0.010 A 
ATOM     70  C   UNL A   1      46.603  33.758  27.307  1.00  0.00     0.010 A 
ATOM     71  C   UNL A   1      47.621  34.549  29.792  1.00  0.00     0.020 A 
ATOM     72  C   UNL A   1      47.100  35.054  27.473  1.00  0.00     0.020 A 
ATOM     73  C   UNL A   1      47.602  35.442  28.716  1.00  0.00     0.054 A 
BRANCH  73  74
ATOM     74  S   UNL A   1      48.304  37.100  28.943  1.00  0.00     0.124 S 
ATOM     75  O   UNL A   1      49.348  36.856  29.932  1.00  0.00    -0.237 OA
ATOM     76  O   UNL A   1      48.770  37.433  27.599  1.00  0.00    -0.237 OA
ATOM     77  O   UNL A   1      47.166  37.890  29.410  1.00  0.00    -0.744 OA
ENDBRANCH  73  74
ENDBRANCH  45  68
BRANCH  57  78
ATOM     78  C   UNL A   1      49.718  27.024  26.087  1.00  0.00    -0.014 A 
ATOM     79  C   UNL A   1      50.650  26.407  26.940  1.00  0.00     0.010 A 
ATOM     80  C   UNL A   1      50.093  27.331  24.766  1.00  0.00     0.010 A 
ATOM     81  C   UNL A   1      51.943  26.128  26.488  1.00  0.00     0.020 A 
ATOM     82  C   UNL A   1      51.378  27.035  24.305  1.00  0.00     0.020 A 
ATOM     83  C   UNL A   1      52.300  26.448  25.175  1.00  0.00     0.054 A 
BRANCH  83  84
ATOM     84  S   UNL A   1      53.972  26.042  24.596  1.00  0.00     0.124 S 
ATOM     85  O   UNL A   1      54.799  26.919  25.418  1.00  0.00    -0.237 OA
ATOM     86  O   UNL A   1      54.080  24.616  24.892  1.00  0.00    -0.237 OA
ATOM     87  O   UNL A   1      53.934  26.374  23.173  1.00  0.00    -0.744 OA
ENDBRANCH  83  84
ENDBRANCH  57  78
ENDBRANCH  31  32
ENDBRANCH  24  26
ENDBRANCH  23  24
ENDBRANCH  22  23
ENDBRANCH   1  22
TORSDOF 19
ENDMDL
MODEL 3
REMARK VINA RESULT:      -9.6      1.994      3.143
REMARK SMILES COc1cc(Br)c(OC)c(C(=O)NCCC(=O)OCCOC(=O)c2ccc(-c3c4nc(c(-c5ccc(S(=O)(=O)[O-])cc5)c5ccc([nH]5)c(-c5ccc(S(=O)(=O)[O-])cc5)c5nc(c(-c6ccc(S(=O)(=O)[O-])cc6)c6ccc3[nH]6)C=C5)C=C4)cc2)c1
REMARK SMILES IDX 19 1 18 2 16 3 17 4 15 5 14 6 13 7 11 8 12 9 10 11 3 12 4 13
REMARK SMILES IDX 84 14 5 15 6 16 7 17 2 18 1 19 8 20 9 21 20 22 21 23 22 24
REMARK SMILES IDX 23 25 24 26 25 27 83 28 26 29 82 30 27 31 28 32 29 33 76 34
REMARK SMILES IDX 30 35 81 36 75 37 77 38 31 39 80 40 74 41 73 42 32 44 62 45
REMARK SMILES IDX 43 46 61 47 44 48 47 49 60 50 78 51 45 52 46 53 59 55 79 56
REMARK SMILES IDX 48 57 33 58 34 59 42 60 35 61 41 62 36 63 37 64 38 65 39 66
REMARK SMILES IDX 40 67 63 68 64 69 72 70 65 71 71 72 66 73 67 74 68 75 69 76
REMARK SMILES IDX 70 77 49 78 50 79 58 80 51 81 57 82 52 83 53 84 54 85 55 86
REMARK SMILES IDX 56 87
REMARK H PARENT 13 10 77 43 47 54
REMARK Flexibility Score: inf
ROOT
ATOM      1  C   UNL A   1      33.987  30.185  27.266  1.00  0.00     0.274 C 
ENDROOT
BRANCH   1   2
ATOM      2  O   UNL A   1      32.691  29.591  27.483  1.00  0.00    -0.462 OA
BRANCH   2   3
ATOM      3  C   UNL A   1      32.202  28.854  26.451  1.00  0.00     0.307 C 
ATOM      4  O   UNL A   1      31.929  29.295  25.342  1.00  0.00    -0.252 OA
BRANCH   3   5
ATOM      5  C   UNL A   1      31.946  27.423  26.843  1.00  0.00     0.144 C 
BRANCH   5   6
ATOM      6  C   UNL A   1      30.838  26.756  26.045  1.00  0.00     0.128 C 
BRANCH   6   7
ATOM      7  N   UNL A   1      30.345  25.526  26.650  1.00  0.00    -0.351 N 
ATOM      8  C   UNL A   1      30.788  24.224  26.599  1.00  0.00     0.255 C 
ATOM      9  O   UNL A   1      30.157  23.364  27.214  1.00  0.00    -0.269 OA
ATOM     10  H   UNL A   1      29.538  25.650  27.202  1.00  0.00     0.163 HD
BRANCH   8  11
ATOM     11  C   UNL A   1      32.011  23.834  25.847  1.00  0.00     0.086 A 
ATOM     12  C   UNL A   1      34.382  23.352  25.820  1.00  0.00     0.121 A 
ATOM     13  C   UNL A   1      34.335  23.095  24.454  1.00  0.00     0.066 A 
ATOM     14  C   UNL A   1      33.218  23.632  26.530  1.00  0.00     0.064 A 
ATOM     15  C   UNL A   1      33.125  23.218  23.772  1.00  0.00     0.064 A 
ATOM     16  Br  UNL A   1      33.165  22.916  21.895  1.00  0.00    -0.047 Br
ATOM     17  C   UNL A   1      31.958  23.597  24.458  1.00  0.00     0.146 A 
BRANCH  12  18
ATOM     18  O   UNL A   1      35.558  23.346  26.520  1.00  0.00    -0.497 OA
ATOM     19  C   UNL A   1      36.685  23.452  25.640  1.00  0.00     0.278 C 
ENDBRANCH  12  18
BRANCH  17  20
ATOM     20  O   UNL A   1      30.801  23.861  23.766  1.00  0.00    -0.495 OA
ATOM     21  C   UNL A   1      30.869  25.100  23.055  1.00  0.00     0.278 C 
ENDBRANCH  17  20
ENDBRANCH   8  11
ENDBRANCH   6   7
ENDBRANCH   5   6
ENDBRANCH   3   5
ENDBRANCH   2   3
ENDBRANCH   1   2
BRANCH   1  22
ATOM     22  C   UNL A   1      35.137  29.256  27.663  1.00  0.00     0.275 C 
BRANCH  22  23
ATOM     23  O   UNL A   1      36.341  29.980  27.972  1.00  0.00    -0.458 OA
BRANCH  23  24
ATOM     24  C   UNL A   1      37.060  29.473  28.997  1.00  0.00     0.338 C 
ATOM     25  O   UNL A   1      36.655  29.232  30.127  1.00  0.00    -0.246 OA
BRANCH  24  26
ATOM     26  C   UNL A   1      38.417  29.119  28.554  1.00  0.00     0.060 A 
ATOM     27  C   UNL A   1      39.326  28.684  29.522  1.00  0.00     0.016 A 
ATOM     28  C   UNL A   1      38.828  29.318  27.234  1.00  0.00     0.016 A 
ATOM     29  C   UNL A   1      40.661  28.481  29.183  1.00  0.00     0.010 A 
ATOM     30  C   UNL A   1      40.170  29.099  26.893  1.00  0.00     0.010 A 
ATOM     31  C   UNL A   1      41.099  28.706  27.871  1.00  0.00    -0.014 A 
BRANCH  31  32
ATOM     32  C   UNL A   1      42.544  28.579  27.554  1.00  0.00     0.031 A 
ATOM     33  C   UNL A   1      43.482  29.718  27.846  1.00  0.00     0.074 A 
ATOM     34  C   UNL A   1      43.025  27.427  27.053  1.00  0.00     0.049 A 
ATOM     35  N   UNL A   1      44.778  29.787  27.669  1.00  0.00    -0.248 NA
ATOM     36  C   UNL A   1      42.886  30.937  28.413  1.00  0.00     0.031 C 
ATOM     37  C   UNL A   1      42.228  26.234  26.765  1.00  0.00     0.029 A 
ATOM     38  N   UNL A   1      44.305  27.066  26.712  1.00  0.00    -0.354 N 
ATOM     39  C   UNL A   1      45.151  31.058  28.089  1.00  0.00     0.074 A 
ATOM     40  C   UNL A   1      43.940  31.734  28.507  1.00  0.00     0.031 C 
ATOM     41  C   UNL A   1      43.042  25.263  26.319  1.00  0.00     0.029 A 
ATOM     42  C   UNL A   1      44.408  25.776  26.253  1.00  0.00     0.049 A 
ATOM     43  H   UNL A   1      45.074  27.675  26.791  1.00  0.00     0.167 HD
ATOM     44  C   UNL A   1      46.386  31.613  28.128  1.00  0.00     0.031 A 
ATOM     45  C   UNL A   1      45.481  25.083  25.824  1.00  0.00     0.031 A 
ATOM     46  C   UNL A   1      47.591  30.948  27.707  1.00  0.00     0.049 A 
ATOM     47  C   UNL A   1      46.833  25.741  25.815  1.00  0.00     0.074 A 
ATOM     48  C   UNL A   1      48.891  31.425  27.722  1.00  0.00     0.029 A 
ATOM     49  N   UNL A   1      47.644  29.664  27.187  1.00  0.00    -0.354 N 
ATOM     50  N   UNL A   1      47.167  26.941  26.225  1.00  0.00    -0.248 NA
ATOM     51  C   UNL A   1      47.952  24.948  25.286  1.00  0.00     0.031 C 
ATOM     52  C   UNL A   1      49.724  30.442  27.172  1.00  0.00     0.029 A 
ATOM     53  C   UNL A   1      48.949  29.338  26.856  1.00  0.00     0.049 A 
ATOM     54  H   UNL A   1      46.867  29.070  27.070  1.00  0.00     0.167 HD
ATOM     55  C   UNL A   1      48.540  27.039  26.025  1.00  0.00     0.074 A 
ATOM     56  C   UNL A   1      48.973  25.775  25.463  1.00  0.00     0.031 C 
ATOM     57  C   UNL A   1      49.367  28.080  26.290  1.00  0.00     0.031 A 
BRANCH  44  58
ATOM     58  C   UNL A   1      46.480  33.037  28.608  1.00  0.00    -0.014 A 
ATOM     59  C   UNL A   1      46.358  34.118  27.716  1.00  0.00     0.010 A 
ATOM     60  C   UNL A   1      46.708  33.296  29.972  1.00  0.00     0.010 A 
ATOM     61  C   UNL A   1      46.521  35.429  28.169  1.00  0.00     0.020 A 
ATOM     62  C   UNL A   1      46.849  34.608  30.433  1.00  0.00     0.020 A 
ATOM     63  C   UNL A   1      46.782  35.665  29.522  1.00  0.00     0.054 A 
BRANCH  63  64
ATOM     64  S   UNL A   1      47.024  37.373  30.086  1.00  0.00     0.124 S 
ATOM     65  O   UNL A   1      45.713  37.691  30.645  1.00  0.00    -0.237 OA
ATOM     66  O   UNL A   1      48.107  37.245  31.057  1.00  0.00    -0.237 OA
ATOM     67  O   UNL A   1      47.372  38.093  28.863  1.00  0.00    -0.744 OA
ENDBRANCH  63  64
ENDBRANCH  44  58
BRANCH  45  68
ATOM     68  C   UNL A   1      45.315  23.674  25.381  1.00  0.00    -0.014 A 
ATOM     69  C   UNL A   1      45.672  22.618  26.237  1.00  0.00     0.010 A 
ATOM     70  C   UNL A   1      44.765  23.382  24.120  1.00  0.00     0.010 A 
ATOM     71  C   UNL A   1      45.480  21.292  25.840  1.00  0.00     0.020 A 
ATOM     72  C   UNL A   1      44.552  22.057  23.729  1.00  0.00     0.020 A 
ATOM     73  C   UNL A   1      44.915  21.021  24.590  1.00  0.00     0.054 A 
BRANCH  73  74
ATOM     74  S   UNL A   1      44.597  19.294  24.129  1.00  0.00     0.124 S 
ATOM     75  O   UNL A   1      43.303  19.045  24.755  1.00  0.00    -0.237 OA
ATOM     76  O   UNL A   1      44.593  19.352  22.668  1.00  0.00    -0.237 OA
ATOM     77  O   UNL A   1      45.727  18.573  24.710  1.00  0.00    -0.744 OA
ENDBRANCH  73  74
ENDBRANCH  45  68
BRANCH  57  78
ATOM     78  C   UNL A   1      50.832  27.888  26.003  1.00  0.00    -0.014 A 
ATOM     79  C   UNL A   1      51.392  28.292  24.778  1.00  0.00     0.010 A 
ATOM     80  C   UNL A   1      51.666  27.335  26.991  1.00  0.00     0.010 A 
ATOM     81  C   UNL A   1      52.758  28.119  24.536  1.00  0.00     0.020 A 
ATOM     82  C   UNL A   1      53.035  27.179  26.760  1.00  0.00     0.020 A 
ATOM     83  C   UNL A   1      53.570  27.560  25.527  1.00  0.00     0.054 A 
BRANCH  83  84
ATOM     84  S   UNL A   1      55.347  27.380  25.207  1.00  0.00     0.124 S 
ATOM     85  O   UNL A   1      55.733  28.744  24.859  1.00  0.00    -0.237 OA
ATOM     86  O   UNL A   1      55.858  26.889  26.485  1.00  0.00    -0.237 OA
ATOM     87  O   UNL A   1      55.405  26.415  24.110  1.00  0.00    -0.744 OA
ENDBRANCH  83  84
ENDBRANCH  57  78
ENDBRANCH  31  32
ENDBRANCH  24  26
ENDBRANCH  23  24
ENDBRANCH  22  23
ENDBRANCH   1  22
TORSDOF 19
ENDMDL
