MODEL 1
REMARK VINA RESULT:      -9.3      0.000      0.000
REMARK SMILES CC(C)[C@H]1CC[C@@H](C)/C(=C/c2ccc(NC(=O)CCC(=O)OCCOC(=O)c3ccc(-c4c5nc(c(-c6ccc(S(=O)(=O)[O-])cc6)c6ccc([nH]6)c(-c6ccc(S(=O)(=O)[O-])cc6)c6nc(c(-c7ccc(S(=O)(=O)[O-])cc7)c7ccc4[nH]7)C=C6)C=C5)cc3)cc2)C1=O
REMARK SMILES IDX 23 1 22 2 20 3 21 4 19 5 18 6 16 7 15 8 17 10 14 11 11 12
REMARK SMILES IDX 12 13 89 14 13 15 88 16 10 17 4 18 5 19 90 20 6 21 9 22
REMARK SMILES IDX 91 23 7 24 8 25 2 26 1 27 3 28 24 29 25 30 26 31 27 32 28 33
REMARK SMILES IDX 29 34 87 35 30 36 86 37 31 38 32 39 33 40 80 41 34 42 85 43
REMARK SMILES IDX 79 44 81 45 35 46 84 47 78 48 77 49 36 51 66 52 47 53 65 54
REMARK SMILES IDX 48 55 51 56 64 57 82 58 49 59 50 60 63 62 83 63 52 64 37 65
REMARK SMILES IDX 38 66 46 67 39 68 45 69 40 70 41 71 42 72 43 73 44 74 67 75
REMARK SMILES IDX 68 76 76 77 69 78 75 79 70 80 71 81 72 82 73 83 74 84 53 85
REMARK SMILES IDX 54 86 62 87 55 88 61 89 56 90 57 91 58 92 59 93 60 94
REMARK H PARENT 15 9 81 50 51 61
REMARK Flexibility Score: inf
ROOT
ATOM      1  C   UNL A   1      33.931  34.039  28.931  1.00  0.00     0.274 C 
ENDROOT
BRANCH   1   2
ATOM      2  O   UNL A   1      34.946  34.411  29.893  1.00  0.00    -0.462 OA
BRANCH   2   3
ATOM      3  C   UNL A   1      34.735  33.997  31.171  1.00  0.00     0.306 C 
ATOM      4  O   UNL A   1      33.763  34.311  31.850  1.00  0.00    -0.252 OA
BRANCH   3   5
ATOM      5  C   UNL A   1      35.880  33.174  31.723  1.00  0.00     0.132 C 
BRANCH   5   6
ATOM      6  C   UNL A   1      36.649  33.786  32.895  1.00  0.00     0.112 C 
BRANCH   6   7
ATOM      7  C   UNL A   1      36.394  33.039  34.187  1.00  0.00     0.224 C 
ATOM      8  N   UNL A   1      37.094  31.932  34.569  1.00  0.00    -0.326 N 
ATOM      9  H   UNL A   1      36.828  31.573  35.446  1.00  0.00     0.169 HD
ATOM     10  O   UNL A   1      35.555  33.477  34.986  1.00  0.00    -0.275 OA
BRANCH   8  11
ATOM     11  C   UNL A   1      38.121  31.210  33.943  1.00  0.00     0.041 A 
ATOM     12  C   UNL A   1      40.065  29.354  33.163  1.00  0.00    -0.025 A 
ATOM     13  C   UNL A   1      40.446  30.629  33.582  1.00  0.00     0.010 A 
ATOM     14  C   UNL A   1      38.711  29.090  32.937  1.00  0.00     0.010 A 
ATOM     15  C   UNL A   1      39.470  31.559  33.971  1.00  0.00     0.027 A 
ATOM     16  C   UNL A   1      37.742  30.027  33.302  1.00  0.00     0.027 A 
BRANCH  12  17
ATOM     17  C   UNL A   1      41.010  28.231  33.230  1.00  0.00     0.015 C 
ATOM     18  C   UNL A   1      42.889  29.534  35.735  1.00  0.00     0.063 C 
ATOM     19  C   UNL A   1      44.108  28.596  35.855  1.00  0.00     0.013 C 
ATOM     20  C   UNL A   1      41.705  28.611  35.538  1.00  0.00     0.162 C 
ATOM     21  C   UNL A   1      44.263  27.713  34.598  1.00  0.00     0.009 C 
ATOM     22  C   UNL A   1      41.790  27.870  34.257  1.00  0.00    -0.001 C 
ATOM     23  O   UNL A   1      40.827  28.367  36.353  1.00  0.00    -0.294 OA
ATOM     24  C   UNL A   1      42.982  26.949  34.171  1.00  0.00     0.020 C 
ATOM     25  C   UNL A   1      42.772  25.670  34.986  1.00  0.00     0.013 C 
BRANCH  18  26
ATOM     26  C   UNL A   1      42.778  30.581  36.862  1.00  0.00    -0.007 C 
ATOM     27  C   UNL A   1      44.185  30.860  37.419  1.00  0.00     0.008 C 
ATOM     28  C   UNL A   1      42.180  31.922  36.417  1.00  0.00     0.008 C 
ENDBRANCH  18  26
ENDBRANCH  12  17
ENDBRANCH   8  11
ENDBRANCH   6   7
ENDBRANCH   5   6
ENDBRANCH   3   5
ENDBRANCH   2   3
ENDBRANCH   1   2
BRANCH   1  29
ATOM     29  C   UNL A   1      33.804  32.522  28.728  1.00  0.00     0.275 C 
BRANCH  29  30
ATOM     30  O   UNL A   1      34.630  31.973  27.679  1.00  0.00    -0.458 OA
BRANCH  30  31
ATOM     31  C   UNL A   1      34.736  30.632  27.718  1.00  0.00     0.338 C 
ATOM     32  O   UNL A   1      33.854  29.826  27.486  1.00  0.00    -0.246 OA
BRANCH  31  33
ATOM     33  C   UNL A   1      36.059  30.146  28.075  1.00  0.00     0.060 A 
ATOM     34  C   UNL A   1      37.021  30.092  27.063  1.00  0.00     0.016 A 
ATOM     35  C   UNL A   1      36.287  29.577  29.330  1.00  0.00     0.016 A 
ATOM     36  C   UNL A   1      38.253  29.516  27.331  1.00  0.00     0.010 A 
ATOM     37  C   UNL A   1      37.520  28.996  29.596  1.00  0.00     0.010 A 
ATOM     38  C   UNL A   1      38.516  28.996  28.608  1.00  0.00    -0.014 A 
BRANCH  38  39
ATOM     39  C   UNL A   1      39.904  28.700  28.996  1.00  0.00     0.031 A 
ATOM     40  C   UNL A   1      40.774  29.706  29.672  1.00  0.00     0.074 A 
ATOM     41  C   UNL A   1      40.360  27.480  28.656  1.00  0.00     0.049 A 
ATOM     42  N   UNL A   1      42.000  29.562  30.098  1.00  0.00    -0.248 NA
ATOM     43  C   UNL A   1      40.207  31.045  29.889  1.00  0.00     0.031 C 
ATOM     44  C   UNL A   1      39.576  26.461  27.948  1.00  0.00     0.029 A 
ATOM     45  N   UNL A   1      41.576  26.890  28.850  1.00  0.00    -0.354 N 
ATOM     46  C   UNL A   1      42.360  30.789  30.637  1.00  0.00     0.074 A 
ATOM     47  C   UNL A   1      41.225  31.674  30.464  1.00  0.00     0.031 C 
ATOM     48  C   UNL A   1      40.328  25.366  27.777  1.00  0.00     0.029 A 
ATOM     49  C   UNL A   1      41.646  25.614  28.345  1.00  0.00     0.049 A 
ATOM     50  H   UNL A   1      42.328  27.335  29.304  1.00  0.00     0.167 HD
ATOM     51  C   UNL A   1      43.534  31.131  31.222  1.00  0.00     0.031 A 
ATOM     52  C   UNL A   1      42.662  24.736  28.345  1.00  0.00     0.031 A 
ATOM     53  C   UNL A   1      44.652  30.231  31.349  1.00  0.00     0.049 A 
ATOM     54  C   UNL A   1      43.937  25.132  29.020  1.00  0.00     0.074 A 
ATOM     55  C   UNL A   1      45.878  30.455  31.953  1.00  0.00     0.029 A 
ATOM     56  N   UNL A   1      44.685  28.936  30.850  1.00  0.00    -0.354 N 
ATOM     57  N   UNL A   1      44.237  26.272  29.597  1.00  0.00    -0.248 NA
ATOM     58  C   UNL A   1      45.002  24.125  29.063  1.00  0.00     0.031 C 
ATOM     59  C   UNL A   1      46.664  29.308  31.785  1.00  0.00     0.029 A 
ATOM     60  C   UNL A   1      45.915  28.354  31.113  1.00  0.00     0.049 A 
ATOM     61  H   UNL A   1      43.942  28.494  30.379  1.00  0.00     0.167 HD
ATOM     62  C   UNL A   1      45.526  26.119  30.082  1.00  0.00     0.074 A 
ATOM     63  C   UNL A   1      45.940  24.769  29.746  1.00  0.00     0.031 C 
ATOM     64  C   UNL A   1      46.300  27.014  30.744  1.00  0.00     0.031 A 
BRANCH  51  65
ATOM     65  C   UNL A   1      43.669  32.536  31.742  1.00  0.00    -0.014 A 
ATOM     66  C   UNL A   1      44.032  33.593  30.888  1.00  0.00     0.010 A 
ATOM     67  C   UNL A   1      43.398  32.814  33.094  1.00  0.00     0.010 A 
ATOM     68  C   UNL A   1      44.159  34.895  31.382  1.00  0.00     0.020 A 
ATOM     69  C   UNL A   1      43.505  34.118  33.590  1.00  0.00     0.020 A 
ATOM     70  C   UNL A   1      43.902  35.147  32.733  1.00  0.00     0.054 A 
BRANCH  70  71
ATOM     71  S   UNL A   1      44.063  36.847  33.353  1.00  0.00     0.124 S 
ATOM     72  O   UNL A   1      42.768  37.056  33.994  1.00  0.00    -0.237 OA
ATOM     73  O   UNL A   1      45.204  36.754  34.260  1.00  0.00    -0.237 OA
ATOM     74  O   UNL A   1      44.295  37.635  32.145  1.00  0.00    -0.744 OA
ENDBRANCH  70  71
ENDBRANCH  51  65
BRANCH  52  75
ATOM     75  C   UNL A   1      42.468  23.408  27.715  1.00  0.00    -0.014 A 
ATOM     76  C   UNL A   1      43.180  23.059  26.556  1.00  0.00     0.010 A 
ATOM     77  C   UNL A   1      41.652  22.445  28.338  1.00  0.00     0.010 A 
ATOM     78  C   UNL A   1      43.082  21.769  26.030  1.00  0.00     0.020 A 
ATOM     79  C   UNL A   1      41.567  21.149  27.826  1.00  0.00     0.020 A 
ATOM     80  C   UNL A   1      42.280  20.819  26.672  1.00  0.00     0.054 A 
BRANCH  80  81
ATOM     81  S   UNL A   1      42.241  19.122  26.032  1.00  0.00     0.124 S 
ATOM     82  O   UNL A   1      40.826  18.950  25.716  1.00  0.00    -0.237 OA
ATOM     83  O   UNL A   1      43.142  19.190  24.884  1.00  0.00    -0.237 OA
ATOM     84  O   UNL A   1      42.735  18.325  27.153  1.00  0.00    -0.744 OA
ENDBRANCH  80  81
ENDBRANCH  52  75
BRANCH  64  85
ATOM     85  C   UNL A   1      47.671  26.548  31.135  1.00  0.00    -0.014 A 
ATOM     86  C   UNL A   1      48.781  26.811  30.312  1.00  0.00     0.010 A 
ATOM     87  C   UNL A   1      47.855  25.857  32.345  1.00  0.00     0.010 A 
ATOM     88  C   UNL A   1      50.050  26.363  30.679  1.00  0.00     0.020 A 
ATOM     89  C   UNL A   1      49.126  25.424  32.724  1.00  0.00     0.020 A 
ATOM     90  C   UNL A   1      50.213  25.666  31.881  1.00  0.00     0.054 A 
BRANCH  90  91
ATOM     91  S   UNL A   1      51.875  25.117  32.355  1.00  0.00     0.124 S 
ATOM     92  O   UNL A   1      51.692  23.674  32.482  1.00  0.00    -0.237 OA
ATOM     93  O   UNL A   1      52.695  25.550  31.226  1.00  0.00    -0.237 OA
ATOM     94  O   UNL A   1      52.127  25.828  33.607  1.00  0.00    -0.744 OA
ENDBRANCH  90  91
ENDBRANCH  64  85
ENDBRANCH  38  39
ENDBRANCH  31  33
ENDBRANCH  30  31
ENDBRANCH  29  30
ENDBRANCH   1  29
TORSDOF 19
ENDMDL
MODEL 2
REMARK VINA RESULT:      -9.0      5.129      8.435
REMARK SMILES CC(C)[C@H]1CC[C@@H](C)/C(=C/c2ccc(NC(=O)CCC(=O)OCCOC(=O)c3ccc(-c4c5nc(c(-c6ccc(S(=O)(=O)[O-])cc6)c6ccc([nH]6)c(-c6ccc(S(=O)(=O)[O-])cc6)c6nc(c(-c7ccc(S(=O)(=O)[O-])cc7)c7ccc4[nH]7)C=C6)C=C5)cc3)cc2)C1=O
REMARK SMILES IDX 23 1 22 2 20 3 21 4 19 5 18 6 16 7 15 8 17 10 14 11 11 12
REMARK SMILES IDX 12 13 89 14 13 15 88 16 10 17 4 18 5 19 90 20 6 21 9 22
REMARK SMILES IDX 91 23 7 24 8 25 2 26 1 27 3 28 24 29 25 30 26 31 27 32 28 33
REMARK SMILES IDX 29 34 87 35 30 36 86 37 31 38 32 39 33 40 80 41 34 42 85 43
REMARK SMILES IDX 79 44 81 45 35 46 84 47 78 48 77 49 36 51 66 52 47 53 65 54
REMARK SMILES IDX 48 55 51 56 64 57 82 58 49 59 50 60 63 62 83 63 52 64 37 65
REMARK SMILES IDX 38 66 46 67 39 68 45 69 40 70 41 71 42 72 43 73 44 74 67 75
REMARK SMILES IDX 68 76 76 77 69 78 75 79 70 80 71 81 72 82 73 83 74 84 53 85
REMARK SMILES IDX 54 86 62 87 55 88 61 89 56 90 57 91 58 92 59 93 60 94
REMARK H PARENT 15 9 81 50 51 61
REMARK Flexibility Score: inf
ROOT
ATOM      1  C   UNL A   1      33.819  30.241  27.272  1.00  0.00     0.274 C 
ENDROOT
BRANCH   1   2
ATOM      2  O   UNL A   1      33.734  29.563  25.998  1.00  0.00    -0.462 OA
BRANCH   2   3
ATOM      3  C   UNL A   1      32.960  28.445  25.968  1.00  0.00     0.306 C 
ATOM      4  O   UNL A   1      33.154  27.450  26.658  1.00  0.00    -0.252 OA
BRANCH   3   5
ATOM      5  C   UNL A   1      31.873  28.506  24.916  1.00  0.00     0.132 C 
BRANCH   5   6
ATOM      6  C   UNL A   1      32.279  28.094  23.500  1.00  0.00     0.112 C 
BRANCH   6   7
ATOM      7  C   UNL A   1      31.102  27.565  22.708  1.00  0.00     0.224 C 
ATOM      8  N   UNL A   1      30.715  26.257  22.715  1.00  0.00    -0.326 N 
ATOM      9  H   UNL A   1      29.917  26.072  22.169  1.00  0.00     0.169 HD
ATOM     10  O   UNL A   1      30.398  28.356  22.066  1.00  0.00    -0.275 OA
BRANCH   8  11
ATOM     11  C   UNL A   1      31.245  25.126  23.353  1.00  0.00     0.041 A 
ATOM     12  C   UNL A   1      32.005  22.556  24.164  1.00  0.00    -0.025 A 
ATOM     13  C   UNL A   1      31.175  23.327  24.978  1.00  0.00     0.010 A 
ATOM     14  C   UNL A   1      32.616  23.154  23.057  1.00  0.00     0.010 A 
ATOM     15  C   UNL A   1      30.796  24.617  24.571  1.00  0.00     0.027 A 
ATOM     16  C   UNL A   1      32.256  24.446  22.669  1.00  0.00     0.027 A 
BRANCH  12  17
ATOM     17  C   UNL A   1      32.018  21.092  24.282  1.00  0.00     0.015 C 
ATOM     18  C   UNL A   1      35.332  20.849  24.962  1.00  0.00     0.063 C 
ATOM     19  C   UNL A   1      35.641  19.338  24.931  1.00  0.00     0.013 C 
ATOM     20  C   UNL A   1      34.008  20.961  25.689  1.00  0.00     0.162 C 
ATOM     21  C   UNL A   1      34.520  18.551  24.218  1.00  0.00     0.009 C 
ATOM     22  C   UNL A   1      32.906  20.326  24.928  1.00  0.00    -0.001 C 
ATOM     23  O   UNL A   1      33.830  21.393  26.818  1.00  0.00    -0.294 OA
ATOM     24  C   UNL A   1      33.086  18.840  24.735  1.00  0.00     0.020 C 
ATOM     25  C   UNL A   1      32.760  18.057  26.009  1.00  0.00     0.013 C 
BRANCH  18  26
ATOM     26  C   UNL A   1      36.490  21.724  25.483  1.00  0.00    -0.007 C 
ATOM     27  C   UNL A   1      37.824  21.072  25.079  1.00  0.00     0.008 C 
ATOM     28  C   UNL A   1      36.490  23.158  24.937  1.00  0.00     0.008 C 
ENDBRANCH  18  26
ENDBRANCH  12  17
ENDBRANCH   8  11
ENDBRANCH   6   7
ENDBRANCH   5   6
ENDBRANCH   3   5
ENDBRANCH   2   3
ENDBRANCH   1   2
BRANCH   1  29
ATOM     29  C   UNL A   1      35.257  30.572  27.698  1.00  0.00     0.275 C 
BRANCH  29  30
ATOM     30  O   UNL A   1      36.134  29.434  27.834  1.00  0.00    -0.458 OA
BRANCH  30  31
ATOM     31  C   UNL A   1      36.937  29.493  28.913  1.00  0.00     0.338 C 
ATOM     32  O   UNL A   1      36.600  29.729  30.058  1.00  0.00    -0.246 OA
BRANCH  31  33
ATOM     33  C   UNL A   1      38.340  29.239  28.627  1.00  0.00     0.060 A 
ATOM     34  C   UNL A   1      38.753  29.323  27.295  1.00  0.00     0.016 A 
ATOM     35  C   UNL A   1      39.183  28.740  29.623  1.00  0.00     0.016 A 
ATOM     36  C   UNL A   1      40.050  28.963  26.965  1.00  0.00     0.010 A 
ATOM     37  C   UNL A   1      40.481  28.375  29.290  1.00  0.00     0.010 A 
ATOM     38  C   UNL A   1      40.927  28.519  27.968  1.00  0.00    -0.014 A 
BRANCH  38  39
ATOM     39  C   UNL A   1      42.371  28.462  27.692  1.00  0.00     0.031 A 
ATOM     40  C   UNL A   1      43.263  29.643  27.881  1.00  0.00     0.074 A 
ATOM     41  C   UNL A   1      42.830  27.293  27.208  1.00  0.00     0.049 A 
ATOM     42  N   UNL A   1      44.556  29.717  27.709  1.00  0.00    -0.248 NA
ATOM     43  C   UNL A   1      42.632  30.901  28.303  1.00  0.00     0.031 C 
ATOM     44  C   UNL A   1      42.000  26.110  26.952  1.00  0.00     0.029 A 
ATOM     45  N   UNL A   1      44.087  26.905  26.843  1.00  0.00    -0.354 N 
ATOM     46  C   UNL A   1      44.902  31.028  28.003  1.00  0.00     0.074 A 
ATOM     47  C   UNL A   1      43.676  31.722  28.343  1.00  0.00     0.031 C 
ATOM     48  C   UNL A   1      42.774  25.123  26.482  1.00  0.00     0.029 A 
ATOM     49  C   UNL A   1      44.143  25.610  26.388  1.00  0.00     0.049 A 
ATOM     50  H   UNL A   1      44.874  27.494  26.899  1.00  0.00     0.167 HD
ATOM     51  C   UNL A   1      46.136  31.588  27.987  1.00  0.00     0.031 A 
ATOM     52  C   UNL A   1      45.188  24.891  25.947  1.00  0.00     0.031 A 
ATOM     53  C   UNL A   1      47.331  30.875  27.613  1.00  0.00     0.049 A 
ATOM     54  C   UNL A   1      46.541  25.527  25.964  1.00  0.00     0.074 A 
ATOM     55  C   UNL A   1      48.638  31.328  27.592  1.00  0.00     0.029 A 
ATOM     56  N   UNL A   1      47.360  29.556  27.179  1.00  0.00    -0.354 N 
ATOM     57  N   UNL A   1      46.866  26.748  26.320  1.00  0.00    -0.248 NA
ATOM     58  C   UNL A   1      47.669  24.692  25.541  1.00  0.00     0.031 C 
ATOM     59  C   UNL A   1      49.452  30.295  27.111  1.00  0.00     0.029 A 
ATOM     60  C   UNL A   1      48.659  29.184  26.869  1.00  0.00     0.049 A 
ATOM     61  H   UNL A   1      46.573  28.969  27.104  1.00  0.00     0.167 HD
ATOM     62  C   UNL A   1      48.242  26.828  26.173  1.00  0.00     0.074 A 
ATOM     63  C   UNL A   1      48.687  25.526  25.713  1.00  0.00     0.031 C 
ATOM     64  C   UNL A   1      49.063  27.884  26.394  1.00  0.00     0.031 A 
BRANCH  51  65
ATOM     65  C   UNL A   1      46.246  33.042  28.360  1.00  0.00    -0.014 A 
ATOM     66  C   UNL A   1      46.151  34.050  27.384  1.00  0.00     0.010 A 
ATOM     67  C   UNL A   1      46.411  33.411  29.708  1.00  0.00     0.010 A 
ATOM     68  C   UNL A   1      46.258  35.398  27.742  1.00  0.00     0.020 A 
ATOM     69  C   UNL A   1      46.499  34.758  30.073  1.00  0.00     0.020 A 
ATOM     70  C   UNL A   1      46.440  35.743  29.084  1.00  0.00     0.054 A 
BRANCH  70  71
ATOM     71  S   UNL A   1      46.566  37.499  29.528  1.00  0.00     0.124 S 
ATOM     72  O   UNL A   1      46.737  38.127  28.222  1.00  0.00    -0.237 OA
ATOM     73  O   UNL A   1      45.288  37.759  30.186  1.00  0.00    -0.237 OA
ATOM     74  O   UNL A   1      47.734  37.552  30.404  1.00  0.00    -0.744 OA
ENDBRANCH  70  71
ENDBRANCH  51  65
BRANCH  52  75
ATOM     75  C   UNL A   1      44.964  23.494  25.500  1.00  0.00    -0.014 A 
ATOM     76  C   UNL A   1      44.666  23.216  24.156  1.00  0.00     0.010 A 
ATOM     77  C   UNL A   1      45.159  22.428  26.397  1.00  0.00     0.010 A 
ATOM     78  C   UNL A   1      44.569  21.895  23.714  1.00  0.00     0.020 A 
ATOM     79  C   UNL A   1      45.083  21.105  25.955  1.00  0.00     0.020 A 
ATOM     80  C   UNL A   1      44.784  20.847  24.615  1.00  0.00     0.054 A 
BRANCH  80  81
ATOM     81  S   UNL A   1      44.751  19.138  24.005  1.00  0.00     0.124 S 
ATOM     82  O   UNL A   1      46.086  18.665  24.358  1.00  0.00    -0.237 OA
ATOM     83  O   UNL A   1      43.650  18.548  24.763  1.00  0.00    -0.237 OA
ATOM     84  O   UNL A   1      44.497  19.294  22.574  1.00  0.00    -0.744 OA
ENDBRANCH  80  81
ENDBRANCH  52  75
BRANCH  64  85
ATOM     85  C   UNL A   1      50.523  27.658  26.133  1.00  0.00    -0.014 A 
ATOM     86  C   UNL A   1      51.381  27.242  27.167  1.00  0.00     0.010 A 
ATOM     87  C   UNL A   1      51.038  27.845  24.838  1.00  0.00     0.010 A 
ATOM     88  C   UNL A   1      52.739  27.046  26.917  1.00  0.00     0.020 A 
ATOM     89  C   UNL A   1      52.392  27.632  24.581  1.00  0.00     0.020 A 
ATOM     90  C   UNL A   1      53.237  27.248  25.625  1.00  0.00     0.054 A 
BRANCH  90  91
ATOM     91  S   UNL A   1      55.000  26.961  25.313  1.00  0.00     0.124 S 
ATOM     92  O   UNL A   1      55.281  25.823  26.183  1.00  0.00    -0.237 OA
ATOM     93  O   UNL A   1      55.035  26.681  23.879  1.00  0.00    -0.237 OA
ATOM     94  O   UNL A   1      55.628  28.220  25.709  1.00  0.00    -0.744 OA
ENDBRANCH  90  91
ENDBRANCH  64  85
ENDBRANCH  38  39
ENDBRANCH  31  33
ENDBRANCH  30  31
ENDBRANCH  29  30
ENDBRANCH   1  29
TORSDOF 19
ENDMDL
MODEL 3
REMARK VINA RESULT:      -9.0      4.127     11.029
REMARK SMILES CC(C)[C@H]1CC[C@@H](C)/C(=C/c2ccc(NC(=O)CCC(=O)OCCOC(=O)c3ccc(-c4c5nc(c(-c6ccc(S(=O)(=O)[O-])cc6)c6ccc([nH]6)c(-c6ccc(S(=O)(=O)[O-])cc6)c6nc(c(-c7ccc(S(=O)(=O)[O-])cc7)c7ccc4[nH]7)C=C6)C=C5)cc3)cc2)C1=O
REMARK SMILES IDX 23 1 22 2 20 3 21 4 19 5 18 6 16 7 15 8 17 10 14 11 11 12
REMARK SMILES IDX 12 13 89 14 13 15 88 16 10 17 4 18 5 19 90 20 6 21 9 22
REMARK SMILES IDX 91 23 7 24 8 25 2 26 1 27 3 28 24 29 25 30 26 31 27 32 28 33
REMARK SMILES IDX 29 34 87 35 30 36 86 37 31 38 32 39 33 40 80 41 34 42 85 43
REMARK SMILES IDX 79 44 81 45 35 46 84 47 78 48 77 49 36 51 66 52 47 53 65 54
REMARK SMILES IDX 48 55 51 56 64 57 82 58 49 59 50 60 63 62 83 63 52 64 37 65
REMARK SMILES IDX 38 66 46 67 39 68 45 69 40 70 41 71 42 72 43 73 44 74 67 75
REMARK SMILES IDX 68 76 76 77 69 78 75 79 70 80 71 81 72 82 73 83 74 84 53 85
REMARK SMILES IDX 54 86 62 87 55 88 61 89 56 90 57 91 58 92 59 93 60 94
REMARK H PARENT 15 9 81 50 51 61
REMARK Flexibility Score: inf
ROOT
ATOM      1  C   UNL A   1      32.186  29.944  26.937  1.00  0.00     0.274 C 
ENDROOT
BRANCH   1   2
ATOM      2  O   UNL A   1      32.546  28.904  25.998  1.00  0.00    -0.462 OA
BRANCH   2   3
ATOM      3  C   UNL A   1      32.282  29.166  24.690  1.00  0.00     0.306 C 
ATOM      4  O   UNL A   1      33.095  29.038  23.781  1.00  0.00    -0.252 OA
BRANCH   3   5
ATOM      5  C   UNL A   1      30.895  29.731  24.468  1.00  0.00     0.132 C 
BRANCH   5   6
ATOM      6  C   UNL A   1      30.364  29.677  23.035  1.00  0.00     0.112 C 
BRANCH   6   7
ATOM      7  C   UNL A   1      29.136  28.800  22.922  1.00  0.00     0.224 C 
ATOM      8  N   UNL A   1      29.154  27.449  23.113  1.00  0.00    -0.326 N 
ATOM      9  H   UNL A   1      28.272  27.020  23.030  1.00  0.00     0.169 HD
ATOM     10  O   UNL A   1      28.033  29.322  22.712  1.00  0.00    -0.275 OA
BRANCH   8  11
ATOM     11  C   UNL A   1      30.197  26.557  23.405  1.00  0.00     0.041 A 
ATOM     12  C   UNL A   1      32.461  25.235  24.386  1.00  0.00    -0.025 A 
ATOM     13  C   UNL A   1      32.401  25.614  23.045  1.00  0.00     0.010 A 
ATOM     14  C   UNL A   1      31.308  25.331  25.171  1.00  0.00     0.010 A 
ATOM     15  C   UNL A   1      31.264  26.275  22.554  1.00  0.00     0.027 A 
ATOM     16  C   UNL A   1      30.169  25.967  24.672  1.00  0.00     0.027 A 
BRANCH  12  17
ATOM     17  C   UNL A   1      33.756  25.015  25.044  1.00  0.00     0.015 C 
ATOM     18  C   UNL A   1      33.761  21.648  24.639  1.00  0.00     0.063 C 
ATOM     19  C   UNL A   1      34.970  21.145  25.454  1.00  0.00     0.013 C 
ATOM     20  C   UNL A   1      34.255  22.897  23.940  1.00  0.00     0.162 C 
ATOM     21  C   UNL A   1      35.457  22.215  26.455  1.00  0.00     0.009 C 
ATOM     22  C   UNL A   1      34.585  23.974  24.903  1.00  0.00    -0.001 C 
ATOM     23  O   UNL A   1      34.494  23.019  22.747  1.00  0.00    -0.294 OA
ATOM     24  C   UNL A   1      35.712  23.617  25.841  1.00  0.00     0.020 C 
ATOM     25  C   UNL A   1      37.076  23.708  25.152  1.00  0.00     0.013 C 
BRANCH  18  26
ATOM     26  C   UNL A   1      33.095  20.571  23.758  1.00  0.00    -0.007 C 
ATOM     27  C   UNL A   1      32.570  19.444  24.664  1.00  0.00     0.008 C 
ATOM     28  C   UNL A   1      31.915  21.084  22.923  1.00  0.00     0.008 C 
ENDBRANCH  18  26
ENDBRANCH  12  17
ENDBRANCH   8  11
ENDBRANCH   6   7
ENDBRANCH   5   6
ENDBRANCH   3   5
ENDBRANCH   2   3
ENDBRANCH   1   2
BRANCH   1  29
ATOM     29  C   UNL A   1      33.385  30.769  27.429  1.00  0.00     0.275 C 
BRANCH  29  30
ATOM     30  O   UNL A   1      34.494  29.996  27.936  1.00  0.00    -0.458 OA
BRANCH  30  31
ATOM     31  C   UNL A   1      35.294  30.680  28.775  1.00  0.00     0.338 C 
ATOM     32  O   UNL A   1      34.981  31.637  29.460  1.00  0.00    -0.246 OA
BRANCH  31  33
ATOM     33  C   UNL A   1      36.660  30.186  28.835  1.00  0.00     0.060 A 
ATOM     34  C   UNL A   1      37.357  30.069  27.629  1.00  0.00     0.016 A 
ATOM     35  C   UNL A   1      37.171  29.668  30.026  1.00  0.00     0.016 A 
ATOM     36  C   UNL A   1      38.613  29.482  27.628  1.00  0.00     0.010 A 
ATOM     37  C   UNL A   1      38.427  29.075  30.023  1.00  0.00     0.010 A 
ATOM     38  C   UNL A   1      39.164  29.014  28.831  1.00  0.00    -0.014 A 
BRANCH  38  39
ATOM     39  C   UNL A   1      40.602  28.707  28.896  1.00  0.00     0.031 A 
ATOM     40  C   UNL A   1      41.149  27.374  28.510  1.00  0.00     0.074 A 
ATOM     41  C   UNL A   1      41.390  29.688  29.375  1.00  0.00     0.049 A 
ATOM     42  N   UNL A   1      42.396  26.986  28.486  1.00  0.00    -0.248 NA
ATOM     43  C   UNL A   1      40.182  26.341  28.112  1.00  0.00     0.031 C 
ATOM     44  C   UNL A   1      40.912  31.003  29.818  1.00  0.00     0.029 A 
ATOM     45  N   UNL A   1      42.739  29.738  29.575  1.00  0.00    -0.354 N 
ATOM     46  C   UNL A   1      42.372  25.663  28.069  1.00  0.00     0.074 A 
ATOM     47  C   UNL A   1      40.980  25.308  27.873  1.00  0.00     0.031 C 
ATOM     48  C   UNL A   1      41.956  31.736  30.227  1.00  0.00     0.029 A 
ATOM     49  C   UNL A   1      43.166  30.937  30.092  1.00  0.00     0.049 A 
ATOM     50  H   UNL A   1      43.345  28.990  29.370  1.00  0.00     0.167 HD
ATOM     51  C   UNL A   1      43.424  24.832  27.872  1.00  0.00     0.031 A 
ATOM     52  C   UNL A   1      44.402  31.350  30.417  1.00  0.00     0.031 A 
ATOM     53  C   UNL A   1      44.794  25.210  28.109  1.00  0.00     0.049 A 
ATOM     54  C   UNL A   1      45.546  30.421  30.165  1.00  0.00     0.074 A 
ATOM     55  C   UNL A   1      45.944  24.465  27.911  1.00  0.00     0.029 A 
ATOM     56  N   UNL A   1      45.198  26.441  28.609  1.00  0.00    -0.354 N 
ATOM     57  N   UNL A   1      45.516  29.196  29.695  1.00  0.00    -0.248 NA
ATOM     58  C   UNL A   1      46.888  30.928  30.466  1.00  0.00     0.031 C 
ATOM     59  C   UNL A   1      47.039  25.232  28.328  1.00  0.00     0.029 A 
ATOM     60  C   UNL A   1      46.577  26.470  28.747  1.00  0.00     0.049 A 
ATOM     61  H   UNL A   1      44.594  27.185  28.833  1.00  0.00     0.167 HD
ATOM     62  C   UNL A   1      46.838  28.784  29.634  1.00  0.00     0.074 A 
ATOM     63  C   UNL A   1      47.642  29.900  30.099  1.00  0.00     0.031 C 
ATOM     64  C   UNL A   1      47.343  27.592  29.234  1.00  0.00     0.031 A 
BRANCH  51  65
ATOM     65  C   UNL A   1      43.128  23.433  27.402  1.00  0.00    -0.014 A 
ATOM     66  C   UNL A   1      42.713  22.437  28.306  1.00  0.00     0.010 A 
ATOM     67  C   UNL A   1      43.231  23.114  26.036  1.00  0.00     0.010 A 
ATOM     68  C   UNL A   1      42.444  21.140  27.859  1.00  0.00     0.020 A 
ATOM     69  C   UNL A   1      42.945  21.822  25.581  1.00  0.00     0.020 A 
ATOM     70  C   UNL A   1      42.571  20.839  26.499  1.00  0.00     0.054 A 
BRANCH  70  71
ATOM     71  S   UNL A   1      42.207  19.150  25.939  1.00  0.00     0.124 S 
ATOM     72  O   UNL A   1      40.760  19.202  25.750  1.00  0.00    -0.237 OA
ATOM     73  O   UNL A   1      42.995  19.039  24.714  1.00  0.00    -0.237 OA
ATOM     74  O   UNL A   1      42.662  18.313  27.046  1.00  0.00    -0.744 OA
ENDBRANCH  70  71
ENDBRANCH  51  65
BRANCH  52  75
ATOM     75  C   UNL A   1      44.584  32.713  30.972  1.00  0.00    -0.014 A 
ATOM     76  C   UNL A   1      44.760  33.813  30.116  1.00  0.00     0.010 A 
ATOM     77  C   UNL A   1      44.468  32.931  32.357  1.00  0.00     0.010 A 
ATOM     78  C   UNL A   1      44.816  35.108  30.634  1.00  0.00     0.020 A 
ATOM     79  C   UNL A   1      44.504  34.227  32.878  1.00  0.00     0.020 A 
ATOM     80  C   UNL A   1      44.681  35.308  32.012  1.00  0.00     0.054 A 
BRANCH  80  81
ATOM     81  S   UNL A   1      44.658  37.003  32.659  1.00  0.00     0.124 S 
ATOM     82  O   UNL A   1      43.784  37.680  31.706  1.00  0.00    -0.237 OA
ATOM     83  O   UNL A   1      44.111  36.826  34.003  1.00  0.00    -0.237 OA
ATOM     84  O   UNL A   1      46.063  37.402  32.617  1.00  0.00    -0.744 OA
ENDBRANCH  80  81
ENDBRANCH  52  75
BRANCH  64  85
ATOM     85  C   UNL A   1      48.835  27.447  29.291  1.00  0.00    -0.014 A 
ATOM     86  C   UNL A   1      49.455  26.847  30.402  1.00  0.00     0.010 A 
ATOM     87  C   UNL A   1      49.622  27.897  28.218  1.00  0.00     0.010 A 
ATOM     88  C   UNL A   1      50.844  26.728  30.452  1.00  0.00     0.020 A 
ATOM     89  C   UNL A   1      51.010  27.762  28.256  1.00  0.00     0.020 A 
ATOM     90  C   UNL A   1      51.614  27.192  29.380  1.00  0.00     0.054 A 
BRANCH  90  91
ATOM     91  S   UNL A   1      53.415  27.002  29.450  1.00  0.00     0.124 S 
ATOM     92  O   UNL A   1      53.650  25.966  28.448  1.00  0.00    -0.237 OA
ATOM     93  O   UNL A   1      53.896  28.336  29.099  1.00  0.00    -0.237 OA
ATOM     94  O   UNL A   1      53.665  26.602  30.833  1.00  0.00    -0.744 OA
ENDBRANCH  90  91
ENDBRANCH  64  85
ENDBRANCH  38  39
ENDBRANCH  31  33
ENDBRANCH  30  31
ENDBRANCH  29  30
ENDBRANCH   1  29
TORSDOF 19
ENDMDL
