MODEL 1
REMARK VINA RESULT:      -9.8      0.000      0.000
REMARK SMILES O=C(CC1CCN(C(=O)N(CC2CC2)C2CC2)CC1)OCCOC(=O)c1ccc(-c2c3nc(c(-c4ccc(S(=O)(=O)[O-])cc4)c4ccc([nH]4)c(-c4ccc(S(=O)(=O)[O-])cc4)c4nc(c(-c5ccc(S(=O)(=O)[O-])cc5)c5ccc2[nH]5)C=C4)C=C3)cc1
REMARK SMILES IDX 21 1 20 2 2 3 1 4 3 5 4 6 5 7 19 8 6 9 18 10 7 11 8 12 9 13
REMARK SMILES IDX 10 14 11 15 12 16 13 17 14 18 15 19 16 20 17 21 22 22 23 23
REMARK SMILES IDX 24 24 25 25 26 26 27 27 85 28 28 29 84 30 29 31 30 32 31 33
REMARK SMILES IDX 78 34 32 35 83 36 77 37 79 38 33 39 82 40 76 41 75 42 34 44
REMARK SMILES IDX 64 45 45 46 63 47 46 48 49 49 62 50 80 51 47 52 48 53 61 55
REMARK SMILES IDX 81 56 50 57 35 58 36 59 44 60 37 61 43 62 38 63 39 64 40 65
REMARK SMILES IDX 41 66 42 67 65 68 66 69 74 70 67 71 73 72 68 73 69 74 70 75
REMARK SMILES IDX 71 76 72 77 51 78 52 79 60 80 53 81 59 82 54 83 55 84 56 85
REMARK SMILES IDX 57 86 58 87
REMARK H PARENT 79 43 49 54
REMARK Flexibility Score: inf
ROOT
ATOM      1  C   UNL A   1      35.657  21.452  25.566  1.00  0.00     0.274 C 
ENDROOT
BRANCH   1   2
ATOM      2  O   UNL A   1      35.055  20.466  24.719  1.00  0.00    -0.462 OA
BRANCH   2   3
ATOM      3  C   UNL A   1      33.696  20.505  24.718  1.00  0.00     0.306 C 
ATOM      4  O   UNL A   1      33.008  19.647  24.185  1.00  0.00    -0.252 OA
BRANCH   3   5
ATOM      5  C   UNL A   1      33.152  21.751  25.388  1.00  0.00     0.126 C 
BRANCH   5   6
ATOM      6  C   UNL A   1      32.476  22.725  24.403  1.00  0.00     0.003 C 
ATOM      7  C   UNL A   1      33.527  23.557  23.629  1.00  0.00     0.026 C 
ATOM      8  C   UNL A   1      31.479  23.686  25.091  1.00  0.00     0.026 C 
ATOM      9  C   UNL A   1      34.100  24.727  24.444  1.00  0.00     0.121 C 
ATOM     10  C   UNL A   1      32.204  24.750  25.915  1.00  0.00     0.121 C 
ATOM     11  N   UNL A   1      33.008  25.541  25.006  1.00  0.00    -0.325 N 
ATOM     12  C   UNL A   1      32.820  26.802  24.468  1.00  0.00     0.320 C 
ATOM     13  O   UNL A   1      33.623  27.178  23.605  1.00  0.00    -0.248 OA
BRANCH  12  14
ATOM     14  N   UNL A   1      31.783  27.650  24.844  1.00  0.00    -0.321 N 
BRANCH  14  15
ATOM     15  C   UNL A   1      30.530  27.964  24.138  1.00  0.00     0.125 C 
BRANCH  15  16
ATOM     16  C   UNL A   1      30.516  29.369  23.599  1.00  0.00     0.009 C 
ATOM     17  C   UNL A   1      30.039  29.650  22.194  1.00  0.00     0.006 C 
ATOM     18  C   UNL A   1      29.260  30.175  23.369  1.00  0.00     0.006 C 
ENDBRANCH  15  16
ENDBRANCH  14  15
BRANCH  14  19
ATOM     19  C   UNL A   1      31.987  28.556  25.987  1.00  0.00     0.087 C 
ATOM     20  C   UNL A   1      31.489  28.131  27.352  1.00  0.00     0.027 C 
ATOM     21  C   UNL A   1      32.941  28.407  27.143  1.00  0.00     0.027 C 
ENDBRANCH  14  19
ENDBRANCH  12  14
ENDBRANCH   5   6
ENDBRANCH   3   5
ENDBRANCH   2   3
ENDBRANCH   1   2
BRANCH   1  22
ATOM     22  C   UNL A   1      37.145  21.644  25.242  1.00  0.00     0.275 C 
BRANCH  22  23
ATOM     23  O   UNL A   1      37.661  22.871  25.785  1.00  0.00    -0.458 OA
BRANCH  23  24
ATOM     24  C   UNL A   1      38.948  22.789  26.222  1.00  0.00     0.338 C 
ATOM     25  O   UNL A   1      39.736  21.886  25.989  1.00  0.00    -0.246 OA
BRANCH  24  26
ATOM     26  C   UNL A   1      39.336  24.059  26.874  1.00  0.00     0.060 A 
ATOM     27  C   UNL A   1      40.079  24.979  26.122  1.00  0.00     0.016 A 
ATOM     28  C   UNL A   1      38.949  24.370  28.181  1.00  0.00     0.016 A 
ATOM     29  C   UNL A   1      40.439  26.210  26.676  1.00  0.00     0.010 A 
ATOM     30  C   UNL A   1      39.317  25.603  28.735  1.00  0.00     0.010 A 
ATOM     31  C   UNL A   1      40.073  26.527  27.990  1.00  0.00    -0.014 A 
BRANCH  31  32
ATOM     32  C   UNL A   1      40.541  27.788  28.619  1.00  0.00     0.031 A 
ATOM     33  C   UNL A   1      41.938  27.865  29.170  1.00  0.00     0.074 A 
ATOM     34  C   UNL A   1      39.727  28.857  28.715  1.00  0.00     0.049 A 
ATOM     35  N   UNL A   1      42.532  28.862  29.773  1.00  0.00    -0.248 NA
ATOM     36  C   UNL A   1      42.777  26.666  29.017  1.00  0.00     0.031 C 
ATOM     37  C   UNL A   1      38.360  28.932  28.202  1.00  0.00     0.029 A 
ATOM     38  N   UNL A   1      39.930  30.082  29.302  1.00  0.00    -0.354 N 
ATOM     39  C   UNL A   1      43.814  28.417  30.067  1.00  0.00     0.074 A 
ATOM     40  C   UNL A   1      43.905  27.050  29.601  1.00  0.00     0.031 C 
ATOM     41  C   UNL A   1      37.832  30.124  28.532  1.00  0.00     0.029 A 
ATOM     42  C   UNL A   1      38.819  30.893  29.286  1.00  0.00     0.049 A 
ATOM     43  H   UNL A   1      40.790  30.354  29.696  1.00  0.00     0.167 HD
ATOM     44  C   UNL A   1      44.828  29.088  30.663  1.00  0.00     0.031 A 
ATOM     45  C   UNL A   1      38.613  32.108  29.833  1.00  0.00     0.031 A 
ATOM     46  C   UNL A   1      44.744  30.441  31.141  1.00  0.00     0.049 A 
ATOM     47  C   UNL A   1      39.732  32.793  30.578  1.00  0.00     0.074 A 
ATOM     48  C   UNL A   1      45.746  31.216  31.700  1.00  0.00     0.029 A 
ATOM     49  N   UNL A   1      43.596  31.214  31.138  1.00  0.00    -0.354 N 
ATOM     50  N   UNL A   1      40.966  32.393  30.763  1.00  0.00    -0.248 NA
ATOM     51  C   UNL A   1      39.427  34.101  31.181  1.00  0.00     0.031 C 
ATOM     52  C   UNL A   1      45.187  32.436  32.092  1.00  0.00     0.029 A 
ATOM     53  C   UNL A   1      43.850  32.439  31.730  1.00  0.00     0.049 A 
ATOM     54  H   UNL A   1      42.727  30.933  30.770  1.00  0.00     0.167 HD
ATOM     55  C   UNL A   1      41.590  33.408  31.483  1.00  0.00     0.074 A 
ATOM     56  C   UNL A   1      40.604  34.446  31.687  1.00  0.00     0.031 C 
ATOM     57  C   UNL A   1      42.866  33.470  31.933  1.00  0.00     0.031 A 
BRANCH  44  58
ATOM     58  C   UNL A   1      46.129  28.360  30.850  1.00  0.00    -0.014 A 
ATOM     59  C   UNL A   1      47.140  28.431  29.875  1.00  0.00     0.010 A 
ATOM     60  C   UNL A   1      46.374  27.668  32.049  1.00  0.00     0.010 A 
ATOM     61  C   UNL A   1      48.369  27.805  30.089  1.00  0.00     0.020 A 
ATOM     62  C   UNL A   1      47.610  27.057  32.274  1.00  0.00     0.020 A 
ATOM     63  C   UNL A   1      48.596  27.122  31.289  1.00  0.00     0.054 A 
BRANCH  63  64
ATOM     64  S   UNL A   1      50.220  26.362  31.562  1.00  0.00     0.124 S 
ATOM     65  O   UNL A   1      49.975  24.978  31.163  1.00  0.00    -0.237 OA
ATOM     66  O   UNL A   1      51.087  27.127  30.670  1.00  0.00    -0.237 OA
ATOM     67  O   UNL A   1      50.463  26.565  32.988  1.00  0.00    -0.744 OA
ENDBRANCH  63  64
ENDBRANCH  44  58
BRANCH  45  68
ATOM     68  C   UNL A   1      37.279  32.759  29.738  1.00  0.00    -0.014 A 
ATOM     69  C   UNL A   1      36.979  33.630  28.676  1.00  0.00     0.010 A 
ATOM     70  C   UNL A   1      36.319  32.552  30.746  1.00  0.00     0.010 A 
ATOM     71  C   UNL A   1      35.758  34.312  28.644  1.00  0.00     0.020 A 
ATOM     72  C   UNL A   1      35.088  33.214  30.705  1.00  0.00     0.020 A 
ATOM     73  C   UNL A   1      34.824  34.105  29.663  1.00  0.00     0.054 A 
BRANCH  73  74
ATOM     74  S   UNL A   1      33.245  34.998  29.601  1.00  0.00     0.124 S 
ATOM     75  O   UNL A   1      33.649  36.290  29.056  1.00  0.00    -0.237 OA
ATOM     76  O   UNL A   1      32.442  34.161  28.713  1.00  0.00    -0.237 OA
ATOM     77  O   UNL A   1      32.806  35.014  30.994  1.00  0.00    -0.744 OA
ENDBRANCH  73  74
ENDBRANCH  45  68
BRANCH  57  78
ATOM     78  C   UNL A   1      43.288  34.709  32.679  1.00  0.00    -0.014 A 
ATOM     79  C   UNL A   1      43.640  35.882  31.989  1.00  0.00     0.010 A 
ATOM     80  C   UNL A   1      43.262  34.723  34.085  1.00  0.00     0.010 A 
ATOM     81  C   UNL A   1      43.977  37.043  32.693  1.00  0.00     0.020 A 
ATOM     82  C   UNL A   1      43.574  35.887  34.792  1.00  0.00     0.020 A 
ATOM     83  C   UNL A   1      43.940  37.038  34.091  1.00  0.00     0.054 A 
BRANCH  83  84
ATOM     84  S   UNL A   1      44.319  38.573  34.983  1.00  0.00     0.124 S 
ATOM     85  O   UNL A   1      43.808  38.283  36.320  1.00  0.00    -0.237 OA
ATOM     86  O   UNL A   1      45.773  38.659  34.872  1.00  0.00    -0.237 OA
ATOM     87  O   UNL A   1      43.582  39.594  34.242  1.00  0.00    -0.744 OA
ENDBRANCH  83  84
ENDBRANCH  57  78
ENDBRANCH  31  32
ENDBRANCH  24  26
ENDBRANCH  23  24
ENDBRANCH  22  23
ENDBRANCH   1  22
TORSDOF 19
ENDMDL
MODEL 2
REMARK VINA RESULT:      -9.6      4.003     10.298
REMARK SMILES O=C(CC1CCN(C(=O)N(CC2CC2)C2CC2)CC1)OCCOC(=O)c1ccc(-c2c3nc(c(-c4ccc(S(=O)(=O)[O-])cc4)c4ccc([nH]4)c(-c4ccc(S(=O)(=O)[O-])cc4)c4nc(c(-c5ccc(S(=O)(=O)[O-])cc5)c5ccc2[nH]5)C=C4)C=C3)cc1
REMARK SMILES IDX 21 1 20 2 2 3 1 4 3 5 4 6 5 7 19 8 6 9 18 10 7 11 8 12 9 13
REMARK SMILES IDX 10 14 11 15 12 16 13 17 14 18 15 19 16 20 17 21 22 22 23 23
REMARK SMILES IDX 24 24 25 25 26 26 27 27 85 28 28 29 84 30 29 31 30 32 31 33
REMARK SMILES IDX 78 34 32 35 83 36 77 37 79 38 33 39 82 40 76 41 75 42 34 44
REMARK SMILES IDX 64 45 45 46 63 47 46 48 49 49 62 50 80 51 47 52 48 53 61 55
REMARK SMILES IDX 81 56 50 57 35 58 36 59 44 60 37 61 43 62 38 63 39 64 40 65
REMARK SMILES IDX 41 66 42 67 65 68 66 69 74 70 67 71 73 72 68 73 69 74 70 75
REMARK SMILES IDX 71 76 72 77 51 78 52 79 60 80 53 81 59 82 54 83 55 84 56 85
REMARK SMILES IDX 57 86 58 87
REMARK H PARENT 79 43 49 54
REMARK Flexibility Score: inf
ROOT
ATOM      1  C   UNL A   1      34.679  30.271  27.494  1.00  0.00     0.274 C 
ENDROOT
BRANCH   1   2
ATOM      2  O   UNL A   1      33.488  30.295  26.698  1.00  0.00    -0.462 OA
BRANCH   2   3
ATOM      3  C   UNL A   1      32.642  29.261  26.951  1.00  0.00     0.306 C 
ATOM      4  O   UNL A   1      31.458  29.420  27.207  1.00  0.00    -0.252 OA
BRANCH   3   5
ATOM      5  C   UNL A   1      33.349  27.920  26.941  1.00  0.00     0.126 C 
BRANCH   5   6
ATOM      6  C   UNL A   1      33.401  27.272  25.544  1.00  0.00     0.003 C 
ATOM      7  C   UNL A   1      31.985  27.149  24.931  1.00  0.00     0.026 C 
ATOM      8  C   UNL A   1      34.072  25.878  25.549  1.00  0.00     0.026 C 
ATOM      9  C   UNL A   1      31.181  25.964  25.487  1.00  0.00     0.121 C 
ATOM     10  C   UNL A   1      33.171  24.825  26.194  1.00  0.00     0.121 C 
ATOM     11  N   UNL A   1      31.968  24.722  25.393  1.00  0.00    -0.325 N 
ATOM     12  C   UNL A   1      31.557  23.782  24.464  1.00  0.00     0.320 C 
ATOM     13  O   UNL A   1      30.521  24.023  23.832  1.00  0.00    -0.248 OA
BRANCH  12  14
ATOM     14  N   UNL A   1      32.246  22.601  24.211  1.00  0.00    -0.321 N 
BRANCH  14  15
ATOM     15  C   UNL A   1      32.152  21.299  24.892  1.00  0.00     0.125 C 
BRANCH  15  16
ATOM     16  C   UNL A   1      32.733  20.181  24.070  1.00  0.00     0.009 C 
ATOM     17  C   UNL A   1      33.805  19.284  24.639  1.00  0.00     0.006 C 
ATOM     18  C   UNL A   1      32.451  18.717  24.311  1.00  0.00     0.006 C 
ENDBRANCH  15  16
ENDBRANCH  14  15
BRANCH  14  19
ATOM     19  C   UNL A   1      33.398  22.634  23.293  1.00  0.00     0.087 C 
ATOM     20  C   UNL A   1      33.171  23.042  21.854  1.00  0.00     0.027 C 
ATOM     21  C   UNL A   1      34.100  23.835  22.714  1.00  0.00     0.027 C 
ENDBRANCH  14  19
ENDBRANCH  12  14
ENDBRANCH   5   6
ENDBRANCH   3   5
ENDBRANCH   2   3
ENDBRANCH   1   2
BRANCH   1  22
ATOM     22  C   UNL A   1      34.737  31.460  28.463  1.00  0.00     0.275 C 
BRANCH  22  23
ATOM     23  O   UNL A   1      36.081  31.746  28.885  1.00  0.00    -0.458 OA
BRANCH  23  24
ATOM     24  C   UNL A   1      36.514  30.979  29.924  1.00  0.00     0.338 C 
ATOM     25  O   UNL A   1      35.837  30.571  30.854  1.00  0.00    -0.246 OA
BRANCH  24  26
ATOM     26  C   UNL A   1      37.902  30.535  29.672  1.00  0.00     0.060 A 
ATOM     27  C   UNL A   1      38.242  30.167  28.362  1.00  0.00     0.016 A 
ATOM     28  C   UNL A   1      38.869  30.514  30.680  1.00  0.00     0.016 A 
ATOM     29  C   UNL A   1      39.550  29.777  28.060  1.00  0.00     0.010 A 
ATOM     30  C   UNL A   1      40.177  30.116  30.375  1.00  0.00     0.010 A 
ATOM     31  C   UNL A   1      40.524  29.735  29.066  1.00  0.00    -0.014 A 
BRANCH  31  32
ATOM     32  C   UNL A   1      41.887  29.222  28.773  1.00  0.00     0.031 A 
ATOM     33  C   UNL A   1      43.049  30.175  28.767  1.00  0.00     0.074 A 
ATOM     34  C   UNL A   1      42.090  27.919  28.499  1.00  0.00     0.049 A 
ATOM     35  N   UNL A   1      44.310  29.934  28.516  1.00  0.00    -0.248 NA
ATOM     36  C   UNL A   1      42.756  31.580  29.088  1.00  0.00     0.031 C 
ATOM     37  C   UNL A   1      41.062  26.880  28.498  1.00  0.00     0.029 A 
ATOM     38  N   UNL A   1      43.239  27.251  28.149  1.00  0.00    -0.354 N 
ATOM     39  C   UNL A   1      44.964  31.151  28.655  1.00  0.00     0.074 A 
ATOM     40  C   UNL A   1      43.955  32.137  28.985  1.00  0.00     0.031 C 
ATOM     41  C   UNL A   1      41.616  25.714  28.121  1.00  0.00     0.029 A 
ATOM     42  C   UNL A   1      43.036  25.925  27.848  1.00  0.00     0.049 A 
ATOM     43  H   UNL A   1      44.123  27.682  28.115  1.00  0.00     0.167 HD
ATOM     44  C   UNL A   1      46.283  31.424  28.530  1.00  0.00     0.031 A 
ATOM     45  C   UNL A   1      43.891  24.990  27.387  1.00  0.00     0.031 A 
ATOM     46  C   UNL A   1      47.290  30.456  28.190  1.00  0.00     0.049 A 
ATOM     47  C   UNL A   1      45.339  25.346  27.161  1.00  0.00     0.074 A 
ATOM     48  C   UNL A   1      48.660  30.638  28.104  1.00  0.00     0.029 A 
ATOM     49  N   UNL A   1      47.041  29.135  27.860  1.00  0.00    -0.354 N 
ATOM     50  N   UNL A   1      45.955  26.481  27.389  1.00  0.00    -0.248 NA
ATOM     51  C   UNL A   1      46.209  24.289  26.622  1.00  0.00     0.031 C 
ATOM     52  C   UNL A   1      49.233  29.441  27.661  1.00  0.00     0.029 A 
ATOM     53  C   UNL A   1      48.225  28.502  27.522  1.00  0.00     0.049 A 
ATOM     54  H   UNL A   1      46.153  28.709  27.864  1.00  0.00     0.167 HD
ATOM     55  C   UNL A   1      47.286  26.266  27.043  1.00  0.00     0.074 A 
ATOM     56  C   UNL A   1      47.391  24.891  26.605  1.00  0.00     0.031 C 
ATOM     57  C   UNL A   1      48.326  27.134  27.085  1.00  0.00     0.031 A 
BRANCH  44  58
ATOM     58  C   UNL A   1      46.725  32.844  28.747  1.00  0.00    -0.014 A 
ATOM     59  C   UNL A   1      46.765  33.757  27.679  1.00  0.00     0.010 A 
ATOM     60  C   UNL A   1      47.021  33.289  30.048  1.00  0.00     0.010 A 
ATOM     61  C   UNL A   1      47.112  35.090  27.905  1.00  0.00     0.020 A 
ATOM     62  C   UNL A   1      47.352  34.627  30.280  1.00  0.00     0.020 A 
ATOM     63  C   UNL A   1      47.403  35.516  29.206  1.00  0.00     0.054 A 
BRANCH  63  64
ATOM     64  S   UNL A   1      47.803  37.264  29.478  1.00  0.00     0.124 S 
ATOM     65  O   UNL A   1      46.548  37.778  30.021  1.00  0.00    -0.237 OA
ATOM     66  O   UNL A   1      48.914  37.197  30.423  1.00  0.00    -0.237 OA
ATOM     67  O   UNL A   1      48.150  37.752  28.145  1.00  0.00    -0.744 OA
ENDBRANCH  63  64
ENDBRANCH  44  58
BRANCH  45  68
ATOM     68  C   UNL A   1      43.407  23.620  27.064  1.00  0.00    -0.014 A 
ATOM     69  C   UNL A   1      43.126  22.698  28.088  1.00  0.00     0.010 A 
ATOM     70  C   UNL A   1      43.278  23.214  25.723  1.00  0.00     0.010 A 
ATOM     71  C   UNL A   1      42.761  21.384  27.776  1.00  0.00     0.020 A 
ATOM     72  C   UNL A   1      42.892  21.909  25.408  1.00  0.00     0.020 A 
ATOM     73  C   UNL A   1      42.655  20.996  26.438  1.00  0.00     0.054 A 
BRANCH  73  74
ATOM     74  S   UNL A   1      42.180  19.287  26.055  1.00  0.00     0.124 S 
ATOM     75  O   UNL A   1      40.735  19.403  25.897  1.00  0.00    -0.237 OA
ATOM     76  O   UNL A   1      42.931  19.015  24.831  1.00  0.00    -0.237 OA
ATOM     77  O   UNL A   1      42.625  18.538  27.227  1.00  0.00    -0.744 OA
ENDBRANCH  73  74
ENDBRANCH  45  68
BRANCH  57  78
ATOM     78  C   UNL A   1      49.680  26.627  26.666  1.00  0.00    -0.014 A 
ATOM     79  C   UNL A   1      50.502  25.928  27.568  1.00  0.00     0.010 A 
ATOM     80  C   UNL A   1      50.106  26.787  25.334  1.00  0.00     0.010 A 
ATOM     81  C   UNL A   1      51.733  25.414  27.151  1.00  0.00     0.020 A 
ATOM     82  C   UNL A   1      51.326  26.254  24.908  1.00  0.00     0.020 A 
ATOM     83  C   UNL A   1      52.137  25.579  25.822  1.00  0.00     0.054 A 
BRANCH  83  84
ATOM     84  S   UNL A   1      53.711  24.849  25.288  1.00  0.00     0.124 S 
ATOM     85  O   UNL A   1      54.576  25.119  26.432  1.00  0.00    -0.237 OA
ATOM     86  O   UNL A   1      53.361  23.445  25.082  1.00  0.00    -0.237 OA
ATOM     87  O   UNL A   1      54.038  25.587  24.070  1.00  0.00    -0.744 OA
ENDBRANCH  83  84
ENDBRANCH  57  78
ENDBRANCH  31  32
ENDBRANCH  24  26
ENDBRANCH  23  24
ENDBRANCH  22  23
ENDBRANCH   1  22
TORSDOF 19
ENDMDL
MODEL 3
REMARK VINA RESULT:      -9.6      3.541      4.562
REMARK SMILES O=C(CC1CCN(C(=O)N(CC2CC2)C2CC2)CC1)OCCOC(=O)c1ccc(-c2c3nc(c(-c4ccc(S(=O)(=O)[O-])cc4)c4ccc([nH]4)c(-c4ccc(S(=O)(=O)[O-])cc4)c4nc(c(-c5ccc(S(=O)(=O)[O-])cc5)c5ccc2[nH]5)C=C4)C=C3)cc1
REMARK SMILES IDX 21 1 20 2 2 3 1 4 3 5 4 6 5 7 19 8 6 9 18 10 7 11 8 12 9 13
REMARK SMILES IDX 10 14 11 15 12 16 13 17 14 18 15 19 16 20 17 21 22 22 23 23
REMARK SMILES IDX 24 24 25 25 26 26 27 27 85 28 28 29 84 30 29 31 30 32 31 33
REMARK SMILES IDX 78 34 32 35 83 36 77 37 79 38 33 39 82 40 76 41 75 42 34 44
REMARK SMILES IDX 64 45 45 46 63 47 46 48 49 49 62 50 80 51 47 52 48 53 61 55
REMARK SMILES IDX 81 56 50 57 35 58 36 59 44 60 37 61 43 62 38 63 39 64 40 65
REMARK SMILES IDX 41 66 42 67 65 68 66 69 74 70 67 71 73 72 68 73 69 74 70 75
REMARK SMILES IDX 71 76 72 77 51 78 52 79 60 80 53 81 59 82 54 83 55 84 56 85
REMARK SMILES IDX 57 86 58 87
REMARK H PARENT 79 43 49 54
REMARK Flexibility Score: inf
ROOT
ATOM      1  C   UNL A   1      39.651  21.402  26.283  1.00  0.00     0.274 C 
ENDROOT
BRANCH   1   2
ATOM      2  O   UNL A   1      38.441  22.078  25.922  1.00  0.00    -0.462 OA
BRANCH   2   3
ATOM      3  C   UNL A   1      37.694  21.407  25.006  1.00  0.00     0.306 C 
ATOM      4  O   UNL A   1      37.708  20.189  24.903  1.00  0.00    -0.252 OA
BRANCH   3   5
ATOM      5  C   UNL A   1      36.909  22.339  24.105  1.00  0.00     0.126 C 
BRANCH   5   6
ATOM      6  C   UNL A   1      35.387  22.263  24.329  1.00  0.00     0.003 C 
ATOM      7  C   UNL A   1      34.616  22.944  23.173  1.00  0.00     0.026 C 
ATOM      8  C   UNL A   1      34.941  22.889  25.671  1.00  0.00     0.026 C 
ATOM      9  C   UNL A   1      34.588  24.477  23.279  1.00  0.00     0.121 C 
ATOM     10  C   UNL A   1      35.034  24.414  25.636  1.00  0.00     0.121 C 
ATOM     11  N   UNL A   1      34.122  24.888  24.615  1.00  0.00    -0.325 N 
ATOM     12  C   UNL A   1      32.866  25.466  24.696  1.00  0.00     0.320 C 
ATOM     13  O   UNL A   1      32.258  25.655  23.636  1.00  0.00    -0.248 OA
BRANCH  12  14
ATOM     14  N   UNL A   1      32.266  25.831  25.897  1.00  0.00    -0.321 N 
BRANCH  14  15
ATOM     15  C   UNL A   1      31.215  25.142  26.663  1.00  0.00     0.125 C 
BRANCH  15  16
ATOM     16  C   UNL A   1      31.360  23.645  26.611  1.00  0.00     0.009 C 
ATOM     17  C   UNL A   1      30.166  22.748  26.835  1.00  0.00     0.006 C 
ATOM     18  C   UNL A   1      30.835  22.782  25.488  1.00  0.00     0.006 C 
ENDBRANCH  15  16
ENDBRANCH  14  15
BRANCH  14  19
ATOM     19  C   UNL A   1      32.506  27.184  26.427  1.00  0.00     0.087 C 
ATOM     20  C   UNL A   1      33.716  27.953  25.942  1.00  0.00     0.027 C 
ATOM     21  C   UNL A   1      32.347  28.507  25.726  1.00  0.00     0.027 C 
ENDBRANCH  14  19
ENDBRANCH  12  14
ENDBRANCH   5   6
ENDBRANCH   3   5
ENDBRANCH   2   3
ENDBRANCH   1   2
BRANCH   1  22
ATOM     22  C   UNL A   1      40.857  22.352  26.270  1.00  0.00     0.275 C 
BRANCH  22  23
ATOM     23  O   UNL A   1      40.476  23.710  26.552  1.00  0.00    -0.458 OA
BRANCH  23  24
ATOM     24  C   UNL A   1      41.496  24.607  26.448  1.00  0.00     0.338 C 
ATOM     25  O   UNL A   1      42.297  24.690  25.531  1.00  0.00    -0.246 OA
BRANCH  24  26
ATOM     26  C   UNL A   1      41.386  25.614  27.526  1.00  0.00     0.060 A 
ATOM     27  C   UNL A   1      40.239  25.587  28.331  1.00  0.00     0.016 A 
ATOM     28  C   UNL A   1      42.400  26.543  27.779  1.00  0.00     0.016 A 
ATOM     29  C   UNL A   1      40.101  26.491  29.388  1.00  0.00     0.010 A 
ATOM     30  C   UNL A   1      42.256  27.451  28.836  1.00  0.00     0.010 A 
ATOM     31  C   UNL A   1      41.101  27.438  29.641  1.00  0.00    -0.014 A 
BRANCH  31  32
ATOM     32  C   UNL A   1      40.914  28.467  30.695  1.00  0.00     0.031 A 
ATOM     33  C   UNL A   1      41.722  28.383  31.960  1.00  0.00     0.074 A 
ATOM     34  C   UNL A   1      40.021  29.463  30.538  1.00  0.00     0.049 A 
ATOM     35  N   UNL A   1      41.695  29.166  33.008  1.00  0.00    -0.248 NA
ATOM     36  C   UNL A   1      42.688  27.278  32.058  1.00  0.00     0.031 C 
ATOM     37  C   UNL A   1      39.192  29.682  29.355  1.00  0.00     0.029 A 
ATOM     38  N   UNL A   1      39.650  30.470  31.396  1.00  0.00    -0.354 N 
ATOM     39  C   UNL A   1      42.642  28.657  33.887  1.00  0.00     0.074 A 
ATOM     40  C   UNL A   1      43.208  27.479  33.262  1.00  0.00     0.031 C 
ATOM     41  C   UNL A   1      38.378  30.730  29.576  1.00  0.00     0.029 A 
ATOM     42  C   UNL A   1      38.623  31.251  30.919  1.00  0.00     0.049 A 
ATOM     43  H   UNL A   1      40.078  30.618  32.270  1.00  0.00     0.167 HD
ATOM     44  C   UNL A   1      43.015  29.129  35.099  1.00  0.00     0.031 A 
ATOM     45  C   UNL A   1      37.945  32.259  31.503  1.00  0.00     0.031 A 
ATOM     46  C   UNL A   1      42.450  30.290  35.733  1.00  0.00     0.049 A 
ATOM     47  C   UNL A   1      38.315  32.703  32.896  1.00  0.00     0.074 A 
ATOM     48  C   UNL A   1      42.816  30.872  36.935  1.00  0.00     0.029 A 
ATOM     49  N   UNL A   1      41.392  31.031  35.235  1.00  0.00    -0.354 N 
ATOM     50  N   UNL A   1      39.278  32.267  33.672  1.00  0.00    -0.248 NA
ATOM     51  C   UNL A   1      37.510  33.784  33.487  1.00  0.00     0.031 C 
ATOM     52  C   UNL A   1      41.938  31.930  37.192  1.00  0.00     0.029 A 
ATOM     53  C   UNL A   1      41.059  32.035  36.127  1.00  0.00     0.049 A 
ATOM     54  H   UNL A   1      40.943  30.866  34.374  1.00  0.00     0.167 HD
ATOM     55  C   UNL A   1      39.206  33.034  34.831  1.00  0.00     0.074 A 
ATOM     56  C   UNL A   1      38.119  33.971  34.650  1.00  0.00     0.031 C 
ATOM     57  C   UNL A   1      39.975  32.966  35.945  1.00  0.00     0.031 A 
BRANCH  44  58
ATOM     58  C   UNL A   1      44.085  28.379  35.840  1.00  0.00    -0.014 A 
ATOM     59  C   UNL A   1      45.432  28.768  35.747  1.00  0.00     0.010 A 
ATOM     60  C   UNL A   1      43.728  27.327  36.702  1.00  0.00     0.010 A 
ATOM     61  C   UNL A   1      46.409  28.105  36.492  1.00  0.00     0.020 A 
ATOM     62  C   UNL A   1      44.700  26.673  37.462  1.00  0.00     0.020 A 
ATOM     63  C   UNL A   1      46.036  27.061  37.346  1.00  0.00     0.054 A 
BRANCH  63  64
ATOM     64  S   UNL A   1      47.319  26.251  38.340  1.00  0.00     0.124 S 
ATOM     65  O   UNL A   1      47.500  24.990  37.625  1.00  0.00    -0.237 OA
ATOM     66  O   UNL A   1      48.434  27.189  38.250  1.00  0.00    -0.237 OA
ATOM     67  O   UNL A   1      46.710  26.135  39.663  1.00  0.00    -0.744 OA
ENDBRANCH  63  64
ENDBRANCH  44  58
BRANCH  45  68
ATOM     68  C   UNL A   1      36.808  32.910  30.796  1.00  0.00    -0.014 A 
ATOM     69  C   UNL A   1      37.036  33.944  29.870  1.00  0.00     0.010 A 
ATOM     70  C   UNL A   1      35.485  32.534  31.090  1.00  0.00     0.010 A 
ATOM     71  C   UNL A   1      35.960  34.615  29.280  1.00  0.00     0.020 A 
ATOM     72  C   UNL A   1      34.408  33.187  30.485  1.00  0.00     0.020 A 
ATOM     73  C   UNL A   1      34.653  34.237  29.598  1.00  0.00     0.054 A 
BRANCH  73  74
ATOM     74  S   UNL A   1      33.271  35.120  28.820  1.00  0.00     0.124 S 
ATOM     75  O   UNL A   1      32.657  34.071  28.014  1.00  0.00    -0.237 OA
ATOM     76  O   UNL A   1      32.492  35.569  29.973  1.00  0.00    -0.237 OA
ATOM     77  O   UNL A   1      33.926  36.187  28.069  1.00  0.00    -0.744 OA
ENDBRANCH  73  74
ENDBRANCH  45  68
BRANCH  57  78
ATOM     78  C   UNL A   1      39.689  33.939  37.057  1.00  0.00    -0.014 A 
ATOM     79  C   UNL A   1      38.948  33.549  38.186  1.00  0.00     0.010 A 
ATOM     80  C   UNL A   1      40.228  35.238  37.007  1.00  0.00     0.010 A 
ATOM     81  C   UNL A   1      38.735  34.445  39.238  1.00  0.00     0.020 A 
ATOM     82  C   UNL A   1      40.038  36.129  38.067  1.00  0.00     0.020 A 
ATOM     83  C   UNL A   1      39.283  35.730  39.172  1.00  0.00     0.054 A 
BRANCH  83  84
ATOM     84  S   UNL A   1      39.048  36.856  40.577  1.00  0.00     0.124 S 
ATOM     85  O   UNL A   1      38.295  36.024  41.511  1.00  0.00    -0.237 OA
ATOM     86  O   UNL A   1      40.420  37.164  40.976  1.00  0.00    -0.237 OA
ATOM     87  O   UNL A   1      38.307  37.975  40.002  1.00  0.00    -0.744 OA
ENDBRANCH  83  84
ENDBRANCH  57  78
ENDBRANCH  31  32
ENDBRANCH  24  26
ENDBRANCH  23  24
ENDBRANCH  22  23
ENDBRANCH   1  22
TORSDOF 19
ENDMDL
