MODEL 1
REMARK VINA RESULT:     -11.4      0.000      0.000
REMARK SMILES O=C(OCCOC(=O)c1ccccc1/C=N\NC(=S)NCc1ccccc1)c1ccc(-c2c3nc(c(-c4ccc(S(=O)(=O)[O-])cc4)c4ccc([nH]4)c(-c4ccc(S(=O)(=O)[O-])cc4)c4nc(c(-c5ccc(S(=O)(=O)[O-])cc5)c5ccc2[nH]5)C=C4)C=C3)cc1
REMARK SMILES IDX 6 1 5 2 4 3 3 4 2 5 1 6 28 7 29 8 87 9 30 10 86 11 31 12
REMARK SMILES IDX 32 13 33 14 80 15 34 16 85 17 79 18 81 19 35 20 84 21 78 22
REMARK SMILES IDX 77 23 36 25 66 26 47 27 65 28 48 29 51 30 64 31 82 32 49 33
REMARK SMILES IDX 50 34 63 36 83 37 52 38 37 39 38 40 46 41 39 42 45 43 40 44
REMARK SMILES IDX 41 45 42 46 43 47 44 48 67 49 68 50 76 51 69 52 75 53 70 54
REMARK SMILES IDX 71 55 72 56 73 57 74 58 53 59 54 60 62 61 55 62 61 63 56 64
REMARK SMILES IDX 57 65 58 66 59 67 60 68 7 69 8 70 9 71 10 72 14 73 11 74
REMARK SMILES IDX 13 75 12 76 15 77 16 78 17 79 18 81 19 82 20 83 21 85 22 86
REMARK SMILES IDX 23 87 27 88 24 89 26 90 25 91
REMARK H PARENT 81 24 51 35 17 80 20 84
REMARK Flexibility Score: inf
ROOT
ATOM      1  O   UNL A   1      36.693  22.364  25.027  1.00  0.00    -0.458 OA
ENDROOT
BRANCH   1   2
ATOM      2  C   UNL A   1      37.979  22.167  25.660  1.00  0.00     0.275 C 
BRANCH   2   3
ATOM      3  C   UNL A   1      38.532  23.432  26.347  1.00  0.00     0.275 C 
BRANCH   3   4
ATOM      4  O   UNL A   1      39.952  23.344  26.552  1.00  0.00    -0.458 OA
BRANCH   4   5
ATOM      5  C   UNL A   1      40.879  24.323  26.641  1.00  0.00     0.338 C 
ATOM      6  O   UNL A   1      41.995  24.134  26.161  1.00  0.00    -0.246 OA
BRANCH   5   7
ATOM      7  C   UNL A   1      40.649  25.646  27.294  1.00  0.00     0.060 A 
ATOM      8  C   UNL A   1      39.926  25.830  28.912  1.00  0.00     0.016 A 
ATOM      9  C   UNL A   1      41.178  27.034  26.337  1.00  0.00     0.016 A 
ATOM     10  C   UNL A   1      39.624  27.364  29.686  1.00  0.00     0.010 A 
ATOM     11  C   UNL A   1      40.936  28.697  27.014  1.00  0.00     0.010 A 
ATOM     12  C   UNL A   1      40.123  28.887  28.869  1.00  0.00    -0.014 A 
BRANCH  12  13
ATOM     13  C   UNL A   1      40.150  29.885  30.215  1.00  0.00     0.031 A 
ATOM     14  C   UNL A   1      41.294  29.795  31.159  1.00  0.00     0.074 A 
ATOM     15  C   UNL A   1      39.331  30.946  30.520  1.00  0.00     0.049 A 
ATOM     16  N   UNL A   1      41.319  29.887  32.458  1.00  0.00    -0.248 NA
ATOM     17  C   UNL A   1      42.584  29.521  30.529  1.00  0.00     0.031 C 
ATOM     18  C   UNL A   1      38.425  31.695  29.648  1.00  0.00     0.029 A 
ATOM     19  N   UNL A   1      39.117  31.595  31.736  1.00  0.00    -0.354 N 
ATOM     20  C   UNL A   1      42.597  29.482  32.800  1.00  0.00     0.074 A 
ATOM     21  C   UNL A   1      43.248  29.063  31.577  1.00  0.00     0.031 C 
ATOM     22  C   UNL A   1      37.668  32.555  30.348  1.00  0.00     0.029 A 
ATOM     23  C   UNL A   1      38.007  32.432  31.742  1.00  0.00     0.049 A 
ATOM     24  H   UNL A   1      39.699  31.470  32.520  1.00  0.00     0.167 HD
ATOM     25  C   UNL A   1      43.209  29.535  34.002  1.00  0.00     0.031 A 
ATOM     26  C   UNL A   1      37.308  33.025  32.733  1.00  0.00     0.031 A 
ATOM     27  C   UNL A   1      42.691  30.275  35.117  1.00  0.00     0.049 A 
ATOM     28  C   UNL A   1      37.915  33.011  34.102  1.00  0.00     0.074 A 
ATOM     29  C   UNL A   1      43.290  30.507  36.340  1.00  0.00     0.029 A 
ATOM     30  N   UNL A   1      41.515  31.011  35.095  1.00  0.00    -0.354 N 
ATOM     31  N   UNL A   1      39.020  32.423  34.489  1.00  0.00    -0.248 NA
ATOM     32  C   UNL A   1      37.256  33.819  35.135  1.00  0.00     0.031 C 
ATOM     33  C   UNL A   1      42.476  31.387  37.061  1.00  0.00     0.029 A 
ATOM     34  C   UNL A   1      41.383  31.720  36.275  1.00  0.00     0.049 A 
ATOM     35  H   UNL A   1      40.870  31.026  34.351  1.00  0.00     0.167 HD
ATOM     36  C   UNL A   1      39.249  32.881  35.776  1.00  0.00     0.074 A 
ATOM     37  C   UNL A   1      38.150  33.763  36.113  1.00  0.00     0.031 C 
ATOM     38  C   UNL A   1      40.302  32.620  36.585  1.00  0.00     0.031 A 
BRANCH  25  39
ATOM     39  C   UNL A   1      44.516  28.810  34.125  1.00  0.00    -0.014 A 
ATOM     40  C   UNL A   1      45.736  29.415  33.774  1.00  0.00     0.010 A 
ATOM     41  C   UNL A   1      44.510  27.465  34.539  1.00  0.00     0.010 A 
ATOM     42  C   UNL A   1      46.907  28.662  33.726  1.00  0.00     0.020 A 
ATOM     43  C   UNL A   1      45.693  26.726  34.555  1.00  0.00     0.020 A 
ATOM     44  C   UNL A   1      46.878  27.322  34.116  1.00  0.00     0.054 A 
BRANCH  44  45
ATOM     45  S   UNL A   1      48.422  26.379  34.070  1.00  0.00     0.124 S 
ATOM     46  O   UNL A   1      48.197  25.491  32.933  1.00  0.00    -0.237 OA
ATOM     47  O   UNL A   1      49.424  27.422  33.862  1.00  0.00    -0.237 OA
ATOM     48  O   UNL A   1      48.467  25.726  35.375  1.00  0.00    -0.744 OA
ENDBRANCH  44  45
ENDBRANCH  25  39
BRANCH  26  49
ATOM     49  C   UNL A   1      35.994  33.716  32.499  1.00  0.00    -0.014 A 
ATOM     50  C   UNL A   1      35.935  35.029  31.992  1.00  0.00     0.010 A 
ATOM     51  C   UNL A   1      34.787  33.101  32.892  1.00  0.00     0.010 A 
ATOM     52  C   UNL A   1      34.717  35.724  31.932  1.00  0.00     0.020 A 
ATOM     53  C   UNL A   1      33.564  33.787  32.816  1.00  0.00     0.020 A 
ATOM     54  C   UNL A   1      33.539  35.103  32.354  1.00  0.00     0.054 A 
BRANCH  54  55
ATOM     55  S   UNL A   1      31.983  36.044  32.295  1.00  0.00     0.124 S 
ATOM     56  O   UNL A   1      32.234  37.114  33.255  1.00  0.00    -0.237 OA
ATOM     57  O   UNL A   1      31.917  36.457  30.896  1.00  0.00    -0.237 OA
ATOM     58  O   UNL A   1      30.974  35.067  32.700  1.00  0.00    -0.744 OA
ENDBRANCH  54  55
ENDBRANCH  26  49
BRANCH  38  59
ATOM     59  C   UNL A   1      40.365  33.363  37.886  1.00  0.00    -0.014 A 
ATOM     60  C   UNL A   1      41.063  34.576  37.997  1.00  0.00     0.010 A 
ATOM     61  C   UNL A   1      39.661  32.862  38.996  1.00  0.00     0.010 A 
ATOM     62  C   UNL A   1      41.068  35.271  39.206  1.00  0.00     0.020 A 
ATOM     63  C   UNL A   1      39.636  33.572  40.197  1.00  0.00     0.020 A 
ATOM     64  C   UNL A   1      40.347  34.769  40.295  1.00  0.00     0.054 A 
BRANCH  64  65
ATOM     65  S   UNL A   1      40.308  35.735  41.826  1.00  0.00     0.124 S 
ATOM     66  O   UNL A   1      39.032  36.436  41.710  1.00  0.00    -0.237 OA
ATOM     67  O   UNL A   1      40.366  34.700  42.855  1.00  0.00    -0.237 OA
ATOM     68  O   UNL A   1      41.495  36.581  41.733  1.00  0.00    -0.744 OA
ENDBRANCH  64  65
ENDBRANCH  38  59
ENDBRANCH  12  13
ENDBRANCH   5   7
ENDBRANCH   4   5
ENDBRANCH   3   4
ENDBRANCH   2   3
ENDBRANCH   1   2
BRANCH   1  69
ATOM     69  C   UNL A   1      35.596  21.897  25.683  1.00  0.00     0.338 C 
ATOM     70  O   UNL A   1      35.147  22.297  26.739  1.00  0.00    -0.246 OA
BRANCH  69  71
ATOM     71  C   UNL A   1      34.847  21.085  24.712  1.00  0.00     0.068 A 
ATOM     72  C   UNL A   1      35.157  19.300  24.809  1.00  0.00     0.016 A 
ATOM     73  C   UNL A   1      33.322  21.684  23.954  1.00  0.00     0.009 A 
ATOM     74  C   UNL A   1      33.969  18.129  24.131  1.00  0.00     0.001 A 
ATOM     75  C   UNL A   1      32.138  20.493  23.190  1.00  0.00     0.010 A 
ATOM     76  C   UNL A   1      32.519  18.731  23.248  1.00  0.00     0.001 A 
BRANCH  73  77
ATOM     77  C   UNL A   1      33.323  22.967  23.345  1.00  0.00     0.142 C 
ATOM     78  N   UNL A   1      33.039  23.960  24.105  1.00  0.00    -0.181 NA
BRANCH  78  79
ATOM     79  N   UNL A   1      32.621  23.683  25.395  1.00  0.00    -0.254 N 
ATOM     80  H   UNL A   1      33.189  23.025  25.858  1.00  0.00     0.193 HD
BRANCH  79  81
ATOM     81  C   UNL A   1      31.574  24.138  26.162  1.00  0.00     0.187 C 
ATOM     82  S   UNL A   1      30.425  22.980  26.601  1.00  0.00    -0.039 S 
BRANCH  81  83
ATOM     83  N   UNL A   1      31.302  25.485  26.586  1.00  0.00    -0.357 N 
ATOM     84  H   UNL A   1      30.542  25.408  27.206  1.00  0.00     0.163 HD
BRANCH  83  85
ATOM     85  C   UNL A   1      31.744  27.532  26.522  1.00  0.00     0.151 C 
BRANCH  85  86
ATOM     86  C   UNL A   1      32.902  28.828  27.034  1.00  0.00    -0.029 A 
ATOM     87  C   UNL A   1      32.122  30.492  27.106  1.00  0.00     0.005 A 
ATOM     88  C   UNL A   1      34.915  28.865  27.332  1.00  0.00     0.005 A 
ATOM     89  C   UNL A   1      33.116  31.916  27.444  1.00  0.00     0.000 A 
ATOM     90  C   UNL A   1      35.763  30.395  27.664  1.00  0.00     0.000 A 
ATOM     91  C   UNL A   1      34.839  31.841  27.732  1.00  0.00     0.000 A 
ENDBRANCH  85  86
ENDBRANCH  83  85
ENDBRANCH  81  83
ENDBRANCH  79  81
ENDBRANCH  78  79
ENDBRANCH  73  77
ENDBRANCH  69  71
ENDBRANCH   1  69
TORSDOF 20
ENDMDL
MODEL 2
REMARK VINA RESULT:     -11.2      1.484      2.207
REMARK SMILES O=C(OCCOC(=O)c1ccccc1/C=N\NC(=S)NCc1ccccc1)c1ccc(-c2c3nc(c(-c4ccc(S(=O)(=O)[O-])cc4)c4ccc([nH]4)c(-c4ccc(S(=O)(=O)[O-])cc4)c4nc(c(-c5ccc(S(=O)(=O)[O-])cc5)c5ccc2[nH]5)C=C4)C=C3)cc1
REMARK SMILES IDX 6 1 5 2 4 3 3 4 2 5 1 6 28 7 29 8 87 9 30 10 86 11 31 12
REMARK SMILES IDX 32 13 33 14 80 15 34 16 85 17 79 18 81 19 35 20 84 21 78 22
REMARK SMILES IDX 77 23 36 25 66 26 47 27 65 28 48 29 51 30 64 31 82 32 49 33
REMARK SMILES IDX 50 34 63 36 83 37 52 38 37 39 38 40 46 41 39 42 45 43 40 44
REMARK SMILES IDX 41 45 42 46 43 47 44 48 67 49 68 50 76 51 69 52 75 53 70 54
REMARK SMILES IDX 71 55 72 56 73 57 74 58 53 59 54 60 62 61 55 62 61 63 56 64
REMARK SMILES IDX 57 65 58 66 59 67 60 68 7 69 8 70 9 71 10 72 14 73 11 74
REMARK SMILES IDX 13 75 12 76 15 77 16 78 17 79 18 81 19 82 20 83 21 85 22 86
REMARK SMILES IDX 23 87 27 88 24 89 26 90 25 91
REMARK H PARENT 81 24 51 35 17 80 20 84
REMARK Flexibility Score: inf
ROOT
ATOM      1  O   UNL A   1      36.148  23.029  24.551  1.00  0.00    -0.458 OA
ENDROOT
BRANCH   1   2
ATOM      2  C   UNL A   1      37.478  22.857  25.096  1.00  0.00     0.275 C 
BRANCH   2   3
ATOM      3  C   UNL A   1      37.939  24.028  25.987  1.00  0.00     0.275 C 
BRANCH   3   4
ATOM      4  O   UNL A   1      39.211  23.757  26.601  1.00  0.00    -0.458 OA
BRANCH   4   5
ATOM      5  C   UNL A   1      40.247  24.585  26.853  1.00  0.00     0.338 C 
ATOM      6  O   UNL A   1      41.376  24.254  26.495  1.00  0.00    -0.246 OA
BRANCH   5   7
ATOM      7  C   UNL A   1      40.127  25.900  27.549  1.00  0.00     0.060 A 
ATOM      8  C   UNL A   1      39.459  26.084  29.191  1.00  0.00     0.016 A 
ATOM      9  C   UNL A   1      40.729  27.276  26.619  1.00  0.00     0.016 A 
ATOM     10  C   UNL A   1      39.284  27.611  30.016  1.00  0.00     0.010 A 
ATOM     11  C   UNL A   1      40.621  28.931  27.350  1.00  0.00     0.010 A 
ATOM     12  C   UNL A   1      39.869  29.120  29.231  1.00  0.00    -0.014 A 
BRANCH  12  13
ATOM     13  C   UNL A   1      39.999  30.072  30.604  1.00  0.00     0.031 A 
ATOM     14  C   UNL A   1      41.196  29.927  31.473  1.00  0.00     0.074 A 
ATOM     15  C   UNL A   1      39.223  31.138  30.992  1.00  0.00     0.049 A 
ATOM     16  N   UNL A   1      41.300  29.976  32.771  1.00  0.00    -0.248 NA
ATOM     17  C   UNL A   1      42.438  29.649  30.758  1.00  0.00     0.031 C 
ATOM     18  C   UNL A   1      38.283  31.934  30.201  1.00  0.00     0.029 A 
ATOM     19  N   UNL A   1      39.097  31.751  32.239  1.00  0.00    -0.354 N 
ATOM     20  C   UNL A   1      42.587  29.534  33.021  1.00  0.00     0.074 A 
ATOM     21  C   UNL A   1      43.154  29.143  31.748  1.00  0.00     0.031 C 
ATOM     22  C   UNL A   1      37.589  32.786  30.973  1.00  0.00     0.029 A 
ATOM     23  C   UNL A   1      38.009  32.609  32.339  1.00  0.00     0.049 A 
ATOM     24  H   UNL A   1      39.722  31.588  32.981  1.00  0.00     0.167 HD
ATOM     25  C   UNL A   1      43.271  29.534  34.185  1.00  0.00     0.031 A 
ATOM     26  C   UNL A   1      37.383  33.183  33.389  1.00  0.00     0.031 A 
ATOM     27  C   UNL A   1      42.838  30.247  35.352  1.00  0.00     0.049 A 
ATOM     28  C   UNL A   1      38.071  33.111  34.717  1.00  0.00     0.074 A 
ATOM     29  C   UNL A   1      43.513  30.426  36.544  1.00  0.00     0.029 A 
ATOM     30  N   UNL A   1      41.679  31.007  35.425  1.00  0.00    -0.354 N 
ATOM     31  N   UNL A   1      39.184  32.489  35.017  1.00  0.00    -0.248 NA
ATOM     32  C   UNL A   1      37.493  33.898  35.814  1.00  0.00     0.031 C 
ATOM     33  C   UNL A   1      42.764  31.298  37.340  1.00  0.00     0.029 A 
ATOM     34  C   UNL A   1      41.634  31.679  36.634  1.00  0.00     0.049 A 
ATOM     35  H   UNL A   1      40.991  31.059  34.723  1.00  0.00     0.167 HD
ATOM     36  C   UNL A   1      39.500  32.899  36.302  1.00  0.00     0.074 A 
ATOM     37  C   UNL A   1      38.442  33.791  36.734  1.00  0.00     0.031 C 
ATOM     38  C   UNL A   1      40.593  32.590  37.037  1.00  0.00     0.031 A 
BRANCH  25  39
ATOM     39  C   UNL A   1      44.567  28.780  34.205  1.00  0.00    -0.014 A 
ATOM     40  C   UNL A   1      45.803  29.423  34.024  1.00  0.00     0.010 A 
ATOM     41  C   UNL A   1      44.534  27.380  34.341  1.00  0.00     0.010 A 
ATOM     42  C   UNL A   1      46.970  28.678  33.867  1.00  0.00     0.020 A 
ATOM     43  C   UNL A   1      45.711  26.634  34.249  1.00  0.00     0.020 A 
ATOM     44  C   UNL A   1      46.916  27.287  33.979  1.00  0.00     0.054 A 
BRANCH  44  45
ATOM     45  S   UNL A   1      48.452  26.349  33.798  1.00  0.00     0.124 S 
ATOM     46  O   UNL A   1      48.309  25.335  34.840  1.00  0.00    -0.237 OA
ATOM     47  O   UNL A   1      48.362  25.855  32.426  1.00  0.00    -0.237 OA
ATOM     48  O   UNL A   1      49.494  27.345  34.033  1.00  0.00    -0.744 OA
ENDBRANCH  44  45
ENDBRANCH  25  39
BRANCH  26  49
ATOM     49  C   UNL A   1      36.074  33.908  33.258  1.00  0.00    -0.014 A 
ATOM     50  C   UNL A   1      34.844  33.231  33.375  1.00  0.00     0.010 A 
ATOM     51  C   UNL A   1      36.050  35.272  32.901  1.00  0.00     0.010 A 
ATOM     52  C   UNL A   1      33.633  33.882  33.089  1.00  0.00     0.020 A 
ATOM     53  C   UNL A   1      34.838  35.932  32.633  1.00  0.00     0.020 A 
ATOM     54  C   UNL A   1      33.638  35.226  32.710  1.00  0.00     0.054 A 
BRANCH  54  55
ATOM     55  S   UNL A   1      32.054  36.030  32.314  1.00  0.00     0.124 S 
ATOM     56  O   UNL A   1      31.093  34.966  32.586  1.00  0.00    -0.237 OA
ATOM     57  O   UNL A   1      32.029  37.154  33.247  1.00  0.00    -0.237 OA
ATOM     58  O   UNL A   1      32.196  36.398  30.907  1.00  0.00    -0.744 OA
ENDBRANCH  54  55
ENDBRANCH  26  49
BRANCH  38  59
ATOM     59  C   UNL A   1      40.751  33.287  38.355  1.00  0.00    -0.014 A 
ATOM     60  C   UNL A   1      40.245  32.728  39.539  1.00  0.00     0.010 A 
ATOM     61  C   UNL A   1      41.474  34.493  38.410  1.00  0.00     0.010 A 
ATOM     62  C   UNL A   1      40.446  33.374  40.758  1.00  0.00     0.020 A 
ATOM     63  C   UNL A   1      41.707  35.123  39.633  1.00  0.00     0.020 A 
ATOM     64  C   UNL A   1      41.183  34.562  40.798  1.00  0.00     0.054 A 
BRANCH  64  65
ATOM     65  S   UNL A   1      41.494  35.334  42.407  1.00  0.00     0.124 S 
ATOM     66  O   UNL A   1      42.223  36.541  42.028  1.00  0.00    -0.237 OA
ATOM     67  O   UNL A   1      40.144  35.548  42.922  1.00  0.00    -0.237 OA
ATOM     68  O   UNL A   1      42.278  34.332  43.125  1.00  0.00    -0.744 OA
ENDBRANCH  64  65
ENDBRANCH  38  59
ENDBRANCH  12  13
ENDBRANCH   5   7
ENDBRANCH   4   5
ENDBRANCH   3   4
ENDBRANCH   2   3
ENDBRANCH   1   2
BRANCH   1  69
ATOM     69  C   UNL A   1      35.113  22.482  25.244  1.00  0.00     0.338 C 
ATOM     70  O   UNL A   1      34.573  22.934  26.233  1.00  0.00    -0.246 OA
BRANCH  69  71
ATOM     71  C   UNL A   1      34.531  21.450  24.372  1.00  0.00     0.068 A 
ATOM     72  C   UNL A   1      34.940  19.743  24.831  1.00  0.00     0.016 A 
ATOM     73  C   UNL A   1      33.067  21.777  23.368  1.00  0.00     0.009 A 
ATOM     74  C   UNL A   1      33.911  18.376  24.270  1.00  0.00     0.001 A 
ATOM     75  C   UNL A   1      32.054  20.375  22.726  1.00  0.00     0.010 A 
ATOM     76  C   UNL A   1      32.535  18.689  23.150  1.00  0.00     0.001 A 
BRANCH  73  77
ATOM     77  C   UNL A   1      33.056  22.925  22.533  1.00  0.00     0.142 C 
ATOM     78  N   UNL A   1      32.709  24.030  23.086  1.00  0.00    -0.181 NA
BRANCH  78  79
ATOM     79  N   UNL A   1      32.243  23.977  24.389  1.00  0.00    -0.254 N 
ATOM     80  H   UNL A   1      32.942  23.756  25.046  1.00  0.00     0.193 HD
BRANCH  79  81
ATOM     81  C   UNL A   1      31.004  24.172  24.951  1.00  0.00     0.187 C 
ATOM     82  S   UNL A   1      30.767  23.472  26.471  1.00  0.00    -0.039 S 
BRANCH  81  83
ATOM     83  N   UNL A   1      29.865  24.842  24.385  1.00  0.00    -0.357 N 
ATOM     84  H   UNL A   1      29.120  24.207  24.484  1.00  0.00     0.163 HD
BRANCH  83  85
ATOM     85  C   UNL A   1      29.025  26.519  23.450  1.00  0.00     0.151 C 
BRANCH  85  86
ATOM     86  C   UNL A   1      28.901  28.327  23.454  1.00  0.00    -0.029 A 
ATOM     87  C   UNL A   1      30.414  29.143  24.106  1.00  0.00     0.005 A 
ATOM     88  C   UNL A   1      27.373  29.623  23.097  1.00  0.00     0.005 A 
ATOM     89  C   UNL A   1      30.441  30.898  24.328  1.00  0.00     0.000 A 
ATOM     90  C   UNL A   1      27.571  31.371  23.376  1.00  0.00     0.000 A 
ATOM     91  C   UNL A   1      29.087  31.938  23.950  1.00  0.00     0.000 A 
ENDBRANCH  85  86
ENDBRANCH  83  85
ENDBRANCH  81  83
ENDBRANCH  79  81
ENDBRANCH  78  79
ENDBRANCH  73  77
ENDBRANCH  69  71
ENDBRANCH   1  69
TORSDOF 20
ENDMDL
MODEL 3
REMARK VINA RESULT:      -9.9      6.573     13.585
REMARK SMILES O=C(OCCOC(=O)c1ccccc1/C=N\NC(=S)NCc1ccccc1)c1ccc(-c2c3nc(c(-c4ccc(S(=O)(=O)[O-])cc4)c4ccc([nH]4)c(-c4ccc(S(=O)(=O)[O-])cc4)c4nc(c(-c5ccc(S(=O)(=O)[O-])cc5)c5ccc2[nH]5)C=C4)C=C3)cc1
REMARK SMILES IDX 6 1 5 2 4 3 3 4 2 5 1 6 28 7 29 8 87 9 30 10 86 11 31 12
REMARK SMILES IDX 32 13 33 14 80 15 34 16 85 17 79 18 81 19 35 20 84 21 78 22
REMARK SMILES IDX 77 23 36 25 66 26 47 27 65 28 48 29 51 30 64 31 82 32 49 33
REMARK SMILES IDX 50 34 63 36 83 37 52 38 37 39 38 40 46 41 39 42 45 43 40 44
REMARK SMILES IDX 41 45 42 46 43 47 44 48 67 49 68 50 76 51 69 52 75 53 70 54
REMARK SMILES IDX 71 55 72 56 73 57 74 58 53 59 54 60 62 61 55 62 61 63 56 64
REMARK SMILES IDX 57 65 58 66 59 67 60 68 7 69 8 70 9 71 10 72 14 73 11 74
REMARK SMILES IDX 13 75 12 76 15 77 16 78 17 79 18 81 19 82 20 83 21 85 22 86
REMARK SMILES IDX 23 87 27 88 24 89 26 90 25 91
REMARK H PARENT 81 24 51 35 17 80 20 84
REMARK Flexibility Score: inf
ROOT
ATOM      1  O   UNL A   1      38.501  31.377  34.074  1.00  0.00    -0.458 OA
ENDROOT
BRANCH   1   2
ATOM      2  C   UNL A   1      37.201  31.224  33.458  1.00  0.00     0.275 C 
BRANCH   2   3
ATOM      3  C   UNL A   1      37.180  30.209  32.298  1.00  0.00     0.275 C 
BRANCH   3   4
ATOM      4  O   UNL A   1      37.478  28.878  32.754  1.00  0.00    -0.458 OA
BRANCH   4   5
ATOM      5  C   UNL A   1      38.286  27.937  32.219  1.00  0.00     0.338 C 
ATOM      6  O   UNL A   1      38.257  26.796  32.676  1.00  0.00    -0.246 OA
BRANCH   5   7
ATOM      7  C   UNL A   1      39.235  28.182  31.093  1.00  0.00     0.060 A 
ATOM      8  C   UNL A   1      40.719  29.155  31.253  1.00  0.00     0.016 A 
ATOM      9  C   UNL A   1      38.782  27.401  29.574  1.00  0.00     0.016 A 
ATOM     10  C   UNL A   1      41.830  29.476  29.947  1.00  0.00     0.010 A 
ATOM     11  C   UNL A   1      39.845  27.637  28.126  1.00  0.00     0.010 A 
ATOM     12  C   UNL A   1      41.543  28.739  28.331  1.00  0.00    -0.014 A 
BRANCH  12  13
ATOM     13  C   UNL A   1      43.099  28.872  27.725  1.00  0.00     0.031 A 
ATOM     14  C   UNL A   1      43.707  27.707  27.031  1.00  0.00     0.074 A 
ATOM     15  C   UNL A   1      43.888  29.992  27.609  1.00  0.00     0.049 A 
ATOM     16  N   UNL A   1      44.934  27.268  27.046  1.00  0.00    -0.248 NA
ATOM     17  C   UNL A   1      42.771  26.911  26.242  1.00  0.00     0.031 C 
ATOM     18  C   UNL A   1      43.506  31.403  27.683  1.00  0.00     0.029 A 
ATOM     19  N   UNL A   1      45.264  30.105  27.408  1.00  0.00    -0.354 N 
ATOM     20  C   UNL A   1      44.857  26.033  26.429  1.00  0.00     0.074 A 
ATOM     21  C   UNL A   1      43.457  25.784  26.156  1.00  0.00     0.031 C 
ATOM     22  C   UNL A   1      44.584  32.204  27.689  1.00  0.00     0.029 A 
ATOM     23  C   UNL A   1      45.765  31.382  27.633  1.00  0.00     0.049 A 
ATOM     24  H   UNL A   1      45.829  29.348  27.132  1.00  0.00     0.167 HD
ATOM     25  C   UNL A   1      45.859  25.217  26.040  1.00  0.00     0.031 A 
ATOM     26  C   UNL A   1      47.014  31.863  27.804  1.00  0.00     0.031 A 
ATOM     27  C   UNL A   1      47.234  25.627  25.988  1.00  0.00     0.049 A 
ATOM     28  C   UNL A   1      48.151  30.944  27.478  1.00  0.00     0.074 A 
ATOM     29  C   UNL A   1      48.315  24.929  25.487  1.00  0.00     0.029 A 
ATOM     30  N   UNL A   1      47.690  26.892  26.329  1.00  0.00    -0.354 N 
ATOM     31  N   UNL A   1      48.094  29.687  27.113  1.00  0.00    -0.248 NA
ATOM     32  C   UNL A   1      49.500  31.523  27.474  1.00  0.00     0.031 C 
ATOM     33  C   UNL A   1      49.430  25.773  25.523  1.00  0.00     0.029 A 
ATOM     34  C   UNL A   1      49.035  27.004  26.024  1.00  0.00     0.049 A 
ATOM     35  H   UNL A   1      47.140  27.604  26.728  1.00  0.00     0.167 HD
ATOM     36  C   UNL A   1      49.383  29.356  26.728  1.00  0.00     0.074 A 
ATOM     37  C   UNL A   1      50.203  30.533  26.940  1.00  0.00     0.031 C 
ATOM     38  C   UNL A   1      49.831  28.190  26.208  1.00  0.00     0.031 A 
BRANCH  25  39
ATOM     39  C   UNL A   1      45.473  23.834  25.604  1.00  0.00    -0.014 A 
ATOM     40  C   UNL A   1      45.500  22.743  26.488  1.00  0.00     0.010 A 
ATOM     41  C   UNL A   1      45.142  23.618  24.254  1.00  0.00     0.010 A 
ATOM     42  C   UNL A   1      45.313  21.447  26.013  1.00  0.00     0.020 A 
ATOM     43  C   UNL A   1      44.890  22.326  23.787  1.00  0.00     0.020 A 
ATOM     44  C   UNL A   1      45.010  21.247  24.665  1.00  0.00     0.054 A 
BRANCH  44  45
ATOM     45  S   UNL A   1      44.744  19.554  24.085  1.00  0.00     0.124 S 
ATOM     46  O   UNL A   1      43.598  19.138  24.889  1.00  0.00    -0.237 OA
ATOM     47  O   UNL A   1      44.474  19.745  22.662  1.00  0.00    -0.237 OA
ATOM     48  O   UNL A   1      46.003  18.881  24.394  1.00  0.00    -0.744 OA
ENDBRANCH  44  45
ENDBRANCH  25  39
BRANCH  26  49
ATOM     49  C   UNL A   1      47.290  33.268  28.259  1.00  0.00    -0.014 A 
ATOM     50  C   UNL A   1      47.461  34.318  27.337  1.00  0.00     0.010 A 
ATOM     51  C   UNL A   1      47.494  33.545  29.627  1.00  0.00     0.010 A 
ATOM     52  C   UNL A   1      47.879  35.590  27.761  1.00  0.00     0.020 A 
ATOM     53  C   UNL A   1      47.894  34.821  30.058  1.00  0.00     0.020 A 
ATOM     54  C   UNL A   1      48.103  35.832  29.119  1.00  0.00     0.054 A 
BRANCH  54  55
ATOM     55  S   UNL A   1      48.677  37.480  29.632  1.00  0.00     0.124 S 
ATOM     56  O   UNL A   1      47.960  38.355  28.709  1.00  0.00    -0.237 OA
ATOM     57  O   UNL A   1      48.244  37.545  31.025  1.00  0.00    -0.237 OA
ATOM     58  O   UNL A   1      50.124  37.419  29.436  1.00  0.00    -0.744 OA
ENDBRANCH  54  55
ENDBRANCH  26  49
BRANCH  38  59
ATOM     59  C   UNL A   1      51.258  28.150  25.748  1.00  0.00    -0.014 A 
ATOM     60  C   UNL A   1      52.286  27.729  26.606  1.00  0.00     0.010 A 
ATOM     61  C   UNL A   1      51.557  28.482  24.414  1.00  0.00     0.010 A 
ATOM     62  C   UNL A   1      53.598  27.655  26.139  1.00  0.00     0.020 A 
ATOM     63  C   UNL A   1      52.863  28.376  23.935  1.00  0.00     0.020 A 
ATOM     64  C   UNL A   1      53.876  27.971  24.805  1.00  0.00     0.054 A 
BRANCH  64  65
ATOM     65  S   UNL A   1      55.577  27.788  24.209  1.00  0.00     0.124 S 
ATOM     66  O   UNL A   1      55.586  26.407  23.736  1.00  0.00    -0.237 OA
ATOM     67  O   UNL A   1      55.659  28.811  23.169  1.00  0.00    -0.237 OA
ATOM     68  O   UNL A   1      56.389  28.047  25.395  1.00  0.00    -0.744 OA
ENDBRANCH  64  65
ENDBRANCH  38  59
ENDBRANCH  12  13
ENDBRANCH   5   7
ENDBRANCH   4   5
ENDBRANCH   3   4
ENDBRANCH   2   3
ENDBRANCH   1   2
BRANCH   1  69
ATOM     69  C   UNL A   1      39.162  32.546  33.858  1.00  0.00     0.338 C 
ATOM     70  O   UNL A   1      39.178  33.201  32.835  1.00  0.00    -0.246 OA
BRANCH  69  71
ATOM     71  C   UNL A   1      39.543  33.058  35.183  1.00  0.00     0.068 A 
ATOM     72  C   UNL A   1      41.328  33.249  35.444  1.00  0.00     0.016 A 
ATOM     73  C   UNL A   1      38.387  34.001  36.200  1.00  0.00     0.009 A 
ATOM     74  C   UNL A   1      41.950  34.350  36.726  1.00  0.00     0.001 A 
ATOM     75  C   UNL A   1      39.017  35.072  37.565  1.00  0.00     0.010 A 
ATOM     76  C   UNL A   1      40.797  35.180  37.834  1.00  0.00     0.001 A 
BRANCH  73  77
ATOM     77  C   UNL A   1      37.094  33.465  36.438  1.00  0.00     0.142 C 
ATOM     78  N   UNL A   1      36.194  33.735  35.566  1.00  0.00    -0.181 NA
BRANCH  78  79
ATOM     79  N   UNL A   1      36.520  34.633  34.563  1.00  0.00    -0.254 N 
ATOM     80  H   UNL A   1      37.229  35.266  34.821  1.00  0.00     0.193 HD
BRANCH  79  81
ATOM     81  C   UNL A   1      36.057  34.820  33.283  1.00  0.00     0.187 C 
ATOM     82  S   UNL A   1      34.435  35.269  33.144  1.00  0.00    -0.039 S 
BRANCH  81  83
ATOM     83  N   UNL A   1      36.762  34.623  32.045  1.00  0.00    -0.357 N 
ATOM     84  H   UNL A   1      37.584  35.158  32.132  1.00  0.00     0.163 HD
BRANCH  83  85
ATOM     85  C   UNL A   1      36.886  33.747  30.145  1.00  0.00     0.151 C 
BRANCH  85  86
ATOM     86  C   UNL A   1      36.344  32.375  29.094  1.00  0.00    -0.029 A 
ATOM     87  C   UNL A   1      34.586  32.528  28.575  1.00  0.00     0.005 A 
ATOM     88  C   UNL A   1      37.197  30.609  28.550  1.00  0.00     0.005 A 
ATOM     89  C   UNL A   1      33.821  31.219  27.664  1.00  0.00     0.000 A 
ATOM     90  C   UNL A   1      36.278  29.394  27.628  1.00  0.00     0.000 A 
ATOM     91  C   UNL A   1      34.653  29.751  27.203  1.00  0.00     0.000 A 
ENDBRANCH  85  86
ENDBRANCH  83  85
ENDBRANCH  81  83
ENDBRANCH  79  81
ENDBRANCH  78  79
ENDBRANCH  73  77
ENDBRANCH  69  71
ENDBRANCH   1  69
TORSDOF 20
ENDMDL
