MODEL 1
REMARK VINA RESULT:     -11.0      0.000      0.000
REMARK SMILES O=C(OCCOC(=O)[C@@H]1C[C@@H](O)CN1C(=O)c1ccccc1)c1ccc(-c2c3nc(c(-c4ccc(S(=O)(=O)[O-])cc4)c4ccc([nH]4)c(-c4ccc(S(=O)(=O)[O-])cc4)c4nc(c(-c5ccc(S(=O)(=O)[O-])cc5)c5ccc2[nH]5)C=C4)C=C3)cc1
REMARK SMILES IDX 4 1 3 2 2 3 1 4 23 5 24 6 82 7 25 8 81 9 26 10 27 11 28 12
REMARK SMILES IDX 75 13 29 14 80 15 74 16 76 17 30 18 79 19 73 20 72 21 31 23
REMARK SMILES IDX 61 24 42 25 60 26 43 27 46 28 59 29 77 30 44 31 45 32 58 34
REMARK SMILES IDX 78 35 47 36 32 37 33 38 41 39 34 40 40 41 35 42 36 43 37 44
REMARK SMILES IDX 38 45 39 46 62 47 63 48 71 49 64 50 70 51 65 52 66 53 67 54
REMARK SMILES IDX 68 55 69 56 48 57 49 58 57 59 50 60 56 61 51 62 52 63 53 64
REMARK SMILES IDX 54 65 55 66 5 67 6 68 7 69 8 70 9 71 10 72 14 73 11 74 13 75
REMARK SMILES IDX 15 76 16 77 17 78 18 79 22 80 19 81 21 82 20 83 12 84
REMARK H PARENT 76 22 46 33 12 85
REMARK Flexibility Score: inf
ROOT
ATOM      1  C   UNL A   1      39.270  22.565  26.277  1.00  0.00     0.275 C 
ENDROOT
BRANCH   1   2
ATOM      2  O   UNL A   1      39.598  23.935  26.554  1.00  0.00    -0.458 OA
BRANCH   2   3
ATOM      3  C   UNL A   1      40.838  24.471  26.693  1.00  0.00     0.338 C 
ATOM      4  O   UNL A   1      41.790  24.006  26.085  1.00  0.00    -0.246 OA
BRANCH   3   5
ATOM      5  C   UNL A   1      41.069  25.499  27.737  1.00  0.00     0.060 A 
ATOM      6  C   UNL A   1      42.249  26.237  27.881  1.00  0.00     0.016 A 
ATOM      7  C   UNL A   1      40.006  25.738  28.606  1.00  0.00     0.016 A 
ATOM      8  C   UNL A   1      42.304  27.320  28.767  1.00  0.00     0.010 A 
ATOM      9  C   UNL A   1      40.077  26.791  29.512  1.00  0.00     0.010 A 
ATOM     10  C   UNL A   1      41.201  27.628  29.565  1.00  0.00    -0.014 A 
BRANCH  10  11
ATOM     11  C   UNL A   1      41.194  28.770  30.514  1.00  0.00     0.031 A 
ATOM     12  C   UNL A   1      41.903  28.598  31.829  1.00  0.00     0.074 A 
ATOM     13  C   UNL A   1      40.389  29.832  30.292  1.00  0.00     0.049 A 
ATOM     14  N   UNL A   1      41.810  29.302  32.927  1.00  0.00    -0.248 NA
ATOM     15  C   UNL A   1      42.802  27.435  31.930  1.00  0.00     0.031 C 
ATOM     16  C   UNL A   1      39.529  30.024  29.118  1.00  0.00     0.029 A 
ATOM     17  N   UNL A   1      40.043  30.873  31.126  1.00  0.00    -0.354 N 
ATOM     18  C   UNL A   1      42.625  28.656  33.852  1.00  0.00     0.074 A 
ATOM     19  C   UNL A   1      43.147  27.471  33.207  1.00  0.00     0.031 C 
ATOM     20  C   UNL A   1      38.669  31.032  29.361  1.00  0.00     0.029 A 
ATOM     21  C   UNL A   1      38.923  31.558  30.699  1.00  0.00     0.049 A 
ATOM     22  H   UNL A   1      40.543  31.104  31.942  1.00  0.00     0.167 HD
ATOM     23  C   UNL A   1      42.939  29.026  35.116  1.00  0.00     0.031 A 
ATOM     24  C   UNL A   1      38.147  32.448  31.350  1.00  0.00     0.031 A 
ATOM     25  C   UNL A   1      42.401  30.193  35.758  1.00  0.00     0.049 A 
ATOM     26  C   UNL A   1      38.524  32.879  32.742  1.00  0.00     0.074 A 
ATOM     27  C   UNL A   1      42.694  30.715  37.006  1.00  0.00     0.029 A 
ATOM     28  N   UNL A   1      41.445  31.020  35.190  1.00  0.00    -0.354 N 
ATOM     29  N   UNL A   1      39.422  32.366  33.548  1.00  0.00    -0.248 NA
ATOM     30  C   UNL A   1      37.811  34.041  33.293  1.00  0.00     0.031 C 
ATOM     31  C   UNL A   1      41.896  31.848  37.201  1.00  0.00     0.029 A 
ATOM     32  C   UNL A   1      41.137  32.049  36.060  1.00  0.00     0.049 A 
ATOM     33  H   UNL A   1      41.044  30.893  34.300  1.00  0.00     0.167 HD
ATOM     34  C   UNL A   1      39.429  33.186  34.672  1.00  0.00     0.074 A 
ATOM     35  C   UNL A   1      38.435  34.214  34.449  1.00  0.00     0.031 C 
ATOM     36  C   UNL A   1      40.197  33.103  35.785  1.00  0.00     0.031 A 
BRANCH  23  37
ATOM     37  C   UNL A   1      43.937  28.175  35.859  1.00  0.00    -0.014 A 
ATOM     38  C   UNL A   1      45.317  28.428  35.739  1.00  0.00     0.010 A 
ATOM     39  C   UNL A   1      43.508  27.126  36.691  1.00  0.00     0.010 A 
ATOM     40  C   UNL A   1      46.249  27.615  36.385  1.00  0.00     0.020 A 
ATOM     41  C   UNL A   1      44.438  26.331  37.370  1.00  0.00     0.020 A 
ATOM     42  C   UNL A   1      45.804  26.568  37.193  1.00  0.00     0.054 A 
BRANCH  42  43
ATOM     43  S   UNL A   1      47.037  25.544  38.041  1.00  0.00     0.124 S 
ATOM     44  O   UNL A   1      48.183  25.647  37.141  1.00  0.00    -0.237 OA
ATOM     45  O   UNL A   1      47.189  26.220  39.327  1.00  0.00    -0.237 OA
ATOM     46  O   UNL A   1      46.408  24.227  38.105  1.00  0.00    -0.744 OA
ENDBRANCH  42  43
ENDBRANCH  23  37
BRANCH  24  47
ATOM     47  C   UNL A   1      36.910  32.998  30.732  1.00  0.00    -0.014 A 
ATOM     48  C   UNL A   1      36.997  33.952  29.703  1.00  0.00     0.010 A 
ATOM     49  C   UNL A   1      35.647  32.658  31.250  1.00  0.00     0.010 A 
ATOM     50  C   UNL A   1      35.848  34.600  29.240  1.00  0.00     0.020 A 
ATOM     51  C   UNL A   1      34.493  33.290  30.775  1.00  0.00     0.020 A 
ATOM     52  C   UNL A   1      34.605  34.274  29.789  1.00  0.00     0.054 A 
BRANCH  52  53
ATOM     53  S   UNL A   1      33.134  35.159  29.197  1.00  0.00     0.124 S 
ATOM     54  O   UNL A   1      33.711  36.404  28.699  1.00  0.00    -0.237 OA
ATOM     55  O   UNL A   1      32.611  34.252  28.179  1.00  0.00    -0.237 OA
ATOM     56  O   UNL A   1      32.308  35.283  30.396  1.00  0.00    -0.744 OA
ENDBRANCH  52  53
ENDBRANCH  24  47
BRANCH  36  57
ATOM     57  C   UNL A   1      40.098  34.222  36.783  1.00  0.00    -0.014 A 
ATOM     58  C   UNL A   1      40.814  35.421  36.629  1.00  0.00     0.010 A 
ATOM     59  C   UNL A   1      39.219  34.078  37.873  1.00  0.00     0.010 A 
ATOM     60  C   UNL A   1      40.675  36.446  37.567  1.00  0.00     0.020 A 
ATOM     61  C   UNL A   1      39.060  35.111  38.798  1.00  0.00     0.020 A 
ATOM     62  C   UNL A   1      39.800  36.284  38.647  1.00  0.00     0.054 A 
BRANCH  62  63
ATOM     63  S   UNL A   1      39.599  37.647  39.827  1.00  0.00     0.124 S 
ATOM     64  O   UNL A   1      39.532  36.937  41.101  1.00  0.00    -0.237 OA
ATOM     65  O   UNL A   1      40.806  38.441  39.610  1.00  0.00    -0.237 OA
ATOM     66  O   UNL A   1      38.355  38.288  39.404  1.00  0.00    -0.744 OA
ENDBRANCH  62  63
ENDBRANCH  36  57
ENDBRANCH  10  11
ENDBRANCH   3   5
ENDBRANCH   2   3
ENDBRANCH   1   2
BRANCH   1  67
ATOM     67  C   UNL A   1      37.963  22.279  25.513  1.00  0.00     0.274 C 
BRANCH  67  68
ATOM     68  O   UNL A   1      37.235  23.413  24.995  1.00  0.00    -0.461 OA
BRANCH  68  69
ATOM     69  C   UNL A   1      36.273  23.070  24.102  1.00  0.00     0.329 C 
ATOM     70  O   UNL A   1      36.502  22.960  22.896  1.00  0.00    -0.250 OA
BRANCH  69  71
ATOM     71  C   UNL A   1      34.834  22.931  24.646  1.00  0.00     0.198 C 
ATOM     72  C   UNL A   1      34.701  24.060  25.697  1.00  0.00     0.071 C 
ATOM     73  N   UNL A   1      34.193  21.756  25.313  1.00  0.00    -0.322 N 
ATOM     74  C   UNL A   1      33.686  23.536  26.697  1.00  0.00     0.136 C 
ATOM     75  C   UNL A   1      34.017  22.046  26.735  1.00  0.00     0.152 C 
BRANCH  73  76
ATOM     76  C   UNL A   1      33.199  21.038  24.621  1.00  0.00     0.254 C 
ATOM     77  O   UNL A   1      32.106  21.545  24.371  1.00  0.00    -0.269 OA
BRANCH  76  78
ATOM     78  C   UNL A   1      33.390  19.600  24.241  1.00  0.00     0.040 A 
ATOM     79  C   UNL A   1      34.513  18.871  24.628  1.00  0.00     0.014 A 
ATOM     80  C   UNL A   1      32.464  18.995  23.379  1.00  0.00     0.014 A 
ATOM     81  C   UNL A   1      34.736  17.579  24.137  1.00  0.00     0.001 A 
ATOM     82  C   UNL A   1      32.671  17.691  22.911  1.00  0.00     0.001 A 
ATOM     83  C   UNL A   1      33.817  16.990  23.276  1.00  0.00     0.000 A 
ENDBRANCH  76  78
ENDBRANCH  73  76
BRANCH  74  84
ATOM     84  O   UNL A   1      32.366  23.765  26.192  1.00  0.00    -0.391 OA
ATOM     85  H   UNL A   1      32.344  23.566  25.243  1.00  0.00     0.211 HD
ENDBRANCH  74  84
ENDBRANCH  69  71
ENDBRANCH  68  69
ENDBRANCH  67  68
ENDBRANCH   1  67
TORSDOF 17
ENDMDL
MODEL 2
REMARK VINA RESULT:     -11.0      3.104      4.919
REMARK SMILES O=C(OCCOC(=O)[C@@H]1C[C@@H](O)CN1C(=O)c1ccccc1)c1ccc(-c2c3nc(c(-c4ccc(S(=O)(=O)[O-])cc4)c4ccc([nH]4)c(-c4ccc(S(=O)(=O)[O-])cc4)c4nc(c(-c5ccc(S(=O)(=O)[O-])cc5)c5ccc2[nH]5)C=C4)C=C3)cc1
REMARK SMILES IDX 4 1 3 2 2 3 1 4 23 5 24 6 82 7 25 8 81 9 26 10 27 11 28 12
REMARK SMILES IDX 75 13 29 14 80 15 74 16 76 17 30 18 79 19 73 20 72 21 31 23
REMARK SMILES IDX 61 24 42 25 60 26 43 27 46 28 59 29 77 30 44 31 45 32 58 34
REMARK SMILES IDX 78 35 47 36 32 37 33 38 41 39 34 40 40 41 35 42 36 43 37 44
REMARK SMILES IDX 38 45 39 46 62 47 63 48 71 49 64 50 70 51 65 52 66 53 67 54
REMARK SMILES IDX 68 55 69 56 48 57 49 58 57 59 50 60 56 61 51 62 52 63 53 64
REMARK SMILES IDX 54 65 55 66 5 67 6 68 7 69 8 70 9 71 10 72 14 73 11 74 13 75
REMARK SMILES IDX 15 76 16 77 17 78 18 79 22 80 19 81 21 82 20 83 12 84
REMARK H PARENT 76 22 46 33 12 85
REMARK Flexibility Score: inf
ROOT
ATOM      1  C   UNL A   1      36.622  23.695  24.578  1.00  0.00     0.275 C 
ENDROOT
BRANCH   1   2
ATOM      2  O   UNL A   1      37.217  23.164  25.772  1.00  0.00    -0.458 OA
BRANCH   2   3
ATOM      3  C   UNL A   1      38.541  23.043  26.046  1.00  0.00     0.338 C 
ATOM      4  O   UNL A   1      39.102  21.962  25.949  1.00  0.00    -0.246 OA
BRANCH   3   5
ATOM      5  C   UNL A   1      39.263  24.188  26.653  1.00  0.00     0.060 A 
ATOM      6  C   UNL A   1      40.199  24.985  25.986  1.00  0.00     0.016 A 
ATOM      7  C   UNL A   1      38.943  24.479  27.978  1.00  0.00     0.016 A 
ATOM      8  C   UNL A   1      40.680  26.160  26.576  1.00  0.00     0.010 A 
ATOM      9  C   UNL A   1      39.451  25.628  28.577  1.00  0.00     0.010 A 
ATOM     10  C   UNL A   1      40.279  26.509  27.866  1.00  0.00    -0.014 A 
BRANCH  10  11
ATOM     11  C   UNL A   1      40.743  27.748  28.540  1.00  0.00     0.031 A 
ATOM     12  C   UNL A   1      41.918  27.643  29.474  1.00  0.00     0.074 A 
ATOM     13  C   UNL A   1      39.996  28.872  28.488  1.00  0.00     0.049 A 
ATOM     14  N   UNL A   1      42.335  28.480  30.389  1.00  0.00    -0.248 NA
ATOM     15  C   UNL A   1      42.695  26.394  29.397  1.00  0.00     0.031 C 
ATOM     16  C   UNL A   1      38.744  29.032  27.738  1.00  0.00     0.029 A 
ATOM     17  N   UNL A   1      40.098  30.041  29.209  1.00  0.00    -0.354 N 
ATOM     18  C   UNL A   1      43.412  27.848  31.005  1.00  0.00     0.074 A 
ATOM     19  C   UNL A   1      43.537  26.537  30.407  1.00  0.00     0.031 C 
ATOM     20  C   UNL A   1      38.134  30.166  28.136  1.00  0.00     0.029 A 
ATOM     21  C   UNL A   1      38.953  30.810  29.158  1.00  0.00     0.049 A 
ATOM     22  H   UNL A   1      40.905  30.301  29.710  1.00  0.00     0.167 HD
ATOM     23  C   UNL A   1      44.244  28.323  31.962  1.00  0.00     0.031 A 
ATOM     24  C   UNL A   1      38.578  31.865  29.910  1.00  0.00     0.031 A 
ATOM     25  C   UNL A   1      44.102  29.618  32.566  1.00  0.00     0.049 A 
ATOM     26  C   UNL A   1      39.526  32.407  30.947  1.00  0.00     0.074 A 
ATOM     27  C   UNL A   1      44.920  30.243  33.492  1.00  0.00     0.029 A 
ATOM     28  N   UNL A   1      43.058  30.489  32.299  1.00  0.00    -0.354 N 
ATOM     29  N   UNL A   1      40.637  31.881  31.401  1.00  0.00    -0.248 NA
ATOM     30  C   UNL A   1      39.186  33.708  31.540  1.00  0.00     0.031 C 
ATOM     31  C   UNL A   1      44.355  31.485  33.801  1.00  0.00     0.029 A 
ATOM     32  C   UNL A   1      43.209  31.646  33.040  1.00  0.00     0.049 A 
ATOM     33  H   UNL A   1      42.318  30.310  31.675  1.00  0.00     0.167 HD
ATOM     34  C   UNL A   1      41.165  32.821  32.281  1.00  0.00     0.074 A 
ATOM     35  C   UNL A   1      40.242  33.936  32.308  1.00  0.00     0.031 C 
ATOM     36  C   UNL A   1      42.315  32.773  32.994  1.00  0.00     0.031 A 
BRANCH  23  37
ATOM     37  C   UNL A   1      45.397  27.444  32.374  1.00  0.00    -0.014 A 
ATOM     38  C   UNL A   1      45.242  26.508  33.415  1.00  0.00     0.010 A 
ATOM     39  C   UNL A   1      46.638  27.533  31.721  1.00  0.00     0.010 A 
ATOM     40  C   UNL A   1      46.317  25.723  33.835  1.00  0.00     0.020 A 
ATOM     41  C   UNL A   1      47.709  26.723  32.114  1.00  0.00     0.020 A 
ATOM     42  C   UNL A   1      47.547  25.839  33.184  1.00  0.00     0.054 A 
BRANCH  42  43
ATOM     43  S   UNL A   1      48.919  24.789  33.734  1.00  0.00     0.124 S 
ATOM     44  O   UNL A   1      48.214  23.609  34.229  1.00  0.00    -0.237 OA
ATOM     45  O   UNL A   1      49.686  24.591  32.507  1.00  0.00    -0.237 OA
ATOM     46  O   UNL A   1      49.583  25.595  34.756  1.00  0.00    -0.744 OA
ENDBRANCH  42  43
ENDBRANCH  23  37
BRANCH  24  47
ATOM     47  C   UNL A   1      37.239  32.494  29.754  1.00  0.00    -0.014 A 
ATOM     48  C   UNL A   1      37.022  33.458  28.754  1.00  0.00     0.010 A 
ATOM     49  C   UNL A   1      36.214  32.216  30.677  1.00  0.00     0.010 A 
ATOM     50  C   UNL A   1      35.824  34.177  28.714  1.00  0.00     0.020 A 
ATOM     51  C   UNL A   1      35.006  32.920  30.626  1.00  0.00     0.020 A 
ATOM     52  C   UNL A   1      34.829  33.913  29.659  1.00  0.00     0.054 A 
BRANCH  52  53
ATOM     53  S   UNL A   1      33.299  34.888  29.607  1.00  0.00     0.124 S 
ATOM     54  O   UNL A   1      32.883  34.872  31.005  1.00  0.00    -0.237 OA
ATOM     55  O   UNL A   1      33.765  36.176  29.099  1.00  0.00    -0.237 OA
ATOM     56  O   UNL A   1      32.448  34.135  28.688  1.00  0.00    -0.744 OA
ENDBRANCH  52  53
ENDBRANCH  24  47
BRANCH  36  57
ATOM     57  C   UNL A   1      42.716  34.007  33.754  1.00  0.00    -0.014 A 
ATOM     58  C   UNL A   1      42.473  34.141  35.131  1.00  0.00     0.010 A 
ATOM     59  C   UNL A   1      43.400  35.028  33.069  1.00  0.00     0.010 A 
ATOM     60  C   UNL A   1      42.883  35.294  35.805  1.00  0.00     0.020 A 
ATOM     61  C   UNL A   1      43.832  36.170  33.745  1.00  0.00     0.020 A 
ATOM     62  C   UNL A   1      43.558  36.302  35.107  1.00  0.00     0.054 A 
BRANCH  62  63
ATOM     63  S   UNL A   1      44.124  37.769  36.012  1.00  0.00     0.124 S 
ATOM     64  O   UNL A   1      43.299  37.720  37.215  1.00  0.00    -0.237 OA
ATOM     65  O   UNL A   1      45.545  37.496  36.210  1.00  0.00    -0.237 OA
ATOM     66  O   UNL A   1      43.829  38.872  35.098  1.00  0.00    -0.744 OA
ENDBRANCH  62  63
ENDBRANCH  36  57
ENDBRANCH  10  11
ENDBRANCH   3   5
ENDBRANCH   2   3
ENDBRANCH   1   2
BRANCH   1  67
ATOM     67  C   UNL A   1      35.086  23.667  24.466  1.00  0.00     0.274 C 
BRANCH  67  68
ATOM     68  O   UNL A   1      34.390  24.927  24.565  1.00  0.00    -0.461 OA
BRANCH  68  69
ATOM     69  C   UNL A   1      33.227  24.954  23.867  1.00  0.00     0.329 C 
ATOM     70  O   UNL A   1      33.160  24.624  22.681  1.00  0.00    -0.250 OA
BRANCH  69  71
ATOM     71  C   UNL A   1      31.991  25.531  24.594  1.00  0.00     0.198 C 
ATOM     72  C   UNL A   1      30.780  25.018  23.778  1.00  0.00     0.071 C 
ATOM     73  N   UNL A   1      31.648  26.960  24.868  1.00  0.00    -0.322 N 
ATOM     74  C   UNL A   1      29.709  26.075  23.976  1.00  0.00     0.136 C 
ATOM     75  C   UNL A   1      30.531  27.360  24.013  1.00  0.00     0.152 C 
BRANCH  73  76
ATOM     76  C   UNL A   1      31.715  27.435  26.192  1.00  0.00     0.254 C 
ATOM     77  O   UNL A   1      30.968  26.993  27.065  1.00  0.00    -0.269 OA
BRANCH  76  78
ATOM     78  C   UNL A   1      32.629  28.560  26.577  1.00  0.00     0.040 A 
ATOM     79  C   UNL A   1      33.983  28.362  26.843  1.00  0.00     0.014 A 
ATOM     80  C   UNL A   1      32.086  29.837  26.783  1.00  0.00     0.014 A 
ATOM     81  C   UNL A   1      34.776  29.401  27.343  1.00  0.00     0.001 A 
ATOM     82  C   UNL A   1      32.886  30.884  27.255  1.00  0.00     0.001 A 
ATOM     83  C   UNL A   1      34.228  30.661  27.552  1.00  0.00     0.000 A 
ENDBRANCH  76  78
ENDBRANCH  73  76
BRANCH  74  84
ATOM     84  O   UNL A   1      29.045  25.843  25.224  1.00  0.00    -0.391 OA
ATOM     85  H   UNL A   1      29.679  25.489  25.867  1.00  0.00     0.211 HD
ENDBRANCH  74  84
ENDBRANCH  69  71
ENDBRANCH  68  69
ENDBRANCH  67  68
ENDBRANCH   1  67
TORSDOF 17
ENDMDL
MODEL 3
REMARK VINA RESULT:     -10.8      3.622      9.652
REMARK SMILES O=C(OCCOC(=O)[C@@H]1C[C@@H](O)CN1C(=O)c1ccccc1)c1ccc(-c2c3nc(c(-c4ccc(S(=O)(=O)[O-])cc4)c4ccc([nH]4)c(-c4ccc(S(=O)(=O)[O-])cc4)c4nc(c(-c5ccc(S(=O)(=O)[O-])cc5)c5ccc2[nH]5)C=C4)C=C3)cc1
REMARK SMILES IDX 4 1 3 2 2 3 1 4 23 5 24 6 82 7 25 8 81 9 26 10 27 11 28 12
REMARK SMILES IDX 75 13 29 14 80 15 74 16 76 17 30 18 79 19 73 20 72 21 31 23
REMARK SMILES IDX 61 24 42 25 60 26 43 27 46 28 59 29 77 30 44 31 45 32 58 34
REMARK SMILES IDX 78 35 47 36 32 37 33 38 41 39 34 40 40 41 35 42 36 43 37 44
REMARK SMILES IDX 38 45 39 46 62 47 63 48 71 49 64 50 70 51 65 52 66 53 67 54
REMARK SMILES IDX 68 55 69 56 48 57 49 58 57 59 50 60 56 61 51 62 52 63 53 64
REMARK SMILES IDX 54 65 55 66 5 67 6 68 7 69 8 70 9 71 10 72 14 73 11 74 13 75
REMARK SMILES IDX 15 76 16 77 17 78 18 79 22 80 19 81 21 82 20 83 12 84
REMARK H PARENT 76 22 46 33 12 85
REMARK Flexibility Score: inf
ROOT
ATOM      1  C   UNL A   1      44.187  24.762  26.262  1.00  0.00     0.275 C 
ENDROOT
BRANCH   1   2
ATOM      2  O   UNL A   1      42.783  24.987  26.058  1.00  0.00    -0.458 OA
BRANCH   2   3
ATOM      3  C   UNL A   1      42.151  26.183  25.941  1.00  0.00     0.338 C 
ATOM      4  O   UNL A   1      42.177  26.802  24.889  1.00  0.00    -0.246 OA
BRANCH   3   5
ATOM      5  C   UNL A   1      41.595  26.829  27.155  1.00  0.00     0.060 A 
ATOM      6  C   UNL A   1      40.553  26.307  27.929  1.00  0.00     0.016 A 
ATOM      7  C   UNL A   1      42.192  28.028  27.538  1.00  0.00     0.016 A 
ATOM      8  C   UNL A   1      40.228  26.883  29.163  1.00  0.00     0.010 A 
ATOM      9  C   UNL A   1      41.842  28.621  28.747  1.00  0.00     0.010 A 
ATOM     10  C   UNL A   1      40.899  28.027  29.598  1.00  0.00    -0.014 A 
BRANCH  10  11
ATOM     11  C   UNL A   1      40.609  28.678  30.902  1.00  0.00     0.031 A 
ATOM     12  C   UNL A   1      39.594  29.788  30.925  1.00  0.00     0.074 A 
ATOM     13  C   UNL A   1      41.394  28.431  31.973  1.00  0.00     0.049 A 
ATOM     14  N   UNL A   1      39.370  30.695  31.840  1.00  0.00    -0.248 NA
ATOM     15  C   UNL A   1      38.755  29.919  29.721  1.00  0.00     0.031 C 
ATOM     16  C   UNL A   1      42.517  27.486  32.012  1.00  0.00     0.029 A 
ATOM     17  N   UNL A   1      41.466  29.076  33.188  1.00  0.00    -0.354 N 
ATOM     18  C   UNL A   1      38.375  31.513  31.312  1.00  0.00     0.074 A 
ATOM     19  C   UNL A   1      38.092  31.036  29.977  1.00  0.00     0.031 C 
ATOM     20  C   UNL A   1      43.238  27.705  33.130  1.00  0.00     0.029 A 
ATOM     21  C   UNL A   1      42.625  28.794  33.883  1.00  0.00     0.049 A 
ATOM     22  H   UNL A   1      40.762  29.677  33.527  1.00  0.00     0.167 HD
ATOM     23  C   UNL A   1      37.729  32.553  31.893  1.00  0.00     0.031 A 
ATOM     24  C   UNL A   1      43.165  29.402  34.958  1.00  0.00     0.031 A 
ATOM     25  C   UNL A   1      38.030  33.035  33.213  1.00  0.00     0.049 A 
ATOM     26  C   UNL A   1      42.423  30.534  35.618  1.00  0.00     0.074 A 
ATOM     27  C   UNL A   1      37.402  34.031  33.941  1.00  0.00     0.029 A 
ATOM     28  N   UNL A   1      39.060  32.549  34.002  1.00  0.00    -0.354 N 
ATOM     29  N   UNL A   1      41.373  31.191  35.188  1.00  0.00    -0.248 NA
ATOM     30  C   UNL A   1      42.916  30.974  36.931  1.00  0.00     0.031 C 
ATOM     31  C   UNL A   1      38.069  34.161  35.163  1.00  0.00     0.029 A 
ATOM     32  C   UNL A   1      39.086  33.221  35.209  1.00  0.00     0.049 A 
ATOM     33  H   UNL A   1      39.682  31.832  33.740  1.00  0.00     0.167 HD
ATOM     34  C   UNL A   1      41.039  32.074  36.211  1.00  0.00     0.074 A 
ATOM     35  C   UNL A   1      42.009  31.879  37.268  1.00  0.00     0.031 C 
ATOM     36  C   UNL A   1      40.016  32.959  36.275  1.00  0.00     0.031 A 
BRANCH  23  37
ATOM     37  C   UNL A   1      36.615  33.200  31.112  1.00  0.00    -0.014 A 
ATOM     38  C   UNL A   1      36.907  34.059  30.035  1.00  0.00     0.010 A 
ATOM     39  C   UNL A   1      35.271  32.948  31.435  1.00  0.00     0.010 A 
ATOM     40  C   UNL A   1      35.882  34.699  29.335  1.00  0.00     0.020 A 
ATOM     41  C   UNL A   1      34.239  33.559  30.714  1.00  0.00     0.020 A 
ATOM     42  C   UNL A   1      34.553  34.448  29.684  1.00  0.00     0.054 A 
BRANCH  42  43
ATOM     43  S   UNL A   1      33.242  35.274  28.741  1.00  0.00     0.124 S 
ATOM     44  O   UNL A   1      34.010  36.163  27.873  1.00  0.00    -0.237 OA
ATOM     45  O   UNL A   1      32.579  34.161  28.067  1.00  0.00    -0.237 OA
ATOM     46  O   UNL A   1      32.445  35.939  29.769  1.00  0.00    -0.744 OA
ENDBRANCH  42  43
ENDBRANCH  23  37
BRANCH  24  47
ATOM     47  C   UNL A   1      44.493  28.997  35.494  1.00  0.00    -0.014 A 
ATOM     48  C   UNL A   1      44.583  27.988  36.469  1.00  0.00     0.010 A 
ATOM     49  C   UNL A   1      45.653  29.698  35.119  1.00  0.00     0.010 A 
ATOM     50  C   UNL A   1      45.801  27.724  37.102  1.00  0.00     0.020 A 
ATOM     51  C   UNL A   1      46.878  29.422  35.737  1.00  0.00     0.020 A 
ATOM     52  C   UNL A   1      46.938  28.453  36.742  1.00  0.00     0.054 A 
BRANCH  52  53
ATOM     53  S   UNL A   1      48.497  28.117  37.608  1.00  0.00     0.124 S 
ATOM     54  O   UNL A   1      48.890  29.450  38.051  1.00  0.00    -0.237 OA
ATOM     55  O   UNL A   1      48.079  27.197  38.663  1.00  0.00    -0.237 OA
ATOM     56  O   UNL A   1      49.339  27.523  36.572  1.00  0.00    -0.744 OA
ENDBRANCH  52  53
ENDBRANCH  24  47
BRANCH  36  57
ATOM     57  C   UNL A   1      39.803  33.683  37.575  1.00  0.00    -0.014 A 
ATOM     58  C   UNL A   1      40.397  34.929  37.836  1.00  0.00     0.010 A 
ATOM     59  C   UNL A   1      38.940  33.115  38.530  1.00  0.00     0.010 A 
ATOM     60  C   UNL A   1      40.153  35.581  39.048  1.00  0.00     0.020 A 
ATOM     61  C   UNL A   1      38.675  33.776  39.731  1.00  0.00     0.020 A 
ATOM     62  C   UNL A   1      39.296  35.000  39.988  1.00  0.00     0.054 A 
BRANCH  62  63
ATOM     63  S   UNL A   1      38.957  35.885  41.534  1.00  0.00     0.124 S 
ATOM     64  O   UNL A   1      37.645  35.360  41.902  1.00  0.00    -0.237 OA
ATOM     65  O   UNL A   1      40.065  35.471  42.391  1.00  0.00    -0.237 OA
ATOM     66  O   UNL A   1      38.977  37.292  41.137  1.00  0.00    -0.744 OA
ENDBRANCH  62  63
ENDBRANCH  36  57
ENDBRANCH  10  11
ENDBRANCH   3   5
ENDBRANCH   2   3
ENDBRANCH   1   2
BRANCH   1  67
ATOM     67  C   UNL A   1      45.077  24.599  25.016  1.00  0.00     0.274 C 
BRANCH  67  68
ATOM     68  O   UNL A   1      45.606  23.283  24.744  1.00  0.00    -0.461 OA
BRANCH  68  69
ATOM     69  C   UNL A   1      44.650  22.378  24.415  1.00  0.00     0.329 C 
ATOM     70  O   UNL A   1      43.745  22.634  23.619  1.00  0.00    -0.250 OA
BRANCH  69  71
ATOM     71  C   UNL A   1      44.675  21.033  25.174  1.00  0.00     0.198 C 
ATOM     72  C   UNL A   1      46.013  20.373  24.761  1.00  0.00     0.071 C 
ATOM     73  N   UNL A   1      43.696  19.904  25.112  1.00  0.00    -0.322 N 
ATOM     74  C   UNL A   1      45.753  18.881  24.861  1.00  0.00     0.136 C 
ATOM     75  C   UNL A   1      44.301  18.779  24.400  1.00  0.00     0.152 C 
BRANCH  73  76
ATOM     76  C   UNL A   1      42.868  19.659  26.223  1.00  0.00     0.254 C 
ATOM     77  O   UNL A   1      42.878  18.569  26.796  1.00  0.00    -0.269 OA
BRANCH  76  78
ATOM     78  C   UNL A   1      41.871  20.674  26.700  1.00  0.00     0.040 A 
ATOM     79  C   UNL A   1      40.596  20.780  26.148  1.00  0.00     0.014 A 
ATOM     80  C   UNL A   1      42.267  21.619  27.656  1.00  0.00     0.014 A 
ATOM     81  C   UNL A   1      39.743  21.830  26.507  1.00  0.00     0.001 A 
ATOM     82  C   UNL A   1      41.403  22.652  28.039  1.00  0.00     0.001 A 
ATOM     83  C   UNL A   1      40.146  22.767  27.451  1.00  0.00     0.000 A 
ENDBRANCH  76  78
ENDBRANCH  73  76
BRANCH  74  84
ATOM     84  O   UNL A   1      45.898  18.469  26.224  1.00  0.00    -0.391 OA
ATOM     85  H   UNL A   1      45.926  19.250  26.798  1.00  0.00     0.211 HD
ENDBRANCH  74  84
ENDBRANCH  69  71
ENDBRANCH  68  69
ENDBRANCH  67  68
ENDBRANCH   1  67
TORSDOF 17
ENDMDL
