MODEL 1
REMARK VINA RESULT:     -10.5      0.000      0.000
REMARK SMILES COc1ccc(/C=C/C(=O)OCCOC(=O)c2ccc(-c3c4nc(c(-c5ccc(S(=O)(=O)[O-])cc5)c5ccc([nH]5)c(-c5ccc(S(=O)(=O)[O-])cc5)c5nc(c(-c6ccc(S(=O)(=O)[O-])cc6)c6ccc3[nH]6)C=C5)C=C4)cc2)cc1S(=O)(=O)Nc1ccc(F)cc1F
REMARK SMILES IDX 12 1 11 2 9 3 10 4 8 5 7 6 6 7 3 8 4 9 78 10 5 11 77 12 2 13
REMARK SMILES IDX 1 14 79 15 80 16 81 17 82 18 83 20 84 21 89 22 85 23 88 24
REMARK SMILES IDX 90 25 86 26 87 27 13 28 14 29 15 30 16 31 17 32 18 33 76 34
REMARK SMILES IDX 19 35 75 36 20 37 21 38 22 39 69 40 23 41 74 42 68 43 70 44
REMARK SMILES IDX 24 45 73 46 67 47 66 48 25 50 55 51 36 52 54 53 37 54 40 55
REMARK SMILES IDX 53 56 71 57 38 58 39 59 52 61 72 62 41 63 26 64 27 65 35 66
REMARK SMILES IDX 28 67 34 68 29 69 30 70 31 71 32 72 33 73 56 74 57 75 65 76
REMARK SMILES IDX 58 77 64 78 59 79 60 80 61 81 62 82 63 83 42 84 43 85 51 86
REMARK SMILES IDX 44 87 50 88 45 89 46 90 47 91 48 92 49 93
REMARK H PARENT 82 19 70 49 40 60
REMARK Flexibility Score: inf
ROOT
ATOM      1  C   UNL A   1      40.119  22.404  26.832  1.00  0.00     0.275 C 
ENDROOT
BRANCH   1   2
ATOM      2  O   UNL A   1      38.930  23.071  26.367  1.00  0.00    -0.459 OA
BRANCH   2   3
ATOM      3  C   UNL A   1      38.049  22.265  25.734  1.00  0.00     0.330 C 
ATOM      4  O   UNL A   1      38.107  21.046  25.663  1.00  0.00    -0.247 OA
BRANCH   3   5
ATOM      5  C   UNL A   1      36.945  22.992  25.087  1.00  0.00     0.094 C 
ATOM      6  C   UNL A   1      35.925  23.664  25.648  1.00  0.00     0.015 C 
BRANCH   6   7
ATOM      7  C   UNL A   1      34.913  24.301  24.782  1.00  0.00    -0.024 A 
ATOM      8  C   UNL A   1      33.423  25.792  22.940  1.00  0.00     0.139 A 
ATOM      9  C   UNL A   1      33.962  24.564  22.565  1.00  0.00     0.048 A 
ATOM     10  C   UNL A   1      33.411  26.158  24.281  1.00  0.00     0.130 A 
ATOM     11  C   UNL A   1      34.681  23.813  23.489  1.00  0.00     0.012 A 
ATOM     12  C   UNL A   1      34.194  25.428  25.201  1.00  0.00     0.034 A 
BRANCH   8  13
ATOM     13  O   UNL A   1      32.941  26.551  21.916  1.00  0.00    -0.495 OA
ATOM     14  C   UNL A   1      32.029  25.811  21.101  1.00  0.00     0.278 C 
ENDBRANCH   8  13
BRANCH  10  15
ATOM     15  S   UNL A   1      32.414  27.468  24.944  1.00  0.00     0.265 S 
ATOM     16  O   UNL A   1      32.709  28.671  24.194  1.00  0.00    -0.201 OA
ATOM     17  O   UNL A   1      31.058  26.951  24.972  1.00  0.00    -0.201 OA
BRANCH  15  18
ATOM     18  N   UNL A   1      32.768  27.774  26.561  1.00  0.00    -0.277 N 
ATOM     19  H   UNL A   1      32.450  27.123  27.228  1.00  0.00     0.180 HD
BRANCH  18  20
ATOM     20  C   UNL A   1      33.495  28.909  27.036  1.00  0.00     0.085 A 
ATOM     21  C   UNL A   1      34.888  28.748  27.133  1.00  0.00     0.033 A 
ATOM     22  C   UNL A   1      32.937  30.154  27.342  1.00  0.00     0.150 A 
ATOM     23  C   UNL A   1      35.708  29.847  27.394  1.00  0.00     0.041 A 
ATOM     24  C   UNL A   1      33.751  31.253  27.610  1.00  0.00     0.080 A 
ATOM     25  F   UNL A   1      31.612  30.342  27.308  1.00  0.00    -0.205 F 
ATOM     26  C   UNL A   1      35.130  31.093  27.607  1.00  0.00     0.126 A 
ATOM     27  F   UNL A   1      35.922  32.154  27.805  1.00  0.00    -0.207 F 
ENDBRANCH  18  20
ENDBRANCH  15  18
ENDBRANCH  10  15
ENDBRANCH   6   7
ENDBRANCH   3   5
ENDBRANCH   2   3
ENDBRANCH   1   2
BRANCH   1  28
ATOM     28  C   UNL A   1      41.378  22.948  26.152  1.00  0.00     0.275 C 
BRANCH  28  29
ATOM     29  O   UNL A   1      41.980  24.033  26.883  1.00  0.00    -0.458 OA
BRANCH  29  30
ATOM     30  C   UNL A   1      41.725  25.267  26.392  1.00  0.00     0.338 C 
ATOM     31  O   UNL A   1      41.682  25.593  25.209  1.00  0.00    -0.246 OA
BRANCH  30  32
ATOM     32  C   UNL A   1      41.394  26.200  27.481  1.00  0.00     0.060 A 
ATOM     33  C   UNL A   1      42.217  27.316  27.667  1.00  0.00     0.016 A 
ATOM     34  C   UNL A   1      40.346  25.939  28.367  1.00  0.00     0.016 A 
ATOM     35  C   UNL A   1      42.001  28.169  28.750  1.00  0.00     0.010 A 
ATOM     36  C   UNL A   1      40.132  26.797  29.454  1.00  0.00     0.010 A 
ATOM     37  C   UNL A   1      40.967  27.908  29.662  1.00  0.00    -0.014 A 
BRANCH  37  38
ATOM     38  C   UNL A   1      40.786  28.784  30.847  1.00  0.00     0.031 A 
ATOM     39  C   UNL A   1      39.703  29.828  30.858  1.00  0.00     0.074 A 
ATOM     40  C   UNL A   1      41.592  28.639  31.917  1.00  0.00     0.049 A 
ATOM     41  N   UNL A   1      39.407  30.697  31.791  1.00  0.00    -0.248 NA
ATOM     42  C   UNL A   1      38.843  29.908  29.666  1.00  0.00     0.031 C 
ATOM     43  C   UNL A   1      42.671  27.656  32.035  1.00  0.00     0.029 A 
ATOM     44  N   UNL A   1      41.633  29.324  33.105  1.00  0.00    -0.354 N 
ATOM     45  C   UNL A   1      38.342  31.441  31.294  1.00  0.00     0.074 A 
ATOM     46  C   UNL A   1      38.050  30.928  29.972  1.00  0.00     0.031 C 
ATOM     47  C   UNL A   1      43.269  27.805  33.229  1.00  0.00     0.029 A 
ATOM     48  C   UNL A   1      42.640  28.912  33.945  1.00  0.00     0.049 A 
ATOM     49  H   UNL A   1      41.001  30.042  33.335  1.00  0.00     0.167 HD
ATOM     50  C   UNL A   1      37.669  32.458  31.885  1.00  0.00     0.031 A 
ATOM     51  C   UNL A   1      43.028  29.384  35.146  1.00  0.00     0.031 A 
ATOM     52  C   UNL A   1      37.951  32.960  33.204  1.00  0.00     0.049 A 
ATOM     53  C   UNL A   1      42.282  30.536  35.765  1.00  0.00     0.074 A 
ATOM     54  C   UNL A   1      37.285  33.952  33.905  1.00  0.00     0.029 A 
ATOM     55  N   UNL A   1      38.984  32.523  34.018  1.00  0.00    -0.354 N 
ATOM     56  N   UNL A   1      41.241  31.185  35.304  1.00  0.00    -0.248 NA
ATOM     57  C   UNL A   1      42.763  31.014  37.070  1.00  0.00     0.031 C 
ATOM     58  C   UNL A   1      37.946  34.149  35.122  1.00  0.00     0.029 A 
ATOM     59  C   UNL A   1      38.994  33.244  35.200  1.00  0.00     0.049 A 
ATOM     60  H   UNL A   1      39.617  31.804  33.789  1.00  0.00     0.167 HD
ATOM     61  C   UNL A   1      40.928  32.133  36.272  1.00  0.00     0.074 A 
ATOM     62  C   UNL A   1      41.878  31.961  37.352  1.00  0.00     0.031 C 
ATOM     63  C   UNL A   1      39.940  33.061  36.269  1.00  0.00     0.031 A 
BRANCH  50  64
ATOM     64  C   UNL A   1      36.572  33.127  31.103  1.00  0.00    -0.014 A 
ATOM     65  C   UNL A   1      35.219  32.832  31.345  1.00  0.00     0.010 A 
ATOM     66  C   UNL A   1      36.900  34.128  30.170  1.00  0.00     0.010 A 
ATOM     67  C   UNL A   1      34.214  33.515  30.653  1.00  0.00     0.020 A 
ATOM     68  C   UNL A   1      35.897  34.827  29.492  1.00  0.00     0.020 A 
ATOM     69  C   UNL A   1      34.560  34.508  29.731  1.00  0.00     0.054 A 
BRANCH  69  70
ATOM     70  S   UNL A   1      33.235  35.413  28.884  1.00  0.00     0.124 S 
ATOM     71  O   UNL A   1      33.992  36.361  28.069  1.00  0.00    -0.237 OA
ATOM     72  O   UNL A   1      32.547  34.359  28.144  1.00  0.00    -0.237 OA
ATOM     73  O   UNL A   1      32.467  36.006  29.976  1.00  0.00    -0.744 OA
ENDBRANCH  69  70
ENDBRANCH  50  64
BRANCH  51  74
ATOM     74  C   UNL A   1      44.207  28.792  35.837  1.00  0.00    -0.014 A 
ATOM     75  C   UNL A   1      45.508  29.246  35.560  1.00  0.00     0.010 A 
ATOM     76  C   UNL A   1      44.029  27.747  36.763  1.00  0.00     0.010 A 
ATOM     77  C   UNL A   1      46.612  28.646  36.170  1.00  0.00     0.020 A 
ATOM     78  C   UNL A   1      45.129  27.162  37.396  1.00  0.00     0.020 A 
ATOM     79  C   UNL A   1      46.416  27.605  37.082  1.00  0.00     0.054 A 
BRANCH  79  80
ATOM     80  S   UNL A   1      47.858  26.852  37.884  1.00  0.00     0.124 S 
ATOM     81  O   UNL A   1      47.587  25.427  37.719  1.00  0.00    -0.237 OA
ATOM     82  O   UNL A   1      48.972  27.379  37.099  1.00  0.00    -0.237 OA
ATOM     83  O   UNL A   1      47.783  27.351  39.256  1.00  0.00    -0.744 OA
ENDBRANCH  79  80
ENDBRANCH  51  74
BRANCH  63  84
ATOM     84  C   UNL A   1      39.812  33.944  37.481  1.00  0.00    -0.014 A 
ATOM     85  C   UNL A   1      40.487  35.174  37.562  1.00  0.00     0.010 A 
ATOM     86  C   UNL A   1      38.962  33.557  38.534  1.00  0.00     0.010 A 
ATOM     87  C   UNL A   1      40.338  35.989  38.687  1.00  0.00     0.020 A 
ATOM     88  C   UNL A   1      38.791  34.381  39.650  1.00  0.00     0.020 A 
ATOM     89  C   UNL A   1      39.493  35.586  39.726  1.00  0.00     0.054 A 
BRANCH  89  90
ATOM     90  S   UNL A   1      39.281  36.679  41.159  1.00  0.00     0.124 S 
ATOM     91  O   UNL A   1      38.369  35.906  41.997  1.00  0.00    -0.237 OA
ATOM     92  O   UNL A   1      40.644  36.811  41.670  1.00  0.00    -0.237 OA
ATOM     93  O   UNL A   1      38.718  37.898  40.584  1.00  0.00    -0.744 OA
ENDBRANCH  89  90
ENDBRANCH  63  84
ENDBRANCH  37  38
ENDBRANCH  30  32
ENDBRANCH  29  30
ENDBRANCH  28  29
ENDBRANCH   1  28
TORSDOF 19
ENDMDL
MODEL 2
REMARK VINA RESULT:     -10.3      6.587     11.757
REMARK SMILES COc1ccc(/C=C/C(=O)OCCOC(=O)c2ccc(-c3c4nc(c(-c5ccc(S(=O)(=O)[O-])cc5)c5ccc([nH]5)c(-c5ccc(S(=O)(=O)[O-])cc5)c5nc(c(-c6ccc(S(=O)(=O)[O-])cc6)c6ccc3[nH]6)C=C5)C=C4)cc2)cc1S(=O)(=O)Nc1ccc(F)cc1F
REMARK SMILES IDX 12 1 11 2 9 3 10 4 8 5 7 6 6 7 3 8 4 9 78 10 5 11 77 12 2 13
REMARK SMILES IDX 1 14 79 15 80 16 81 17 82 18 83 20 84 21 89 22 85 23 88 24
REMARK SMILES IDX 90 25 86 26 87 27 13 28 14 29 15 30 16 31 17 32 18 33 76 34
REMARK SMILES IDX 19 35 75 36 20 37 21 38 22 39 69 40 23 41 74 42 68 43 70 44
REMARK SMILES IDX 24 45 73 46 67 47 66 48 25 50 55 51 36 52 54 53 37 54 40 55
REMARK SMILES IDX 53 56 71 57 38 58 39 59 52 61 72 62 41 63 26 64 27 65 35 66
REMARK SMILES IDX 28 67 34 68 29 69 30 70 31 71 32 72 33 73 56 74 57 75 65 76
REMARK SMILES IDX 58 77 64 78 59 79 60 80 61 81 62 82 63 83 42 84 43 85 51 86
REMARK SMILES IDX 44 87 50 88 45 89 46 90 47 91 48 92 49 93
REMARK H PARENT 82 19 70 49 40 60
REMARK Flexibility Score: inf
ROOT
ATOM      1  C   UNL A   1      34.195  30.807  27.384  1.00  0.00     0.275 C 
ENDROOT
BRANCH   1   2
ATOM      2  O   UNL A   1      32.830  30.353  27.457  1.00  0.00    -0.459 OA
BRANCH   2   3
ATOM      3  C   UNL A   1      32.135  30.484  26.306  1.00  0.00     0.330 C 
ATOM      4  O   UNL A   1      31.308  31.350  26.057  1.00  0.00    -0.247 OA
BRANCH   3   5
ATOM      5  C   UNL A   1      32.447  29.449  25.307  1.00  0.00     0.094 C 
ATOM      6  C   UNL A   1      32.618  28.127  25.479  1.00  0.00     0.015 C 
BRANCH   6   7
ATOM      7  C   UNL A   1      32.952  27.283  24.314  1.00  0.00    -0.024 A 
ATOM      8  C   UNL A   1      33.059  25.531  22.134  1.00  0.00     0.139 A 
ATOM      9  C   UNL A   1      32.739  26.870  21.933  1.00  0.00     0.048 A 
ATOM     10  C   UNL A   1      33.564  25.121  23.363  1.00  0.00     0.130 A 
ATOM     11  C   UNL A   1      32.710  27.746  23.013  1.00  0.00     0.012 A 
ATOM     12  C   UNL A   1      33.473  25.993  24.470  1.00  0.00     0.034 A 
BRANCH   8  13
ATOM     13  O   UNL A   1      32.837  24.713  21.066  1.00  0.00    -0.495 OA
ATOM     14  C   UNL A   1      32.791  25.451  19.843  1.00  0.00     0.278 C 
ENDBRANCH   8  13
BRANCH  10  15
ATOM     15  S   UNL A   1      34.386  23.571  23.632  1.00  0.00     0.265 S 
ATOM     16  O   UNL A   1      33.398  22.520  23.509  1.00  0.00    -0.201 OA
ATOM     17  O   UNL A   1      35.540  23.582  22.752  1.00  0.00    -0.201 OA
BRANCH  15  18
ATOM     18  N   UNL A   1      35.050  23.469  25.175  1.00  0.00    -0.277 N 
ATOM     19  H   UNL A   1      34.442  23.581  25.941  1.00  0.00     0.180 HD
BRANCH  18  20
ATOM     20  C   UNL A   1      36.431  23.229  25.455  1.00  0.00     0.085 A 
ATOM     21  C   UNL A   1      37.132  24.294  26.045  1.00  0.00     0.033 A 
ATOM     22  C   UNL A   1      37.099  22.018  25.244  1.00  0.00     0.150 A 
ATOM     23  C   UNL A   1      38.424  24.102  26.538  1.00  0.00     0.041 A 
ATOM     24  C   UNL A   1      38.391  21.823  25.728  1.00  0.00     0.080 A 
ATOM     25  F   UNL A   1      36.486  20.990  24.643  1.00  0.00    -0.205 F 
ATOM     26  C   UNL A   1      39.030  22.860  26.393  1.00  0.00     0.126 A 
ATOM     27  F   UNL A   1      40.248  22.664  26.913  1.00  0.00    -0.207 F 
ENDBRANCH  18  20
ENDBRANCH  15  18
ENDBRANCH  10  15
ENDBRANCH   6   7
ENDBRANCH   3   5
ENDBRANCH   2   3
ENDBRANCH   1   2
BRANCH   1  28
ATOM     28  C   UNL A   1      34.622  31.529  28.665  1.00  0.00     0.275 C 
BRANCH  28  29
ATOM     29  O   UNL A   1      36.051  31.523  28.855  1.00  0.00    -0.458 OA
BRANCH  29  30
ATOM     30  C   UNL A   1      36.519  30.538  29.654  1.00  0.00     0.338 C 
ATOM     31  O   UNL A   1      35.875  29.883  30.469  1.00  0.00    -0.246 OA
BRANCH  30  32
ATOM     32  C   UNL A   1      37.933  30.259  29.357  1.00  0.00     0.060 A 
ATOM     33  C   UNL A   1      38.273  29.888  28.052  1.00  0.00     0.016 A 
ATOM     34  C   UNL A   1      38.903  30.272  30.363  1.00  0.00     0.016 A 
ATOM     35  C   UNL A   1      39.584  29.515  27.752  1.00  0.00     0.010 A 
ATOM     36  C   UNL A   1      40.217  29.896  30.059  1.00  0.00     0.010 A 
ATOM     37  C   UNL A   1      40.564  29.501  28.756  1.00  0.00    -0.014 A 
BRANCH  37  38
ATOM     38  C   UNL A   1      41.940  29.040  28.441  1.00  0.00     0.031 A 
ATOM     39  C   UNL A   1      43.079  30.022  28.416  1.00  0.00     0.074 A 
ATOM     40  C   UNL A   1      42.167  27.737  28.182  1.00  0.00     0.049 A 
ATOM     41  N   UNL A   1      44.342  29.811  28.141  1.00  0.00    -0.248 NA
ATOM     42  C   UNL A   1      42.759  31.422  28.737  1.00  0.00     0.031 C 
ATOM     43  C   UNL A   1      41.150  26.684  28.187  1.00  0.00     0.029 A 
ATOM     44  N   UNL A   1      43.327  27.079  27.858  1.00  0.00    -0.354 N 
ATOM     45  C   UNL A   1      44.964  31.051  28.236  1.00  0.00     0.074 A 
ATOM     46  C   UNL A   1      43.938  32.012  28.584  1.00  0.00     0.031 C 
ATOM     47  C   UNL A   1      41.731  25.513  27.877  1.00  0.00     0.029 A 
ATOM     48  C   UNL A   1      43.152  25.737  27.618  1.00  0.00     0.049 A 
ATOM     49  H   UNL A   1      44.202  27.527  27.801  1.00  0.00     0.167 HD
ATOM     50  C   UNL A   1      46.270  31.360  28.051  1.00  0.00     0.031 A 
ATOM     51  C   UNL A   1      44.029  24.796  27.216  1.00  0.00     0.031 A 
ATOM     52  C   UNL A   1      47.292  30.403  27.718  1.00  0.00     0.049 A 
ATOM     53  C   UNL A   1      45.468  25.175  26.988  1.00  0.00     0.074 A 
ATOM     54  C   UNL A   1      48.652  30.618  27.566  1.00  0.00     0.029 A 
ATOM     55  N   UNL A   1      47.073  29.057  27.477  1.00  0.00    -0.354 N 
ATOM     56  N   UNL A   1      46.047  26.342  27.141  1.00  0.00    -0.248 NA
ATOM     57  C   UNL A   1      46.373  24.107  26.536  1.00  0.00     0.031 C 
ATOM     58  C   UNL A   1      49.247  29.412  27.181  1.00  0.00     0.029 A 
ATOM     59  C   UNL A   1      48.265  28.435  27.145  1.00  0.00     0.049 A 
ATOM     60  H   UNL A   1      46.198  28.608  27.532  1.00  0.00     0.167 HD
ATOM     61  C   UNL A   1      47.387  26.142  26.827  1.00  0.00     0.074 A 
ATOM     62  C   UNL A   1      47.537  24.741  26.493  1.00  0.00     0.031 C 
ATOM     63  C   UNL A   1      48.403  27.039  26.819  1.00  0.00     0.031 A 
BRANCH  50  64
ATOM     64  C   UNL A   1      46.678  32.803  28.175  1.00  0.00    -0.014 A 
ATOM     65  C   UNL A   1      47.192  33.315  29.379  1.00  0.00     0.010 A 
ATOM     66  C   UNL A   1      46.624  33.635  27.041  1.00  0.00     0.010 A 
ATOM     67  C   UNL A   1      47.627  34.643  29.451  1.00  0.00     0.020 A 
ATOM     68  C   UNL A   1      47.078  34.956  27.105  1.00  0.00     0.020 A 
ATOM     69  C   UNL A   1      47.567  35.454  28.314  1.00  0.00     0.054 A 
BRANCH  69  70
ATOM     70  S   UNL A   1      48.185  37.156  28.421  1.00  0.00     0.124 S 
ATOM     71  O   UNL A   1      47.066  37.918  27.871  1.00  0.00    -0.237 OA
ATOM     72  O   UNL A   1      48.415  37.326  29.854  1.00  0.00    -0.237 OA
ATOM     73  O   UNL A   1      49.392  37.140  27.599  1.00  0.00    -0.744 OA
ENDBRANCH  69  70
ENDBRANCH  50  64
BRANCH  51  74
ATOM     74  C   UNL A   1      43.569  23.402  26.968  1.00  0.00    -0.014 A 
ATOM     75  C   UNL A   1      43.295  22.533  28.037  1.00  0.00     0.010 A 
ATOM     76  C   UNL A   1      43.426  22.933  25.649  1.00  0.00     0.010 A 
ATOM     77  C   UNL A   1      42.918  21.209  27.794  1.00  0.00     0.020 A 
ATOM     78  C   UNL A   1      43.023  21.618  25.401  1.00  0.00     0.020 A 
ATOM     79  C   UNL A   1      42.788  20.759  26.477  1.00  0.00     0.054 A 
BRANCH  79  80
ATOM     80  S   UNL A   1      42.275  19.045  26.178  1.00  0.00     0.124 S 
ATOM     81  O   UNL A   1      43.158  18.651  25.084  1.00  0.00    -0.237 OA
ATOM     82  O   UNL A   1      42.537  18.404  27.465  1.00  0.00    -0.237 OA
ATOM     83  O   UNL A   1      40.861  19.169  25.830  1.00  0.00    -0.744 OA
ENDBRANCH  79  80
ENDBRANCH  51  74
BRANCH  63  84
ATOM     84  C   UNL A   1      49.776  26.531  26.469  1.00  0.00    -0.014 A 
ATOM     85  C   UNL A   1      50.593  25.916  27.433  1.00  0.00     0.010 A 
ATOM     86  C   UNL A   1      50.233  26.626  25.141  1.00  0.00     0.010 A 
ATOM     87  C   UNL A   1      51.856  25.432  27.083  1.00  0.00     0.020 A 
ATOM     88  C   UNL A   1      51.485  26.121  24.782  1.00  0.00     0.020 A 
ATOM     89  C   UNL A   1      52.296  25.539  25.760  1.00  0.00     0.054 A 
BRANCH  89  90
ATOM     90  S   UNL A   1      53.921  24.865  25.317  1.00  0.00     0.124 S 
ATOM     91  O   UNL A   1      54.240  25.613  24.105  1.00  0.00    -0.237 OA
ATOM     92  O   UNL A   1      54.735  25.189  26.488  1.00  0.00    -0.237 OA
ATOM     93  O   UNL A   1      53.663  23.441  25.122  1.00  0.00    -0.744 OA
ENDBRANCH  89  90
ENDBRANCH  63  84
ENDBRANCH  37  38
ENDBRANCH  30  32
ENDBRANCH  29  30
ENDBRANCH  28  29
ENDBRANCH   1  28
TORSDOF 19
ENDMDL
MODEL 3
REMARK VINA RESULT:     -10.1      6.573     12.221
REMARK SMILES COc1ccc(/C=C/C(=O)OCCOC(=O)c2ccc(-c3c4nc(c(-c5ccc(S(=O)(=O)[O-])cc5)c5ccc([nH]5)c(-c5ccc(S(=O)(=O)[O-])cc5)c5nc(c(-c6ccc(S(=O)(=O)[O-])cc6)c6ccc3[nH]6)C=C5)C=C4)cc2)cc1S(=O)(=O)Nc1ccc(F)cc1F
REMARK SMILES IDX 12 1 11 2 9 3 10 4 8 5 7 6 6 7 3 8 4 9 78 10 5 11 77 12 2 13
REMARK SMILES IDX 1 14 79 15 80 16 81 17 82 18 83 20 84 21 89 22 85 23 88 24
REMARK SMILES IDX 90 25 86 26 87 27 13 28 14 29 15 30 16 31 17 32 18 33 76 34
REMARK SMILES IDX 19 35 75 36 20 37 21 38 22 39 69 40 23 41 74 42 68 43 70 44
REMARK SMILES IDX 24 45 73 46 67 47 66 48 25 50 55 51 36 52 54 53 37 54 40 55
REMARK SMILES IDX 53 56 71 57 38 58 39 59 52 61 72 62 41 63 26 64 27 65 35 66
REMARK SMILES IDX 28 67 34 68 29 69 30 70 31 71 32 72 33 73 56 74 57 75 65 76
REMARK SMILES IDX 58 77 64 78 59 79 60 80 61 81 62 82 63 83 42 84 43 85 51 86
REMARK SMILES IDX 44 87 50 88 45 89 46 90 47 91 48 92 49 93
REMARK H PARENT 82 19 70 49 40 60
REMARK Flexibility Score: inf
ROOT
ATOM      1  C   UNL A   1      34.463  32.059  27.832  1.00  0.00     0.275 C 
ENDROOT
BRANCH   1   2
ATOM      2  O   UNL A   1      33.267  31.281  28.030  1.00  0.00    -0.459 OA
BRANCH   2   3
ATOM      3  C   UNL A   1      32.472  31.192  26.941  1.00  0.00     0.330 C 
ATOM      4  O   UNL A   1      31.524  31.919  26.678  1.00  0.00    -0.247 OA
BRANCH   3   5
ATOM      5  C   UNL A   1      32.834  30.091  26.034  1.00  0.00     0.094 C 
ATOM      6  C   UNL A   1      32.034  29.278  25.323  1.00  0.00     0.015 C 
BRANCH   6   7
ATOM      7  C   UNL A   1      32.636  28.217  24.491  1.00  0.00    -0.024 A 
ATOM      8  C   UNL A   1      33.381  26.337  22.555  1.00  0.00     0.139 A 
ATOM      9  C   UNL A   1      33.934  27.614  22.531  1.00  0.00     0.048 A 
ATOM     10  C   UNL A   1      32.661  25.919  23.670  1.00  0.00     0.130 A 
ATOM     11  C   UNL A   1      33.582  28.540  23.508  1.00  0.00     0.012 A 
ATOM     12  C   UNL A   1      32.254  26.876  24.624  1.00  0.00     0.034 A 
BRANCH   8  13
ATOM     13  O   UNL A   1      33.604  25.586  21.440  1.00  0.00    -0.495 OA
ATOM     14  C   UNL A   1      32.481  25.613  20.558  1.00  0.00     0.278 C 
ENDBRANCH   8  13
BRANCH  10  15
ATOM     15  S   UNL A   1      32.261  24.225  24.016  1.00  0.00     0.265 S 
ATOM     16  O   UNL A   1      32.496  23.995  25.426  1.00  0.00    -0.201 OA
ATOM     17  O   UNL A   1      30.936  24.016  23.463  1.00  0.00    -0.201 OA
BRANCH  15  18
ATOM     18  N   UNL A   1      33.236  23.158  23.155  1.00  0.00    -0.277 N 
ATOM     19  H   UNL A   1      32.949  22.909  22.246  1.00  0.00     0.180 HD
BRANCH  18  20
ATOM     20  C   UNL A   1      34.451  22.586  23.644  1.00  0.00     0.085 A 
ATOM     21  C   UNL A   1      35.630  23.274  23.313  1.00  0.00     0.033 A 
ATOM     22  C   UNL A   1      34.537  21.454  24.462  1.00  0.00     0.150 A 
ATOM     23  C   UNL A   1      36.844  22.916  23.902  1.00  0.00     0.041 A 
ATOM     24  C   UNL A   1      35.748  21.088  25.046  1.00  0.00     0.080 A 
ATOM     25  F   UNL A   1      33.446  20.740  24.766  1.00  0.00    -0.205 F 
ATOM     26  C   UNL A   1      36.884  21.840  24.781  1.00  0.00     0.126 A 
ATOM     27  F   UNL A   1      38.040  21.533  25.383  1.00  0.00    -0.207 F 
ENDBRANCH  18  20
ENDBRANCH  15  18
ENDBRANCH  10  15
ENDBRANCH   6   7
ENDBRANCH   3   5
ENDBRANCH   2   3
ENDBRANCH   1   2
BRANCH   1  28
ATOM     28  C   UNL A   1      35.552  31.695  28.846  1.00  0.00     0.275 C 
BRANCH  28  29
ATOM     29  O   UNL A   1      35.846  30.285  28.862  1.00  0.00    -0.458 OA
BRANCH  29  30
ATOM     30  C   UNL A   1      36.607  29.869  29.900  1.00  0.00     0.338 C 
ATOM     31  O   UNL A   1      36.258  29.769  31.073  1.00  0.00    -0.246 OA
BRANCH  30  32
ATOM     32  C   UNL A   1      37.934  29.441  29.431  1.00  0.00     0.060 A 
ATOM     33  C   UNL A   1      38.911  29.148  30.389  1.00  0.00     0.016 A 
ATOM     34  C   UNL A   1      38.249  29.413  28.070  1.00  0.00     0.016 A 
ATOM     35  C   UNL A   1      40.211  28.838  29.988  1.00  0.00     0.010 A 
ATOM     36  C   UNL A   1      39.555  29.103  27.670  1.00  0.00     0.010 A 
ATOM     37  C   UNL A   1      40.548  28.829  28.626  1.00  0.00    -0.014 A 
BRANCH  37  38
ATOM     38  C   UNL A   1      41.950  28.563  28.212  1.00  0.00     0.031 A 
ATOM     39  C   UNL A   1      42.370  27.174  27.815  1.00  0.00     0.074 A 
ATOM     40  C   UNL A   1      42.844  29.570  28.189  1.00  0.00     0.049 A 
ATOM     41  N   UNL A   1      43.551  26.746  27.446  1.00  0.00    -0.248 NA
ATOM     42  C   UNL A   1      41.332  26.132  27.837  1.00  0.00     0.031 C 
ATOM     43  C   UNL A   1      42.558  30.963  28.539  1.00  0.00     0.029 A 
ATOM     44  N   UNL A   1      44.177  29.575  27.862  1.00  0.00    -0.354 N 
ATOM     45  C   UNL A   1      43.405  25.383  27.212  1.00  0.00     0.074 A 
ATOM     46  C   UNL A   1      42.023  25.053  27.490  1.00  0.00     0.031 C 
ATOM     47  C   UNL A   1      43.684  31.686  28.412  1.00  0.00     0.029 A 
ATOM     48  C   UNL A   1      44.776  30.805  28.004  1.00  0.00     0.049 A 
ATOM     49  H   UNL A   1      44.659  28.774  27.555  1.00  0.00     0.167 HD
ATOM     50  C   UNL A   1      44.337  24.489  26.802  1.00  0.00     0.031 A 
ATOM     51  C   UNL A   1      46.061  31.178  27.845  1.00  0.00     0.031 A 
ATOM     52  C   UNL A   1      45.708  24.819  26.513  1.00  0.00     0.049 A 
ATOM     53  C   UNL A   1      47.081  30.156  27.420  1.00  0.00     0.074 A 
ATOM     54  C   UNL A   1      46.710  23.987  26.040  1.00  0.00     0.029 A 
ATOM     55  N   UNL A   1      46.276  26.071  26.678  1.00  0.00    -0.354 N 
ATOM     56  N   UNL A   1      46.909  28.885  27.147  1.00  0.00    -0.248 NA
ATOM     57  C   UNL A   1      48.469  30.622  27.278  1.00  0.00     0.031 C 
ATOM     58  C   UNL A   1      47.895  24.725  25.967  1.00  0.00     0.029 A 
ATOM     59  C   UNL A   1      47.620  26.029  26.347  1.00  0.00     0.049 A 
ATOM     60  H   UNL A   1      45.795  26.874  26.985  1.00  0.00     0.167 HD
ATOM     61  C   UNL A   1      48.161  28.406  26.778  1.00  0.00     0.074 A 
ATOM     62  C   UNL A   1      49.078  29.525  26.846  1.00  0.00     0.031 C 
ATOM     63  C   UNL A   1      48.520  27.150  26.413  1.00  0.00     0.031 A 
BRANCH  50  64
ATOM     64  C   UNL A   1      43.921  23.050  26.665  1.00  0.00    -0.014 A 
ATOM     65  C   UNL A   1      43.079  22.440  27.612  1.00  0.00     0.010 A 
ATOM     66  C   UNL A   1      44.312  22.323  25.525  1.00  0.00     0.010 A 
ATOM     67  C   UNL A   1      42.652  21.121  27.429  1.00  0.00     0.020 A 
ATOM     68  C   UNL A   1      43.869  21.012  25.329  1.00  0.00     0.020 A 
ATOM     69  C   UNL A   1      43.050  20.415  26.289  1.00  0.00     0.054 A 
BRANCH  69  70
ATOM     70  S   UNL A   1      42.440  18.724  26.051  1.00  0.00     0.124 S 
ATOM     71  O   UNL A   1      41.034  18.954  25.725  1.00  0.00    -0.237 OA
ATOM     72  O   UNL A   1      43.268  18.234  24.952  1.00  0.00    -0.237 OA
ATOM     73  O   UNL A   1      42.682  18.082  27.341  1.00  0.00    -0.744 OA
ENDBRANCH  69  70
ENDBRANCH  50  64
BRANCH  51  74
ATOM     74  C   UNL A   1      46.471  32.582  28.122  1.00  0.00    -0.014 A 
ATOM     75  C   UNL A   1      46.867  32.975  29.413  1.00  0.00     0.010 A 
ATOM     76  C   UNL A   1      46.442  33.540  27.093  1.00  0.00     0.010 A 
ATOM     77  C   UNL A   1      47.196  34.308  29.677  1.00  0.00     0.020 A 
ATOM     78  C   UNL A   1      46.796  34.868  27.346  1.00  0.00     0.020 A 
ATOM     79  C   UNL A   1      47.155  35.247  28.642  1.00  0.00     0.054 A 
BRANCH  79  80
ATOM     80  S   UNL A   1      47.607  36.967  28.995  1.00  0.00     0.124 S 
ATOM     81  O   UNL A   1      48.330  36.838  30.256  1.00  0.00    -0.237 OA
ATOM     82  O   UNL A   1      48.419  37.328  27.835  1.00  0.00    -0.237 OA
ATOM     83  O   UNL A   1      46.316  37.648  29.077  1.00  0.00    -0.744 OA
ENDBRANCH  79  80
ENDBRANCH  51  74
BRANCH  63  84
ATOM     84  C   UNL A   1      49.957  26.923  26.027  1.00  0.00    -0.014 A 
ATOM     85  C   UNL A   1      50.911  26.515  26.975  1.00  0.00     0.010 A 
ATOM     86  C   UNL A   1      50.347  27.074  24.683  1.00  0.00     0.010 A 
ATOM     87  C   UNL A   1      52.235  26.289  26.592  1.00  0.00     0.020 A 
ATOM     88  C   UNL A   1      51.665  26.825  24.291  1.00  0.00     0.020 A 
ATOM     89  C   UNL A   1      52.605  26.448  25.253  1.00  0.00     0.054 A 
BRANCH  89  90
ATOM     90  S   UNL A   1      54.321  26.108  24.769  1.00  0.00     0.124 S 
ATOM     91  O   UNL A   1      54.321  26.493  23.361  1.00  0.00    -0.237 OA
ATOM     92  O   UNL A   1      55.086  26.978  25.659  1.00  0.00    -0.237 OA
ATOM     93  O   UNL A   1      54.475  24.678  25.025  1.00  0.00    -0.744 OA
ENDBRANCH  89  90
ENDBRANCH  63  84
ENDBRANCH  37  38
ENDBRANCH  30  32
ENDBRANCH  29  30
ENDBRANCH  28  29
ENDBRANCH   1  28
TORSDOF 19
ENDMDL
