MODEL 1
REMARK VINA RESULT:     -10.8      0.000      0.000
REMARK SMILES C[NH+]1CCC([N@@H+](C)Cc2ccc(C(=O)OCCOC(=O)c3ccc(-c4c5nc(c(-c6ccc(S(=O)(=O)[O-])cc6)c6ccc([nH]6)c(-c6ccc(S(=O)(=O)[O-])cc6)c6nc(c(-c7ccc(S(=O)(=O)[O-])cc7)c7ccc4[nH]7)C=C6)C=C5)cc3)cn2)CC1
REMARK SMILES IDX 16 1 15 2 13 3 14 4 12 5 9 6 10 7 82 8 11 9 81 10 8 11 6 12
REMARK SMILES IDX 7 13 5 15 1 16 2 17 3 18 84 19 4 21 83 22 17 23 18 24 19 25
REMARK SMILES IDX 20 26 21 27 22 28 80 29 23 30 79 31 24 32 25 33 26 34 73 35
REMARK SMILES IDX 27 36 78 37 72 38 74 39 28 40 77 41 71 42 70 43 29 45 59 46
REMARK SMILES IDX 40 47 58 48 41 49 44 50 57 51 75 52 42 53 43 54 56 56 76 57
REMARK SMILES IDX 45 58 30 59 31 60 39 61 32 62 38 63 33 64 34 65 35 66 36 67
REMARK SMILES IDX 37 68 60 69 61 70 69 71 62 72 68 73 63 74 64 75 65 76 66 77
REMARK SMILES IDX 67 78 46 79 47 80 55 81 48 82 54 83 49 84 50 85 51 86 52 87
REMARK SMILES IDX 53 88
REMARK H PARENT 6 14 2 20 74 44 44 55
REMARK Flexibility Score: inf
ROOT
ATOM      1  C   UNL A   1      38.413  21.566  25.506  1.00  0.00     0.275 C 
ENDROOT
BRANCH   1   2
ATOM      2  O   UNL A   1      37.094  22.081  25.790  1.00  0.00    -0.458 OA
BRANCH   2   3
ATOM      3  C   UNL A   1      36.080  21.283  25.380  1.00  0.00     0.339 C 
ATOM      4  O   UNL A   1      36.175  20.124  25.015  1.00  0.00    -0.246 OA
BRANCH   3   5
ATOM      5  C   UNL A   1      34.779  21.957  25.487  1.00  0.00     0.078 A 
ATOM      6  C   UNL A   1      32.468  23.348  24.972  1.00  0.00     0.095 A 
ATOM      7  C   UNL A   1      33.418  23.897  25.843  1.00  0.00     0.031 A 
ATOM      8  N   UNL A   1      32.572  22.087  24.508  1.00  0.00    -0.254 NA
ATOM      9  C   UNL A   1      34.599  23.187  26.105  1.00  0.00     0.019 A 
ATOM     10  C   UNL A   1      33.729  21.443  24.748  1.00  0.00     0.127 A 
BRANCH   6  11
ATOM     11  C   UNL A   1      31.393  24.196  24.316  1.00  0.00     0.319 C 
BRANCH  11  12
ATOM     12  N   UNL A   1      31.829  25.100  23.217  1.00  0.00    -0.330 N 
ATOM     13  C   UNL A   1      32.921  24.524  22.426  1.00  0.00     0.333 C 
ATOM     14  H   UNL A   1      30.990  25.151  22.641  1.00  0.00     0.348 HD
BRANCH  12  15
ATOM     15  C   UNL A   1      32.058  26.529  23.540  1.00  0.00     0.195 C 
ATOM     16  C   UNL A   1      32.995  29.958  26.012  1.00  0.00     0.332 C 
ATOM     17  N   UNL A   1      32.768  28.634  25.440  1.00  0.00    -0.337 N 
ATOM     18  C   UNL A   1      33.645  28.410  24.282  1.00  0.00     0.268 C 
ATOM     19  C   UNL A   1      31.369  28.466  25.036  1.00  0.00     0.268 C 
ATOM     20  H   UNL A   1      32.987  27.946  26.161  1.00  0.00     0.347 HD
ATOM     21  C   UNL A   1      33.518  26.974  23.772  1.00  0.00     0.126 C 
ATOM     22  C   UNL A   1      31.120  27.009  24.660  1.00  0.00     0.126 C 
ENDBRANCH  12  15
ENDBRANCH  11  12
ENDBRANCH   6  11
ENDBRANCH   3   5
ENDBRANCH   2   3
ENDBRANCH   1   2
BRANCH   1  23
ATOM     23  C   UNL A   1      39.462  22.199  26.423  1.00  0.00     0.275 C 
BRANCH  23  24
ATOM     24  O   UNL A   1      39.288  23.627  26.517  1.00  0.00    -0.458 OA
BRANCH  24  25
ATOM     25  C   UNL A   1      40.423  24.322  26.754  1.00  0.00     0.338 C 
ATOM     26  O   UNL A   1      41.543  24.064  26.339  1.00  0.00    -0.246 OA
BRANCH  25  27
ATOM     27  C   UNL A   1      40.152  25.532  27.545  1.00  0.00     0.060 A 
ATOM     28  C   UNL A   1      40.953  26.647  27.340  1.00  0.00     0.016 A 
ATOM     29  C   UNL A   1      39.307  25.476  28.650  1.00  0.00     0.016 A 
ATOM     30  C   UNL A   1      41.069  27.607  28.341  1.00  0.00     0.010 A 
ATOM     31  C   UNL A   1      39.287  26.544  29.557  1.00  0.00     0.010 A 
ATOM     32  C   UNL A   1      40.209  27.601  29.448  1.00  0.00    -0.014 A 
BRANCH  32  33
ATOM     33  C   UNL A   1      40.273  28.694  30.467  1.00  0.00     0.031 A 
ATOM     34  C   UNL A   1      41.301  28.666  31.574  1.00  0.00     0.074 A 
ATOM     35  C   UNL A   1      39.394  29.719  30.412  1.00  0.00     0.049 A 
ATOM     36  N   UNL A   1      41.376  29.407  32.652  1.00  0.00    -0.248 NA
ATOM     37  C   UNL A   1      42.373  27.662  31.471  1.00  0.00     0.031 C 
ATOM     38  C   UNL A   1      38.371  29.912  29.378  1.00  0.00     0.029 A 
ATOM     39  N   UNL A   1      39.219  30.801  31.241  1.00  0.00    -0.354 N 
ATOM     40  C   UNL A   1      42.458  28.920  33.382  1.00  0.00     0.074 A 
ATOM     41  C   UNL A   1      43.000  27.810  32.629  1.00  0.00     0.031 C 
ATOM     42  C   UNL A   1      37.724  31.063  29.599  1.00  0.00     0.029 A 
ATOM     43  C   UNL A   1      38.189  31.628  30.857  1.00  0.00     0.049 A 
ATOM     44  H   UNL A   1      39.778  30.969  32.033  1.00  0.00     0.167 HD
ATOM     45  C   UNL A   1      42.950  29.356  34.569  1.00  0.00     0.031 A 
ATOM     46  C   UNL A   1      37.626  32.688  31.465  1.00  0.00     0.031 A 
ATOM     47  C   UNL A   1      42.423  30.485  35.293  1.00  0.00     0.049 A 
ATOM     48  C   UNL A   1      38.143  33.114  32.806  1.00  0.00     0.074 A 
ATOM     49  C   UNL A   1      42.860  31.020  36.494  1.00  0.00     0.029 A 
ATOM     50  N   UNL A   1      41.351  31.263  34.881  1.00  0.00    -0.354 N 
ATOM     51  N   UNL A   1      39.135  32.610  33.501  1.00  0.00    -0.248 NA
ATOM     52  C   UNL A   1      37.459  34.241  33.451  1.00  0.00     0.031 C 
ATOM     53  C   UNL A   1      42.014  32.080  36.837  1.00  0.00     0.029 A 
ATOM     54  C   UNL A   1      41.094  32.255  35.815  1.00  0.00     0.049 A 
ATOM     55  H   UNL A   1      40.844  31.130  34.046  1.00  0.00     0.167 HD
ATOM     56  C   UNL A   1      39.208  33.375  34.658  1.00  0.00     0.074 A 
ATOM     57  C   UNL A   1      38.173  34.384  34.559  1.00  0.00     0.031 C 
ATOM     58  C   UNL A   1      40.059  33.252  35.706  1.00  0.00     0.031 A 
BRANCH  45  59
ATOM     59  C   UNL A   1      44.087  28.577  35.190  1.00  0.00    -0.014 A 
ATOM     60  C   UNL A   1      45.427  28.791  34.816  1.00  0.00     0.010 A 
ATOM     61  C   UNL A   1      43.808  27.632  36.197  1.00  0.00     0.010 A 
ATOM     62  C   UNL A   1      46.455  28.040  35.397  1.00  0.00     0.020 A 
ATOM     63  C   UNL A   1      44.835  26.903  36.803  1.00  0.00     0.020 A 
ATOM     64  C   UNL A   1      46.151  27.096  36.384  1.00  0.00     0.054 A 
BRANCH  64  65
ATOM     65  S   UNL A   1      47.505  26.136  37.119  1.00  0.00     0.124 S 
ATOM     66  O   UNL A   1      47.564  26.686  38.471  1.00  0.00    -0.237 OA
ATOM     67  O   UNL A   1      47.015  24.763  37.021  1.00  0.00    -0.237 OA
ATOM     68  O   UNL A   1      48.653  26.447  36.271  1.00  0.00    -0.744 OA
ENDBRANCH  64  65
ENDBRANCH  45  59
BRANCH  46  69
ATOM     69  C   UNL A   1      36.472  33.381  30.823  1.00  0.00    -0.014 A 
ATOM     70  C   UNL A   1      35.268  33.560  31.522  1.00  0.00     0.010 A 
ATOM     71  C   UNL A   1      36.590  33.904  29.520  1.00  0.00     0.010 A 
ATOM     72  C   UNL A   1      34.202  34.244  30.930  1.00  0.00     0.020 A 
ATOM     73  C   UNL A   1      35.541  34.621  28.941  1.00  0.00     0.020 A 
ATOM     74  C   UNL A   1      34.349  34.778  29.647  1.00  0.00     0.054 A 
BRANCH  74  75
ATOM     75  S   UNL A   1      32.975  35.722  28.929  1.00  0.00     0.124 S 
ATOM     76  O   UNL A   1      33.671  36.833  28.289  1.00  0.00    -0.237 OA
ATOM     77  O   UNL A   1      32.365  34.750  28.024  1.00  0.00    -0.237 OA
ATOM     78  O   UNL A   1      32.161  36.077  30.089  1.00  0.00    -0.744 OA
ENDBRANCH  74  75
ENDBRANCH  46  69
BRANCH  58  79
ATOM     79  C   UNL A   1      39.934  34.262  36.815  1.00  0.00    -0.014 A 
ATOM     80  C   UNL A   1      40.603  35.497  36.760  1.00  0.00     0.010 A 
ATOM     81  C   UNL A   1      39.098  33.981  37.912  1.00  0.00     0.010 A 
ATOM     82  C   UNL A   1      40.460  36.423  37.798  1.00  0.00     0.020 A 
ATOM     83  C   UNL A   1      38.929  34.917  38.935  1.00  0.00     0.020 A 
ATOM     84  C   UNL A   1      39.622  36.127  38.878  1.00  0.00     0.054 A 
BRANCH  84  85
ATOM     85  S   UNL A   1      39.416  37.365  40.187  1.00  0.00     0.124 S 
ATOM     86  O   UNL A   1      38.810  36.579  41.257  1.00  0.00    -0.237 OA
ATOM     87  O   UNL A   1      40.789  37.804  40.429  1.00  0.00    -0.237 OA
ATOM     88  O   UNL A   1      38.545  38.370  39.581  1.00  0.00    -0.744 OA
ENDBRANCH  84  85
ENDBRANCH  58  79
ENDBRANCH  32  33
ENDBRANCH  25  27
ENDBRANCH  24  25
ENDBRANCH  23  24
ENDBRANCH   1  23
TORSDOF 17
ENDMDL
MODEL 2
REMARK VINA RESULT:     -10.5      4.471     10.483
REMARK SMILES C[NH+]1CCC([N@@H+](C)Cc2ccc(C(=O)OCCOC(=O)c3ccc(-c4c5nc(c(-c6ccc(S(=O)(=O)[O-])cc6)c6ccc([nH]6)c(-c6ccc(S(=O)(=O)[O-])cc6)c6nc(c(-c7ccc(S(=O)(=O)[O-])cc7)c7ccc4[nH]7)C=C6)C=C5)cc3)cn2)CC1
REMARK SMILES IDX 16 1 15 2 13 3 14 4 12 5 9 6 10 7 82 8 11 9 81 10 8 11 6 12
REMARK SMILES IDX 7 13 5 15 1 16 2 17 3 18 84 19 4 21 83 22 17 23 18 24 19 25
REMARK SMILES IDX 20 26 21 27 22 28 80 29 23 30 79 31 24 32 25 33 26 34 73 35
REMARK SMILES IDX 27 36 78 37 72 38 74 39 28 40 77 41 71 42 70 43 29 45 59 46
REMARK SMILES IDX 40 47 58 48 41 49 44 50 57 51 75 52 42 53 43 54 56 56 76 57
REMARK SMILES IDX 45 58 30 59 31 60 39 61 32 62 38 63 33 64 34 65 35 66 36 67
REMARK SMILES IDX 37 68 60 69 61 70 69 71 62 72 68 73 63 74 64 75 65 76 66 77
REMARK SMILES IDX 67 78 46 79 47 80 55 81 48 82 54 83 49 84 50 85 51 86 52 87
REMARK SMILES IDX 53 88
REMARK H PARENT 6 14 2 20 74 44 44 55
REMARK Flexibility Score: inf
ROOT
ATOM      1  C   UNL A   1      32.482  29.669  25.344  1.00  0.00     0.275 C 
ENDROOT
BRANCH   1   2
ATOM      2  O   UNL A   1      31.252  28.923  25.224  1.00  0.00    -0.458 OA
BRANCH   2   3
ATOM      3  C   UNL A   1      30.773  28.831  23.962  1.00  0.00     0.339 C 
ATOM      4  O   UNL A   1      30.458  29.760  23.238  1.00  0.00    -0.246 OA
BRANCH   3   5
ATOM      5  C   UNL A   1      30.731  27.439  23.495  1.00  0.00     0.078 A 
ATOM      6  C   UNL A   1      30.875  24.702  23.313  1.00  0.00     0.095 A 
ATOM      7  C   UNL A   1      31.751  25.486  22.551  1.00  0.00     0.031 A 
ATOM      8  N   UNL A   1      29.855  25.244  24.006  1.00  0.00    -0.254 NA
ATOM      9  C   UNL A   1      31.678  26.884  22.645  1.00  0.00     0.019 A 
ATOM     10  C   UNL A   1      29.829  26.586  24.105  1.00  0.00     0.127 A 
BRANCH   6  11
ATOM     11  C   UNL A   1      31.147  23.235  23.596  1.00  0.00     0.319 C 
BRANCH  11  12
ATOM     12  N   UNL A   1      32.385  22.657  23.005  1.00  0.00    -0.330 N 
ATOM     13  C   UNL A   1      32.141  21.356  22.374  1.00  0.00     0.333 C 
ATOM     14  H   UNL A   1      32.613  23.340  22.283  1.00  0.00     0.348 HD
BRANCH  12  15
ATOM     15  C   UNL A   1      33.620  22.665  23.825  1.00  0.00     0.195 C 
ATOM     16  C   UNL A   1      37.602  21.486  25.047  1.00  0.00     0.332 C 
ATOM     17  N   UNL A   1      36.321  21.697  24.379  1.00  0.00    -0.337 N 
ATOM     18  C   UNL A   1      36.142  23.114  24.033  1.00  0.00     0.268 C 
ATOM     19  C   UNL A   1      35.207  21.252  25.220  1.00  0.00     0.268 C 
ATOM     20  H   UNL A   1      36.327  21.143  23.522  1.00  0.00     0.347 HD
ATOM     21  C   UNL A   1      34.875  23.316  23.203  1.00  0.00     0.126 C 
ATOM     22  C   UNL A   1      33.916  21.274  24.408  1.00  0.00     0.126 C 
ENDBRANCH  12  15
ENDBRANCH  11  12
ENDBRANCH   6  11
ENDBRANCH   3   5
ENDBRANCH   2   3
ENDBRANCH   1   2
BRANCH   1  23
ATOM     23  C   UNL A   1      32.515  30.476  26.644  1.00  0.00     0.275 C 
BRANCH  23  24
ATOM     24  O   UNL A   1      33.466  29.930  27.580  1.00  0.00    -0.458 OA
BRANCH  24  25
ATOM     25  C   UNL A   1      34.413  30.799  27.999  1.00  0.00     0.338 C 
ATOM     26  O   UNL A   1      34.258  31.982  28.264  1.00  0.00    -0.246 OA
BRANCH  25  27
ATOM     27  C   UNL A   1      35.707  30.127  28.186  1.00  0.00     0.060 A 
ATOM     28  C   UNL A   1      36.030  29.659  29.453  1.00  0.00     0.016 A 
ATOM     29  C   UNL A   1      36.688  30.201  27.202  1.00  0.00     0.016 A 
ATOM     30  C   UNL A   1      37.364  29.466  29.799  1.00  0.00     0.010 A 
ATOM     31  C   UNL A   1      38.002  29.816  27.506  1.00  0.00     0.010 A 
ATOM     32  C   UNL A   1      38.372  29.498  28.825  1.00  0.00    -0.014 A 
BRANCH  32  33
ATOM     33  C   UNL A   1      39.790  29.188  29.188  1.00  0.00     0.031 A 
ATOM     34  C   UNL A   1      40.668  30.227  29.847  1.00  0.00     0.074 A 
ATOM     35  C   UNL A   1      40.305  27.969  28.914  1.00  0.00     0.049 A 
ATOM     36  N   UNL A   1      41.964  30.210  30.044  1.00  0.00    -0.248 NA
ATOM     37  C   UNL A   1      40.012  31.454  30.328  1.00  0.00     0.031 C 
ATOM     38  C   UNL A   1      39.572  26.845  28.322  1.00  0.00     0.029 A 
ATOM     39  N   UNL A   1      41.569  27.463  29.103  1.00  0.00    -0.354 N 
ATOM     40  C   UNL A   1      42.284  31.441  30.611  1.00  0.00     0.074 A 
ATOM     41  C   UNL A   1      41.048  32.186  30.712  1.00  0.00     0.031 C 
ATOM     42  C   UNL A   1      40.374  25.776  28.254  1.00  0.00     0.029 A 
ATOM     43  C   UNL A   1      41.712  26.165  28.671  1.00  0.00     0.049 A 
ATOM     44  H   UNL A   1      42.302  27.980  29.509  1.00  0.00     0.167 HD
ATOM     45  C   UNL A   1      43.496  31.907  31.006  1.00  0.00     0.031 A 
ATOM     46  C   UNL A   1      42.799  25.380  28.557  1.00  0.00     0.031 A 
ATOM     47  C   UNL A   1      44.716  31.142  30.932  1.00  0.00     0.049 A 
ATOM     48  C   UNL A   1      44.138  25.936  28.939  1.00  0.00     0.074 A 
ATOM     49  C   UNL A   1      45.992  31.515  31.323  1.00  0.00     0.029 A 
ATOM     50  N   UNL A   1      44.813  29.846  30.447  1.00  0.00    -0.354 N 
ATOM     51  N   UNL A   1      44.427  27.119  29.427  1.00  0.00    -0.248 NA
ATOM     52  C   UNL A   1      45.298  25.058  28.744  1.00  0.00     0.031 C 
ATOM     53  C   UNL A   1      46.868  30.468  31.016  1.00  0.00     0.029 A 
ATOM     54  C   UNL A   1      46.129  29.414  30.502  1.00  0.00     0.049 A 
ATOM     55  H   UNL A   1      44.057  29.311  30.111  1.00  0.00     0.167 HD
ATOM     56  C   UNL A   1      45.802  27.120  29.618  1.00  0.00     0.074 A 
ATOM     57  C   UNL A   1      46.283  25.815  29.211  1.00  0.00     0.031 C 
ATOM     58  C   UNL A   1      46.595  28.113  30.091  1.00  0.00     0.031 A 
BRANCH  45  59
ATOM     59  C   UNL A   1      43.576  33.332  31.506  1.00  0.00    -0.014 A 
ATOM     60  C   UNL A   1      43.678  34.425  30.626  1.00  0.00     0.010 A 
ATOM     61  C   UNL A   1      43.512  33.581  32.891  1.00  0.00     0.010 A 
ATOM     62  C   UNL A   1      43.769  35.730  31.122  1.00  0.00     0.020 A 
ATOM     63  C   UNL A   1      43.570  34.886  33.390  1.00  0.00     0.020 A 
ATOM     64  C   UNL A   1      43.720  35.952  32.502  1.00  0.00     0.054 A 
BRANCH  64  65
ATOM     65  S   UNL A   1      43.840  37.655  33.118  1.00  0.00     0.124 S 
ATOM     66  O   UNL A   1      42.643  37.760  33.949  1.00  0.00    -0.237 OA
ATOM     67  O   UNL A   1      45.109  37.646  33.842  1.00  0.00    -0.237 OA
ATOM     68  O   UNL A   1      43.825  38.466  31.903  1.00  0.00    -0.744 OA
ENDBRANCH  64  65
ENDBRANCH  45  59
BRANCH  46  69
ATOM     69  C   UNL A   1      42.660  24.001  28.007  1.00  0.00    -0.014 A 
ATOM     70  C   UNL A   1      42.405  22.915  28.859  1.00  0.00     0.010 A 
ATOM     71  C   UNL A   1      42.740  23.777  26.618  1.00  0.00     0.010 A 
ATOM     72  C   UNL A   1      42.237  21.629  28.334  1.00  0.00     0.020 A 
ATOM     73  C   UNL A   1      42.536  22.501  26.088  1.00  0.00     0.020 A 
ATOM     74  C   UNL A   1      42.294  21.433  26.952  1.00  0.00     0.054 A 
BRANCH  74  75
ATOM     75  S   UNL A   1      42.004  19.768  26.292  1.00  0.00     0.124 S 
ATOM     76  O   UNL A   1      42.833  19.767  25.091  1.00  0.00    -0.237 OA
ATOM     77  O   UNL A   1      42.467  18.912  27.383  1.00  0.00    -0.237 OA
ATOM     78  O   UNL A   1      40.562  19.739  26.058  1.00  0.00    -0.744 OA
ENDBRANCH  74  75
ENDBRANCH  46  69
BRANCH  58  79
ATOM     79  C   UNL A   1      48.062  27.812  30.235  1.00  0.00    -0.014 A 
ATOM     80  C   UNL A   1      48.602  27.358  31.451  1.00  0.00     0.010 A 
ATOM     81  C   UNL A   1      48.907  27.950  29.117  1.00  0.00     0.010 A 
ATOM     82  C   UNL A   1      49.967  27.074  31.554  1.00  0.00     0.020 A 
ATOM     83  C   UNL A   1      50.264  27.637  29.208  1.00  0.00     0.020 A 
ATOM     84  C   UNL A   1      50.789  27.214  30.431  1.00  0.00     0.054 A 
BRANCH  84  85
ATOM     85  S   UNL A   1      52.546  26.792  30.579  1.00  0.00     0.124 S 
ATOM     86  O   UNL A   1      52.494  25.514  31.283  1.00  0.00    -0.237 OA
ATOM     87  O   UNL A   1      52.977  26.724  29.185  1.00  0.00    -0.237 OA
ATOM     88  O   UNL A   1      53.107  27.903  31.345  1.00  0.00    -0.744 OA
ENDBRANCH  84  85
ENDBRANCH  58  79
ENDBRANCH  32  33
ENDBRANCH  25  27
ENDBRANCH  24  25
ENDBRANCH  23  24
ENDBRANCH   1  23
TORSDOF 17
ENDMDL
MODEL 3
REMARK VINA RESULT:     -10.5      3.024      9.047
REMARK SMILES C[NH+]1CCC([N@@H+](C)Cc2ccc(C(=O)OCCOC(=O)c3ccc(-c4c5nc(c(-c6ccc(S(=O)(=O)[O-])cc6)c6ccc([nH]6)c(-c6ccc(S(=O)(=O)[O-])cc6)c6nc(c(-c7ccc(S(=O)(=O)[O-])cc7)c7ccc4[nH]7)C=C6)C=C5)cc3)cn2)CC1
REMARK SMILES IDX 16 1 15 2 13 3 14 4 12 5 9 6 10 7 82 8 11 9 81 10 8 11 6 12
REMARK SMILES IDX 7 13 5 15 1 16 2 17 3 18 84 19 4 21 83 22 17 23 18 24 19 25
REMARK SMILES IDX 20 26 21 27 22 28 80 29 23 30 79 31 24 32 25 33 26 34 73 35
REMARK SMILES IDX 27 36 78 37 72 38 74 39 28 40 77 41 71 42 70 43 29 45 59 46
REMARK SMILES IDX 40 47 58 48 41 49 44 50 57 51 75 52 42 53 43 54 56 56 76 57
REMARK SMILES IDX 45 58 30 59 31 60 39 61 32 62 38 63 33 64 34 65 35 66 36 67
REMARK SMILES IDX 37 68 60 69 61 70 69 71 62 72 68 73 63 74 64 75 65 76 66 77
REMARK SMILES IDX 67 78 46 79 47 80 55 81 48 82 54 83 49 84 50 85 51 86 52 87
REMARK SMILES IDX 53 88
REMARK H PARENT 6 14 2 20 74 44 44 55
REMARK Flexibility Score: inf
ROOT
ATOM      1  C   UNL A   1      34.495  33.937  28.022  1.00  0.00     0.275 C 
ENDROOT
BRANCH   1   2
ATOM      2  O   UNL A   1      33.841  32.657  27.888  1.00  0.00    -0.458 OA
BRANCH   2   3
ATOM      3  C   UNL A   1      34.682  31.613  27.701  1.00  0.00     0.339 C 
ATOM      4  O   UNL A   1      35.898  31.643  27.774  1.00  0.00    -0.246 OA
BRANCH   3   5
ATOM      5  C   UNL A   1      33.952  30.362  27.459  1.00  0.00     0.078 A 
ATOM      6  C   UNL A   1      32.928  28.065  26.354  1.00  0.00     0.095 A 
ATOM      7  C   UNL A   1      32.065  29.131  26.640  1.00  0.00     0.031 A 
ATOM      8  N   UNL A   1      34.215  28.064  26.753  1.00  0.00    -0.254 NA
ATOM      9  C   UNL A   1      32.588  30.304  27.204  1.00  0.00     0.019 A 
ATOM     10  C   UNL A   1      34.697  29.214  27.260  1.00  0.00     0.127 A 
BRANCH   6  11
ATOM     11  C   UNL A   1      32.546  26.958  25.388  1.00  0.00     0.319 C 
BRANCH  11  12
ATOM     12  N   UNL A   1      32.687  27.255  23.936  1.00  0.00    -0.330 N 
ATOM     13  C   UNL A   1      33.852  28.099  23.655  1.00  0.00     0.333 C 
ATOM     14  H   UNL A   1      32.845  26.326  23.546  1.00  0.00     0.348 HD
BRANCH  12  15
ATOM     15  C   UNL A   1      31.480  27.690  23.193  1.00  0.00     0.195 C 
ATOM     16  C   UNL A   1      27.727  29.747  22.538  1.00  0.00     0.332 C 
ATOM     17  N   UNL A   1      28.998  29.225  23.033  1.00  0.00    -0.337 N 
ATOM     18  C   UNL A   1      30.094  29.568  22.117  1.00  0.00     0.268 C 
ATOM     19  C   UNL A   1      28.939  27.770  23.205  1.00  0.00     0.268 C 
ATOM     20  H   UNL A   1      29.174  29.656  23.941  1.00  0.00     0.347 HD
ATOM     21  C   UNL A   1      31.444  29.154  22.703  1.00  0.00     0.126 C 
ATOM     22  C   UNL A   1      30.192  27.293  23.933  1.00  0.00     0.126 C 
ENDBRANCH  12  15
ENDBRANCH  11  12
ENDBRANCH   6  11
ENDBRANCH   3   5
ENDBRANCH   2   3
ENDBRANCH   1   2
BRANCH   1  23
ATOM     23  C   UNL A   1      33.523  35.006  28.526  1.00  0.00     0.275 C 
BRANCH  23  24
ATOM     24  O   UNL A   1      32.860  34.586  29.736  1.00  0.00    -0.458 OA
BRANCH  24  25
ATOM     25  C   UNL A   1      33.169  35.313  30.833  1.00  0.00     0.338 C 
ATOM     26  O   UNL A   1      32.675  36.379  31.171  1.00  0.00    -0.246 OA
BRANCH  25  27
ATOM     27  C   UNL A   1      34.162  34.622  31.668  1.00  0.00     0.060 A 
ATOM     28  C   UNL A   1      35.224  35.359  32.176  1.00  0.00     0.016 A 
ATOM     29  C   UNL A   1      34.192  33.231  31.720  1.00  0.00     0.016 A 
ATOM     30  C   UNL A   1      36.400  34.712  32.542  1.00  0.00     0.010 A 
ATOM     31  C   UNL A   1      35.307  32.586  32.274  1.00  0.00     0.010 A 
ATOM     32  C   UNL A   1      36.454  33.315  32.640  1.00  0.00    -0.014 A 
BRANCH  32  33
ATOM     33  C   UNL A   1      37.691  32.634  33.133  1.00  0.00     0.031 A 
ATOM     34  C   UNL A   1      38.156  32.804  34.561  1.00  0.00     0.074 A 
ATOM     35  C   UNL A   1      38.417  31.864  32.292  1.00  0.00     0.049 A 
ATOM     36  N   UNL A   1      39.299  32.464  35.104  1.00  0.00    -0.248 NA
ATOM     37  C   UNL A   1      37.228  33.460  35.496  1.00  0.00     0.031 C 
ATOM     38  C   UNL A   1      38.075  31.566  30.897  1.00  0.00     0.029 A 
ATOM     39  N   UNL A   1      39.595  31.183  32.485  1.00  0.00    -0.354 N 
ATOM     40  C   UNL A   1      39.252  32.918  36.420  1.00  0.00     0.074 A 
ATOM     41  C   UNL A   1      37.972  33.571  36.588  1.00  0.00     0.031 C 
ATOM     42  C   UNL A   1      38.980  30.722  30.386  1.00  0.00     0.029 A 
ATOM     43  C   UNL A   1      40.037  30.519  31.364  1.00  0.00     0.049 A 
ATOM     44  H   UNL A   1      40.076  31.170  33.344  1.00  0.00     0.167 HD
ATOM     45  C   UNL A   1      40.189  32.805  37.395  1.00  0.00     0.031 A 
ATOM     46  C   UNL A   1      41.188  29.868  31.112  1.00  0.00     0.031 A 
ATOM     47  C   UNL A   1      41.447  32.121  37.226  1.00  0.00     0.049 A 
ATOM     48  C   UNL A   1      42.236  29.809  32.182  1.00  0.00     0.074 A 
ATOM     49  C   UNL A   1      42.457  31.933  38.155  1.00  0.00     0.029 A 
ATOM     50  N   UNL A   1      41.864  31.502  36.057  1.00  0.00    -0.354 N 
ATOM     51  N   UNL A   1      42.192  30.288  33.402  1.00  0.00    -0.248 NA
ATOM     52  C   UNL A   1      43.495  29.136  31.837  1.00  0.00     0.031 C 
ATOM     53  C   UNL A   1      43.509  31.256  37.529  1.00  0.00     0.029 A 
ATOM     54  C   UNL A   1      43.127  30.957  36.231  1.00  0.00     0.049 A 
ATOM     55  H   UNL A   1      41.341  31.458  35.223  1.00  0.00     0.167 HD
ATOM     56  C   UNL A   1      43.410  29.952  33.981  1.00  0.00     0.074 A 
ATOM     57  C   UNL A   1      44.159  29.217  32.982  1.00  0.00     0.031 C 
ATOM     58  C   UNL A   1      43.864  30.229  35.228  1.00  0.00     0.031 A 
BRANCH  45  59
ATOM     59  C   UNL A   1      39.915  33.480  38.720  1.00  0.00    -0.014 A 
ATOM     60  C   UNL A   1      39.350  32.785  39.805  1.00  0.00     0.010 A 
ATOM     61  C   UNL A   1      40.264  34.834  38.889  1.00  0.00     0.010 A 
ATOM     62  C   UNL A   1      39.092  33.444  41.012  1.00  0.00     0.020 A 
ATOM     63  C   UNL A   1      40.038  35.487  40.105  1.00  0.00     0.020 A 
ATOM     64  C   UNL A   1      39.432  34.794  41.152  1.00  0.00     0.054 A 
BRANCH  64  65
ATOM     65  S   UNL A   1      39.085  35.623  42.729  1.00  0.00     0.124 S 
ATOM     66  O   UNL A   1      37.652  35.386  42.885  1.00  0.00    -0.237 OA
ATOM     67  O   UNL A   1      39.946  34.905  43.666  1.00  0.00    -0.237 OA
ATOM     68  O   UNL A   1      39.461  37.012  42.481  1.00  0.00    -0.744 OA
ENDBRANCH  64  65
ENDBRANCH  45  59
BRANCH  46  69
ATOM     69  C   UNL A   1      41.418  29.269  29.767  1.00  0.00    -0.014 A 
ATOM     70  C   UNL A   1      42.148  29.965  28.790  1.00  0.00     0.010 A 
ATOM     71  C   UNL A   1      40.942  27.977  29.471  1.00  0.00     0.010 A 
ATOM     72  C   UNL A   1      42.395  29.383  27.543  1.00  0.00     0.020 A 
ATOM     73  C   UNL A   1      41.218  27.378  28.240  1.00  0.00     0.020 A 
ATOM     74  C   UNL A   1      41.936  28.090  27.280  1.00  0.00     0.054 A 
BRANCH  74  75
ATOM     75  S   UNL A   1      42.328  27.331  25.679  1.00  0.00     0.124 S 
ATOM     76  O   UNL A   1      42.242  28.471  24.773  1.00  0.00    -0.237 OA
ATOM     77  O   UNL A   1      43.671  26.799  25.904  1.00  0.00    -0.237 OA
ATOM     78  O   UNL A   1      41.287  26.319  25.515  1.00  0.00    -0.744 OA
ENDBRANCH  74  75
ENDBRANCH  46  69
BRANCH  58  79
ATOM     79  C   UNL A   1      45.221  29.695  35.600  1.00  0.00    -0.014 A 
ATOM     80  C   UNL A   1      46.388  30.449  35.389  1.00  0.00     0.010 A 
ATOM     81  C   UNL A   1      45.320  28.430  36.209  1.00  0.00     0.010 A 
ATOM     82  C   UNL A   1      47.635  29.934  35.755  1.00  0.00     0.020 A 
ATOM     83  C   UNL A   1      46.561  27.927  36.605  1.00  0.00     0.020 A 
ATOM     84  C   UNL A   1      47.713  28.677  36.363  1.00  0.00     0.054 A 
BRANCH  84  85
ATOM     85  S   UNL A   1      49.338  28.055  36.873  1.00  0.00     0.124 S 
ATOM     86  O   UNL A   1      49.716  29.005  37.915  1.00  0.00    -0.237 OA
ATOM     87  O   UNL A   1      49.031  26.703  37.336  1.00  0.00    -0.237 OA
ATOM     88  O   UNL A   1      50.135  28.122  35.650  1.00  0.00    -0.744 OA
ENDBRANCH  84  85
ENDBRANCH  58  79
ENDBRANCH  32  33
ENDBRANCH  25  27
ENDBRANCH  24  25
ENDBRANCH  23  24
ENDBRANCH   1  23
TORSDOF 17
ENDMDL
