MODEL 1
REMARK VINA RESULT:     -10.6      0.000      0.000
REMARK SMILES C[NH2+][C@]1(C(=O)OCCOC(=O)c2ccc(-c3c4nc(c(-c5ccc(S(=O)(=O)[O-])cc5)c5ccc([nH]5)c(-c5ccc(S(=O)(=O)[O-])cc5)c5nc(c(-c6ccc(S(=O)(=O)[O-])cc6)c6ccc3[nH]6)C=C5)C=C4)cc2)CCC[C@@H]1CCn1nc(C)c(Cl)c1C
REMARK SMILES IDX 7 1 6 2 4 3 5 4 3 5 72 6 75 7 73 8 74 9 2 10 1 11 76 14
REMARK SMILES IDX 77 15 78 16 79 17 84 18 80 19 82 20 85 21 81 22 83 23 8 24
REMARK SMILES IDX 9 25 10 26 11 27 12 28 13 29 71 30 14 31 70 32 15 33 16 34
REMARK SMILES IDX 17 35 64 36 18 37 69 38 63 39 65 40 19 41 68 42 62 43 61 44
REMARK SMILES IDX 20 46 50 47 31 48 49 49 32 50 35 51 48 52 66 53 33 54 34 55
REMARK SMILES IDX 47 57 67 58 36 59 21 60 22 61 30 62 23 63 29 64 24 65 25 66
REMARK SMILES IDX 26 67 27 68 28 69 51 70 52 71 60 72 53 73 59 74 54 75 55 76
REMARK SMILES IDX 56 77 57 78 58 79 37 80 38 81 46 82 39 83 45 84 40 85 41 86
REMARK SMILES IDX 42 87 43 88 44 89
REMARK H PARENT 2 12 2 13 65 45 35 56
REMARK Flexibility Score: inf
ROOT
ATOM      1  C   UNL A   1      37.585  22.415  25.569  1.00  0.00     0.274 C 
ENDROOT
BRANCH   1   2
ATOM      2  O   UNL A   1      36.761  23.550  25.240  1.00  0.00    -0.457 OA
BRANCH   2   3
ATOM      3  C   UNL A   1      35.830  23.328  24.268  1.00  0.00     0.368 C 
ATOM      4  O   UNL A   1      36.103  23.262  23.074  1.00  0.00    -0.245 OA
BRANCH   3   5
ATOM      5  C   UNL A   1      34.380  23.202  24.822  1.00  0.00     0.197 C 
ATOM      6  C   UNL A   1      34.289  23.252  26.367  1.00  0.00     0.081 C 
ATOM      7  C   UNL A   1      33.647  24.539  24.509  1.00  0.00     0.064 C 
ATOM      8  C   UNL A   1      32.843  23.663  26.641  1.00  0.00     0.008 C 
ATOM      9  C   UNL A   1      32.449  24.571  25.470  1.00  0.00     0.011 C 
BRANCH   5  10
ATOM     10  N   UNL A   1      33.823  21.901  24.407  1.00  0.00    -0.334 N 
ATOM     11  C   UNL A   1      34.410  20.661  24.852  1.00  0.00     0.331 C 
ATOM     12  H   UNL A   1      32.852  21.889  24.721  1.00  0.00     0.347 HD
ATOM     13  H   UNL A   1      34.008  21.888  23.405  1.00  0.00     0.347 HD
ENDBRANCH   5  10
BRANCH   7  14
ATOM     14  C   UNL A   1      33.307  24.876  23.046  1.00  0.00     0.034 C 
BRANCH  14  15
ATOM     15  C   UNL A   1      33.627  26.323  22.639  1.00  0.00     0.145 C 
BRANCH  15  16
ATOM     16  N   UNL A   1      32.663  27.308  23.104  1.00  0.00    -0.268 N 
ATOM     17  N   UNL A   1      31.513  27.454  22.414  1.00  0.00    -0.176 NA
ATOM     18  C   UNL A   1      32.746  28.144  24.194  1.00  0.00     0.054 A 
ATOM     19  C   UNL A   1      30.869  28.448  23.037  1.00  0.00     0.078 A 
ATOM     20  C   UNL A   1      31.602  28.916  24.148  1.00  0.00     0.084 A 
ATOM     21  C   UNL A   1      33.878  28.191  25.152  1.00  0.00     0.068 C 
ATOM     22  C   UNL A   1      29.552  28.903  22.525  1.00  0.00     0.070 C 
ATOM     23  Cl  UNL A   1      31.161  30.169  25.205  1.00  0.00    -0.080 Cl
ENDBRANCH  15  16
ENDBRANCH  14  15
ENDBRANCH   7  14
ENDBRANCH   3   5
ENDBRANCH   2   3
ENDBRANCH   1   2
BRANCH   1  24
ATOM     24  C   UNL A   1      38.865  22.842  26.286  1.00  0.00     0.275 C 
BRANCH  24  25
ATOM     25  O   UNL A   1      38.814  24.236  26.630  1.00  0.00    -0.458 OA
BRANCH  25  26
ATOM     26  C   UNL A   1      39.974  24.916  26.474  1.00  0.00     0.338 C 
ATOM     27  O   UNL A   1      40.742  24.865  25.528  1.00  0.00    -0.246 OA
BRANCH  26  28
ATOM     28  C   UNL A   1      40.203  25.790  27.635  1.00  0.00     0.060 A 
ATOM     29  C   UNL A   1      39.338  25.707  28.721  1.00  0.00     0.016 A 
ATOM     30  C   UNL A   1      41.163  26.799  27.583  1.00  0.00     0.016 A 
ATOM     31  C   UNL A   1      39.349  26.688  29.705  1.00  0.00     0.010 A 
ATOM     32  C   UNL A   1      41.241  27.728  28.629  1.00  0.00     0.010 A 
ATOM     33  C   UNL A   1      40.306  27.709  29.680  1.00  0.00    -0.014 A 
BRANCH  33  34
ATOM     34  C   UNL A   1      40.281  28.776  30.718  1.00  0.00     0.031 A 
ATOM     35  C   UNL A   1      41.302  28.773  31.827  1.00  0.00     0.074 A 
ATOM     36  C   UNL A   1      39.377  29.776  30.651  1.00  0.00     0.049 A 
ATOM     37  N   UNL A   1      41.346  29.506  32.910  1.00  0.00    -0.248 NA
ATOM     38  C   UNL A   1      42.414  27.814  31.706  1.00  0.00     0.031 C 
ATOM     39  C   UNL A   1      38.376  29.950  29.596  1.00  0.00     0.029 A 
ATOM     40  N   UNL A   1      39.168  30.849  31.483  1.00  0.00    -0.354 N 
ATOM     41  C   UNL A   1      42.446  29.051  33.631  1.00  0.00     0.074 A 
ATOM     42  C   UNL A   1      43.048  27.989  32.857  1.00  0.00     0.031 C 
ATOM     43  C   UNL A   1      37.696  31.085  29.816  1.00  0.00     0.029 A 
ATOM     44  C   UNL A   1      38.144  31.670  31.074  1.00  0.00     0.049 A 
ATOM     45  H   UNL A   1      39.701  31.014  32.294  1.00  0.00     0.167 HD
ATOM     46  C   UNL A   1      42.903  29.475  34.833  1.00  0.00     0.031 A 
ATOM     47  C   UNL A   1      37.592  32.749  31.663  1.00  0.00     0.031 A 
ATOM     48  C   UNL A   1      42.329  30.564  35.578  1.00  0.00     0.049 A 
ATOM     49  C   UNL A   1      38.099  33.187  33.007  1.00  0.00     0.074 A 
ATOM     50  C   UNL A   1      42.708  31.059  36.814  1.00  0.00     0.029 A 
ATOM     51  N   UNL A   1      41.267  31.342  35.144  1.00  0.00    -0.354 N 
ATOM     52  N   UNL A   1      39.079  32.685  33.718  1.00  0.00    -0.248 NA
ATOM     53  C   UNL A   1      37.409  34.319  33.638  1.00  0.00     0.031 C 
ATOM     54  C   UNL A   1      41.857  32.121  37.140  1.00  0.00     0.029 A 
ATOM     55  C   UNL A   1      40.973  32.311  36.089  1.00  0.00     0.049 A 
ATOM     56  H   UNL A   1      40.791  31.224  34.291  1.00  0.00     0.167 HD
ATOM     57  C   UNL A   1      39.122  33.439  34.885  1.00  0.00     0.074 A 
ATOM     58  C   UNL A   1      38.087  34.447  34.770  1.00  0.00     0.031 C 
ATOM     59  C   UNL A   1      39.937  33.302  35.959  1.00  0.00     0.031 A 
BRANCH  46  60
ATOM     60  C   UNL A   1      44.052  28.717  35.442  1.00  0.00    -0.014 A 
ATOM     61  C   UNL A   1      45.387  29.095  35.216  1.00  0.00     0.010 A 
ATOM     62  C   UNL A   1      43.782  27.615  36.273  1.00  0.00     0.010 A 
ATOM     63  C   UNL A   1      46.433  28.358  35.779  1.00  0.00     0.020 A 
ATOM     64  C   UNL A   1      44.824  26.888  36.856  1.00  0.00     0.020 A 
ATOM     65  C   UNL A   1      46.146  27.254  36.589  1.00  0.00     0.054 A 
BRANCH  65  66
ATOM     66  S   UNL A   1      47.517  26.315  37.316  1.00  0.00     0.124 S 
ATOM     67  O   UNL A   1      47.735  25.276  36.313  1.00  0.00    -0.237 OA
ATOM     68  O   UNL A   1      48.576  27.316  37.420  1.00  0.00    -0.237 OA
ATOM     69  O   UNL A   1      46.979  25.848  38.591  1.00  0.00    -0.744 OA
ENDBRANCH  65  66
ENDBRANCH  46  60
BRANCH  47  70
ATOM     70  C   UNL A   1      36.455  33.449  31.006  1.00  0.00    -0.014 A 
ATOM     71  C   UNL A   1      35.279  33.732  31.722  1.00  0.00     0.010 A 
ATOM     72  C   UNL A   1      36.556  33.863  29.665  1.00  0.00     0.010 A 
ATOM     73  C   UNL A   1      34.225  34.415  31.108  1.00  0.00     0.020 A 
ATOM     74  C   UNL A   1      35.517  34.569  29.057  1.00  0.00     0.020 A 
ATOM     75  C   UNL A   1      34.352  34.833  29.780  1.00  0.00     0.054 A 
BRANCH  75  76
ATOM     76  S   UNL A   1      33.007  35.784  29.020  1.00  0.00     0.124 S 
ATOM     77  O   UNL A   1      33.737  36.855  28.347  1.00  0.00    -0.237 OA
ATOM     78  O   UNL A   1      32.375  34.802  28.142  1.00  0.00    -0.237 OA
ATOM     79  O   UNL A   1      32.195  36.198  30.162  1.00  0.00    -0.744 OA
ENDBRANCH  75  76
ENDBRANCH  47  70
BRANCH  59  80
ATOM     80  C   UNL A   1      39.751  34.277  37.086  1.00  0.00    -0.014 A 
ATOM     81  C   UNL A   1      39.004  33.927  38.224  1.00  0.00     0.010 A 
ATOM     82  C   UNL A   1      40.366  35.540  37.023  1.00  0.00     0.010 A 
ATOM     83  C   UNL A   1      38.850  34.838  39.272  1.00  0.00     0.020 A 
ATOM     84  C   UNL A   1      40.230  36.445  38.078  1.00  0.00     0.020 A 
ATOM     85  C   UNL A   1      39.461  36.093  39.190  1.00  0.00     0.054 A 
BRANCH  85  86
ATOM     86  S   UNL A   1      39.284  37.248  40.578  1.00  0.00     0.124 S 
ATOM     87  O   UNL A   1      38.885  36.357  41.663  1.00  0.00    -0.237 OA
ATOM     88  O   UNL A   1      40.623  37.822  40.696  1.00  0.00    -0.237 OA
ATOM     89  O   UNL A   1      38.254  38.178  40.123  1.00  0.00    -0.744 OA
ENDBRANCH  85  86
ENDBRANCH  59  80
ENDBRANCH  33  34
ENDBRANCH  26  28
ENDBRANCH  25  26
ENDBRANCH  24  25
ENDBRANCH   1  24
TORSDOF 18
ENDMDL
MODEL 2
REMARK VINA RESULT:     -10.5      3.269      4.014
REMARK SMILES C[NH2+][C@]1(C(=O)OCCOC(=O)c2ccc(-c3c4nc(c(-c5ccc(S(=O)(=O)[O-])cc5)c5ccc([nH]5)c(-c5ccc(S(=O)(=O)[O-])cc5)c5nc(c(-c6ccc(S(=O)(=O)[O-])cc6)c6ccc3[nH]6)C=C5)C=C4)cc2)CCC[C@@H]1CCn1nc(C)c(Cl)c1C
REMARK SMILES IDX 7 1 6 2 4 3 5 4 3 5 72 6 75 7 73 8 74 9 2 10 1 11 76 14
REMARK SMILES IDX 77 15 78 16 79 17 84 18 80 19 82 20 85 21 81 22 83 23 8 24
REMARK SMILES IDX 9 25 10 26 11 27 12 28 13 29 71 30 14 31 70 32 15 33 16 34
REMARK SMILES IDX 17 35 64 36 18 37 69 38 63 39 65 40 19 41 68 42 62 43 61 44
REMARK SMILES IDX 20 46 50 47 31 48 49 49 32 50 35 51 48 52 66 53 33 54 34 55
REMARK SMILES IDX 47 57 67 58 36 59 21 60 22 61 30 62 23 63 29 64 24 65 25 66
REMARK SMILES IDX 26 67 27 68 28 69 51 70 52 71 60 72 53 73 59 74 54 75 55 76
REMARK SMILES IDX 56 77 57 78 58 79 37 80 38 81 46 82 39 83 45 84 40 85 41 86
REMARK SMILES IDX 42 87 43 88 44 89
REMARK H PARENT 2 12 2 13 65 45 35 56
REMARK Flexibility Score: inf
ROOT
ATOM      1  C   UNL A   1      36.772  22.610  23.683  1.00  0.00     0.274 C 
ENDROOT
BRANCH   1   2
ATOM      2  O   UNL A   1      35.729  23.403  24.282  1.00  0.00    -0.457 OA
BRANCH   2   3
ATOM      3  C   UNL A   1      34.485  23.217  23.757  1.00  0.00     0.368 C 
ATOM      4  O   UNL A   1      34.232  23.326  22.562  1.00  0.00    -0.245 OA
BRANCH   3   5
ATOM      5  C   UNL A   1      33.407  22.886  24.831  1.00  0.00     0.197 C 
ATOM      6  C   UNL A   1      33.970  22.189  26.094  1.00  0.00     0.081 C 
ATOM      7  C   UNL A   1      32.978  24.231  25.488  1.00  0.00     0.064 C 
ATOM      8  C   UNL A   1      32.918  22.463  27.169  1.00  0.00     0.008 C 
ATOM      9  C   UNL A   1      32.328  23.834  26.822  1.00  0.00     0.011 C 
BRANCH   5  10
ATOM     10  N   UNL A   1      32.417  21.964  24.245  1.00  0.00    -0.334 N 
ATOM     11  C   UNL A   1      32.771  20.609  23.898  1.00  0.00     0.331 C 
ATOM     12  H   UNL A   1      31.649  21.899  24.914  1.00  0.00     0.347 HD
ATOM     13  H   UNL A   1      32.232  22.384  23.334  1.00  0.00     0.347 HD
ENDBRANCH   5  10
BRANCH   7  14
ATOM     14  C   UNL A   1      32.171  25.241  24.653  1.00  0.00     0.034 C 
BRANCH  14  15
ATOM     15  C   UNL A   1      32.965  26.484  24.222  1.00  0.00     0.145 C 
BRANCH  15  16
ATOM     16  N   UNL A   1      32.253  27.743  24.388  1.00  0.00    -0.268 N 
ATOM     17  N   UNL A   1      32.631  28.566  25.386  1.00  0.00    -0.176 NA
ATOM     18  C   UNL A   1      31.211  28.245  23.641  1.00  0.00     0.054 A 
ATOM     19  C   UNL A   1      31.776  29.593  25.320  1.00  0.00     0.078 A 
ATOM     20  C   UNL A   1      30.867  29.434  24.253  1.00  0.00     0.084 A 
ATOM     21  C   UNL A   1      30.600  27.576  22.467  1.00  0.00     0.068 C 
ATOM     22  C   UNL A   1      31.882  30.701  26.302  1.00  0.00     0.070 C 
ATOM     23  Cl  UNL A   1      29.612  30.491  23.818  1.00  0.00    -0.080 Cl
ENDBRANCH  15  16
ENDBRANCH  14  15
ENDBRANCH   7  14
ENDBRANCH   3   5
ENDBRANCH   2   3
ENDBRANCH   1   2
BRANCH   1  24
ATOM     24  C   UNL A   1      37.512  21.777  24.728  1.00  0.00     0.275 C 
BRANCH  24  25
ATOM     25  O   UNL A   1      37.737  22.543  25.923  1.00  0.00    -0.458 OA
BRANCH  25  26
ATOM     26  C   UNL A   1      39.034  22.732  26.258  1.00  0.00     0.338 C 
ATOM     27  O   UNL A   1      39.957  21.947  26.120  1.00  0.00    -0.246 OA
BRANCH  26  28
ATOM     28  C   UNL A   1      39.215  24.080  26.818  1.00  0.00     0.060 A 
ATOM     29  C   UNL A   1      39.933  25.022  26.089  1.00  0.00     0.016 A 
ATOM     30  C   UNL A   1      38.822  24.362  28.125  1.00  0.00     0.016 A 
ATOM     31  C   UNL A   1      40.359  26.200  26.689  1.00  0.00     0.010 A 
ATOM     32  C   UNL A   1      39.164  25.595  28.695  1.00  0.00     0.010 A 
ATOM     33  C   UNL A   1      39.973  26.511  27.998  1.00  0.00    -0.014 A 
BRANCH  33  34
ATOM     34  C   UNL A   1      40.470  27.757  28.643  1.00  0.00     0.031 A 
ATOM     35  C   UNL A   1      41.914  27.863  29.066  1.00  0.00     0.074 A 
ATOM     36  C   UNL A   1      39.650  28.814  28.814  1.00  0.00     0.049 A 
ATOM     37  N   UNL A   1      42.496  28.785  29.790  1.00  0.00    -0.248 NA
ATOM     38  C   UNL A   1      42.817  26.787  28.625  1.00  0.00     0.031 C 
ATOM     39  C   UNL A   1      38.249  28.884  28.388  1.00  0.00     0.029 A 
ATOM     40  N   UNL A   1      39.883  30.046  29.377  1.00  0.00    -0.354 N 
ATOM     41  C   UNL A   1      43.813  28.366  29.948  1.00  0.00     0.074 A 
ATOM     42  C   UNL A   1      43.947  27.115  29.236  1.00  0.00     0.031 C 
ATOM     43  C   UNL A   1      37.766  30.106  28.658  1.00  0.00     0.029 A 
ATOM     44  C   UNL A   1      38.787  30.875  29.360  1.00  0.00     0.049 A 
ATOM     45  H   UNL A   1      40.753  30.309  29.755  1.00  0.00     0.167 HD
ATOM     46  C   UNL A   1      44.815  28.966  30.635  1.00  0.00     0.031 A 
ATOM     47  C   UNL A   1      38.602  32.101  29.888  1.00  0.00     0.031 A 
ATOM     48  C   UNL A   1      44.690  30.235  31.302  1.00  0.00     0.049 A 
ATOM     49  C   UNL A   1      39.718  32.737  30.666  1.00  0.00     0.074 A 
ATOM     50  C   UNL A   1      45.641  30.919  32.039  1.00  0.00     0.029 A 
ATOM     51  N   UNL A   1      43.548  31.021  31.293  1.00  0.00    -0.354 N 
ATOM     52  N   UNL A   1      40.928  32.283  30.886  1.00  0.00    -0.248 NA
ATOM     53  C   UNL A   1      39.435  34.038  31.286  1.00  0.00     0.031 C 
ATOM     54  C   UNL A   1      45.064  32.108  32.500  1.00  0.00     0.029 A 
ATOM     55  C   UNL A   1      43.767  32.181  32.016  1.00  0.00     0.049 A 
ATOM     56  H   UNL A   1      42.705  30.789  30.841  1.00  0.00     0.167 HD
ATOM     57  C   UNL A   1      41.552  33.242  31.675  1.00  0.00     0.074 A 
ATOM     58  C   UNL A   1      40.593  34.312  31.870  1.00  0.00     0.031 C 
ATOM     59  C   UNL A   1      42.800  33.232  32.201  1.00  0.00     0.031 A 
BRANCH  46  60
ATOM     60  C   UNL A   1      46.119  28.225  30.742  1.00  0.00    -0.014 A 
ATOM     61  C   UNL A   1      46.321  27.224  31.708  1.00  0.00     0.010 A 
ATOM     62  C   UNL A   1      47.157  28.527  29.841  1.00  0.00     0.010 A 
ATOM     63  C   UNL A   1      47.553  26.567  31.797  1.00  0.00     0.020 A 
ATOM     64  C   UNL A   1      48.381  27.858  29.912  1.00  0.00     0.020 A 
ATOM     65  C   UNL A   1      48.578  26.894  30.903  1.00  0.00     0.054 A 
BRANCH  65  66
ATOM     66  S   UNL A   1      50.166  26.025  31.030  1.00  0.00     0.124 S 
ATOM     67  O   UNL A   1      50.422  25.664  29.638  1.00  0.00    -0.237 OA
ATOM     68  O   UNL A   1      51.051  27.047  31.584  1.00  0.00    -0.237 OA
ATOM     69  O   UNL A   1      49.877  24.906  31.923  1.00  0.00    -0.744 OA
ENDBRANCH  65  66
ENDBRANCH  46  60
BRANCH  47  70
ATOM     70  C   UNL A   1      37.283  32.775  29.747  1.00  0.00    -0.014 A 
ATOM     71  C   UNL A   1      36.369  32.788  30.814  1.00  0.00     0.010 A 
ATOM     72  C   UNL A   1      36.948  33.434  28.551  1.00  0.00     0.010 A 
ATOM     73  C   UNL A   1      35.143  33.448  30.686  1.00  0.00     0.020 A 
ATOM     74  C   UNL A   1      35.736  34.117  28.428  1.00  0.00     0.020 A 
ATOM     75  C   UNL A   1      34.836  34.112  29.495  1.00  0.00     0.054 A 
BRANCH  75  76
ATOM     76  S   UNL A   1      33.274  35.027  29.369  1.00  0.00     0.124 S 
ATOM     77  O   UNL A   1      33.731  36.348  28.946  1.00  0.00    -0.237 OA
ATOM     78  O   UNL A   1      32.534  34.264  28.367  1.00  0.00    -0.237 OA
ATOM     79  O   UNL A   1      32.728  34.955  30.722  1.00  0.00    -0.744 OA
ENDBRANCH  75  76
ENDBRANCH  47  70
BRANCH  59  80
ATOM     80  C   UNL A   1      43.205  34.423  33.023  1.00  0.00    -0.014 A 
ATOM     81  C   UNL A   1      43.677  35.596  32.407  1.00  0.00     0.010 A 
ATOM     82  C   UNL A   1      43.071  34.381  34.422  1.00  0.00     0.010 A 
ATOM     83  C   UNL A   1      44.036  36.700  33.183  1.00  0.00     0.020 A 
ATOM     84  C   UNL A   1      43.412  35.491  35.198  1.00  0.00     0.020 A 
ATOM     85  C   UNL A   1      43.905  36.639  34.574  1.00  0.00     0.054 A 
BRANCH  85  86
ATOM     86  S   UNL A   1      44.339  38.098  35.561  1.00  0.00     0.124 S 
ATOM     87  O   UNL A   1      43.592  37.862  36.793  1.00  0.00    -0.237 OA
ATOM     88  O   UNL A   1      45.792  37.992  35.678  1.00  0.00    -0.237 OA
ATOM     89  O   UNL A   1      43.867  39.216  34.749  1.00  0.00    -0.744 OA
ENDBRANCH  85  86
ENDBRANCH  59  80
ENDBRANCH  33  34
ENDBRANCH  26  28
ENDBRANCH  25  26
ENDBRANCH  24  25
ENDBRANCH   1  24
TORSDOF 18
ENDMDL
MODEL 3
REMARK VINA RESULT:     -10.4      3.255      9.493
REMARK SMILES C[NH2+][C@]1(C(=O)OCCOC(=O)c2ccc(-c3c4nc(c(-c5ccc(S(=O)(=O)[O-])cc5)c5ccc([nH]5)c(-c5ccc(S(=O)(=O)[O-])cc5)c5nc(c(-c6ccc(S(=O)(=O)[O-])cc6)c6ccc3[nH]6)C=C5)C=C4)cc2)CCC[C@@H]1CCn1nc(C)c(Cl)c1C
REMARK SMILES IDX 7 1 6 2 4 3 5 4 3 5 72 6 75 7 73 8 74 9 2 10 1 11 76 14
REMARK SMILES IDX 77 15 78 16 79 17 84 18 80 19 82 20 85 21 81 22 83 23 8 24
REMARK SMILES IDX 9 25 10 26 11 27 12 28 13 29 71 30 14 31 70 32 15 33 16 34
REMARK SMILES IDX 17 35 64 36 18 37 69 38 63 39 65 40 19 41 68 42 62 43 61 44
REMARK SMILES IDX 20 46 50 47 31 48 49 49 32 50 35 51 48 52 66 53 33 54 34 55
REMARK SMILES IDX 47 57 67 58 36 59 21 60 22 61 30 62 23 63 29 64 24 65 25 66
REMARK SMILES IDX 26 67 27 68 28 69 51 70 52 71 60 72 53 73 59 74 54 75 55 76
REMARK SMILES IDX 56 77 57 78 58 79 37 80 38 81 46 82 39 83 45 84 40 85 41 86
REMARK SMILES IDX 42 87 43 88 44 89
REMARK H PARENT 2 12 2 13 65 45 35 56
REMARK Flexibility Score: inf
ROOT
ATOM      1  C   UNL A   1      31.804  29.892  25.636  1.00  0.00     0.274 C 
ENDROOT
BRANCH   1   2
ATOM      2  O   UNL A   1      32.639  28.734  25.445  1.00  0.00    -0.457 OA
BRANCH   2   3
ATOM      3  C   UNL A   1      32.024  27.535  25.651  1.00  0.00     0.368 C 
ATOM      4  O   UNL A   1      31.421  27.253  26.682  1.00  0.00    -0.245 OA
BRANCH   3   5
ATOM      5  C   UNL A   1      32.193  26.544  24.463  1.00  0.00     0.197 C 
ATOM      6  C   UNL A   1      32.380  27.234  23.089  1.00  0.00     0.081 C 
ATOM      7  C   UNL A   1      33.606  25.904  24.589  1.00  0.00     0.064 C 
ATOM      8  C   UNL A   1      33.054  26.167  22.226  1.00  0.00     0.008 C 
ATOM      9  C   UNL A   1      33.919  25.349  23.191  1.00  0.00     0.011 C 
BRANCH   5  10
ATOM     10  N   UNL A   1      30.977  25.715  24.356  1.00  0.00    -0.334 N 
ATOM     11  C   UNL A   1      29.749  26.256  23.828  1.00  0.00     0.331 C 
ATOM     12  H   UNL A   1      31.219  24.919  23.765  1.00  0.00     0.347 HD
ATOM     13  H   UNL A   1      30.741  25.540  25.332  1.00  0.00     0.347 HD
ENDBRANCH   5  10
BRANCH   7  14
ATOM     14  C   UNL A   1      33.878  24.926  25.746  1.00  0.00     0.034 C 
BRANCH  14  15
ATOM     15  C   UNL A   1      34.285  23.513  25.297  1.00  0.00     0.145 C 
BRANCH  15  16
ATOM     16  N   UNL A   1      35.681  23.182  25.540  1.00  0.00    -0.268 N 
ATOM     17  N   UNL A   1      36.514  24.167  25.933  1.00  0.00    -0.176 NA
ATOM     18  C   UNL A   1      36.306  21.961  25.431  1.00  0.00     0.054 A 
ATOM     19  C   UNL A   1      37.714  23.581  26.021  1.00  0.00     0.078 A 
ATOM     20  C   UNL A   1      37.636  22.207  25.710  1.00  0.00     0.084 A 
ATOM     21  C   UNL A   1      35.643  20.692  25.043  1.00  0.00     0.068 C 
ATOM     22  C   UNL A   1      38.897  24.386  26.414  1.00  0.00     0.070 C 
ATOM     23  Cl  UNL A   1      38.917  21.094  25.685  1.00  0.00    -0.080 Cl
ENDBRANCH  15  16
ENDBRANCH  14  15
ENDBRANCH   7  14
ENDBRANCH   3   5
ENDBRANCH   2   3
ENDBRANCH   1   2
BRANCH   1  24
ATOM     24  C   UNL A   1      32.304  30.760  26.790  1.00  0.00     0.275 C 
BRANCH  24  25
ATOM     25  O   UNL A   1      33.720  30.593  26.975  1.00  0.00    -0.458 OA
BRANCH  25  26
ATOM     26  C   UNL A   1      34.301  31.467  27.830  1.00  0.00     0.338 C 
ATOM     27  O   UNL A   1      33.834  32.511  28.253  1.00  0.00    -0.246 OA
BRANCH  26  28
ATOM     28  C   UNL A   1      35.628  30.971  28.228  1.00  0.00     0.060 A 
ATOM     29  C   UNL A   1      35.749  29.663  28.683  1.00  0.00     0.016 A 
ATOM     30  C   UNL A   1      36.713  31.842  28.308  1.00  0.00     0.016 A 
ATOM     31  C   UNL A   1      36.911  29.245  29.320  1.00  0.00     0.010 A 
ATOM     32  C   UNL A   1      37.920  31.387  28.856  1.00  0.00     0.010 A 
ATOM     33  C   UNL A   1      38.018  30.096  29.408  1.00  0.00    -0.014 A 
BRANCH  33  34
ATOM     34  C   UNL A   1      39.242  29.651  30.129  1.00  0.00     0.031 A 
ATOM     35  C   UNL A   1      39.624  30.296  31.437  1.00  0.00     0.074 A 
ATOM     36  C   UNL A   1      39.993  28.641  29.645  1.00  0.00     0.049 A 
ATOM     37  N   UNL A   1      40.729  30.173  32.127  1.00  0.00    -0.248 NA
ATOM     38  C   UNL A   1      38.637  31.207  32.043  1.00  0.00     0.031 C 
ATOM     39  C   UNL A   1      39.707  27.873  28.429  1.00  0.00     0.029 A 
ATOM     40  N   UNL A   1      41.146  28.071  30.129  1.00  0.00    -0.354 N 
ATOM     41  C   UNL A   1      40.599  31.038  33.209  1.00  0.00     0.074 A 
ATOM     42  C   UNL A   1      39.304  31.672  33.089  1.00  0.00     0.031 C 
ATOM     43  C   UNL A   1      40.626  26.905  28.292  1.00  0.00     0.029 A 
ATOM     44  C   UNL A   1      41.620  27.041  29.351  1.00  0.00     0.049 A 
ATOM     45  H   UNL A   1      41.590  28.372  30.954  1.00  0.00     0.167 HD
ATOM     46  C   UNL A   1      41.485  31.290  34.202  1.00  0.00     0.031 A 
ATOM     47  C   UNL A   1      42.748  26.311  29.448  1.00  0.00     0.031 A 
ATOM     48  C   UNL A   1      42.752  30.622  34.342  1.00  0.00     0.049 A 
ATOM     49  C   UNL A   1      43.727  26.623  30.543  1.00  0.00     0.074 A 
ATOM     50  C   UNL A   1      43.728  30.818  35.304  1.00  0.00     0.029 A 
ATOM     51  N   UNL A   1      43.208  29.614  33.508  1.00  0.00    -0.354 N 
ATOM     52  N   UNL A   1      43.631  27.511  31.502  1.00  0.00    -0.248 NA
ATOM     53  C   UNL A   1      44.976  25.850  30.553  1.00  0.00     0.031 C 
ATOM     54  C   UNL A   1      44.787  29.944  35.036  1.00  0.00     0.029 A 
ATOM     55  C   UNL A   1      44.453  29.179  33.929  1.00  0.00     0.049 A 
ATOM     56  H   UNL A   1      42.720  29.259  32.731  1.00  0.00     0.167 HD
ATOM     57  C   UNL A   1      44.810  27.408  32.230  1.00  0.00     0.074 A 
ATOM     58  C   UNL A   1      45.591  26.352  31.615  1.00  0.00     0.031 C 
ATOM     59  C   UNL A   1      45.216  28.130  33.302  1.00  0.00     0.031 A 
BRANCH  46  60
ATOM     60  C   UNL A   1      41.132  32.373  35.184  1.00  0.00    -0.014 A 
ATOM     61  C   UNL A   1      41.479  33.716  34.957  1.00  0.00     0.010 A 
ATOM     62  C   UNL A   1      40.420  32.036  36.351  1.00  0.00     0.010 A 
ATOM     63  C   UNL A   1      41.155  34.697  35.899  1.00  0.00     0.020 A 
ATOM     64  C   UNL A   1      40.076  33.017  37.284  1.00  0.00     0.020 A 
ATOM     65  C   UNL A   1      40.463  34.340  37.061  1.00  0.00     0.054 A 
BRANCH  65  66
ATOM     66  S   UNL A   1      40.046  35.630  38.268  1.00  0.00     0.124 S 
ATOM     67  O   UNL A   1      41.263  35.690  39.074  1.00  0.00    -0.237 OA
ATOM     68  O   UNL A   1      39.796  36.795  37.424  1.00  0.00    -0.237 OA
ATOM     69  O   UNL A   1      38.871  35.096  38.952  1.00  0.00    -0.744 OA
ENDBRANCH  65  66
ENDBRANCH  46  60
BRANCH  47  70
ATOM     70  C   UNL A   1      43.036  25.257  28.438  1.00  0.00    -0.014 A 
ATOM     71  C   UNL A   1      42.901  23.897  28.765  1.00  0.00     0.010 A 
ATOM     72  C   UNL A   1      43.417  25.612  27.131  1.00  0.00     0.010 A 
ATOM     73  C   UNL A   1      43.145  22.912  27.803  1.00  0.00     0.020 A 
ATOM     74  C   UNL A   1      43.636  24.633  26.161  1.00  0.00     0.020 A 
ATOM     75  C   UNL A   1      43.507  23.286  26.506  1.00  0.00     0.054 A 
BRANCH  75  76
ATOM     76  S   UNL A   1      43.747  22.000  25.248  1.00  0.00     0.124 S 
ATOM     77  O   UNL A   1      42.569  21.160  25.446  1.00  0.00    -0.237 OA
ATOM     78  O   UNL A   1      43.773  22.768  24.005  1.00  0.00    -0.237 OA
ATOM     79  O   UNL A   1      45.022  21.394  25.621  1.00  0.00    -0.744 OA
ENDBRANCH  75  76
ENDBRANCH  47  70
BRANCH  59  80
ATOM     80  C   UNL A   1      46.556  27.789  33.888  1.00  0.00    -0.014 A 
ATOM     81  C   UNL A   1      46.678  26.803  34.883  1.00  0.00     0.010 A 
ATOM     82  C   UNL A   1      47.710  28.434  33.408  1.00  0.00     0.010 A 
ATOM     83  C   UNL A   1      47.933  26.486  35.409  1.00  0.00     0.020 A 
ATOM     84  C   UNL A   1      48.968  28.104  33.918  1.00  0.00     0.020 A 
ATOM     85  C   UNL A   1      49.069  27.143  34.925  1.00  0.00     0.054 A 
BRANCH  85  86
ATOM     86  S   UNL A   1      50.694  26.689  35.592  1.00  0.00     0.124 S 
ATOM     87  O   UNL A   1      50.379  25.494  36.370  1.00  0.00    -0.237 OA
ATOM     88  O   UNL A   1      51.489  26.462  34.386  1.00  0.00    -0.237 OA
ATOM     89  O   UNL A   1      51.085  27.859  36.374  1.00  0.00    -0.744 OA
ENDBRANCH  85  86
ENDBRANCH  59  80
ENDBRANCH  33  34
ENDBRANCH  26  28
ENDBRANCH  25  26
ENDBRANCH  24  25
ENDBRANCH   1  24
TORSDOF 18
ENDMDL
