MODEL 1
REMARK VINA RESULT:     -10.3      0.000      0.000
REMARK SMILES Cc1ccc(S(=O)(=O)Nc2cc(C(=O)OCCOC(=O)c3ccc(-c4c5nc(c(-c6ccc(S(=O)(=O)[O-])cc6)c6ccc([nH]6)c(-c6ccc(S(=O)(=O)[O-])cc6)c6nc(c(-c7ccc(S(=O)(=O)[O-])cc7)c7ccc4[nH]7)C=C6)C=C5)cc3)cnc2N2CCCC2)c(C)c1
REMARK SMILES IDX 16 1 15 2 13 3 14 4 12 5 10 6 11 7 83 8 82 9 81 10 9 11 6 13
REMARK SMILES IDX 7 14 8 15 5 16 1 17 2 18 3 19 91 20 4 21 89 22 90 23 84 24
REMARK SMILES IDX 85 25 88 26 86 27 87 28 17 29 18 30 19 31 20 32 21 33 22 34
REMARK SMILES IDX 80 35 23 36 79 37 24 38 25 39 26 40 73 41 27 42 78 43 72 44
REMARK SMILES IDX 74 45 28 46 77 47 71 48 70 49 29 51 59 52 40 53 58 54 41 55
REMARK SMILES IDX 44 56 57 57 75 58 42 59 43 60 56 62 76 63 45 64 30 65 31 66
REMARK SMILES IDX 39 67 32 68 38 69 33 70 34 71 35 72 36 73 37 74 60 75 61 76
REMARK SMILES IDX 69 77 62 78 68 79 63 80 64 81 65 82 66 83 67 84 46 85 47 86
REMARK SMILES IDX 55 87 48 88 54 89 49 90 50 91 51 92 52 93 53 94
REMARK H PARENT 9 12 74 50 44 61
REMARK Flexibility Score: inf
ROOT
ATOM      1  C   UNL A   1      46.580  27.001  24.678  1.00  0.00     0.275 C 
ENDROOT
BRANCH   1   2
ATOM      2  O   UNL A   1      46.750  25.739  25.349  1.00  0.00    -0.458 OA
BRANCH   2   3
ATOM      3  C   UNL A   1      46.821  24.659  24.536  1.00  0.00     0.339 C 
ATOM      4  O   UNL A   1      47.541  24.525  23.562  1.00  0.00    -0.246 OA
BRANCH   3   5
ATOM      5  C   UNL A   1      45.887  23.609  24.969  1.00  0.00     0.080 A 
ATOM      6  C   UNL A   1      44.653  22.591  26.718  1.00  0.00     0.092 A 
ATOM      7  C   UNL A   1      45.801  23.256  26.305  1.00  0.00     0.048 A 
ATOM      8  C   UNL A   1      43.733  22.075  25.773  1.00  0.00     0.153 A 
ATOM      9  N   UNL A   1      43.865  22.347  24.466  1.00  0.00    -0.236 NA
ATOM     10  C   UNL A   1      44.892  23.157  24.106  1.00  0.00     0.129 A 
BRANCH   6  11
ATOM     11  N   UNL A   1      44.352  22.509  28.110  1.00  0.00    -0.276 N 
ATOM     12  H   UNL A   1      44.511  21.663  28.588  1.00  0.00     0.180 HD
BRANCH  11  13
ATOM     13  S   UNL A   1      43.725  23.840  28.961  1.00  0.00     0.262 S 
ATOM     14  O   UNL A   1      42.425  23.363  29.397  1.00  0.00    -0.201 OA
ATOM     15  O   UNL A   1      43.818  24.976  28.066  1.00  0.00    -0.201 OA
BRANCH  13  16
ATOM     16  C   UNL A   1      44.638  24.299  30.444  1.00  0.00     0.090 A 
ATOM     17  C   UNL A   1      46.258  26.165  33.999  1.00  0.00     0.044 C 
ATOM     18  C   UNL A   1      45.739  25.465  32.777  1.00  0.00    -0.051 A 
ATOM     19  C   UNL A   1      44.796  24.442  32.872  1.00  0.00     0.005 A 
ATOM     20  C   UNL A   1      46.258  25.764  31.518  1.00  0.00     0.008 A 
ATOM     21  C   UNL A   1      44.273  23.841  31.714  1.00  0.00     0.023 A 
ATOM     22  C   UNL A   1      45.747  25.165  30.347  1.00  0.00    -0.030 A 
ATOM     23  C   UNL A   1      46.527  25.406  29.084  1.00  0.00     0.046 C 
ENDBRANCH  13  16
ENDBRANCH  11  13
ENDBRANCH   6  11
BRANCH   8  24
ATOM     24  N   UNL A   1      42.670  21.298  26.201  1.00  0.00    -0.355 N 
ATOM     25  C   UNL A   1      41.323  21.846  26.144  1.00  0.00     0.118 C 
ATOM     26  C   UNL A   1      42.605  19.909  25.735  1.00  0.00     0.118 C 
ATOM     27  C   UNL A   1      40.529  20.693  26.741  1.00  0.00     0.023 C 
ATOM     28  C   UNL A   1      41.193  19.455  26.139  1.00  0.00     0.023 C 
ENDBRANCH   8  24
ENDBRANCH   3   5
ENDBRANCH   2   3
ENDBRANCH   1   2
BRANCH   1  29
ATOM     29  C   UNL A   1      45.567  27.871  25.422  1.00  0.00     0.275 C 
BRANCH  29  30
ATOM     30  O   UNL A   1      44.385  27.113  25.746  1.00  0.00    -0.458 OA
BRANCH  30  31
ATOM     31  C   UNL A   1      43.210  27.736  25.493  1.00  0.00     0.338 C 
ATOM     32  O   UNL A   1      42.641  27.837  24.417  1.00  0.00    -0.246 OA
BRANCH  31  33
ATOM     33  C   UNL A   1      42.613  28.211  26.748  1.00  0.00     0.060 A 
ATOM     34  C   UNL A   1      42.988  29.461  27.220  1.00  0.00     0.016 A 
ATOM     35  C   UNL A   1      41.818  27.386  27.536  1.00  0.00     0.016 A 
ATOM     36  C   UNL A   1      42.688  29.855  28.515  1.00  0.00     0.010 A 
ATOM     37  C   UNL A   1      41.378  27.851  28.783  1.00  0.00     0.010 A 
ATOM     38  C   UNL A   1      41.823  29.085  29.295  1.00  0.00    -0.014 A 
BRANCH  38  39
ATOM     39  C   UNL A   1      41.352  29.610  30.606  1.00  0.00     0.031 A 
ATOM     40  C   UNL A   1      40.112  30.454  30.692  1.00  0.00     0.074 A 
ATOM     41  C   UNL A   1      42.061  29.340  31.724  1.00  0.00     0.049 A 
ATOM     42  N   UNL A   1      39.670  31.166  31.696  1.00  0.00    -0.248 NA
ATOM     43  C   UNL A   1      39.267  30.520  29.490  1.00  0.00     0.031 C 
ATOM     44  C   UNL A   1      43.257  28.490  31.789  1.00  0.00     0.029 A 
ATOM     45  N   UNL A   1      41.889  29.756  33.021  1.00  0.00    -0.354 N 
ATOM     46  C   UNL A   1      38.535  31.818  31.229  1.00  0.00     0.074 A 
ATOM     47  C   UNL A   1      38.354  31.412  29.851  1.00  0.00     0.031 C 
ATOM     48  C   UNL A   1      43.689  28.427  33.055  1.00  0.00     0.029 A 
ATOM     49  C   UNL A   1      42.884  29.325  33.869  1.00  0.00     0.049 A 
ATOM     50  H   UNL A   1      41.129  30.308  33.316  1.00  0.00     0.167 HD
ATOM     51  C   UNL A   1      37.730  32.687  31.888  1.00  0.00     0.031 A 
ATOM     52  C   UNL A   1      43.178  29.668  35.137  1.00  0.00     0.031 A 
ATOM     53  C   UNL A   1      37.919  33.063  33.267  1.00  0.00     0.049 A 
ATOM     54  C   UNL A   1      42.317  30.681  35.827  1.00  0.00     0.074 A 
ATOM     55  C   UNL A   1      37.142  33.906  34.042  1.00  0.00     0.029 A 
ATOM     56  N   UNL A   1      38.960  32.627  34.074  1.00  0.00    -0.354 N 
ATOM     57  N   UNL A   1      41.253  31.297  35.370  1.00  0.00    -0.248 NA
ATOM     58  C   UNL A   1      42.701  31.058  37.192  1.00  0.00     0.031 C 
ATOM     59  C   UNL A   1      37.755  34.037  35.292  1.00  0.00     0.029 A 
ATOM     60  C   UNL A   1      38.874  33.220  35.324  1.00  0.00     0.049 A 
ATOM     61  H   UNL A   1      39.659  31.989  33.799  1.00  0.00     0.167 HD
ATOM     62  C   UNL A   1      40.838  32.138  36.393  1.00  0.00     0.074 A 
ATOM     63  C   UNL A   1      41.748  31.928  37.502  1.00  0.00     0.031 C 
ATOM     64  C   UNL A   1      39.800  33.011  36.409  1.00  0.00     0.031 A 
BRANCH  51  65
ATOM     65  C   UNL A   1      36.622  33.350  31.109  1.00  0.00    -0.014 A 
ATOM     66  C   UNL A   1      36.830  33.891  29.827  1.00  0.00     0.010 A 
ATOM     67  C   UNL A   1      35.332  33.408  31.670  1.00  0.00     0.010 A 
ATOM     68  C   UNL A   1      35.782  34.521  29.147  1.00  0.00     0.020 A 
ATOM     69  C   UNL A   1      34.275  34.009  30.981  1.00  0.00     0.020 A 
ATOM     70  C   UNL A   1      34.514  34.581  29.731  1.00  0.00     0.054 A 
BRANCH  70  71
ATOM     71  S   UNL A   1      33.174  35.406  28.828  1.00  0.00     0.124 S 
ATOM     72  O   UNL A   1      33.906  36.392  28.037  1.00  0.00    -0.237 OA
ATOM     73  O   UNL A   1      32.578  34.310  28.068  1.00  0.00    -0.237 OA
ATOM     74  O   UNL A   1      32.329  35.960  29.884  1.00  0.00    -0.744 OA
ENDBRANCH  70  71
ENDBRANCH  51  65
BRANCH  52  75
ATOM     75  C   UNL A   1      44.398  29.105  35.780  1.00  0.00    -0.014 A 
ATOM     76  C   UNL A   1      45.648  29.724  35.623  1.00  0.00     0.010 A 
ATOM     77  C   UNL A   1      44.295  27.977  36.620  1.00  0.00     0.010 A 
ATOM     78  C   UNL A   1      46.769  29.231  36.299  1.00  0.00     0.020 A 
ATOM     79  C   UNL A   1      45.404  27.504  37.323  1.00  0.00     0.020 A 
ATOM     80  C   UNL A   1      46.637  28.133  37.155  1.00  0.00     0.054 A 
BRANCH  80  81
ATOM     81  S   UNL A   1      48.086  27.572  38.093  1.00  0.00     0.124 S 
ATOM     82  O   UNL A   1      49.183  28.184  37.352  1.00  0.00    -0.237 OA
ATOM     83  O   UNL A   1      47.832  28.125  39.421  1.00  0.00    -0.237 OA
ATOM     84  O   UNL A   1      48.006  26.116  38.009  1.00  0.00    -0.744 OA
ENDBRANCH  80  81
ENDBRANCH  52  75
BRANCH  64  85
ATOM     85  C   UNL A   1      39.591  33.802  37.671  1.00  0.00    -0.014 A 
ATOM     86  C   UNL A   1      38.857  33.271  38.746  1.00  0.00     0.010 A 
ATOM     87  C   UNL A   1      40.187  35.069  37.805  1.00  0.00     0.010 A 
ATOM     88  C   UNL A   1      38.706  34.002  39.926  1.00  0.00     0.020 A 
ATOM     89  C   UNL A   1      40.064  35.790  38.995  1.00  0.00     0.020 A 
ATOM     90  C   UNL A   1      39.316  35.255  40.046  1.00  0.00     0.054 A 
BRANCH  90  91
ATOM     91  S   UNL A   1      39.156  36.153  41.612  1.00  0.00     0.124 S 
ATOM     92  O   UNL A   1      39.088  37.540  41.162  1.00  0.00    -0.237 OA
ATOM     93  O   UNL A   1      37.918  35.611  42.166  1.00  0.00    -0.237 OA
ATOM     94  O   UNL A   1      40.369  35.795  42.343  1.00  0.00    -0.744 OA
ENDBRANCH  90  91
ENDBRANCH  64  85
ENDBRANCH  38  39
ENDBRANCH  31  33
ENDBRANCH  30  31
ENDBRANCH  29  30
ENDBRANCH   1  29
TORSDOF 18
ENDMDL
MODEL 2
REMARK VINA RESULT:     -10.2      4.587     12.649
REMARK SMILES Cc1ccc(S(=O)(=O)Nc2cc(C(=O)OCCOC(=O)c3ccc(-c4c5nc(c(-c6ccc(S(=O)(=O)[O-])cc6)c6ccc([nH]6)c(-c6ccc(S(=O)(=O)[O-])cc6)c6nc(c(-c7ccc(S(=O)(=O)[O-])cc7)c7ccc4[nH]7)C=C6)C=C5)cc3)cnc2N2CCCC2)c(C)c1
REMARK SMILES IDX 16 1 15 2 13 3 14 4 12 5 10 6 11 7 83 8 82 9 81 10 9 11 6 13
REMARK SMILES IDX 7 14 8 15 5 16 1 17 2 18 3 19 91 20 4 21 89 22 90 23 84 24
REMARK SMILES IDX 85 25 88 26 86 27 87 28 17 29 18 30 19 31 20 32 21 33 22 34
REMARK SMILES IDX 80 35 23 36 79 37 24 38 25 39 26 40 73 41 27 42 78 43 72 44
REMARK SMILES IDX 74 45 28 46 77 47 71 48 70 49 29 51 59 52 40 53 58 54 41 55
REMARK SMILES IDX 44 56 57 57 75 58 42 59 43 60 56 62 76 63 45 64 30 65 31 66
REMARK SMILES IDX 39 67 32 68 38 69 33 70 34 71 35 72 36 73 37 74 60 75 61 76
REMARK SMILES IDX 69 77 62 78 68 79 63 80 64 81 65 82 66 83 67 84 46 85 47 86
REMARK SMILES IDX 55 87 48 88 54 89 49 90 50 91 51 92 52 93 53 94
REMARK H PARENT 9 12 74 50 44 61
REMARK Flexibility Score: inf
ROOT
ATOM      1  C   UNL A   1      36.545  33.635  28.939  1.00  0.00     0.275 C 
ENDROOT
BRANCH   1   2
ATOM      2  O   UNL A   1      37.941  33.401  28.681  1.00  0.00    -0.458 OA
BRANCH   2   3
ATOM      3  C   UNL A   1      38.798  34.079  29.479  1.00  0.00     0.339 C 
ATOM      4  O   UNL A   1      39.592  34.938  29.136  1.00  0.00    -0.246 OA
BRANCH   3   5
ATOM      5  C   UNL A   1      38.671  33.645  30.880  1.00  0.00     0.080 A 
ATOM      6  C   UNL A   1      39.397  32.228  32.634  1.00  0.00     0.092 A 
ATOM      7  C   UNL A   1      39.162  32.414  31.277  1.00  0.00     0.048 A 
ATOM      8  C   UNL A   1      38.919  33.160  33.588  1.00  0.00     0.153 A 
ATOM      9  N   UNL A   1      38.364  34.317  33.200  1.00  0.00    -0.236 NA
ATOM     10  C   UNL A   1      38.315  34.560  31.866  1.00  0.00     0.129 A 
BRANCH   6  11
ATOM     11  N   UNL A   1      40.209  31.136  33.063  1.00  0.00    -0.276 N 
ATOM     12  H   UNL A   1      39.798  30.250  33.186  1.00  0.00     0.180 HD
BRANCH  11  13
ATOM     13  S   UNL A   1      41.870  31.333  33.366  1.00  0.00     0.262 S 
ATOM     14  O   UNL A   1      41.928  31.417  34.814  1.00  0.00    -0.201 OA
ATOM     15  O   UNL A   1      42.302  32.453  32.556  1.00  0.00    -0.201 OA
BRANCH  13  16
ATOM     16  C   UNL A   1      42.905  29.940  32.882  1.00  0.00     0.090 A 
ATOM     17  C   UNL A   1      45.110  26.825  30.837  1.00  0.00     0.044 C 
ATOM     18  C   UNL A   1      44.374  27.884  31.606  1.00  0.00    -0.051 A 
ATOM     19  C   UNL A   1      44.999  29.070  31.989  1.00  0.00     0.005 A 
ATOM     20  C   UNL A   1      43.064  27.664  32.032  1.00  0.00     0.008 A 
ATOM     21  C   UNL A   1      44.278  30.078  32.651  1.00  0.00     0.023 A 
ATOM     22  C   UNL A   1      42.330  28.665  32.703  1.00  0.00    -0.030 A 
ATOM     23  C   UNL A   1      41.015  28.237  33.297  1.00  0.00     0.046 C 
ENDBRANCH  13  16
ENDBRANCH  11  13
ENDBRANCH   6  11
BRANCH   8  24
ATOM     24  N   UNL A   1      39.043  32.886  34.940  1.00  0.00    -0.355 N 
ATOM     25  C   UNL A   1      39.184  33.991  35.877  1.00  0.00     0.118 C 
ATOM     26  C   UNL A   1      38.115  31.917  35.532  1.00  0.00     0.118 C 
ATOM     27  C   UNL A   1      39.333  33.227  37.185  1.00  0.00     0.023 C 
ATOM     28  C   UNL A   1      38.332  32.082  37.044  1.00  0.00     0.023 C 
ENDBRANCH   8  24
ENDBRANCH   3   5
ENDBRANCH   2   3
ENDBRANCH   1   2
BRANCH   1  29
ATOM     29  C   UNL A   1      35.719  32.400  28.581  1.00  0.00     0.275 C 
BRANCH  29  30
ATOM     30  O   UNL A   1      35.984  31.325  29.504  1.00  0.00    -0.458 OA
BRANCH  30  31
ATOM     31  C   UNL A   1      35.972  30.084  28.965  1.00  0.00     0.338 C 
ATOM     32  O   UNL A   1      35.000  29.454  28.576  1.00  0.00    -0.246 OA
BRANCH  31  33
ATOM     33  C   UNL A   1      37.347  29.596  28.795  1.00  0.00     0.060 A 
ATOM     34  C   UNL A   1      38.032  29.164  29.922  1.00  0.00     0.016 A 
ATOM     35  C   UNL A   1      38.015  29.704  27.580  1.00  0.00     0.016 A 
ATOM     36  C   UNL A   1      39.402  28.955  29.887  1.00  0.00     0.010 A 
ATOM     37  C   UNL A   1      39.365  29.337  27.509  1.00  0.00     0.010 A 
ATOM     38  C   UNL A   1      40.080  28.974  28.667  1.00  0.00    -0.014 A 
BRANCH  38  39
ATOM     39  C   UNL A   1      41.509  28.560  28.613  1.00  0.00     0.031 A 
ATOM     40  C   UNL A   1      42.606  29.569  28.800  1.00  0.00     0.074 A 
ATOM     41  C   UNL A   1      41.818  27.267  28.371  1.00  0.00     0.049 A 
ATOM     42  N   UNL A   1      43.888  29.441  28.579  1.00  0.00    -0.248 NA
ATOM     43  C   UNL A   1      42.209  30.902  29.282  1.00  0.00     0.031 C 
ATOM     44  C   UNL A   1      40.850  26.174  28.220  1.00  0.00     0.029 A 
ATOM     45  N   UNL A   1      43.032  26.650  28.200  1.00  0.00    -0.354 N 
ATOM     46  C   UNL A   1      44.444  30.690  28.830  1.00  0.00     0.074 A 
ATOM     47  C   UNL A   1      43.358  31.562  29.225  1.00  0.00     0.031 C 
ATOM     48  C   UNL A   1      41.505  25.025  28.009  1.00  0.00     0.029 A 
ATOM     49  C   UNL A   1      42.925  25.314  27.884  1.00  0.00     0.049 A 
ATOM     50  H   UNL A   1      43.895  27.115  28.294  1.00  0.00     0.167 HD
ATOM     51  C   UNL A   1      45.741  31.072  28.723  1.00  0.00     0.031 A 
ATOM     52  C   UNL A   1      43.845  24.427  27.461  1.00  0.00     0.031 A 
ATOM     53  C   UNL A   1      46.809  30.181  28.346  1.00  0.00     0.049 A 
ATOM     54  C   UNL A   1      45.260  24.886  27.284  1.00  0.00     0.074 A 
ATOM     55  C   UNL A   1      48.161  30.457  28.244  1.00  0.00     0.029 A 
ATOM     56  N   UNL A   1      46.646  28.846  28.003  1.00  0.00    -0.354 N 
ATOM     57  N   UNL A   1      45.770  26.072  27.515  1.00  0.00    -0.248 NA
ATOM     58  C   UNL A   1      46.219  23.898  26.777  1.00  0.00     0.031 C 
ATOM     59  C   UNL A   1      48.804  29.309  27.767  1.00  0.00     0.029 A 
ATOM     60  C   UNL A   1      47.866  28.297  27.642  1.00  0.00     0.049 A 
ATOM     61  H   UNL A   1      45.790  28.360  28.014  1.00  0.00     0.167 HD
ATOM     62  C   UNL A   1      47.114  25.975  27.180  1.00  0.00     0.074 A 
ATOM     63  C   UNL A   1      47.341  24.606  26.761  1.00  0.00     0.031 C 
ATOM     64  C   UNL A   1      48.070  26.935  27.211  1.00  0.00     0.031 A 
BRANCH  51  65
ATOM     65  C   UNL A   1      46.064  32.529  28.941  1.00  0.00    -0.014 A 
ATOM     66  C   UNL A   1      46.033  33.467  27.894  1.00  0.00     0.010 A 
ATOM     67  C   UNL A   1      46.383  32.971  30.240  1.00  0.00     0.010 A 
ATOM     68  C   UNL A   1      46.365  34.805  28.131  1.00  0.00     0.020 A 
ATOM     69  C   UNL A   1      46.686  34.313  30.487  1.00  0.00     0.020 A 
ATOM     70  C   UNL A   1      46.695  35.218  29.426  1.00  0.00     0.054 A 
BRANCH  70  71
ATOM     71  S   UNL A   1      47.124  36.958  29.705  1.00  0.00     0.124 S 
ATOM     72  O   UNL A   1      45.864  37.632  29.399  1.00  0.00    -0.237 OA
ATOM     73  O   UNL A   1      47.514  36.968  31.113  1.00  0.00    -0.237 OA
ATOM     74  O   UNL A   1      48.209  37.207  28.759  1.00  0.00    -0.744 OA
ENDBRANCH  70  71
ENDBRANCH  51  65
BRANCH  52  75
ATOM     75  C   UNL A   1      43.414  23.050  27.091  1.00  0.00    -0.014 A 
ATOM     76  C   UNL A   1      43.580  22.568  25.784  1.00  0.00     0.010 A 
ATOM     77  C   UNL A   1      42.897  22.185  28.078  1.00  0.00     0.010 A 
ATOM     78  C   UNL A   1      43.246  21.246  25.471  1.00  0.00     0.020 A 
ATOM     79  C   UNL A   1      42.596  20.855  27.778  1.00  0.00     0.020 A 
ATOM     80  C   UNL A   1      42.769  20.394  26.473  1.00  0.00     0.054 A 
BRANCH  80  81
ATOM     81  S   UNL A   1      42.433  18.659  26.063  1.00  0.00     0.124 S 
ATOM     82  O   UNL A   1      42.752  17.983  27.315  1.00  0.00    -0.237 OA
ATOM     83  O   UNL A   1      41.017  18.691  25.703  1.00  0.00    -0.237 OA
ATOM     84  O   UNL A   1      43.342  18.387  24.953  1.00  0.00    -0.744 OA
ENDBRANCH  80  81
ENDBRANCH  52  75
BRANCH  64  85
ATOM     85  C   UNL A   1      49.456  26.536  26.783  1.00  0.00    -0.014 A 
ATOM     86  C   UNL A   1      50.362  25.972  27.698  1.00  0.00     0.010 A 
ATOM     87  C   UNL A   1      49.834  26.671  25.434  1.00  0.00     0.010 A 
ATOM     88  C   UNL A   1      51.631  25.569  27.275  1.00  0.00     0.020 A 
ATOM     89  C   UNL A   1      51.090  26.241  25.002  1.00  0.00     0.020 A 
ATOM     90  C   UNL A   1      51.985  25.700  25.929  1.00  0.00     0.054 A 
BRANCH  90  91
ATOM     91  S   UNL A   1      53.614  25.110  25.396  1.00  0.00     0.124 S 
ATOM     92  O   UNL A   1      54.474  25.567  26.484  1.00  0.00    -0.237 OA
ATOM     93  O   UNL A   1      53.418  23.664  25.316  1.00  0.00    -0.237 OA
ATOM     94  O   UNL A   1      53.823  25.777  24.114  1.00  0.00    -0.744 OA
ENDBRANCH  90  91
ENDBRANCH  64  85
ENDBRANCH  38  39
ENDBRANCH  31  33
ENDBRANCH  30  31
ENDBRANCH  29  30
ENDBRANCH   1  29
TORSDOF 18
ENDMDL
MODEL 3
REMARK VINA RESULT:      -9.8      6.476     13.139
REMARK SMILES Cc1ccc(S(=O)(=O)Nc2cc(C(=O)OCCOC(=O)c3ccc(-c4c5nc(c(-c6ccc(S(=O)(=O)[O-])cc6)c6ccc([nH]6)c(-c6ccc(S(=O)(=O)[O-])cc6)c6nc(c(-c7ccc(S(=O)(=O)[O-])cc7)c7ccc4[nH]7)C=C6)C=C5)cc3)cnc2N2CCCC2)c(C)c1
REMARK SMILES IDX 16 1 15 2 13 3 14 4 12 5 10 6 11 7 83 8 82 9 81 10 9 11 6 13
REMARK SMILES IDX 7 14 8 15 5 16 1 17 2 18 3 19 91 20 4 21 89 22 90 23 84 24
REMARK SMILES IDX 85 25 88 26 86 27 87 28 17 29 18 30 19 31 20 32 21 33 22 34
REMARK SMILES IDX 80 35 23 36 79 37 24 38 25 39 26 40 73 41 27 42 78 43 72 44
REMARK SMILES IDX 74 45 28 46 77 47 71 48 70 49 29 51 59 52 40 53 58 54 41 55
REMARK SMILES IDX 44 56 57 57 75 58 42 59 43 60 56 62 76 63 45 64 30 65 31 66
REMARK SMILES IDX 39 67 32 68 38 69 33 70 34 71 35 72 36 73 37 74 60 75 61 76
REMARK SMILES IDX 69 77 62 78 68 79 63 80 64 81 65 82 66 83 67 84 46 85 47 86
REMARK SMILES IDX 55 87 48 88 54 89 49 90 50 91 51 92 52 93 53 94
REMARK H PARENT 9 12 74 50 44 61
REMARK Flexibility Score: inf
ROOT
ATOM      1  C   UNL A   1      33.689  31.320  27.488  1.00  0.00     0.275 C 
ENDROOT
BRANCH   1   2
ATOM      2  O   UNL A   1      34.119  30.074  26.909  1.00  0.00    -0.458 OA
BRANCH   2   3
ATOM      3  C   UNL A   1      33.191  29.089  26.907  1.00  0.00     0.339 C 
ATOM      4  O   UNL A   1      32.239  28.980  27.660  1.00  0.00    -0.246 OA
BRANCH   3   5
ATOM      5  C   UNL A   1      33.467  28.105  25.848  1.00  0.00     0.080 A 
ATOM      6  C   UNL A   1      33.330  25.869  25.076  1.00  0.00     0.092 A 
ATOM      7  C   UNL A   1      33.484  26.752  26.138  1.00  0.00     0.048 A 
ATOM      8  C   UNL A   1      33.409  26.324  23.737  1.00  0.00     0.153 A 
ATOM      9  N   UNL A   1      33.480  27.634  23.458  1.00  0.00    -0.236 NA
ATOM     10  C   UNL A   1      33.440  28.490  24.510  1.00  0.00     0.129 A 
BRANCH   6  11
ATOM     11  N   UNL A   1      32.997  24.507  25.338  1.00  0.00    -0.276 N 
ATOM     12  H   UNL A   1      32.066  24.209  25.224  1.00  0.00     0.180 HD
BRANCH  11  13
ATOM     13  S   UNL A   1      34.175  23.388  25.840  1.00  0.00     0.262 S 
ATOM     14  O   UNL A   1      34.109  23.477  27.288  1.00  0.00    -0.201 OA
ATOM     15  O   UNL A   1      35.396  23.742  25.146  1.00  0.00    -0.201 OA
BRANCH  13  16
ATOM     16  C   UNL A   1      33.834  21.673  25.407  1.00  0.00     0.090 A 
ATOM     17  C   UNL A   1      33.046  17.882  23.470  1.00  0.00     0.044 C 
ATOM     18  C   UNL A   1      33.319  19.163  24.203  1.00  0.00    -0.051 A 
ATOM     19  C   UNL A   1      34.602  19.493  24.637  1.00  0.00     0.005 A 
ATOM     20  C   UNL A   1      32.271  20.018  24.545  1.00  0.00     0.008 A 
ATOM     21  C   UNL A   1      34.852  20.725  25.263  1.00  0.00     0.023 A 
ATOM     22  C   UNL A   1      32.506  21.256  25.179  1.00  0.00    -0.030 A 
ATOM     23  C   UNL A   1      31.290  21.983  25.686  1.00  0.00     0.046 C 
ENDBRANCH  13  16
ENDBRANCH  11  13
ENDBRANCH   6  11
BRANCH   8  24
ATOM     24  N   UNL A   1      33.392  25.409  22.697  1.00  0.00    -0.355 N 
ATOM     25  C   UNL A   1      32.589  24.203  22.828  1.00  0.00     0.118 C 
ATOM     26  C   UNL A   1      33.207  25.920  21.336  1.00  0.00     0.118 C 
ATOM     27  C   UNL A   1      32.914  23.508  21.513  1.00  0.00     0.023 C 
ATOM     28  C   UNL A   1      32.943  24.655  20.504  1.00  0.00     0.023 C 
ENDBRANCH   8  24
ENDBRANCH   3   5
ENDBRANCH   2   3
ENDBRANCH   1   2
BRANCH   1  29
ATOM     29  C   UNL A   1      34.631  31.739  28.616  1.00  0.00     0.275 C 
BRANCH  29  30
ATOM     30  O   UNL A   1      35.747  30.833  28.713  1.00  0.00    -0.458 OA
BRANCH  30  31
ATOM     31  C   UNL A   1      36.388  30.829  29.905  1.00  0.00     0.338 C 
ATOM     32  O   UNL A   1      35.894  30.972  31.013  1.00  0.00    -0.246 OA
BRANCH  31  33
ATOM     33  C   UNL A   1      37.808  30.509  29.710  1.00  0.00     0.060 A 
ATOM     34  C   UNL A   1      38.246  30.227  28.424  1.00  0.00     0.016 A 
ATOM     35  C   UNL A   1      38.670  30.332  30.787  1.00  0.00     0.016 A 
ATOM     36  C   UNL A   1      39.489  29.654  28.203  1.00  0.00     0.010 A 
ATOM     37  C   UNL A   1      39.984  29.906  30.548  1.00  0.00     0.010 A 
ATOM     38  C   UNL A   1      40.403  29.545  29.252  1.00  0.00    -0.014 A 
BRANCH  38  39
ATOM     39  C   UNL A   1      41.799  29.111  28.969  1.00  0.00     0.031 A 
ATOM     40  C   UNL A   1      42.930  30.099  29.005  1.00  0.00     0.074 A 
ATOM     41  C   UNL A   1      42.043  27.820  28.657  1.00  0.00     0.049 A 
ATOM     42  N   UNL A   1      44.160  29.956  28.586  1.00  0.00    -0.248 NA
ATOM     43  C   UNL A   1      42.637  31.426  29.569  1.00  0.00     0.031 C 
ATOM     44  C   UNL A   1      41.044  26.745  28.636  1.00  0.00     0.029 A 
ATOM     45  N   UNL A   1      43.205  27.188  28.288  1.00  0.00    -0.354 N 
ATOM     46  C   UNL A   1      44.771  31.191  28.773  1.00  0.00     0.074 A 
ATOM     47  C   UNL A   1      43.776  32.070  29.348  1.00  0.00     0.031 C 
ATOM     48  C   UNL A   1      41.637  25.591  28.303  1.00  0.00     0.029 A 
ATOM     49  C   UNL A   1      43.026  25.861  27.966  1.00  0.00     0.049 A 
ATOM     50  H   UNL A   1      44.080  27.638  28.257  1.00  0.00     0.167 HD
ATOM     51  C   UNL A   1      46.042  31.556  28.474  1.00  0.00     0.031 A 
ATOM     52  C   UNL A   1      43.853  24.970  27.387  1.00  0.00     0.031 A 
ATOM     53  C   UNL A   1      47.023  30.658  27.919  1.00  0.00     0.049 A 
ATOM     54  C   UNL A   1      45.232  25.412  27.003  1.00  0.00     0.074 A 
ATOM     55  C   UNL A   1      48.348  30.915  27.614  1.00  0.00     0.029 A 
ATOM     56  N   UNL A   1      46.785  29.334  27.578  1.00  0.00    -0.354 N 
ATOM     57  N   UNL A   1      45.793  26.585  27.176  1.00  0.00    -0.248 NA
ATOM     58  C   UNL A   1      46.083  24.422  26.334  1.00  0.00     0.031 C 
ATOM     59  C   UNL A   1      48.889  29.769  27.021  1.00  0.00     0.029 A 
ATOM     60  C   UNL A   1      47.925  28.774  27.022  1.00  0.00     0.049 A 
ATOM     61  H   UNL A   1      45.932  28.861  27.712  1.00  0.00     0.167 HD
ATOM     62  C   UNL A   1      47.067  26.475  26.635  1.00  0.00     0.074 A 
ATOM     63  C   UNL A   1      47.202  25.113  26.158  1.00  0.00     0.031 C 
ATOM     64  C   UNL A   1      48.034  27.420  26.537  1.00  0.00     0.031 A 
BRANCH  51  65
ATOM     65  C   UNL A   1      46.422  33.003  28.669  1.00  0.00    -0.014 A 
ATOM     66  C   UNL A   1      46.988  33.473  29.867  1.00  0.00     0.010 A 
ATOM     67  C   UNL A   1      46.225  33.909  27.609  1.00  0.00     0.010 A 
ATOM     68  C   UNL A   1      47.302  34.828  30.019  1.00  0.00     0.020 A 
ATOM     69  C   UNL A   1      46.566  35.258  27.745  1.00  0.00     0.020 A 
ATOM     70  C   UNL A   1      47.083  35.712  28.958  1.00  0.00     0.054 A 
BRANCH  70  71
ATOM     71  S   UNL A   1      47.497  37.464  29.182  1.00  0.00     0.124 S 
ATOM     72  O   UNL A   1      48.789  37.557  28.508  1.00  0.00    -0.237 OA
ATOM     73  O   UNL A   1      46.389  38.142  28.512  1.00  0.00    -0.237 OA
ATOM     74  O   UNL A   1      47.539  37.631  30.633  1.00  0.00    -0.744 OA
ENDBRANCH  70  71
ENDBRANCH  51  65
BRANCH  52  75
ATOM     75  C   UNL A   1      43.345  23.609  27.061  1.00  0.00    -0.014 A 
ATOM     76  C   UNL A   1      43.190  23.196  25.729  1.00  0.00     0.010 A 
ATOM     77  C   UNL A   1      43.082  22.689  28.097  1.00  0.00     0.010 A 
ATOM     78  C   UNL A   1      42.790  21.887  25.437  1.00  0.00     0.020 A 
ATOM     79  C   UNL A   1      42.716  21.372  27.809  1.00  0.00     0.020 A 
ATOM     80  C   UNL A   1      42.568  20.980  26.479  1.00  0.00     0.054 A 
BRANCH  80  81
ATOM     81  S   UNL A   1      42.142  19.264  26.072  1.00  0.00     0.124 S 
ATOM     82  O   UNL A   1      40.701  19.348  25.869  1.00  0.00    -0.237 OA
ATOM     83  O   UNL A   1      42.939  19.020  24.871  1.00  0.00    -0.237 OA
ATOM     84  O   UNL A   1      42.568  18.516  27.253  1.00  0.00    -0.744 OA
ENDBRANCH  80  81
ENDBRANCH  52  75
BRANCH  64  85
ATOM     85  C   UNL A   1      49.330  27.010  25.892  1.00  0.00    -0.014 A 
ATOM     86  C   UNL A   1      49.639  27.398  24.576  1.00  0.00     0.010 A 
ATOM     87  C   UNL A   1      50.275  26.278  26.633  1.00  0.00     0.010 A 
ATOM     88  C   UNL A   1      50.863  27.044  24.006  1.00  0.00     0.020 A 
ATOM     89  C   UNL A   1      51.513  25.948  26.077  1.00  0.00     0.020 A 
ATOM     90  C   UNL A   1      51.795  26.326  24.762  1.00  0.00     0.054 A 
BRANCH  90  91
ATOM     91  S   UNL A   1      53.402  25.934  24.018  1.00  0.00     0.124 S 
ATOM     92  O   UNL A   1      53.716  24.647  24.632  1.00  0.00    -0.237 OA
ATOM     93  O   UNL A   1      53.089  25.890  22.592  1.00  0.00    -0.237 OA
ATOM     94  O   UNL A   1      54.255  27.045  24.430  1.00  0.00    -0.744 OA
ENDBRANCH  90  91
ENDBRANCH  64  85
ENDBRANCH  38  39
ENDBRANCH  31  33
ENDBRANCH  30  31
ENDBRANCH  29  30
ENDBRANCH   1  29
TORSDOF 18
ENDMDL
