MODEL 1
REMARK VINA RESULT:     -11.0      0.000      0.000
REMARK SMILES O=C(OCCOC(=O)c1cc(-c2cccc(C(F)(F)F)c2)nc2c(F)cccc12)c1ccc(-c2c3nc(c(-c4ccc(S(=O)(=O)[O-])cc4)c4ccc([nH]4)c(-c4ccc(S(=O)(=O)[O-])cc4)c4nc(c(-c5ccc(S(=O)(=O)[O-])cc5)c5ccc2[nH]5)C=C4)C=C3)cc1
REMARK SMILES IDX 4 1 3 2 2 3 1 4 30 5 31 6 89 7 32 8 88 9 33 10 34 11 35 12
REMARK SMILES IDX 82 13 36 14 87 15 81 16 83 17 37 18 86 19 80 20 79 21 38 23
REMARK SMILES IDX 68 24 49 25 67 26 50 27 53 28 66 29 84 30 51 31 52 32 65 34
REMARK SMILES IDX 85 35 54 36 39 37 40 38 48 39 41 40 47 41 42 42 43 43 44 44
REMARK SMILES IDX 45 45 46 46 69 47 70 48 78 49 71 50 77 51 72 52 73 53 74 54
REMARK SMILES IDX 75 55 76 56 55 57 56 58 64 59 57 60 63 61 58 62 59 63 60 64
REMARK SMILES IDX 61 65 62 66 5 67 6 68 7 69 8 70 9 71 10 72 29 73 11 74 23 75
REMARK SMILES IDX 28 76 22 77 24 78 27 79 25 80 26 81 12 82 13 83 21 84 14 85
REMARK SMILES IDX 16 86 15 87 17 88 18 89 19 90 20 91
REMARK H PARENT 83 22 53 33
REMARK Flexibility Score: inf
ROOT
ATOM      1  C   UNL A   1      36.365  21.559  25.477  1.00  0.00     0.275 C 
ENDROOT
BRANCH   1   2
ATOM      2  O   UNL A   1      37.274  22.668  25.568  1.00  0.00    -0.458 OA
BRANCH   2   3
ATOM      3  C   UNL A   1      38.499  22.738  26.139  1.00  0.00     0.338 C 
ATOM      4  O   UNL A   1      39.126  21.689  26.290  1.00  0.00    -0.246 OA
BRANCH   3   5
ATOM      5  C   UNL A   1      39.078  23.986  26.745  1.00  0.00     0.060 A 
ATOM      6  C   UNL A   1      38.982  24.405  28.073  1.00  0.00     0.016 A 
ATOM      7  C   UNL A   1      39.820  24.795  25.869  1.00  0.00     0.016 A 
ATOM      8  C   UNL A   1      39.671  25.537  28.529  1.00  0.00     0.010 A 
ATOM      9  C   UNL A   1      40.541  25.902  26.321  1.00  0.00     0.010 A 
ATOM     10  C   UNL A   1      40.467  26.284  27.664  1.00  0.00    -0.014 A 
BRANCH  10  11
ATOM     11  C   UNL A   1      41.103  27.544  28.110  1.00  0.00     0.031 A 
ATOM     12  C   UNL A   1      42.595  27.580  28.252  1.00  0.00     0.074 A 
ATOM     13  C   UNL A   1      40.386  28.658  28.353  1.00  0.00     0.049 A 
ATOM     14  N   UNL A   1      43.349  28.567  28.650  1.00  0.00    -0.248 NA
ATOM     15  C   UNL A   1      43.337  26.379  27.833  1.00  0.00     0.031 C 
ATOM     16  C   UNL A   1      38.962  28.828  28.080  1.00  0.00     0.029 A 
ATOM     17  N   UNL A   1      40.757  29.856  28.917  1.00  0.00    -0.354 N 
ATOM     18  C   UNL A   1      44.653  28.132  28.469  1.00  0.00     0.074 A 
ATOM     19  C   UNL A   1      44.592  26.765  28.004  1.00  0.00     0.031 C 
ATOM     20  C   UNL A   1      38.561  30.011  28.576  1.00  0.00     0.029 A 
ATOM     21  C   UNL A   1      39.681  30.653  29.238  1.00  0.00     0.049 A 
ATOM     22  H   UNL A   1      41.692  30.116  29.075  1.00  0.00     0.167 HD
ATOM     23  C   UNL A   1      45.794  28.836  28.630  1.00  0.00     0.031 A 
ATOM     24  C   UNL A   1      39.599  31.743  30.023  1.00  0.00     0.031 A 
ATOM     25  C   UNL A   1      45.838  30.184  29.121  1.00  0.00     0.049 A 
ATOM     26  C   UNL A   1      40.876  32.374  30.486  1.00  0.00     0.074 A 
ATOM     27  C   UNL A   1      46.939  31.005  29.280  1.00  0.00     0.029 A 
ATOM     28  N   UNL A   1      44.735  30.895  29.571  1.00  0.00    -0.354 N 
ATOM     29  N   UNL A   1      42.103  31.992  30.237  1.00  0.00    -0.248 NA
ATOM     30  C   UNL A   1      40.768  33.616  31.262  1.00  0.00     0.031 C 
ATOM     31  C   UNL A   1      46.513  32.182  29.905  1.00  0.00     0.029 A 
ATOM     32  C   UNL A   1      45.138  32.118  30.076  1.00  0.00     0.049 A 
ATOM     33  H   UNL A   1      43.805  30.577  29.535  1.00  0.00     0.167 HD
ATOM     34  C   UNL A   1      42.916  32.987  30.753  1.00  0.00     0.074 A 
ATOM     35  C   UNL A   1      42.042  33.971  31.360  1.00  0.00     0.031 C 
ATOM     36  C   UNL A   1      44.264  33.089  30.685  1.00  0.00     0.031 A 
BRANCH  23  37
ATOM     37  C   UNL A   1      47.079  28.146  28.288  1.00  0.00    -0.014 A 
ATOM     38  C   UNL A   1      47.766  27.378  29.247  1.00  0.00     0.010 A 
ATOM     39  C   UNL A   1      47.590  28.243  26.984  1.00  0.00     0.010 A 
ATOM     40  C   UNL A   1      48.956  26.731  28.907  1.00  0.00     0.020 A 
ATOM     41  C   UNL A   1      48.770  27.583  26.636  1.00  0.00     0.020 A 
ATOM     42  C   UNL A   1      49.448  26.837  27.602  1.00  0.00     0.054 A 
BRANCH  42  43
ATOM     43  S   UNL A   1      50.973  25.952  27.178  1.00  0.00     0.124 S 
ATOM     44  O   UNL A   1      51.947  26.585  28.063  1.00  0.00    -0.237 OA
ATOM     45  O   UNL A   1      50.637  24.568  27.502  1.00  0.00    -0.237 OA
ATOM     46  O   UNL A   1      51.151  26.231  25.755  1.00  0.00    -0.744 OA
ENDBRANCH  42  43
ENDBRANCH  23  37
BRANCH  24  47
ATOM     47  C   UNL A   1      38.284  32.276  30.471  1.00  0.00    -0.014 A 
ATOM     48  C   UNL A   1      37.599  33.264  29.746  1.00  0.00     0.010 A 
ATOM     49  C   UNL A   1      37.740  31.825  31.690  1.00  0.00     0.010 A 
ATOM     50  C   UNL A   1      36.406  33.806  30.241  1.00  0.00     0.020 A 
ATOM     51  C   UNL A   1      36.542  32.353  32.181  1.00  0.00     0.020 A 
ATOM     52  C   UNL A   1      35.887  33.351  31.458  1.00  0.00     0.054 A 
BRANCH  52  53
ATOM     53  S   UNL A   1      34.329  34.057  32.067  1.00  0.00     0.124 S 
ATOM     54  O   UNL A   1      33.715  32.913  32.733  1.00  0.00    -0.237 OA
ATOM     55  O   UNL A   1      34.792  35.129  32.944  1.00  0.00    -0.237 OA
ATOM     56  O   UNL A   1      33.660  34.509  30.848  1.00  0.00    -0.744 OA
ENDBRANCH  52  53
ENDBRANCH  24  47
BRANCH  36  57
ATOM     57  C   UNL A   1      44.885  34.334  31.242  1.00  0.00    -0.014 A 
ATOM     58  C   UNL A   1      45.024  35.489  30.455  1.00  0.00     0.010 A 
ATOM     59  C   UNL A   1      45.270  34.363  32.594  1.00  0.00     0.010 A 
ATOM     60  C   UNL A   1      45.547  36.655  31.015  1.00  0.00     0.020 A 
ATOM     61  C   UNL A   1      45.764  35.537  33.163  1.00  0.00     0.020 A 
ATOM     62  C   UNL A   1      45.904  36.674  32.367  1.00  0.00     0.054 A 
BRANCH  62  63
ATOM     63  S   UNL A   1      46.494  38.228  33.088  1.00  0.00     0.124 S 
ATOM     64  O   UNL A   1      47.755  37.818  33.703  1.00  0.00    -0.237 OA
ATOM     65  O   UNL A   1      46.617  39.096  31.920  1.00  0.00    -0.237 OA
ATOM     66  O   UNL A   1      45.437  38.599  34.025  1.00  0.00    -0.744 OA
ENDBRANCH  62  63
ENDBRANCH  36  57
ENDBRANCH  10  11
ENDBRANCH   3   5
ENDBRANCH   2   3
ENDBRANCH   1   2
BRANCH   1  67
ATOM     67  C   UNL A   1      35.113  21.697  26.347  1.00  0.00     0.275 C 
BRANCH  67  68
ATOM     68  O   UNL A   1      34.799  23.058  26.679  1.00  0.00    -0.458 OA
BRANCH  68  69
ATOM     69  C   UNL A   1      33.517  23.430  26.453  1.00  0.00     0.339 C 
ATOM     70  O   UNL A   1      32.517  22.971  26.997  1.00  0.00    -0.246 OA
BRANCH  69  71
ATOM     71  C   UNL A   1      33.469  24.586  25.542  1.00  0.00     0.071 A 
ATOM     72  C   UNL A   1      33.372  25.840  26.154  1.00  0.00     0.045 A 
ATOM     73  C   UNL A   1      33.410  24.450  24.138  1.00  0.00     0.018 A 
ATOM     74  C   UNL A   1      33.270  26.954  25.348  1.00  0.00     0.072 A 
ATOM     75  C   UNL A   1      33.296  25.649  23.405  1.00  0.00     0.107 A 
ATOM     76  C   UNL A   1      33.407  23.212  23.442  1.00  0.00     0.011 A 
ATOM     77  N   UNL A   1      33.253  26.857  24.002  1.00  0.00    -0.245 NA
ATOM     78  C   UNL A   1      33.167  25.565  22.021  1.00  0.00     0.149 A 
ATOM     79  C   UNL A   1      33.247  23.163  22.059  1.00  0.00     0.004 A 
ATOM     80  F   UNL A   1      33.077  26.690  21.291  1.00  0.00    -0.205 F 
ATOM     81  C   UNL A   1      33.106  24.347  21.350  1.00  0.00     0.041 A 
BRANCH  74  82
ATOM     82  C   UNL A   1      33.029  28.303  25.874  1.00  0.00     0.001 A 
ATOM     83  C   UNL A   1      31.909  29.071  25.529  1.00  0.00     0.010 A 
ATOM     84  C   UNL A   1      33.964  28.868  26.758  1.00  0.00     0.023 A 
ATOM     85  C   UNL A   1      31.730  30.359  26.037  1.00  0.00     0.001 A 
ATOM     86  C   UNL A   1      33.812  30.168  27.261  1.00  0.00     0.056 A 
ATOM     87  C   UNL A   1      32.683  30.910  26.891  1.00  0.00     0.013 A 
BRANCH  86  88
ATOM     88  C   UNL A   1      34.867  30.775  28.148  1.00  0.00     0.416 C 
ATOM     89  F   UNL A   1      35.546  29.824  28.853  1.00  0.00    -0.166 F 
ATOM     90  F   UNL A   1      35.814  31.464  27.454  1.00  0.00    -0.166 F 
ATOM     91  F   UNL A   1      34.379  31.641  29.078  1.00  0.00    -0.166 F 
ENDBRANCH  86  88
ENDBRANCH  74  82
ENDBRANCH  69  71
ENDBRANCH  68  69
ENDBRANCH  67  68
ENDBRANCH   1  67
TORSDOF 16
ENDMDL
MODEL 2
REMARK VINA RESULT:     -10.7      5.389     11.179
REMARK SMILES O=C(OCCOC(=O)c1cc(-c2cccc(C(F)(F)F)c2)nc2c(F)cccc12)c1ccc(-c2c3nc(c(-c4ccc(S(=O)(=O)[O-])cc4)c4ccc([nH]4)c(-c4ccc(S(=O)(=O)[O-])cc4)c4nc(c(-c5ccc(S(=O)(=O)[O-])cc5)c5ccc2[nH]5)C=C4)C=C3)cc1
REMARK SMILES IDX 4 1 3 2 2 3 1 4 30 5 31 6 89 7 32 8 88 9 33 10 34 11 35 12
REMARK SMILES IDX 82 13 36 14 87 15 81 16 83 17 37 18 86 19 80 20 79 21 38 23
REMARK SMILES IDX 68 24 49 25 67 26 50 27 53 28 66 29 84 30 51 31 52 32 65 34
REMARK SMILES IDX 85 35 54 36 39 37 40 38 48 39 41 40 47 41 42 42 43 43 44 44
REMARK SMILES IDX 45 45 46 46 69 47 70 48 78 49 71 50 77 51 72 52 73 53 74 54
REMARK SMILES IDX 75 55 76 56 55 57 56 58 64 59 57 60 63 61 58 62 59 63 60 64
REMARK SMILES IDX 61 65 62 66 5 67 6 68 7 69 8 70 9 71 10 72 29 73 11 74 23 75
REMARK SMILES IDX 28 76 22 77 24 78 27 79 25 80 26 81 12 82 13 83 21 84 14 85
REMARK SMILES IDX 16 86 15 87 17 88 18 89 19 90 20 91
REMARK H PARENT 83 22 53 33
REMARK Flexibility Score: inf
ROOT
ATOM      1  C   UNL A   1      33.159  36.850  29.707  1.00  0.00     0.275 C 
ENDROOT
BRANCH   1   2
ATOM      2  O   UNL A   1      32.908  36.907  31.121  1.00  0.00    -0.458 OA
BRANCH   2   3
ATOM      3  C   UNL A   1      32.706  35.901  32.005  1.00  0.00     0.338 C 
ATOM      4  O   UNL A   1      31.587  35.790  32.505  1.00  0.00    -0.246 OA
BRANCH   3   5
ATOM      5  C   UNL A   1      33.796  35.013  32.537  1.00  0.00     0.060 A 
ATOM      6  C   UNL A   1      33.648  33.788  33.188  1.00  0.00     0.016 A 
ATOM      7  C   UNL A   1      35.106  35.469  32.318  1.00  0.00     0.016 A 
ATOM      8  C   UNL A   1      34.760  33.007  33.529  1.00  0.00     0.010 A 
ATOM      9  C   UNL A   1      36.220  34.682  32.618  1.00  0.00     0.010 A 
ATOM     10  C   UNL A   1      36.052  33.438  33.234  1.00  0.00    -0.014 A 
BRANCH  10  11
ATOM     11  C   UNL A   1      37.233  32.674  33.693  1.00  0.00     0.031 A 
ATOM     12  C   UNL A   1      38.046  33.227  34.824  1.00  0.00     0.074 A 
ATOM     13  C   UNL A   1      37.570  31.488  33.152  1.00  0.00     0.049 A 
ATOM     14  N   UNL A   1      39.126  32.736  35.365  1.00  0.00    -0.248 NA
ATOM     15  C   UNL A   1      37.545  34.452  35.473  1.00  0.00     0.031 C 
ATOM     16  C   UNL A   1      36.777  30.740  32.182  1.00  0.00     0.029 A 
ATOM     17  N   UNL A   1      38.694  30.714  33.320  1.00  0.00    -0.354 N 
ATOM     18  C   UNL A   1      39.399  33.550  36.453  1.00  0.00     0.074 A 
ATOM     19  C   UNL A   1      38.422  34.615  36.452  1.00  0.00     0.031 C 
ATOM     20  C   UNL A   1      37.485  29.678  31.763  1.00  0.00     0.029 A 
ATOM     21  C   UNL A   1      38.792  29.700  32.395  1.00  0.00     0.049 A 
ATOM     22  H   UNL A   1      39.360  30.869  34.028  1.00  0.00     0.167 HD
ATOM     23  C   UNL A   1      40.352  33.387  37.395  1.00  0.00     0.031 A 
ATOM     24  C   UNL A   1      39.832  28.917  32.055  1.00  0.00     0.031 A 
ATOM     25  C   UNL A   1      41.334  32.340  37.365  1.00  0.00     0.049 A 
ATOM     26  C   UNL A   1      41.051  28.952  32.924  1.00  0.00     0.074 A 
ATOM     27  C   UNL A   1      42.317  32.058  38.294  1.00  0.00     0.029 A 
ATOM     28  N   UNL A   1      41.481  31.427  36.330  1.00  0.00    -0.354 N 
ATOM     29  N   UNL A   1      41.258  29.672  33.997  1.00  0.00    -0.248 NA
ATOM     30  C   UNL A   1      42.138  28.022  32.593  1.00  0.00     0.031 C 
ATOM     31  C   UNL A   1      43.112  31.027  37.781  1.00  0.00     0.029 A 
ATOM     32  C   UNL A   1      42.585  30.627  36.563  1.00  0.00     0.049 A 
ATOM     33  H   UNL A   1      40.888  31.360  35.548  1.00  0.00     0.167 HD
ATOM     34  C   UNL A   1      42.461  29.228  34.519  1.00  0.00     0.074 A 
ATOM     35  C   UNL A   1      42.954  28.200  33.623  1.00  0.00     0.031 C 
ATOM     36  C   UNL A   1      43.073  29.612  35.664  1.00  0.00     0.031 A 
BRANCH  23  37
ATOM     37  C   UNL A   1      40.382  34.377  38.519  1.00  0.00    -0.014 A 
ATOM     38  C   UNL A   1      39.615  34.176  39.681  1.00  0.00     0.010 A 
ATOM     39  C   UNL A   1      41.210  35.507  38.424  1.00  0.00     0.010 A 
ATOM     40  C   UNL A   1      39.665  35.103  40.725  1.00  0.00     0.020 A 
ATOM     41  C   UNL A   1      41.276  36.426  39.472  1.00  0.00     0.020 A 
ATOM     42  C   UNL A   1      40.497  36.221  40.613  1.00  0.00     0.054 A 
BRANCH  42  43
ATOM     43  S   UNL A   1      40.575  37.385  42.001  1.00  0.00     0.124 S 
ATOM     44  O   UNL A   1      41.936  37.179  42.491  1.00  0.00    -0.237 OA
ATOM     45  O   UNL A   1      40.330  38.670  41.352  1.00  0.00    -0.237 OA
ATOM     46  O   UNL A   1      39.515  36.929  42.896  1.00  0.00    -0.744 OA
ENDBRANCH  42  43
ENDBRANCH  23  37
BRANCH  24  47
ATOM     47  C   UNL A   1      39.804  28.085  30.821  1.00  0.00    -0.014 A 
ATOM     48  C   UNL A   1      39.012  26.930  30.726  1.00  0.00     0.010 A 
ATOM     49  C   UNL A   1      40.642  28.428  29.743  1.00  0.00     0.010 A 
ATOM     50  C   UNL A   1      39.075  26.122  29.583  1.00  0.00     0.020 A 
ATOM     51  C   UNL A   1      40.698  27.632  28.594  1.00  0.00     0.020 A 
ATOM     52  C   UNL A   1      39.921  26.475  28.527  1.00  0.00     0.054 A 
BRANCH  52  53
ATOM     53  S   UNL A   1      39.968  25.420  27.049  1.00  0.00     0.124 S 
ATOM     54  O   UNL A   1      40.551  26.313  26.054  1.00  0.00    -0.237 OA
ATOM     55  O   UNL A   1      40.817  24.312  27.483  1.00  0.00    -0.237 OA
ATOM     56  O   UNL A   1      38.565  25.069  26.836  1.00  0.00    -0.744 OA
ENDBRANCH  52  53
ENDBRANCH  24  47
BRANCH  36  57
ATOM     57  C   UNL A   1      44.327  28.886  36.047  1.00  0.00    -0.014 A 
ATOM     58  C   UNL A   1      44.279  27.706  36.806  1.00  0.00     0.010 A 
ATOM     59  C   UNL A   1      45.565  29.360  35.577  1.00  0.00     0.010 A 
ATOM     60  C   UNL A   1      45.455  27.013  37.096  1.00  0.00     0.020 A 
ATOM     61  C   UNL A   1      46.739  28.653  35.840  1.00  0.00     0.020 A 
ATOM     62  C   UNL A   1      46.675  27.487  36.602  1.00  0.00     0.054 A 
BRANCH  62  63
ATOM     63  S   UNL A   1      48.174  26.518  36.917  1.00  0.00     0.124 S 
ATOM     64  O   UNL A   1      49.157  27.198  36.078  1.00  0.00    -0.237 OA
ATOM     65  O   UNL A   1      48.359  26.676  38.357  1.00  0.00    -0.237 OA
ATOM     66  O   UNL A   1      47.813  25.169  36.485  1.00  0.00    -0.744 OA
ENDBRANCH  62  63
ENDBRANCH  36  57
ENDBRANCH  10  11
ENDBRANCH   3   5
ENDBRANCH   2   3
ENDBRANCH   1   2
BRANCH   1  67
ATOM     67  C   UNL A   1      32.824  35.502  29.061  1.00  0.00     0.275 C 
BRANCH  67  68
ATOM     68  O   UNL A   1      33.830  34.502  29.283  1.00  0.00    -0.458 OA
BRANCH  68  69
ATOM     69  C   UNL A   1      34.672  34.286  28.245  1.00  0.00     0.339 C 
ATOM     70  O   UNL A   1      34.723  34.927  27.200  1.00  0.00    -0.246 OA
BRANCH  69  71
ATOM     71  C   UNL A   1      35.647  33.236  28.584  1.00  0.00     0.071 A 
ATOM     72  C   UNL A   1      36.810  33.670  29.228  1.00  0.00     0.045 A 
ATOM     73  C   UNL A   1      35.488  31.888  28.191  1.00  0.00     0.018 A 
ATOM     74  C   UNL A   1      37.783  32.736  29.521  1.00  0.00     0.072 A 
ATOM     75  C   UNL A   1      36.543  31.017  28.529  1.00  0.00     0.107 A 
ATOM     76  C   UNL A   1      34.385  31.385  27.452  1.00  0.00     0.011 A 
ATOM     77  N   UNL A   1      37.638  31.435  29.194  1.00  0.00    -0.245 NA
ATOM     78  C   UNL A   1      36.464  29.692  28.105  1.00  0.00     0.149 A 
ATOM     79  C   UNL A   1      34.352  30.061  27.019  1.00  0.00     0.004 A 
ATOM     80  F   UNL A   1      37.443  28.830  28.428  1.00  0.00    -0.205 F 
ATOM     81  C   UNL A   1      35.408  29.218  27.331  1.00  0.00     0.041 A 
BRANCH  74  82
ATOM     82  C   UNL A   1      39.095  33.094  30.071  1.00  0.00     0.001 A 
ATOM     83  C   UNL A   1      39.325  34.263  30.808  1.00  0.00     0.010 A 
ATOM     84  C   UNL A   1      40.185  32.236  29.846  1.00  0.00     0.023 A 
ATOM     85  C   UNL A   1      40.596  34.574  31.295  1.00  0.00     0.001 A 
ATOM     86  C   UNL A   1      41.474  32.542  30.309  1.00  0.00     0.056 A 
ATOM     87  C   UNL A   1      41.669  33.722  31.037  1.00  0.00     0.013 A 
BRANCH  86  88
ATOM     88  C   UNL A   1      42.637  31.642  29.990  1.00  0.00     0.416 C 
ATOM     89  F   UNL A   1      42.843  30.713  30.969  1.00  0.00    -0.166 F 
ATOM     90  F   UNL A   1      42.462  30.932  28.841  1.00  0.00    -0.166 F 
ATOM     91  F   UNL A   1      43.824  32.295  29.850  1.00  0.00    -0.166 F 
ENDBRANCH  86  88
ENDBRANCH  74  82
ENDBRANCH  69  71
ENDBRANCH  68  69
ENDBRANCH  67  68
ENDBRANCH   1  67
TORSDOF 16
ENDMDL
MODEL 3
REMARK VINA RESULT:     -10.7      4.844      5.816
REMARK SMILES O=C(OCCOC(=O)c1cc(-c2cccc(C(F)(F)F)c2)nc2c(F)cccc12)c1ccc(-c2c3nc(c(-c4ccc(S(=O)(=O)[O-])cc4)c4ccc([nH]4)c(-c4ccc(S(=O)(=O)[O-])cc4)c4nc(c(-c5ccc(S(=O)(=O)[O-])cc5)c5ccc2[nH]5)C=C4)C=C3)cc1
REMARK SMILES IDX 4 1 3 2 2 3 1 4 30 5 31 6 89 7 32 8 88 9 33 10 34 11 35 12
REMARK SMILES IDX 82 13 36 14 87 15 81 16 83 17 37 18 86 19 80 20 79 21 38 23
REMARK SMILES IDX 68 24 49 25 67 26 50 27 53 28 66 29 84 30 51 31 52 32 65 34
REMARK SMILES IDX 85 35 54 36 39 37 40 38 48 39 41 40 47 41 42 42 43 43 44 44
REMARK SMILES IDX 45 45 46 46 69 47 70 48 78 49 71 50 77 51 72 52 73 53 74 54
REMARK SMILES IDX 75 55 76 56 55 57 56 58 64 59 57 60 63 61 58 62 59 63 60 64
REMARK SMILES IDX 61 65 62 66 5 67 6 68 7 69 8 70 9 71 10 72 29 73 11 74 23 75
REMARK SMILES IDX 28 76 22 77 24 78 27 79 25 80 26 81 12 82 13 83 21 84 14 85
REMARK SMILES IDX 16 86 15 87 17 88 18 89 19 90 20 91
REMARK H PARENT 83 22 53 33
REMARK Flexibility Score: inf
ROOT
ATOM      1  C   UNL A   1      38.511  23.754  26.036  1.00  0.00     0.275 C 
ENDROOT
BRANCH   1   2
ATOM      2  O   UNL A   1      39.503  24.395  26.853  1.00  0.00    -0.458 OA
BRANCH   2   3
ATOM      3  C   UNL A   1      40.089  25.608  26.712  1.00  0.00     0.338 C 
ATOM      4  O   UNL A   1      40.632  25.864  25.638  1.00  0.00    -0.246 OA
BRANCH   3   5
ATOM      5  C   UNL A   1      40.258  26.598  27.830  1.00  0.00     0.060 A 
ATOM      6  C   UNL A   1      41.137  27.681  27.876  1.00  0.00     0.016 A 
ATOM      7  C   UNL A   1      39.408  26.414  28.933  1.00  0.00     0.016 A 
ATOM      8  C   UNL A   1      41.108  28.596  28.937  1.00  0.00     0.010 A 
ATOM      9  C   UNL A   1      39.344  27.341  29.977  1.00  0.00     0.010 A 
ATOM     10  C   UNL A   1      40.203  28.444  29.986  1.00  0.00    -0.014 A 
BRANCH  10  11
ATOM     11  C   UNL A   1      40.246  29.338  31.164  1.00  0.00     0.031 A 
ATOM     12  C   UNL A   1      41.154  28.979  32.301  1.00  0.00     0.074 A 
ATOM     13  C   UNL A   1      39.525  30.474  31.223  1.00  0.00     0.049 A 
ATOM     14  N   UNL A   1      41.326  29.606  33.432  1.00  0.00    -0.248 NA
ATOM     15  C   UNL A   1      42.026  27.806  32.118  1.00  0.00     0.031 C 
ATOM     16  C   UNL A   1      38.748  31.046  30.128  1.00  0.00     0.029 A 
ATOM     17  N   UNL A   1      39.304  31.340  32.268  1.00  0.00    -0.354 N 
ATOM     18  C   UNL A   1      42.366  28.946  34.066  1.00  0.00     0.074 A 
ATOM     19  C   UNL A   1      42.734  27.820  33.237  1.00  0.00     0.031 C 
ATOM     20  C   UNL A   1      38.053  32.100  30.589  1.00  0.00     0.029 A 
ATOM     21  C   UNL A   1      38.298  32.245  32.012  1.00  0.00     0.049 A 
ATOM     22  H   UNL A   1      39.811  31.317  33.111  1.00  0.00     0.167 HD
ATOM     23  C   UNL A   1      42.989  29.285  35.215  1.00  0.00     0.031 A 
ATOM     24  C   UNL A   1      37.613  33.055  32.839  1.00  0.00     0.031 A 
ATOM     25  C   UNL A   1      42.592  30.389  36.043  1.00  0.00     0.049 A 
ATOM     26  C   UNL A   1      38.110  33.209  34.243  1.00  0.00     0.074 A 
ATOM     27  C   UNL A   1      43.182  30.847  37.206  1.00  0.00     0.029 A 
ATOM     28  N   UNL A   1      41.477  31.183  35.816  1.00  0.00    -0.354 N 
ATOM     29  N   UNL A   1      39.146  32.635  34.801  1.00  0.00    -0.248 NA
ATOM     30  C   UNL A   1      37.407  34.169  35.103  1.00  0.00     0.031 C 
ATOM     31  C   UNL A   1      42.377  31.864  37.727  1.00  0.00     0.029 A 
ATOM     32  C   UNL A   1      41.320  32.081  36.856  1.00  0.00     0.049 A 
ATOM     33  H   UNL A   1      40.887  31.117  35.032  1.00  0.00     0.167 HD
ATOM     34  C   UNL A   1      39.271  33.221  36.049  1.00  0.00     0.074 A 
ATOM     35  C   UNL A   1      38.183  34.171  36.178  1.00  0.00     0.031 C 
ATOM     36  C   UNL A   1      40.232  33.018  36.980  1.00  0.00     0.031 A 
BRANCH  23  37
ATOM     37  C   UNL A   1      44.147  28.437  35.644  1.00  0.00    -0.014 A 
ATOM     38  C   UNL A   1      43.991  27.440  36.625  1.00  0.00     0.010 A 
ATOM     39  C   UNL A   1      45.400  28.620  35.037  1.00  0.00     0.010 A 
ATOM     40  C   UNL A   1      45.079  26.650  37.003  1.00  0.00     0.020 A 
ATOM     41  C   UNL A   1      46.485  27.821  35.400  1.00  0.00     0.020 A 
ATOM     42  C   UNL A   1      46.319  26.845  36.386  1.00  0.00     0.054 A 
BRANCH  42  43
ATOM     43  S   UNL A   1      47.703  25.777  36.865  1.00  0.00     0.124 S 
ATOM     44  O   UNL A   1      48.630  25.966  35.752  1.00  0.00    -0.237 OA
ATOM     45  O   UNL A   1      48.125  26.355  38.138  1.00  0.00    -0.237 OA
ATOM     46  O   UNL A   1      47.101  24.449  36.955  1.00  0.00    -0.744 OA
ENDBRANCH  42  43
ENDBRANCH  23  37
BRANCH  24  47
ATOM     47  C   UNL A   1      36.364  33.734  32.398  1.00  0.00    -0.014 A 
ATOM     48  C   UNL A   1      35.558  33.210  31.376  1.00  0.00     0.010 A 
ATOM     49  C   UNL A   1      36.014  34.969  32.977  1.00  0.00     0.010 A 
ATOM     50  C   UNL A   1      34.437  33.919  30.926  1.00  0.00     0.020 A 
ATOM     51  C   UNL A   1      34.886  35.674  32.541  1.00  0.00     0.020 A 
ATOM     52  C   UNL A   1      34.111  35.149  31.508  1.00  0.00     0.054 A 
BRANCH  52  53
ATOM     53  S   UNL A   1      32.640  36.036  30.918  1.00  0.00     0.124 S 
ATOM     54  O   UNL A   1      31.643  35.675  31.920  1.00  0.00    -0.237 OA
ATOM     55  O   UNL A   1      33.085  37.428  30.938  1.00  0.00    -0.237 OA
ATOM     56  O   UNL A   1      32.420  35.484  29.583  1.00  0.00    -0.744 OA
ENDBRANCH  52  53
ENDBRANCH  24  47
BRANCH  36  57
ATOM     57  C   UNL A   1      40.184  33.870  38.212  1.00  0.00    -0.014 A 
ATOM     58  C   UNL A   1      40.792  35.136  38.241  1.00  0.00     0.010 A 
ATOM     59  C   UNL A   1      39.459  33.422  39.330  1.00  0.00     0.010 A 
ATOM     60  C   UNL A   1      40.679  35.939  39.377  1.00  0.00     0.020 A 
ATOM     61  C   UNL A   1      39.319  34.235  40.455  1.00  0.00     0.020 A 
ATOM     62  C   UNL A   1      39.936  35.486  40.471  1.00  0.00     0.054 A 
BRANCH  62  63
ATOM     63  S   UNL A   1      39.730  36.587  41.897  1.00  0.00     0.124 S 
ATOM     64  O   UNL A   1      41.088  36.649  42.431  1.00  0.00    -0.237 OA
ATOM     65  O   UNL A   1      39.240  37.817  41.281  1.00  0.00    -0.237 OA
ATOM     66  O   UNL A   1      38.762  35.888  42.738  1.00  0.00    -0.744 OA
ENDBRANCH  62  63
ENDBRANCH  36  57
ENDBRANCH  10  11
ENDBRANCH   3   5
ENDBRANCH   2   3
ENDBRANCH   1   2
BRANCH   1  67
ATOM     67  C   UNL A   1      37.067  24.027  26.466  1.00  0.00     0.275 C 
BRANCH  67  68
ATOM     68  O   UNL A   1      36.107  23.204  25.786  1.00  0.00    -0.458 OA
BRANCH  68  69
ATOM     69  C   UNL A   1      34.810  23.460  26.082  1.00  0.00     0.339 C 
ATOM     70  O   UNL A   1      34.140  22.917  26.956  1.00  0.00    -0.246 OA
BRANCH  69  71
ATOM     71  C   UNL A   1      34.318  24.602  25.294  1.00  0.00     0.071 A 
ATOM     72  C   UNL A   1      34.207  25.815  25.983  1.00  0.00     0.045 A 
ATOM     73  C   UNL A   1      33.874  24.475  23.959  1.00  0.00     0.018 A 
ATOM     74  C   UNL A   1      33.701  26.906  25.307  1.00  0.00     0.072 A 
ATOM     75  C   UNL A   1      33.364  25.647  23.363  1.00  0.00     0.107 A 
ATOM     76  C   UNL A   1      33.863  23.262  23.221  1.00  0.00     0.011 A 
ATOM     77  N   UNL A   1      33.307  26.822  24.019  1.00  0.00    -0.245 NA
ATOM     78  C   UNL A   1      32.852  25.558  22.071  1.00  0.00     0.149 A 
ATOM     79  C   UNL A   1      33.316  23.203  21.941  1.00  0.00     0.004 A 
ATOM     80  F   UNL A   1      32.377  26.660  21.466  1.00  0.00    -0.205 F 
ATOM     81  C   UNL A   1      32.790  24.355  21.373  1.00  0.00     0.041 A 
BRANCH  74  82
ATOM     82  C   UNL A   1      33.414  28.188  25.960  1.00  0.00     0.001 A 
ATOM     83  C   UNL A   1      32.145  28.782  25.959  1.00  0.00     0.010 A 
ATOM     84  C   UNL A   1      34.456  28.870  26.611  1.00  0.00     0.023 A 
ATOM     85  C   UNL A   1      31.922  30.015  26.576  1.00  0.00     0.001 A 
ATOM     86  C   UNL A   1      34.256  30.120  27.217  1.00  0.00     0.056 A 
ATOM     87  C   UNL A   1      32.976  30.686  27.193  1.00  0.00     0.013 A 
BRANCH  86  88
ATOM     88  C   UNL A   1      35.407  30.861  27.843  1.00  0.00     0.416 C 
ATOM     89  F   UNL A   1      35.329  32.204  27.616  1.00  0.00    -0.166 F 
ATOM     90  F   UNL A   1      35.457  30.720  29.197  1.00  0.00    -0.166 F 
ATOM     91  F   UNL A   1      36.630  30.482  27.381  1.00  0.00    -0.166 F 
ENDBRANCH  86  88
ENDBRANCH  74  82
ENDBRANCH  69  71
ENDBRANCH  68  69
ENDBRANCH  67  68
ENDBRANCH   1  67
TORSDOF 16
ENDMDL
