MODEL 1
REMARK VINA RESULT:     -10.8      0.000      0.000
REMARK SMILES COc1ccc(-c2cccc(C(=O)NCC(=O)OCCOC(=O)c3ccc(-c4c5nc(c(-c6ccc(S(=O)(=O)[O-])cc6)c6ccc([nH]6)c(-c6ccc(S(=O)(=O)[O-])cc6)c6nc(c(-c7ccc(S(=O)(=O)[O-])cc7)c7ccc4[nH]7)C=C6)C=C5)cc3)c2)cc1
REMARK SMILES IDX 19 1 18 2 16 3 17 4 15 5 14 6 12 7 13 8 11 10 7 11 8 12
REMARK SMILES IDX 84 13 9 14 10 15 6 16 3 17 4 18 86 19 5 20 85 21 2 22 1 23
REMARK SMILES IDX 20 24 21 25 22 26 23 27 24 28 25 29 83 30 26 31 82 32 27 33
REMARK SMILES IDX 28 34 29 35 76 36 30 37 81 38 75 39 77 40 31 41 80 42 74 43
REMARK SMILES IDX 73 44 32 46 62 47 43 48 61 49 44 50 47 51 60 52 78 53 45 54
REMARK SMILES IDX 46 55 59 57 79 58 48 59 33 60 34 61 42 62 35 63 41 64 36 65
REMARK SMILES IDX 37 66 38 67 39 68 40 69 63 70 64 71 72 72 65 73 71 74 66 75
REMARK SMILES IDX 67 76 68 77 69 78 70 79 49 80 50 81 58 82 51 83 57 84 52 85
REMARK SMILES IDX 53 86 54 87 55 88 56 89
REMARK H PARENT 14 9 77 45 47 56
REMARK Flexibility Score: inf
ROOT
ATOM      1  C   UNL A   1      31.784  28.382  26.131  1.00  0.00     0.274 C 
ENDROOT
BRANCH   1   2
ATOM      2  O   UNL A   1      31.733  29.300  25.023  1.00  0.00    -0.461 OA
BRANCH   2   3
ATOM      3  C   UNL A   1      30.845  28.990  24.040  1.00  0.00     0.325 C 
ATOM      4  O   UNL A   1      30.073  29.788  23.521  1.00  0.00    -0.250 OA
BRANCH   3   5
ATOM      5  C   UNL A   1      31.036  27.569  23.505  1.00  0.00     0.239 C 
BRANCH   5   6
ATOM      6  N   UNL A   1      32.055  27.415  22.490  1.00  0.00    -0.341 N 
ATOM      7  C   UNL A   1      33.081  26.526  22.343  1.00  0.00     0.251 C 
ATOM      8  O   UNL A   1      33.714  26.588  21.286  1.00  0.00    -0.269 OA
ATOM      9  H   UNL A   1      31.998  28.079  21.766  1.00  0.00     0.164 HD
BRANCH   7  10
ATOM     10  C   UNL A   1      33.483  25.508  23.364  1.00  0.00     0.040 A 
ATOM     11  C   UNL A   1      33.669  23.250  24.312  1.00  0.00    -0.018 A 
ATOM     12  C   UNL A   1      34.189  23.796  25.491  1.00  0.00     0.009 A 
ATOM     13  C   UNL A   1      33.309  24.122  23.264  1.00  0.00     0.022 A 
ATOM     14  C   UNL A   1      34.364  25.171  25.617  1.00  0.00     0.001 A 
ATOM     15  C   UNL A   1      34.021  26.015  24.561  1.00  0.00     0.014 A 
BRANCH  11  16
ATOM     16  C   UNL A   1      33.464  21.802  24.180  1.00  0.00    -0.018 A 
ATOM     17  C   UNL A   1      33.050  19.022  23.925  1.00  0.00     0.118 A 
ATOM     18  C   UNL A   1      32.242  19.923  23.233  1.00  0.00     0.047 A 
ATOM     19  C   UNL A   1      34.090  19.504  24.718  1.00  0.00     0.047 A 
ATOM     20  C   UNL A   1      32.439  21.300  23.368  1.00  0.00     0.012 A 
ATOM     21  C   UNL A   1      34.295  20.885  24.844  1.00  0.00     0.012 A 
BRANCH  17  22
ATOM     22  O   UNL A   1      32.756  17.703  23.723  1.00  0.00    -0.497 OA
ATOM     23  C   UNL A   1      33.851  16.887  23.317  1.00  0.00     0.278 C 
ENDBRANCH  17  22
ENDBRANCH  11  16
ENDBRANCH   7  10
ENDBRANCH   5   6
ENDBRANCH   3   5
ENDBRANCH   2   3
ENDBRANCH   1   2
BRANCH   1  24
ATOM     24  C   UNL A   1      32.842  28.812  27.154  1.00  0.00     0.275 C 
BRANCH  24  25
ATOM     25  O   UNL A   1      33.641  29.911  26.671  1.00  0.00    -0.458 OA
BRANCH  25  26
ATOM     26  C   UNL A   1      34.265  30.633  27.627  1.00  0.00     0.338 C 
ATOM     27  O   UNL A   1      33.809  31.584  28.253  1.00  0.00    -0.246 OA
BRANCH  26  28
ATOM     28  C   UNL A   1      35.579  30.055  27.931  1.00  0.00     0.060 A 
ATOM     29  C   UNL A   1      35.839  29.631  29.234  1.00  0.00     0.016 A 
ATOM     30  C   UNL A   1      36.599  30.079  26.979  1.00  0.00     0.016 A 
ATOM     31  C   UNL A   1      37.130  29.289  29.613  1.00  0.00     0.010 A 
ATOM     32  C   UNL A   1      37.886  29.674  27.348  1.00  0.00     0.010 A 
ATOM     33  C   UNL A   1      38.167  29.301  28.674  1.00  0.00    -0.014 A 
BRANCH  33  34
ATOM     34  C   UNL A   1      39.544  28.953  29.102  1.00  0.00     0.031 A 
ATOM     35  C   UNL A   1      40.351  29.927  29.915  1.00  0.00     0.074 A 
ATOM     36  C   UNL A   1      40.055  27.745  28.793  1.00  0.00     0.049 A 
ATOM     37  N   UNL A   1      41.604  29.852  30.283  1.00  0.00    -0.248 NA
ATOM     38  C   UNL A   1      39.661  31.143  30.372  1.00  0.00     0.031 C 
ATOM     39  C   UNL A   1      39.350  26.688  28.063  1.00  0.00     0.029 A 
ATOM     40  N   UNL A   1      41.282  27.197  29.065  1.00  0.00    -0.354 N 
ATOM     41  C   UNL A   1      41.866  31.029  30.976  1.00  0.00     0.074 A 
ATOM     42  C   UNL A   1      40.641  31.800  30.978  1.00  0.00     0.031 C 
ATOM     43  C   UNL A   1      40.146  25.611  27.971  1.00  0.00     0.029 A 
ATOM     44  C   UNL A   1      41.439  25.925  28.570  1.00  0.00     0.049 A 
ATOM     45  H   UNL A   1      41.985  27.672  29.566  1.00  0.00     0.167 HD
ATOM     46  C   UNL A   1      43.024  31.430  31.551  1.00  0.00     0.031 A 
ATOM     47  C   UNL A   1      42.512  25.112  28.566  1.00  0.00     0.031 A 
ATOM     48  C   UNL A   1      44.233  30.651  31.564  1.00  0.00     0.049 A 
ATOM     49  C   UNL A   1      43.797  25.598  29.173  1.00  0.00     0.074 A 
ATOM     50  C   UNL A   1      45.463  30.976  32.109  1.00  0.00     0.029 A 
ATOM     51  N   UNL A   1      44.360  29.383  31.017  1.00  0.00    -0.354 N 
ATOM     52  N   UNL A   1      44.044  26.739  29.769  1.00  0.00    -0.248 NA
ATOM     53  C   UNL A   1      44.951  24.693  29.089  1.00  0.00     0.031 C 
ATOM     54  C   UNL A   1      46.344  29.915  31.863  1.00  0.00     0.029 A 
ATOM     55  C   UNL A   1      45.649  28.915  31.201  1.00  0.00     0.049 A 
ATOM     56  H   UNL A   1      43.639  28.889  30.564  1.00  0.00     0.167 HD
ATOM     57  C   UNL A   1      45.382  26.687  30.140  1.00  0.00     0.074 A 
ATOM     58  C   UNL A   1      45.885  25.395  29.717  1.00  0.00     0.031 C 
ATOM     59  C   UNL A   1      46.129  27.627  30.768  1.00  0.00     0.031 A 
BRANCH  46  60
ATOM     60  C   UNL A   1      43.047  32.799  32.176  1.00  0.00    -0.014 A 
ATOM     61  C   UNL A   1      43.216  33.957  31.395  1.00  0.00     0.010 A 
ATOM     62  C   UNL A   1      42.875  32.928  33.566  1.00  0.00     0.010 A 
ATOM     63  C   UNL A   1      43.251  35.216  32.000  1.00  0.00     0.020 A 
ATOM     64  C   UNL A   1      42.891  34.187  34.172  1.00  0.00     0.020 A 
ATOM     65  C   UNL A   1      43.098  35.323  33.386  1.00  0.00     0.054 A 
BRANCH  65  66
ATOM     66  S   UNL A   1      43.141  36.967  34.152  1.00  0.00     0.124 S 
ATOM     67  O   UNL A   1      44.171  36.795  35.174  1.00  0.00    -0.237 OA
ATOM     68  O   UNL A   1      43.505  37.835  33.034  1.00  0.00    -0.237 OA
ATOM     69  O   UNL A   1      41.783  37.148  34.658  1.00  0.00    -0.744 OA
ENDBRANCH  65  66
ENDBRANCH  46  60
BRANCH  47  70
ATOM     70  C   UNL A   1      42.421  23.774  27.927  1.00  0.00    -0.014 A 
ATOM     71  C   UNL A   1      42.882  23.575  26.615  1.00  0.00     0.010 A 
ATOM     72  C   UNL A   1      41.896  22.682  28.643  1.00  0.00     0.010 A 
ATOM     73  C   UNL A   1      42.817  22.308  26.027  1.00  0.00     0.020 A 
ATOM     74  C   UNL A   1      41.852  21.409  28.069  1.00  0.00     0.020 A 
ATOM     75  C   UNL A   1      42.305  21.232  26.760  1.00  0.00     0.054 A 
BRANCH  75  76
ATOM     76  S   UNL A   1      42.296  19.580  26.011  1.00  0.00     0.124 S 
ATOM     77  O   UNL A   1      43.186  19.760  24.869  1.00  0.00    -0.237 OA
ATOM     78  O   UNL A   1      42.811  18.737  27.089  1.00  0.00    -0.237 OA
ATOM     79  O   UNL A   1      40.889  19.364  25.684  1.00  0.00    -0.744 OA
ENDBRANCH  75  76
ENDBRANCH  47  70
BRANCH  59  80
ATOM     80  C   UNL A   1      47.563  27.281  31.052  1.00  0.00    -0.014 A 
ATOM     81  C   UNL A   1      48.588  27.671  30.171  1.00  0.00     0.010 A 
ATOM     82  C   UNL A   1      47.891  26.591  32.232  1.00  0.00     0.010 A 
ATOM     83  C   UNL A   1      49.917  27.351  30.454  1.00  0.00     0.020 A 
ATOM     84  C   UNL A   1      49.222  26.286  32.527  1.00  0.00     0.020 A 
ATOM     85  C   UNL A   1      50.225  26.656  31.628  1.00  0.00     0.054 A 
BRANCH  85  86
ATOM     86  S   UNL A   1      51.962  26.282  31.996  1.00  0.00     0.124 S 
ATOM     87  O   UNL A   1      51.842  25.385  33.142  1.00  0.00    -0.237 OA
ATOM     88  O   UNL A   1      52.430  25.662  30.759  1.00  0.00    -0.237 OA
ATOM     89  O   UNL A   1      52.541  27.592  32.286  1.00  0.00    -0.744 OA
ENDBRANCH  85  86
ENDBRANCH  59  80
ENDBRANCH  33  34
ENDBRANCH  26  28
ENDBRANCH  25  26
ENDBRANCH  24  25
ENDBRANCH   1  24
TORSDOF 18
ENDMDL
MODEL 2
REMARK VINA RESULT:     -10.7      2.108      2.649
REMARK SMILES COc1ccc(-c2cccc(C(=O)NCC(=O)OCCOC(=O)c3ccc(-c4c5nc(c(-c6ccc(S(=O)(=O)[O-])cc6)c6ccc([nH]6)c(-c6ccc(S(=O)(=O)[O-])cc6)c6nc(c(-c7ccc(S(=O)(=O)[O-])cc7)c7ccc4[nH]7)C=C6)C=C5)cc3)c2)cc1
REMARK SMILES IDX 19 1 18 2 16 3 17 4 15 5 14 6 12 7 13 8 11 10 7 11 8 12
REMARK SMILES IDX 84 13 9 14 10 15 6 16 3 17 4 18 86 19 5 20 85 21 2 22 1 23
REMARK SMILES IDX 20 24 21 25 22 26 23 27 24 28 25 29 83 30 26 31 82 32 27 33
REMARK SMILES IDX 28 34 29 35 76 36 30 37 81 38 75 39 77 40 31 41 80 42 74 43
REMARK SMILES IDX 73 44 32 46 62 47 43 48 61 49 44 50 47 51 60 52 78 53 45 54
REMARK SMILES IDX 46 55 59 57 79 58 48 59 33 60 34 61 42 62 35 63 41 64 36 65
REMARK SMILES IDX 37 66 38 67 39 68 40 69 63 70 64 71 72 72 65 73 71 74 66 75
REMARK SMILES IDX 67 76 68 77 69 78 70 79 49 80 50 81 58 82 51 83 57 84 52 85
REMARK SMILES IDX 53 86 54 87 55 88 56 89
REMARK H PARENT 14 9 77 45 47 56
REMARK Flexibility Score: inf
ROOT
ATOM      1  C   UNL A   1      31.929  29.733  25.505  1.00  0.00     0.274 C 
ENDROOT
BRANCH   1   2
ATOM      2  O   UNL A   1      31.966  29.283  24.138  1.00  0.00    -0.461 OA
BRANCH   2   3
ATOM      3  C   UNL A   1      30.775  28.889  23.614  1.00  0.00     0.325 C 
ATOM      4  O   UNL A   1      29.807  29.624  23.452  1.00  0.00    -0.250 OA
BRANCH   3   5
ATOM      5  C   UNL A   1      30.820  27.462  23.063  1.00  0.00     0.239 C 
BRANCH   5   6
ATOM      6  N   UNL A   1      31.799  27.223  22.025  1.00  0.00    -0.341 N 
ATOM      7  C   UNL A   1      32.846  26.353  21.931  1.00  0.00     0.251 C 
ATOM      8  O   UNL A   1      33.431  26.313  20.845  1.00  0.00    -0.269 OA
ATOM      9  H   UNL A   1      31.688  27.799  21.235  1.00  0.00     0.164 HD
BRANCH   7  10
ATOM     10  C   UNL A   1      33.327  25.469  23.040  1.00  0.00     0.040 A 
ATOM     11  C   UNL A   1      33.663  23.334  24.205  1.00  0.00    -0.018 A 
ATOM     12  C   UNL A   1      34.171  24.026  25.311  1.00  0.00     0.009 A 
ATOM     13  C   UNL A   1      33.234  24.073  23.084  1.00  0.00     0.022 A 
ATOM     14  C   UNL A   1      34.267  25.415  25.294  1.00  0.00     0.001 A 
ATOM     15  C   UNL A   1      33.855  26.125  24.166  1.00  0.00     0.014 A 
BRANCH  11  16
ATOM     16  C   UNL A   1      33.542  21.871  24.225  1.00  0.00    -0.018 A 
ATOM     17  C   UNL A   1      33.289  19.060  24.263  1.00  0.00     0.118 A 
ATOM     18  C   UNL A   1      32.367  19.844  23.570  1.00  0.00     0.047 A 
ATOM     19  C   UNL A   1      34.361  19.675  24.908  1.00  0.00     0.047 A 
ATOM     20  C   UNL A   1      32.484  21.236  23.561  1.00  0.00     0.012 A 
ATOM     21  C   UNL A   1      34.486  21.071  24.889  1.00  0.00     0.012 A 
BRANCH  17  22
ATOM     22  O   UNL A   1      33.065  17.713  24.209  1.00  0.00    -0.497 OA
ATOM     23  C   UNL A   1      33.865  16.996  23.274  1.00  0.00     0.278 C 
ENDBRANCH  17  22
ENDBRANCH  11  16
ENDBRANCH   7  10
ENDBRANCH   5   6
ENDBRANCH   3   5
ENDBRANCH   2   3
ENDBRANCH   1   2
BRANCH   1  24
ATOM     24  C   UNL A   1      33.339  29.800  26.101  1.00  0.00     0.275 C 
BRANCH  24  25
ATOM     25  O   UNL A   1      33.325  30.260  27.468  1.00  0.00    -0.458 OA
BRANCH  25  26
ATOM     26  C   UNL A   1      34.130  31.312  27.730  1.00  0.00     0.338 C 
ATOM     27  O   UNL A   1      33.827  32.500  27.712  1.00  0.00    -0.246 OA
BRANCH  26  28
ATOM     28  C   UNL A   1      35.451  30.850  28.171  1.00  0.00     0.060 A 
ATOM     29  C   UNL A   1      35.556  29.592  28.766  1.00  0.00     0.016 A 
ATOM     30  C   UNL A   1      36.547  31.711  28.143  1.00  0.00     0.016 A 
ATOM     31  C   UNL A   1      36.735  29.212  29.393  1.00  0.00     0.010 A 
ATOM     32  C   UNL A   1      37.754  31.301  28.720  1.00  0.00     0.010 A 
ATOM     33  C   UNL A   1      37.849  30.059  29.373  1.00  0.00    -0.014 A 
BRANCH  33  34
ATOM     34  C   UNL A   1      39.093  29.645  30.066  1.00  0.00     0.031 A 
ATOM     35  C   UNL A   1      39.506  30.321  31.344  1.00  0.00     0.074 A 
ATOM     36  C   UNL A   1      39.832  28.635  29.566  1.00  0.00     0.049 A 
ATOM     37  N   UNL A   1      40.611  30.179  32.030  1.00  0.00    -0.248 NA
ATOM     38  C   UNL A   1      38.555  31.281  31.925  1.00  0.00     0.031 C 
ATOM     39  C   UNL A   1      39.507  27.857  28.368  1.00  0.00     0.029 A 
ATOM     40  N   UNL A   1      41.005  28.080  30.012  1.00  0.00    -0.354 N 
ATOM     41  C   UNL A   1      40.508  31.062  33.099  1.00  0.00     0.074 A 
ATOM     42  C   UNL A   1      39.233  31.736  32.970  1.00  0.00     0.031 C 
ATOM     43  C   UNL A   1      40.440  26.909  28.191  1.00  0.00     0.029 A 
ATOM     44  C   UNL A   1      41.466  27.057  29.218  1.00  0.00     0.049 A 
ATOM     45  H   UNL A   1      41.472  28.387  30.823  1.00  0.00     0.167 HD
ATOM     46  C   UNL A   1      41.400  31.295  34.092  1.00  0.00     0.031 A 
ATOM     47  C   UNL A   1      42.603  26.340  29.287  1.00  0.00     0.031 A 
ATOM     48  C   UNL A   1      42.656  30.609  34.226  1.00  0.00     0.049 A 
ATOM     49  C   UNL A   1      43.594  26.646  30.372  1.00  0.00     0.074 A 
ATOM     50  C   UNL A   1      43.636  30.782  35.189  1.00  0.00     0.029 A 
ATOM     51  N   UNL A   1      43.103  29.606  33.378  1.00  0.00    -0.354 N 
ATOM     52  N   UNL A   1      43.509  27.528  31.338  1.00  0.00    -0.248 NA
ATOM     53  C   UNL A   1      44.842  25.871  30.364  1.00  0.00     0.031 C 
ATOM     54  C   UNL A   1      44.689  29.904  34.904  1.00  0.00     0.029 A 
ATOM     55  C   UNL A   1      44.346  29.158  33.787  1.00  0.00     0.049 A 
ATOM     56  H   UNL A   1      42.607  29.265  32.599  1.00  0.00     0.167 HD
ATOM     57  C   UNL A   1      44.690  27.411  32.059  1.00  0.00     0.074 A 
ATOM     58  C   UNL A   1      45.464  26.359  31.429  1.00  0.00     0.031 C 
ATOM     59  C   UNL A   1      45.101  28.114  33.142  1.00  0.00     0.031 A 
BRANCH  46  60
ATOM     60  C   UNL A   1      41.061  32.372  35.086  1.00  0.00    -0.014 A 
ATOM     61  C   UNL A   1      41.484  33.700  34.898  1.00  0.00     0.010 A 
ATOM     62  C   UNL A   1      40.288  32.052  36.216  1.00  0.00     0.010 A 
ATOM     63  C   UNL A   1      41.172  34.680  35.845  1.00  0.00     0.020 A 
ATOM     64  C   UNL A   1      39.957  33.033  37.155  1.00  0.00     0.020 A 
ATOM     65  C   UNL A   1      40.418  34.338  36.973  1.00  0.00     0.054 A 
BRANCH  65  66
ATOM     66  S   UNL A   1      40.019  35.626  38.187  1.00  0.00     0.124 S 
ATOM     67  O   UNL A   1      41.279  35.753  38.915  1.00  0.00    -0.237 OA
ATOM     68  O   UNL A   1      39.664  36.766  37.344  1.00  0.00    -0.237 OA
ATOM     69  O   UNL A   1      38.913  35.052  38.948  1.00  0.00    -0.744 OA
ENDBRANCH  65  66
ENDBRANCH  46  60
BRANCH  47  70
ATOM     70  C   UNL A   1      42.876  25.293  28.268  1.00  0.00    -0.014 A 
ATOM     71  C   UNL A   1      43.526  25.617  27.066  1.00  0.00     0.010 A 
ATOM     72  C   UNL A   1      42.509  23.956  28.511  1.00  0.00     0.010 A 
ATOM     73  C   UNL A   1      43.803  24.624  26.121  1.00  0.00     0.020 A 
ATOM     74  C   UNL A   1      42.807  22.956  27.581  1.00  0.00     0.020 A 
ATOM     75  C   UNL A   1      43.444  23.299  26.387  1.00  0.00     0.054 A 
BRANCH  75  76
ATOM     76  S   UNL A   1      43.877  22.010  25.186  1.00  0.00     0.124 S 
ATOM     77  O   UNL A   1      42.833  21.018  25.417  1.00  0.00    -0.237 OA
ATOM     78  O   UNL A   1      43.804  22.722  23.912  1.00  0.00    -0.237 OA
ATOM     79  O   UNL A   1      45.224  21.611  25.588  1.00  0.00    -0.744 OA
ENDBRANCH  75  76
ENDBRANCH  47  70
BRANCH  59  80
ATOM     80  C   UNL A   1      46.438  27.753  33.723  1.00  0.00    -0.014 A 
ATOM     81  C   UNL A   1      46.553  26.751  34.703  1.00  0.00     0.010 A 
ATOM     82  C   UNL A   1      47.596  28.397  33.254  1.00  0.00     0.010 A 
ATOM     83  C   UNL A   1      47.804  26.419  35.226  1.00  0.00     0.020 A 
ATOM     84  C   UNL A   1      48.852  28.054  33.761  1.00  0.00     0.020 A 
ATOM     85  C   UNL A   1      48.946  27.077  34.755  1.00  0.00     0.054 A 
BRANCH  85  86
ATOM     86  S   UNL A   1      50.567  26.605  35.419  1.00  0.00     0.124 S 
ATOM     87  O   UNL A   1      51.168  25.910  34.285  1.00  0.00    -0.237 OA
ATOM     88  O   UNL A   1      51.167  27.893  35.757  1.00  0.00    -0.237 OA
ATOM     89  O   UNL A   1      50.236  25.761  36.565  1.00  0.00    -0.744 OA
ENDBRANCH  85  86
ENDBRANCH  59  80
ENDBRANCH  33  34
ENDBRANCH  26  28
ENDBRANCH  25  26
ENDBRANCH  24  25
ENDBRANCH   1  24
TORSDOF 18
ENDMDL
MODEL 3
REMARK VINA RESULT:     -10.6      5.076      8.969
REMARK SMILES COc1ccc(-c2cccc(C(=O)NCC(=O)OCCOC(=O)c3ccc(-c4c5nc(c(-c6ccc(S(=O)(=O)[O-])cc6)c6ccc([nH]6)c(-c6ccc(S(=O)(=O)[O-])cc6)c6nc(c(-c7ccc(S(=O)(=O)[O-])cc7)c7ccc4[nH]7)C=C6)C=C5)cc3)c2)cc1
REMARK SMILES IDX 19 1 18 2 16 3 17 4 15 5 14 6 12 7 13 8 11 10 7 11 8 12
REMARK SMILES IDX 84 13 9 14 10 15 6 16 3 17 4 18 86 19 5 20 85 21 2 22 1 23
REMARK SMILES IDX 20 24 21 25 22 26 23 27 24 28 25 29 83 30 26 31 82 32 27 33
REMARK SMILES IDX 28 34 29 35 76 36 30 37 81 38 75 39 77 40 31 41 80 42 74 43
REMARK SMILES IDX 73 44 32 46 62 47 43 48 61 49 44 50 47 51 60 52 78 53 45 54
REMARK SMILES IDX 46 55 59 57 79 58 48 59 33 60 34 61 42 62 35 63 41 64 36 65
REMARK SMILES IDX 37 66 38 67 39 68 40 69 63 70 64 71 72 72 65 73 71 74 66 75
REMARK SMILES IDX 67 76 68 77 69 78 70 79 49 80 50 81 58 82 51 83 57 84 52 85
REMARK SMILES IDX 53 86 54 87 55 88 56 89
REMARK H PARENT 14 9 77 45 47 56
REMARK Flexibility Score: inf
ROOT
ATOM      1  C   UNL A   1      34.102  33.915  29.879  1.00  0.00     0.274 C 
ENDROOT
BRANCH   1   2
ATOM      2  O   UNL A   1      33.059  34.587  30.609  1.00  0.00    -0.461 OA
BRANCH   2   3
ATOM      3  C   UNL A   1      33.292  35.894  30.904  1.00  0.00     0.325 C 
ATOM      4  O   UNL A   1      32.823  36.843  30.285  1.00  0.00    -0.250 OA
BRANCH   3   5
ATOM      5  C   UNL A   1      34.057  36.071  32.218  1.00  0.00     0.239 C 
BRANCH   5   6
ATOM      6  N   UNL A   1      34.084  34.914  33.086  1.00  0.00    -0.341 N 
ATOM      7  C   UNL A   1      35.104  34.131  33.543  1.00  0.00     0.251 C 
ATOM      8  O   UNL A   1      34.807  33.275  34.380  1.00  0.00    -0.269 OA
ATOM      9  H   UNL A   1      33.196  34.639  33.408  1.00  0.00     0.164 HD
BRANCH   7  10
ATOM     10  C   UNL A   1      36.530  34.237  33.097  1.00  0.00     0.040 A 
ATOM     11  C   UNL A   1      38.934  34.639  33.388  1.00  0.00    -0.018 A 
ATOM     12  C   UNL A   1      39.111  34.538  32.003  1.00  0.00     0.009 A 
ATOM     13  C   UNL A   1      37.635  34.498  33.916  1.00  0.00     0.022 A 
ATOM     14  C   UNL A   1      38.026  34.286  31.168  1.00  0.00     0.001 A 
ATOM     15  C   UNL A   1      36.752  34.130  31.713  1.00  0.00     0.014 A 
BRANCH  11  16
ATOM     16  C   UNL A   1      40.072  34.922  34.272  1.00  0.00    -0.018 A 
ATOM     17  C   UNL A   1      42.251  35.488  35.975  1.00  0.00     0.118 A 
ATOM     18  C   UNL A   1      40.979  35.980  36.267  1.00  0.00     0.047 A 
ATOM     19  C   UNL A   1      42.432  34.682  34.852  1.00  0.00     0.047 A 
ATOM     20  C   UNL A   1      39.902  35.710  35.418  1.00  0.00     0.012 A 
ATOM     21  C   UNL A   1      41.349  34.402  34.006  1.00  0.00     0.012 A 
BRANCH  17  22
ATOM     22  O   UNL A   1      43.225  35.826  36.872  1.00  0.00    -0.497 OA
ATOM     23  C   UNL A   1      42.761  36.223  38.159  1.00  0.00     0.278 C 
ENDBRANCH  17  22
ENDBRANCH  11  16
ENDBRANCH   7  10
ENDBRANCH   5   6
ENDBRANCH   3   5
ENDBRANCH   2   3
ENDBRANCH   1   2
BRANCH   1  24
ATOM     24  C   UNL A   1      33.880  34.035  28.367  1.00  0.00     0.275 C 
BRANCH  24  25
ATOM     25  O   UNL A   1      34.790  33.201  27.622  1.00  0.00    -0.458 OA
BRANCH  25  26
ATOM     26  C   UNL A   1      34.635  31.872  27.804  1.00  0.00     0.338 C 
ATOM     27  O   UNL A   1      33.653  31.195  27.518  1.00  0.00    -0.246 OA
BRANCH  26  28
ATOM     28  C   UNL A   1      35.877  31.274  28.305  1.00  0.00     0.060 A 
ATOM     29  C   UNL A   1      35.840  29.968  28.796  1.00  0.00     0.016 A 
ATOM     30  C   UNL A   1      37.030  32.046  28.439  1.00  0.00     0.016 A 
ATOM     31  C   UNL A   1      36.931  29.447  29.478  1.00  0.00     0.010 A 
ATOM     32  C   UNL A   1      38.151  31.497  29.071  1.00  0.00     0.010 A 
ATOM     33  C   UNL A   1      38.101  30.203  29.619  1.00  0.00    -0.014 A 
BRANCH  33  34
ATOM     34  C   UNL A   1      39.249  29.638  30.369  1.00  0.00     0.031 A 
ATOM     35  C   UNL A   1      39.500  30.055  31.793  1.00  0.00     0.074 A 
ATOM     36  C   UNL A   1      40.044  28.721  29.784  1.00  0.00     0.049 A 
ATOM     37  N   UNL A   1      40.510  29.762  32.570  1.00  0.00    -0.248 NA
ATOM     38  C   UNL A   1      38.484  30.913  32.422  1.00  0.00     0.031 C 
ATOM     39  C   UNL A   1      39.870  28.187  28.431  1.00  0.00     0.029 A 
ATOM     40  N   UNL A   1      41.151  28.065  30.258  1.00  0.00    -0.354 N 
ATOM     41  C   UNL A   1      40.276  30.434  33.765  1.00  0.00     0.074 A 
ATOM     42  C   UNL A   1      39.027  31.150  33.609  1.00  0.00     0.031 C 
ATOM     43  C   UNL A   1      40.817  27.267  28.195  1.00  0.00     0.029 A 
ATOM     44  C   UNL A   1      41.707  27.197  29.349  1.00  0.00     0.049 A 
ATOM     45  H   UNL A   1      41.514  28.205  31.163  1.00  0.00     0.167 HD
ATOM     46  C   UNL A   1      41.037  30.457  34.884  1.00  0.00     0.031 A 
ATOM     47  C   UNL A   1      42.826  26.452  29.421  1.00  0.00     0.031 A 
ATOM     48  C   UNL A   1      42.267  29.728  35.040  1.00  0.00     0.049 A 
ATOM     49  C   UNL A   1      43.675  26.528  30.657  1.00  0.00     0.074 A 
ATOM     50  C   UNL A   1      43.119  29.696  36.131  1.00  0.00     0.029 A 
ATOM     51  N   UNL A   1      42.815  28.890  34.081  1.00  0.00    -0.354 N 
ATOM     52  N   UNL A   1      43.470  27.217  31.753  1.00  0.00    -0.248 NA
ATOM     53  C   UNL A   1      44.914  25.739  30.657  1.00  0.00     0.031 C 
ATOM     54  C   UNL A   1      44.199  28.862  35.818  1.00  0.00     0.029 A 
ATOM     55  C   UNL A   1      43.997  28.344  34.548  1.00  0.00     0.049 A 
ATOM     56  H   UNL A   1      42.420  28.711  33.197  1.00  0.00     0.167 HD
ATOM     57  C   UNL A   1      44.553  26.940  32.579  1.00  0.00     0.074 A 
ATOM     58  C   UNL A   1      45.399  26.006  31.862  1.00  0.00     0.031 C 
ATOM     59  C   UNL A   1      44.826  27.420  33.816  1.00  0.00     0.031 A 
BRANCH  46  60
ATOM     60  C   UNL A   1      40.578  31.339  36.013  1.00  0.00    -0.014 A 
ATOM     61  C   UNL A   1      39.213  31.604  36.227  1.00  0.00     0.010 A 
ATOM     62  C   UNL A   1      41.529  31.894  36.888  1.00  0.00     0.010 A 
ATOM     63  C   UNL A   1      38.812  32.440  37.272  1.00  0.00     0.020 A 
ATOM     64  C   UNL A   1      41.131  32.716  37.946  1.00  0.00     0.020 A 
ATOM     65  C   UNL A   1      39.774  32.999  38.120  1.00  0.00     0.054 A 
BRANCH  65  66
ATOM     66  S   UNL A   1      39.233  34.078  39.474  1.00  0.00     0.124 S 
ATOM     67  O   UNL A   1      40.420  34.110  40.325  1.00  0.00    -0.237 OA
ATOM     68  O   UNL A   1      38.919  35.329  38.786  1.00  0.00    -0.237 OA
ATOM     69  O   UNL A   1      38.081  33.376  40.035  1.00  0.00    -0.744 OA
ENDBRANCH  65  66
ENDBRANCH  46  60
BRANCH  47  70
ATOM     70  C   UNL A   1      43.224  25.607  28.265  1.00  0.00    -0.014 A 
ATOM     71  C   UNL A   1      43.982  26.145  27.212  1.00  0.00     0.010 A 
ATOM     72  C   UNL A   1      42.866  24.245  28.228  1.00  0.00     0.010 A 
ATOM     73  C   UNL A   1      44.375  25.338  26.140  1.00  0.00     0.020 A 
ATOM     74  C   UNL A   1      43.278  23.431  27.171  1.00  0.00     0.020 A 
ATOM     75  C   UNL A   1      44.023  23.985  26.128  1.00  0.00     0.054 A 
BRANCH  75  76
ATOM     76  S   UNL A   1      44.603  22.935  24.767  1.00  0.00     0.124 S 
ATOM     77  O   UNL A   1      43.370  22.692  24.026  1.00  0.00    -0.237 OA
ATOM     78  O   UNL A   1      45.585  23.787  24.101  1.00  0.00    -0.237 OA
ATOM     79  O   UNL A   1      45.164  21.773  25.452  1.00  0.00    -0.744 OA
ENDBRANCH  75  76
ENDBRANCH  47  70
BRANCH  59  80
ATOM     80  C   UNL A   1      46.080  26.926  34.478  1.00  0.00    -0.014 A 
ATOM     81  C   UNL A   1      46.075  25.749  35.248  1.00  0.00     0.010 A 
ATOM     82  C   UNL A   1      47.285  27.626  34.294  1.00  0.00     0.010 A 
ATOM     83  C   UNL A   1      47.251  25.297  35.849  1.00  0.00     0.020 A 
ATOM     84  C   UNL A   1      48.468  27.165  34.878  1.00  0.00     0.020 A 
ATOM     85  C   UNL A   1      48.440  26.011  35.664  1.00  0.00     0.054 A 
BRANCH  85  86
ATOM     86  S   UNL A   1      49.965  25.386  36.421  1.00  0.00     0.124 S 
ATOM     87  O   UNL A   1      50.261  24.222  35.591  1.00  0.00    -0.237 OA
ATOM     88  O   UNL A   1      50.885  26.512  36.275  1.00  0.00    -0.237 OA
ATOM     89  O   UNL A   1      49.570  25.089  37.796  1.00  0.00    -0.744 OA
ENDBRANCH  85  86
ENDBRANCH  59  80
ENDBRANCH  33  34
ENDBRANCH  26  28
ENDBRANCH  25  26
ENDBRANCH  24  25
ENDBRANCH   1  24
TORSDOF 18
ENDMDL
