MODEL 1
REMARK VINA RESULT:     -10.8      0.000      0.000
REMARK SMILES CC(C)c1ccc([C@]2(C(=O)OCCOC(=O)c3ccc(-c4c5nc(c(-c6ccc(S(=O)(=O)[O-])cc6)c6ccc([nH]6)c(-c6ccc(S(=O)(=O)[O-])cc6)c6nc(c(-c7ccc(S(=O)(=O)[O-])cc7)c7ccc4[nH]7)C=C6)C=C5)cc3)CCC[C@@H]2C)cc1
REMARK SMILES IDX 13 1 12 2 11 3 9 4 10 5 8 6 77 7 80 8 78 9 79 10 81 11 7 12
REMARK SMILES IDX 4 13 5 14 83 15 6 16 82 17 2 18 1 19 3 20 14 21 15 22 16 23
REMARK SMILES IDX 17 24 18 25 76 26 19 27 75 28 20 29 21 30 22 31 69 32 23 33
REMARK SMILES IDX 74 34 68 35 70 36 24 37 73 38 67 39 66 40 25 42 55 43 36 44
REMARK SMILES IDX 54 45 37 46 40 47 53 48 71 49 38 50 39 51 52 53 72 54 41 55
REMARK SMILES IDX 26 56 27 57 35 58 28 59 34 60 29 61 30 62 31 63 32 64 33 65
REMARK SMILES IDX 56 66 57 67 65 68 58 69 64 70 59 71 60 72 61 73 62 74 63 75
REMARK SMILES IDX 42 76 43 77 51 78 44 79 50 80 45 81 46 82 47 83 48 84 49 85
REMARK H PARENT 70 41 40 52
REMARK Flexibility Score: inf
ROOT
ATOM      1  C   UNL A   1      32.203  29.787  27.077  1.00  0.00     0.275 C 
ENDROOT
BRANCH   1   2
ATOM      2  C   UNL A   1      32.014  28.382  27.633  1.00  0.00     0.274 C 
BRANCH   2   3
ATOM      3  O   UNL A   1      32.715  27.428  26.811  1.00  0.00    -0.461 OA
BRANCH   3   4
ATOM      4  C   UNL A   1      31.990  26.389  26.305  1.00  0.00     0.316 C 
ATOM      5  O   UNL A   1      31.381  25.586  27.004  1.00  0.00    -0.251 OA
BRANCH   4   6
ATOM      6  C   UNL A   1      32.106  26.272  24.754  1.00  0.00     0.095 C 
ATOM      7  C   UNL A   1      33.558  26.489  24.251  1.00  0.00     0.024 C 
ATOM      8  C   UNL A   1      31.896  24.761  24.407  1.00  0.00     0.008 C 
ATOM      9  C   UNL A   1      34.300  25.167  24.468  1.00  0.00     0.002 C 
ATOM     10  C   UNL A   1      33.238  24.125  24.804  1.00  0.00     0.005 C 
ATOM     11  C   UNL A   1      31.600  24.456  22.931  1.00  0.00     0.009 C 
BRANCH   6  12
ATOM     12  C   UNL A   1      31.085  27.222  24.107  1.00  0.00    -0.030 A 
ATOM     13  C   UNL A   1      29.150  28.982  22.942  1.00  0.00    -0.045 A 
ATOM     14  C   UNL A   1      28.764  27.791  23.573  1.00  0.00     0.004 A 
ATOM     15  C   UNL A   1      30.516  29.284  22.914  1.00  0.00     0.004 A 
ATOM     16  C   UNL A   1      29.710  26.932  24.148  1.00  0.00     0.005 A 
ATOM     17  C   UNL A   1      31.463  28.428  23.498  1.00  0.00     0.005 A 
BRANCH  13  18
ATOM     18  C   UNL A   1      28.072  29.910  22.390  1.00  0.00     0.013 C 
ATOM     19  C   UNL A   1      27.445  30.861  23.415  1.00  0.00     0.012 C 
ATOM     20  C   UNL A   1      28.593  30.731  21.207  1.00  0.00     0.012 C 
ENDBRANCH  13  18
ENDBRANCH   6  12
ENDBRANCH   4   6
ENDBRANCH   3   4
ENDBRANCH   2   3
ENDBRANCH   1   2
BRANCH   1  21
ATOM     21  O   UNL A   1      33.604  30.009  26.848  1.00  0.00    -0.458 OA
BRANCH  21  22
ATOM     22  C   UNL A   1      34.260  30.701  27.804  1.00  0.00     0.338 C 
ATOM     23  O   UNL A   1      33.863  31.677  28.422  1.00  0.00    -0.246 OA
BRANCH  22  24
ATOM     24  C   UNL A   1      35.575  30.083  28.019  1.00  0.00     0.060 A 
ATOM     25  C   UNL A   1      35.908  29.609  29.283  1.00  0.00     0.016 A 
ATOM     26  C   UNL A   1      36.522  30.074  26.993  1.00  0.00     0.016 A 
ATOM     27  C   UNL A   1      37.214  29.211  29.548  1.00  0.00     0.010 A 
ATOM     28  C   UNL A   1      37.813  29.591  27.246  1.00  0.00     0.010 A 
ATOM     29  C   UNL A   1      38.193  29.201  28.542  1.00  0.00    -0.014 A 
BRANCH  29  30
ATOM     30  C   UNL A   1      39.611  28.874  28.881  1.00  0.00     0.031 A 
ATOM     31  C   UNL A   1      40.447  29.841  29.687  1.00  0.00     0.074 A 
ATOM     32  C   UNL A   1      40.138  27.672  28.560  1.00  0.00     0.049 A 
ATOM     33  N   UNL A   1      41.713  29.765  30.015  1.00  0.00    -0.248 NA
ATOM     34  C   UNL A   1      39.770  31.042  30.209  1.00  0.00     0.031 C 
ATOM     35  C   UNL A   1      39.439  26.599  27.848  1.00  0.00     0.029 A 
ATOM     36  N   UNL A   1      41.378  27.137  28.823  1.00  0.00    -0.354 N 
ATOM     37  C   UNL A   1      41.990  30.914  30.746  1.00  0.00     0.074 A 
ATOM     38  C   UNL A   1      40.764  31.678  30.812  1.00  0.00     0.031 C 
ATOM     39  C   UNL A   1      40.233  25.520  27.789  1.00  0.00     0.029 A 
ATOM     40  C   UNL A   1      41.530  25.847  28.371  1.00  0.00     0.049 A 
ATOM     41  H   UNL A   1      42.089  27.632  29.290  1.00  0.00     0.167 HD
ATOM     42  C   UNL A   1      43.155  31.303  31.319  1.00  0.00     0.031 A 
ATOM     43  C   UNL A   1      42.597  25.024  28.383  1.00  0.00     0.031 A 
ATOM     44  C   UNL A   1      44.376  30.545  31.286  1.00  0.00     0.049 A 
ATOM     45  C   UNL A   1      43.904  25.514  28.940  1.00  0.00     0.074 A 
ATOM     46  C   UNL A   1      45.616  30.886  31.800  1.00  0.00     0.029 A 
ATOM     47  N   UNL A   1      44.510  29.286  30.725  1.00  0.00    -0.354 N 
ATOM     48  N   UNL A   1      44.170  26.652  29.532  1.00  0.00    -0.248 NA
ATOM     49  C   UNL A   1      45.062  24.618  28.798  1.00  0.00     0.031 C 
ATOM     50  C   UNL A   1      46.509  29.846  31.518  1.00  0.00     0.029 A 
ATOM     51  C   UNL A   1      45.814  28.842  30.866  1.00  0.00     0.049 A 
ATOM     52  H   UNL A   1      43.784  28.781  30.290  1.00  0.00     0.167 HD
ATOM     53  C   UNL A   1      45.529  26.617  29.820  1.00  0.00     0.074 A 
ATOM     54  C   UNL A   1      46.023  25.332  29.370  1.00  0.00     0.031 C 
ATOM     55  C   UNL A   1      46.301  27.572  30.394  1.00  0.00     0.031 A 
BRANCH  42  56
ATOM     56  C   UNL A   1      43.174  32.645  31.999  1.00  0.00    -0.014 A 
ATOM     57  C   UNL A   1      42.811  32.782  33.351  1.00  0.00     0.010 A 
ATOM     58  C   UNL A   1      43.593  33.777  31.280  1.00  0.00     0.010 A 
ATOM     59  C   UNL A   1      42.837  34.038  33.962  1.00  0.00     0.020 A 
ATOM     60  C   UNL A   1      43.638  35.032  31.893  1.00  0.00     0.020 A 
ATOM     61  C   UNL A   1      43.244  35.158  33.226  1.00  0.00     0.054 A 
BRANCH  61  62
ATOM     62  S   UNL A   1      43.285  36.776  34.045  1.00  0.00     0.124 S 
ATOM     63  O   UNL A   1      44.529  36.696  34.806  1.00  0.00    -0.237 OA
ATOM     64  O   UNL A   1      43.297  37.708  32.919  1.00  0.00    -0.237 OA
ATOM     65  O   UNL A   1      42.064  36.789  34.847  1.00  0.00    -0.744 OA
ENDBRANCH  61  62
ENDBRANCH  42  56
BRANCH  43  66
ATOM     66  C   UNL A   1      42.491  23.670  27.775  1.00  0.00    -0.014 A 
ATOM     67  C   UNL A   1      42.813  23.459  26.424  1.00  0.00     0.010 A 
ATOM     68  C   UNL A   1      42.086  22.575  28.563  1.00  0.00     0.010 A 
ATOM     69  C   UNL A   1      42.740  22.176  25.872  1.00  0.00     0.020 A 
ATOM     70  C   UNL A   1      42.037  21.289  28.022  1.00  0.00     0.020 A 
ATOM     71  C   UNL A   1      42.357  21.099  26.677  1.00  0.00     0.054 A 
BRANCH  71  72
ATOM     72  S   UNL A   1      42.352  19.423  25.978  1.00  0.00     0.124 S 
ATOM     73  O   UNL A   1      40.945  19.244  25.636  1.00  0.00    -0.237 OA
ATOM     74  O   UNL A   1      43.268  19.540  24.847  1.00  0.00    -0.237 OA
ATOM     75  O   UNL A   1      42.841  18.598  27.081  1.00  0.00    -0.744 OA
ENDBRANCH  71  72
ENDBRANCH  43  66
BRANCH  55  76
ATOM     76  C   UNL A   1      47.763  27.268  30.558  1.00  0.00    -0.014 A 
ATOM     77  C   UNL A   1      48.226  26.574  31.690  1.00  0.00     0.010 A 
ATOM     78  C   UNL A   1      48.676  27.644  29.558  1.00  0.00     0.010 A 
ATOM     79  C   UNL A   1      49.585  26.283  31.832  1.00  0.00     0.020 A 
ATOM     80  C   UNL A   1      50.034  27.339  29.688  1.00  0.00     0.020 A 
ATOM     81  C   UNL A   1      50.482  26.672  30.831  1.00  0.00     0.054 A 
BRANCH  81  82
ATOM     82  S   UNL A   1      52.238  26.255  31.018  1.00  0.00     0.124 S 
ATOM     83  O   UNL A   1      52.176  25.026  31.802  1.00  0.00    -0.237 OA
ATOM     84  O   UNL A   1      52.683  26.097  29.635  1.00  0.00    -0.237 OA
ATOM     85  O   UNL A   1      52.794  27.414  31.714  1.00  0.00    -0.744 OA
ENDBRANCH  81  82
ENDBRANCH  55  76
ENDBRANCH  29  30
ENDBRANCH  22  24
ENDBRANCH  21  22
ENDBRANCH   1  21
TORSDOF 16
ENDMDL
MODEL 2
REMARK VINA RESULT:     -10.6      0.895      3.158
REMARK SMILES CC(C)c1ccc([C@]2(C(=O)OCCOC(=O)c3ccc(-c4c5nc(c(-c6ccc(S(=O)(=O)[O-])cc6)c6ccc([nH]6)c(-c6ccc(S(=O)(=O)[O-])cc6)c6nc(c(-c7ccc(S(=O)(=O)[O-])cc7)c7ccc4[nH]7)C=C6)C=C5)cc3)CCC[C@@H]2C)cc1
REMARK SMILES IDX 13 1 12 2 11 3 9 4 10 5 8 6 77 7 80 8 78 9 79 10 81 11 7 12
REMARK SMILES IDX 4 13 5 14 83 15 6 16 82 17 2 18 1 19 3 20 14 21 15 22 16 23
REMARK SMILES IDX 17 24 18 25 76 26 19 27 75 28 20 29 21 30 22 31 69 32 23 33
REMARK SMILES IDX 74 34 68 35 70 36 24 37 73 38 67 39 66 40 25 42 55 43 36 44
REMARK SMILES IDX 54 45 37 46 40 47 53 48 71 49 38 50 39 51 52 53 72 54 41 55
REMARK SMILES IDX 26 56 27 57 35 58 28 59 34 60 29 61 30 62 31 63 32 64 33 65
REMARK SMILES IDX 56 66 57 67 65 68 58 69 64 70 59 71 60 72 61 73 62 74 63 75
REMARK SMILES IDX 42 76 43 77 51 78 44 79 50 80 45 81 46 82 47 83 48 84 49 85
REMARK H PARENT 70 41 40 52
REMARK Flexibility Score: inf
ROOT
ATOM      1  C   UNL A   1      32.254  30.024  27.249  1.00  0.00     0.275 C 
ENDROOT
BRANCH   1   2
ATOM      2  C   UNL A   1      31.940  28.578  27.612  1.00  0.00     0.274 C 
BRANCH   2   3
ATOM      3  O   UNL A   1      32.459  27.692  26.601  1.00  0.00    -0.461 OA
BRANCH   3   4
ATOM      4  C   UNL A   1      31.570  26.866  25.979  1.00  0.00     0.316 C 
ATOM      5  O   UNL A   1      30.647  26.304  26.560  1.00  0.00    -0.251 OA
BRANCH   4   6
ATOM      6  C   UNL A   1      31.914  26.633  24.476  1.00  0.00     0.095 C 
ATOM      7  C   UNL A   1      30.647  26.503  23.591  1.00  0.00     0.024 C 
ATOM      8  C   UNL A   1      32.508  27.980  23.944  1.00  0.00     0.008 C 
ATOM      9  C   UNL A   1      30.151  27.926  23.320  1.00  0.00     0.002 C 
ATOM     10  C   UNL A   1      31.263  28.865  23.777  1.00  0.00     0.005 C 
ATOM     11  C   UNL A   1      33.257  27.890  22.606  1.00  0.00     0.009 C 
BRANCH   6  12
ATOM     12  C   UNL A   1      32.866  25.431  24.366  1.00  0.00    -0.030 A 
ATOM     13  C   UNL A   1      34.645  23.192  24.211  1.00  0.00    -0.045 A 
ATOM     14  C   UNL A   1      34.893  24.260  25.085  1.00  0.00     0.004 A 
ATOM     15  C   UNL A   1      33.489  23.256  23.426  1.00  0.00     0.004 A 
ATOM     16  C   UNL A   1      34.020  25.353  25.165  1.00  0.00     0.005 A 
ATOM     17  C   UNL A   1      32.609  24.347  23.512  1.00  0.00     0.005 A 
BRANCH  13  18
ATOM     18  C   UNL A   1      35.595  21.998  24.214  1.00  0.00     0.013 C 
ATOM     19  C   UNL A   1      37.082  22.350  24.101  1.00  0.00     0.012 C 
ATOM     20  C   UNL A   1      35.386  21.122  25.453  1.00  0.00     0.012 C 
ENDBRANCH  13  18
ENDBRANCH   6  12
ENDBRANCH   4   6
ENDBRANCH   3   4
ENDBRANCH   2   3
ENDBRANCH   1   2
BRANCH   1  21
ATOM     21  O   UNL A   1      33.667  30.143  27.013  1.00  0.00    -0.458 OA
BRANCH  21  22
ATOM     22  C   UNL A   1      34.363  30.854  27.926  1.00  0.00     0.338 C 
ATOM     23  O   UNL A   1      34.008  31.865  28.512  1.00  0.00    -0.246 OA
BRANCH  22  24
ATOM     24  C   UNL A   1      35.665  30.207  28.137  1.00  0.00     0.060 A 
ATOM     25  C   UNL A   1      35.972  29.684  29.389  1.00  0.00     0.016 A 
ATOM     26  C   UNL A   1      36.626  30.217  27.125  1.00  0.00     0.016 A 
ATOM     27  C   UNL A   1      37.268  29.255  29.658  1.00  0.00     0.010 A 
ATOM     28  C   UNL A   1      37.906  29.705  27.379  1.00  0.00     0.010 A 
ATOM     29  C   UNL A   1      38.261  29.264  28.666  1.00  0.00    -0.014 A 
BRANCH  29  30
ATOM     30  C   UNL A   1      39.668  28.901  29.012  1.00  0.00     0.031 A 
ATOM     31  C   UNL A   1      40.518  29.840  29.838  1.00  0.00     0.074 A 
ATOM     32  C   UNL A   1      40.171  27.692  28.681  1.00  0.00     0.049 A 
ATOM     33  N   UNL A   1      41.779  29.731  30.176  1.00  0.00    -0.248 NA
ATOM     34  C   UNL A   1      39.863  31.048  30.369  1.00  0.00     0.031 C 
ATOM     35  C   UNL A   1      39.456  26.644  27.948  1.00  0.00     0.029 A 
ATOM     36  N   UNL A   1      41.397  27.128  28.947  1.00  0.00    -0.354 N 
ATOM     37  C   UNL A   1      42.074  30.865  30.924  1.00  0.00     0.074 A 
ATOM     38  C   UNL A   1      40.864  31.655  30.989  1.00  0.00     0.031 C 
ATOM     39  C   UNL A   1      40.227  25.549  27.883  1.00  0.00     0.029 A 
ATOM     40  C   UNL A   1      41.526  25.840  28.480  1.00  0.00     0.049 A 
ATOM     41  H   UNL A   1      42.115  27.600  29.426  1.00  0.00     0.167 HD
ATOM     42  C   UNL A   1      43.242  31.222  31.512  1.00  0.00     0.031 A 
ATOM     43  C   UNL A   1      42.575  24.994  28.490  1.00  0.00     0.031 A 
ATOM     44  C   UNL A   1      44.447  30.437  31.479  1.00  0.00     0.049 A 
ATOM     45  C   UNL A   1      43.886  25.448  29.064  1.00  0.00     0.074 A 
ATOM     46  C   UNL A   1      45.689  30.745  32.008  1.00  0.00     0.029 A 
ATOM     47  N   UNL A   1      44.558  29.183  30.903  1.00  0.00    -0.354 N 
ATOM     48  N   UNL A   1      44.172  26.573  29.673  1.00  0.00    -0.248 NA
ATOM     49  C   UNL A   1      45.026  24.530  28.921  1.00  0.00     0.031 C 
ATOM     50  C   UNL A   1      46.562  29.689  31.720  1.00  0.00     0.029 A 
ATOM     51  C   UNL A   1      45.851  28.709  31.049  1.00  0.00     0.049 A 
ATOM     52  H   UNL A   1      43.826  28.700  30.456  1.00  0.00     0.167 HD
ATOM     53  C   UNL A   1      45.527  26.505  29.972  1.00  0.00     0.074 A 
ATOM     54  C   UNL A   1      45.997  25.215  29.510  1.00  0.00     0.031 C 
ATOM     55  C   UNL A   1      46.314  27.435  30.565  1.00  0.00     0.031 A 
BRANCH  42  56
ATOM     56  C   UNL A   1      43.285  32.554  32.210  1.00  0.00    -0.014 A 
ATOM     57  C   UNL A   1      43.031  32.662  33.588  1.00  0.00     0.010 A 
ATOM     58  C   UNL A   1      43.615  33.707  31.477  1.00  0.00     0.010 A 
ATOM     59  C   UNL A   1      43.076  33.910  34.215  1.00  0.00     0.020 A 
ATOM     60  C   UNL A   1      43.680  34.953  32.104  1.00  0.00     0.020 A 
ATOM     61  C   UNL A   1      43.394  35.050  33.466  1.00  0.00     0.054 A 
BRANCH  61  62
ATOM     62  S   UNL A   1      43.463  36.658  34.304  1.00  0.00     0.124 S 
ATOM     63  O   UNL A   1      42.072  36.843  34.713  1.00  0.00    -0.237 OA
ATOM     64  O   UNL A   1      44.409  36.417  35.390  1.00  0.00    -0.237 OA
ATOM     65  O   UNL A   1      43.932  37.570  33.264  1.00  0.00    -0.744 OA
ENDBRANCH  61  62
ENDBRANCH  42  56
BRANCH  43  66
ATOM     66  C   UNL A   1      42.444  23.650  27.864  1.00  0.00    -0.014 A 
ATOM     67  C   UNL A   1      42.688  23.468  26.493  1.00  0.00     0.010 A 
ATOM     68  C   UNL A   1      42.095  22.537  28.653  1.00  0.00     0.010 A 
ATOM     69  C   UNL A   1      42.594  22.195  25.922  1.00  0.00     0.020 A 
ATOM     70  C   UNL A   1      42.026  21.261  28.092  1.00  0.00     0.020 A 
ATOM     71  C   UNL A   1      42.268  21.099  26.726  1.00  0.00     0.054 A 
BRANCH  71  72
ATOM     72  S   UNL A   1      42.235  19.437  25.997  1.00  0.00     0.124 S 
ATOM     73  O   UNL A   1      43.167  19.578  24.883  1.00  0.00    -0.237 OA
ATOM     74  O   UNL A   1      42.687  18.590  27.097  1.00  0.00    -0.237 OA
ATOM     75  O   UNL A   1      40.832  19.262  25.624  1.00  0.00    -0.744 OA
ENDBRANCH  71  72
ENDBRANCH  43  66
BRANCH  55  76
ATOM     76  C   UNL A   1      47.768  27.097  30.738  1.00  0.00    -0.014 A 
ATOM     77  C   UNL A   1      48.718  27.522  29.791  1.00  0.00     0.010 A 
ATOM     78  C   UNL A   1      48.196  26.386  31.872  1.00  0.00     0.010 A 
ATOM     79  C   UNL A   1      50.070  27.216  29.962  1.00  0.00     0.020 A 
ATOM     80  C   UNL A   1      49.550  26.095  32.056  1.00  0.00     0.020 A 
ATOM     81  C   UNL A   1      50.478  26.500  31.093  1.00  0.00     0.054 A 
BRANCH  81  82
ATOM     82  S   UNL A   1      52.242  26.142  31.314  1.00  0.00     0.124 S 
ATOM     83  O   UNL A   1      52.654  27.203  32.229  1.00  0.00    -0.237 OA
ATOM     84  O   UNL A   1      52.232  24.794  31.879  1.00  0.00    -0.237 OA
ATOM     85  O   UNL A   1      52.785  26.238  29.960  1.00  0.00    -0.744 OA
ENDBRANCH  81  82
ENDBRANCH  55  76
ENDBRANCH  29  30
ENDBRANCH  22  24
ENDBRANCH  21  22
ENDBRANCH   1  21
TORSDOF 16
ENDMDL
MODEL 3
REMARK VINA RESULT:     -10.6      2.172      2.711
REMARK SMILES CC(C)c1ccc([C@]2(C(=O)OCCOC(=O)c3ccc(-c4c5nc(c(-c6ccc(S(=O)(=O)[O-])cc6)c6ccc([nH]6)c(-c6ccc(S(=O)(=O)[O-])cc6)c6nc(c(-c7ccc(S(=O)(=O)[O-])cc7)c7ccc4[nH]7)C=C6)C=C5)cc3)CCC[C@@H]2C)cc1
REMARK SMILES IDX 13 1 12 2 11 3 9 4 10 5 8 6 77 7 80 8 78 9 79 10 81 11 7 12
REMARK SMILES IDX 4 13 5 14 83 15 6 16 82 17 2 18 1 19 3 20 14 21 15 22 16 23
REMARK SMILES IDX 17 24 18 25 76 26 19 27 75 28 20 29 21 30 22 31 69 32 23 33
REMARK SMILES IDX 74 34 68 35 70 36 24 37 73 38 67 39 66 40 25 42 55 43 36 44
REMARK SMILES IDX 54 45 37 46 40 47 53 48 71 49 38 50 39 51 52 53 72 54 41 55
REMARK SMILES IDX 26 56 27 57 35 58 28 59 34 60 29 61 30 62 31 63 32 64 33 65
REMARK SMILES IDX 56 66 57 67 65 68 58 69 64 70 59 71 60 72 61 73 62 74 63 75
REMARK SMILES IDX 42 76 43 77 51 78 44 79 50 80 45 81 46 82 47 83 48 84 49 85
REMARK H PARENT 70 41 40 52
REMARK Flexibility Score: inf
ROOT
ATOM      1  C   UNL A   1      32.018  29.949  27.245  1.00  0.00     0.275 C 
ENDROOT
BRANCH   1   2
ATOM      2  C   UNL A   1      31.638  28.515  27.593  1.00  0.00     0.274 C 
BRANCH   2   3
ATOM      3  O   UNL A   1      32.456  27.593  26.846  1.00  0.00    -0.461 OA
BRANCH   3   4
ATOM      4  C   UNL A   1      31.822  26.555  26.229  1.00  0.00     0.316 C 
ATOM      5  O   UNL A   1      31.264  25.647  26.836  1.00  0.00    -0.251 OA
BRANCH   4   6
ATOM      6  C   UNL A   1      31.975  26.593  24.678  1.00  0.00     0.095 C 
ATOM      7  C   UNL A   1      33.420  26.939  24.233  1.00  0.00     0.024 C 
ATOM      8  C   UNL A   1      31.862  25.111  24.185  1.00  0.00     0.008 C 
ATOM      9  C   UNL A   1      34.236  25.648  24.343  1.00  0.00     0.002 C 
ATOM     10  C   UNL A   1      33.232  24.519  24.554  1.00  0.00     0.005 C 
ATOM     11  C   UNL A   1      31.613  24.931  22.681  1.00  0.00     0.009 C 
BRANCH   6  12
ATOM     12  C   UNL A   1      30.911  27.538  24.097  1.00  0.00    -0.030 A 
ATOM     13  C   UNL A   1      28.894  29.279  23.046  1.00  0.00    -0.045 A 
ATOM     14  C   UNL A   1      28.617  27.935  23.337  1.00  0.00     0.004 A 
ATOM     15  C   UNL A   1      30.189  29.740  23.301  1.00  0.00     0.004 A 
ATOM     16  C   UNL A   1      29.602  27.085  23.856  1.00  0.00     0.005 A 
ATOM     17  C   UNL A   1      31.175  28.891  23.829  1.00  0.00     0.005 A 
BRANCH  13  18
ATOM     18  C   UNL A   1      27.765  30.174  22.545  1.00  0.00     0.013 C 
ATOM     19  C   UNL A   1      27.456  31.388  23.426  1.00  0.00     0.012 C 
ATOM     20  C   UNL A   1      28.028  30.655  21.114  1.00  0.00     0.012 C 
ENDBRANCH  13  18
ENDBRANCH   6  12
ENDBRANCH   4   6
ENDBRANCH   3   4
ENDBRANCH   2   3
ENDBRANCH   1   2
BRANCH   1  21
ATOM     21  O   UNL A   1      33.443  30.019  27.072  1.00  0.00    -0.458 OA
BRANCH  21  22
ATOM     22  C   UNL A   1      34.055  31.096  27.611  1.00  0.00     0.338 C 
ATOM     23  O   UNL A   1      33.582  32.207  27.794  1.00  0.00    -0.246 OA
BRANCH  22  24
ATOM     24  C   UNL A   1      35.429  30.727  27.976  1.00  0.00     0.060 A 
ATOM     25  C   UNL A   1      35.742  29.389  28.192  1.00  0.00     0.016 A 
ATOM     26  C   UNL A   1      36.382  31.719  28.214  1.00  0.00     0.016 A 
ATOM     27  C   UNL A   1      36.978  29.050  28.733  1.00  0.00     0.010 A 
ATOM     28  C   UNL A   1      37.655  31.361  28.679  1.00  0.00     0.010 A 
ATOM     29  C   UNL A   1      37.954  30.024  28.995  1.00  0.00    -0.014 A 
BRANCH  29  30
ATOM     30  C   UNL A   1      39.228  29.644  29.677  1.00  0.00     0.031 A 
ATOM     31  C   UNL A   1      39.631  30.314  30.971  1.00  0.00     0.074 A 
ATOM     32  C   UNL A   1      39.988  28.632  29.206  1.00  0.00     0.049 A 
ATOM     33  N   UNL A   1      40.731  30.169  31.668  1.00  0.00    -0.248 NA
ATOM     34  C   UNL A   1      38.667  31.254  31.570  1.00  0.00     0.031 C 
ATOM     35  C   UNL A   1      39.699  27.836  28.010  1.00  0.00     0.029 A 
ATOM     36  N   UNL A   1      41.147  28.076  29.698  1.00  0.00    -0.354 N 
ATOM     37  C   UNL A   1      40.606  31.019  32.761  1.00  0.00     0.074 A 
ATOM     38  C   UNL A   1      39.327  31.683  32.636  1.00  0.00     0.031 C 
ATOM     39  C   UNL A   1      40.613  26.860  27.900  1.00  0.00     0.029 A 
ATOM     40  C   UNL A   1      41.607  27.014  28.956  1.00  0.00     0.049 A 
ATOM     41  H   UNL A   1      41.603  28.409  30.504  1.00  0.00     0.167 HD
ATOM     42  C   UNL A   1      41.471  31.230  33.783  1.00  0.00     0.031 A 
ATOM     43  C   UNL A   1      42.721  26.264  29.078  1.00  0.00     0.031 A 
ATOM     44  C   UNL A   1      42.734  30.561  33.937  1.00  0.00     0.049 A 
ATOM     45  C   UNL A   1      43.710  26.580  30.164  1.00  0.00     0.074 A 
ATOM     46  C   UNL A   1      43.694  30.749  34.917  1.00  0.00     0.029 A 
ATOM     47  N   UNL A   1      43.207  29.563  33.101  1.00  0.00    -0.354 N 
ATOM     48  N   UNL A   1      43.620  27.465  31.126  1.00  0.00    -0.248 NA
ATOM     49  C   UNL A   1      44.966  25.815  30.158  1.00  0.00     0.031 C 
ATOM     50  C   UNL A   1      44.765  29.887  34.653  1.00  0.00     0.029 A 
ATOM     51  C   UNL A   1      44.452  29.136  33.533  1.00  0.00     0.049 A 
ATOM     52  H   UNL A   1      42.729  29.211  32.316  1.00  0.00     0.167 HD
ATOM     53  C   UNL A   1      44.814  27.376  31.831  1.00  0.00     0.074 A 
ATOM     54  C   UNL A   1      45.595  26.327  31.209  1.00  0.00     0.031 C 
ATOM     55  C   UNL A   1      45.231  28.108  32.893  1.00  0.00     0.031 A 
BRANCH  42  56
ATOM     56  C   UNL A   1      41.094  32.271  34.801  1.00  0.00    -0.014 A 
ATOM     57  C   UNL A   1      40.437  31.919  35.994  1.00  0.00     0.010 A 
ATOM     58  C   UNL A   1      41.432  33.616  34.572  1.00  0.00     0.010 A 
ATOM     59  C   UNL A   1      40.097  32.903  36.926  1.00  0.00     0.020 A 
ATOM     60  C   UNL A   1      41.109  34.600  35.510  1.00  0.00     0.020 A 
ATOM     61  C   UNL A   1      40.429  34.240  36.674  1.00  0.00     0.054 A 
BRANCH  61  62
ATOM     62  S   UNL A   1      39.991  35.498  37.906  1.00  0.00     0.124 S 
ATOM     63  O   UNL A   1      39.842  36.691  37.076  1.00  0.00    -0.237 OA
ATOM     64  O   UNL A   1      38.754  34.973  38.479  1.00  0.00    -0.237 OA
ATOM     65  O   UNL A   1      41.138  35.509  38.811  1.00  0.00    -0.744 OA
ENDBRANCH  61  62
ENDBRANCH  42  56
BRANCH  43  66
ATOM     66  C   UNL A   1      42.995  25.185  28.091  1.00  0.00    -0.014 A 
ATOM     67  C   UNL A   1      43.640  25.468  26.875  1.00  0.00     0.010 A 
ATOM     68  C   UNL A   1      42.630  23.856  28.381  1.00  0.00     0.010 A 
ATOM     69  C   UNL A   1      43.922  24.440  25.969  1.00  0.00     0.020 A 
ATOM     70  C   UNL A   1      42.933  22.825  27.491  1.00  0.00     0.020 A 
ATOM     71  C   UNL A   1      43.570  23.125  26.285  1.00  0.00     0.054 A 
BRANCH  71  72
ATOM     72  S   UNL A   1      44.020  21.785  25.146  1.00  0.00     0.124 S 
ATOM     73  O   UNL A   1      42.964  20.810  25.396  1.00  0.00    -0.237 OA
ATOM     74  O   UNL A   1      43.980  22.440  23.842  1.00  0.00    -0.237 OA
ATOM     75  O   UNL A   1      45.355  21.395  25.597  1.00  0.00    -0.744 OA
ENDBRANCH  71  72
ENDBRANCH  43  66
BRANCH  55  76
ATOM     76  C   UNL A   1      46.597  27.810  33.441  1.00  0.00    -0.014 A 
ATOM     77  C   UNL A   1      46.771  26.827  34.432  1.00  0.00     0.010 A 
ATOM     78  C   UNL A   1      47.721  28.487  32.938  1.00  0.00     0.010 A 
ATOM     79  C   UNL A   1      48.045  26.544  34.931  1.00  0.00     0.020 A 
ATOM     80  C   UNL A   1      48.999  28.194  33.421  1.00  0.00     0.020 A 
ATOM     81  C   UNL A   1      49.152  27.234  34.424  1.00  0.00     0.054 A 
BRANCH  81  82
ATOM     82  S   UNL A   1      50.802  26.829  35.060  1.00  0.00     0.124 S 
ATOM     83  O   UNL A   1      51.631  26.977  33.867  1.00  0.00    -0.237 OA
ATOM     84  O   UNL A   1      51.007  27.837  36.097  1.00  0.00    -0.237 OA
ATOM     85  O   UNL A   1      50.654  25.460  35.552  1.00  0.00    -0.744 OA
ENDBRANCH  81  82
ENDBRANCH  55  76
ENDBRANCH  29  30
ENDBRANCH  22  24
ENDBRANCH  21  22
ENDBRANCH   1  21
TORSDOF 16
ENDMDL
