MODEL 1
REMARK VINA RESULT:     -10.5      0.000      0.000
REMARK SMILES Cc1cnc(S[C@H]2CC[C@@]([NH2+]C(C)C)(C(=O)OCCOC(=O)c3ccc(-c4c5nc(c(-c6ccc(S(=O)(=O)[O-])cc6)c6ccc([nH]6)c(-c6ccc(S(=O)(=O)[O-])cc6)c6nc(c(-c7ccc(S(=O)(=O)[O-])cc7)c7ccc4[nH]7)C=C6)C=C5)cc3)C2)nc1
REMARK SMILES IDX 19 1 18 2 17 3 15 4 16 5 10 6 7 7 8 8 83 9 9 10 6 11 5 12
REMARK SMILES IDX 1 13 2 14 3 15 85 16 4 17 84 18 11 19 12 22 13 23 14 24
REMARK SMILES IDX 20 25 21 26 22 27 23 28 24 29 82 30 25 31 81 32 26 33 27 34
REMARK SMILES IDX 28 35 75 36 29 37 80 38 74 39 76 40 30 41 79 42 73 43 72 44
REMARK SMILES IDX 31 46 61 47 42 48 60 49 43 50 46 51 59 52 77 53 44 54 45 55
REMARK SMILES IDX 58 57 78 58 47 59 32 60 33 61 41 62 34 63 40 64 35 65 36 66
REMARK SMILES IDX 37 67 38 68 39 69 62 70 63 71 71 72 64 73 70 74 65 75 66 76
REMARK SMILES IDX 67 77 68 78 69 79 48 80 49 81 57 82 50 83 56 84 51 85 52 86
REMARK SMILES IDX 53 87 54 88 55 89
REMARK H PARENT 11 20 11 21 76 45 46 56
REMARK Flexibility Score: inf
ROOT
ATOM      1  C   UNL A   1      32.345  29.528  27.102  1.00  0.00     0.275 C 
ENDROOT
BRANCH   1   2
ATOM      2  C   UNL A   1      31.831  28.183  27.635  1.00  0.00     0.274 C 
BRANCH   2   3
ATOM      3  O   UNL A   1      32.335  27.053  26.887  1.00  0.00    -0.457 OA
BRANCH   3   4
ATOM      4  C   UNL A   1      31.413  26.426  26.107  1.00  0.00     0.368 C 
ATOM      5  O   UNL A   1      30.262  26.205  26.485  1.00  0.00    -0.245 OA
BRANCH   4   6
ATOM      6  C   UNL A   1      31.937  25.967  24.703  1.00  0.00     0.195 C 
ATOM      7  C   UNL A   1      30.987  27.434  22.932  1.00  0.00     0.062 C 
ATOM      8  C   UNL A   1      32.497  27.381  22.736  1.00  0.00     0.022 C 
ATOM      9  C   UNL A   1      30.779  26.094  23.668  1.00  0.00     0.096 C 
ATOM     10  C   UNL A   1      33.050  26.864  24.076  1.00  0.00     0.082 C 
BRANCH   7  11
ATOM     11  S   UNL A   1      30.578  28.864  24.001  1.00  0.00    -0.083 SA
BRANCH  11  12
ATOM     12  C   UNL A   1      29.485  29.872  23.041  1.00  0.00     0.187 A 
ATOM     13  C   UNL A   1      27.679  32.851  20.687  1.00  0.00     0.048 C 
ATOM     14  C   UNL A   1      28.259  31.771  21.536  1.00  0.00    -0.014 A 
ATOM     15  C   UNL A   1      28.578  30.517  21.050  1.00  0.00     0.119 A 
ATOM     16  C   UNL A   1      28.570  31.969  22.860  1.00  0.00     0.119 A 
ATOM     17  N   UNL A   1      29.197  29.551  21.773  1.00  0.00    -0.231 NA
ATOM     18  N   UNL A   1      29.177  31.045  23.622  1.00  0.00    -0.231 NA
ENDBRANCH  11  12
ENDBRANCH   7  11
BRANCH   6  19
ATOM     19  N   UNL A   1      32.504  24.583  24.784  1.00  0.00    -0.330 N 
ATOM     20  H   UNL A   1      33.519  24.671  24.724  1.00  0.00     0.347 HD
ATOM     21  H   UNL A   1      32.046  24.084  24.021  1.00  0.00     0.347 HD
BRANCH  19  22
ATOM     22  C   UNL A   1      32.210  23.764  25.971  1.00  0.00     0.176 C 
ATOM     23  C   UNL A   1      31.185  22.659  25.717  1.00  0.00     0.075 C 
ATOM     24  C   UNL A   1      33.525  23.144  26.452  1.00  0.00     0.075 C 
ENDBRANCH  19  22
ENDBRANCH   6  19
ENDBRANCH   4   6
ENDBRANCH   3   4
ENDBRANCH   2   3
ENDBRANCH   1   2
BRANCH   1  25
ATOM     25  O   UNL A   1      33.778  29.527  27.061  1.00  0.00    -0.458 OA
BRANCH  25  26
ATOM     26  C   UNL A   1      34.415  30.414  27.868  1.00  0.00     0.338 C 
ATOM     27  O   UNL A   1      33.912  31.407  28.365  1.00  0.00    -0.246 OA
BRANCH  26  28
ATOM     28  C   UNL A   1      35.816  29.951  28.118  1.00  0.00     0.060 A 
ATOM     29  C   UNL A   1      36.210  29.487  29.374  1.00  0.00     0.016 A 
ATOM     30  C   UNL A   1      36.787  30.069  27.120  1.00  0.00     0.016 A 
ATOM     31  C   UNL A   1      37.554  29.258  29.672  1.00  0.00     0.010 A 
ATOM     32  C   UNL A   1      38.127  29.736  27.390  1.00  0.00     0.010 A 
ATOM     33  C   UNL A   1      38.533  29.344  28.677  1.00  0.00    -0.014 A 
BRANCH  33  34
ATOM     34  C   UNL A   1      39.953  28.995  28.986  1.00  0.00     0.031 A 
ATOM     35  C   UNL A   1      40.885  30.008  29.602  1.00  0.00     0.074 A 
ATOM     36  C   UNL A   1      40.422  27.757  28.717  1.00  0.00     0.049 A 
ATOM     37  N   UNL A   1      42.187  29.953  29.737  1.00  0.00    -0.248 NA
ATOM     38  C   UNL A   1      40.282  31.241  30.128  1.00  0.00     0.031 C 
ATOM     39  C   UNL A   1      39.635  26.643  28.176  1.00  0.00     0.029 A 
ATOM     40  N   UNL A   1      41.681  27.223  28.864  1.00  0.00    -0.354 N 
ATOM     41  C   UNL A   1      42.566  31.166  30.301  1.00  0.00     0.074 A 
ATOM     42  C   UNL A   1      41.353  31.932  30.499  1.00  0.00     0.031 C 
ATOM     43  C   UNL A   1      40.414  25.557  28.074  1.00  0.00     0.029 A 
ATOM     44  C   UNL A   1      41.779  25.919  28.434  1.00  0.00     0.049 A 
ATOM     45  H   UNL A   1      42.439  27.725  29.239  1.00  0.00     0.167 HD
ATOM     46  C   UNL A   1      43.811  31.604  30.614  1.00  0.00     0.031 A 
ATOM     47  C   UNL A   1      42.847  25.113  28.279  1.00  0.00     0.031 A 
ATOM     48  C   UNL A   1      45.014  30.825  30.464  1.00  0.00     0.049 A 
ATOM     49  C   UNL A   1      44.218  25.640  28.581  1.00  0.00     0.074 A 
ATOM     50  C   UNL A   1      46.316  31.185  30.773  1.00  0.00     0.029 A 
ATOM     51  N   UNL A   1      45.068  29.528  29.978  1.00  0.00    -0.354 N 
ATOM     52  N   UNL A   1      44.565  26.817  29.044  1.00  0.00    -0.248 NA
ATOM     53  C   UNL A   1      45.346  24.737  28.316  1.00  0.00     0.031 C 
ATOM     54  C   UNL A   1      47.162  30.122  30.435  1.00  0.00     0.029 A 
ATOM     55  C   UNL A   1      46.381  29.082  29.960  1.00  0.00     0.049 A 
ATOM     56  H   UNL A   1      44.289  29.001  29.689  1.00  0.00     0.167 HD
ATOM     57  C   UNL A   1      45.952  26.793  29.127  1.00  0.00     0.074 A 
ATOM     58  C   UNL A   1      46.378  25.478  28.696  1.00  0.00     0.031 C 
ATOM     59  C   UNL A   1      46.797  27.778  29.516  1.00  0.00     0.031 A 
BRANCH  46  60
ATOM     60  C   UNL A   1      43.960  33.018  31.109  1.00  0.00    -0.014 A 
ATOM     61  C   UNL A   1      44.045  34.104  30.222  1.00  0.00     0.010 A 
ATOM     62  C   UNL A   1      43.916  33.265  32.494  1.00  0.00     0.010 A 
ATOM     63  C   UNL A   1      44.102  35.413  30.714  1.00  0.00     0.020 A 
ATOM     64  C   UNL A   1      43.952  34.571  32.990  1.00  0.00     0.020 A 
ATOM     65  C   UNL A   1      44.056  35.637  32.094  1.00  0.00     0.054 A 
BRANCH  65  66
ATOM     66  S   UNL A   1      44.090  37.346  32.703  1.00  0.00     0.124 S 
ATOM     67  O   UNL A   1      43.878  38.104  31.472  1.00  0.00    -0.237 OA
ATOM     68  O   UNL A   1      42.983  37.370  33.655  1.00  0.00    -0.237 OA
ATOM     69  O   UNL A   1      45.419  37.478  33.294  1.00  0.00    -0.744 OA
ENDBRANCH  65  66
ENDBRANCH  46  60
BRANCH  47  70
ATOM     70  C   UNL A   1      42.668  23.742  27.727  1.00  0.00    -0.014 A 
ATOM     71  C   UNL A   1      42.779  23.504  26.347  1.00  0.00     0.010 A 
ATOM     72  C   UNL A   1      42.386  22.665  28.589  1.00  0.00     0.010 A 
ATOM     73  C   UNL A   1      42.596  22.215  25.837  1.00  0.00     0.020 A 
ATOM     74  C   UNL A   1      42.236  21.372  28.087  1.00  0.00     0.020 A 
ATOM     75  C   UNL A   1      42.327  21.157  26.710  1.00  0.00     0.054 A 
BRANCH  75  76
ATOM     76  S   UNL A   1      42.149  19.481  26.040  1.00  0.00     0.124 S 
ATOM     77  O   UNL A   1      42.672  18.663  27.131  1.00  0.00    -0.237 OA
ATOM     78  O   UNL A   1      40.712  19.380  25.805  1.00  0.00    -0.237 OA
ATOM     79  O   UNL A   1      42.969  19.511  24.831  1.00  0.00    -0.744 OA
ENDBRANCH  75  76
ENDBRANCH  47  70
BRANCH  59  80
ATOM     80  C   UNL A   1      48.266  27.452  29.515  1.00  0.00    -0.014 A 
ATOM     81  C   UNL A   1      48.873  26.840  30.625  1.00  0.00     0.010 A 
ATOM     82  C   UNL A   1      49.049  27.773  28.393  1.00  0.00     0.010 A 
ATOM     83  C   UNL A   1      50.250  26.600  30.634  1.00  0.00     0.020 A 
ATOM     84  C   UNL A   1      50.421  27.512  28.387  1.00  0.00     0.020 A 
ATOM     85  C   UNL A   1      51.018  26.948  29.517  1.00  0.00     0.054 A 
BRANCH  85  86
ATOM     86  S   UNL A   1      52.803  26.632  29.547  1.00  0.00     0.124 S 
ATOM     87  O   UNL A   1      53.008  25.927  28.285  1.00  0.00    -0.237 OA
ATOM     88  O   UNL A   1      53.370  27.976  29.616  1.00  0.00    -0.237 OA
ATOM     89  O   UNL A   1      52.989  25.824  30.750  1.00  0.00    -0.744 OA
ENDBRANCH  85  86
ENDBRANCH  59  80
ENDBRANCH  33  34
ENDBRANCH  26  28
ENDBRANCH  25  26
ENDBRANCH   1  25
TORSDOF 18
ENDMDL
MODEL 2
REMARK VINA RESULT:     -10.5      2.266      2.974
REMARK SMILES Cc1cnc(S[C@H]2CC[C@@]([NH2+]C(C)C)(C(=O)OCCOC(=O)c3ccc(-c4c5nc(c(-c6ccc(S(=O)(=O)[O-])cc6)c6ccc([nH]6)c(-c6ccc(S(=O)(=O)[O-])cc6)c6nc(c(-c7ccc(S(=O)(=O)[O-])cc7)c7ccc4[nH]7)C=C6)C=C5)cc3)C2)nc1
REMARK SMILES IDX 19 1 18 2 17 3 15 4 16 5 10 6 7 7 8 8 83 9 9 10 6 11 5 12
REMARK SMILES IDX 1 13 2 14 3 15 85 16 4 17 84 18 11 19 12 22 13 23 14 24
REMARK SMILES IDX 20 25 21 26 22 27 23 28 24 29 82 30 25 31 81 32 26 33 27 34
REMARK SMILES IDX 28 35 75 36 29 37 80 38 74 39 76 40 30 41 79 42 73 43 72 44
REMARK SMILES IDX 31 46 61 47 42 48 60 49 43 50 46 51 59 52 77 53 44 54 45 55
REMARK SMILES IDX 58 57 78 58 47 59 32 60 33 61 41 62 34 63 40 64 35 65 36 66
REMARK SMILES IDX 37 67 38 68 39 69 62 70 63 71 71 72 64 73 70 74 65 75 66 76
REMARK SMILES IDX 67 77 68 78 69 79 48 80 49 81 57 82 50 83 56 84 51 85 52 86
REMARK SMILES IDX 53 87 54 88 55 89
REMARK H PARENT 11 20 11 21 76 45 46 56
REMARK Flexibility Score: inf
ROOT
ATOM      1  C   UNL A   1      34.124  30.192  27.376  1.00  0.00     0.275 C 
ENDROOT
BRANCH   1   2
ATOM      2  C   UNL A   1      32.842  29.351  27.288  1.00  0.00     0.274 C 
BRANCH   2   3
ATOM      3  O   UNL A   1      33.096  27.977  26.918  1.00  0.00    -0.457 OA
BRANCH   3   4
ATOM      4  C   UNL A   1      31.981  27.220  26.728  1.00  0.00     0.368 C 
ATOM      5  O   UNL A   1      30.870  27.559  27.135  1.00  0.00    -0.245 OA
BRANCH   4   6
ATOM      6  C   UNL A   1      32.223  25.861  25.987  1.00  0.00     0.195 C 
ATOM      7  C   UNL A   1      32.220  26.234  23.526  1.00  0.00     0.062 C 
ATOM      8  C   UNL A   1      33.485  25.464  23.881  1.00  0.00     0.022 C 
ATOM      9  C   UNL A   1      31.327  25.816  24.713  1.00  0.00     0.096 C 
ATOM     10  C   UNL A   1      33.655  25.664  25.397  1.00  0.00     0.082 C 
BRANCH   7  11
ATOM     11  S   UNL A   1      32.589  28.029  23.558  1.00  0.00    -0.083 SA
BRANCH  11  12
ATOM     12  C   UNL A   1      31.024  28.834  23.373  1.00  0.00     0.187 A 
ATOM     13  C   UNL A   1      27.864  31.523  22.692  1.00  0.00     0.048 C 
ATOM     14  C   UNL A   1      28.942  30.529  22.965  1.00  0.00    -0.014 A 
ATOM     15  C   UNL A   1      29.234  29.478  22.115  1.00  0.00     0.119 A 
ATOM     16  C   UNL A   1      29.763  30.624  24.063  1.00  0.00     0.119 A 
ATOM     17  N   UNL A   1      30.269  28.621  22.287  1.00  0.00    -0.231 NA
ATOM     18  N   UNL A   1      30.798  29.798  24.284  1.00  0.00    -0.231 NA
ENDBRANCH  11  12
ENDBRANCH   7  11
BRANCH   6  19
ATOM     19  N   UNL A   1      31.985  24.709  26.914  1.00  0.00    -0.330 N 
ATOM     20  H   UNL A   1      30.990  24.708  27.141  1.00  0.00     0.347 HD
ATOM     21  H   UNL A   1      32.626  24.880  27.690  1.00  0.00     0.347 HD
BRANCH  19  22
ATOM     22  C   UNL A   1      32.328  23.351  26.462  1.00  0.00     0.176 C 
ATOM     23  C   UNL A   1      33.206  22.579  27.446  1.00  0.00     0.075 C 
ATOM     24  C   UNL A   1      31.020  22.588  26.232  1.00  0.00     0.075 C 
ENDBRANCH  19  22
ENDBRANCH   6  19
ENDBRANCH   4   6
ENDBRANCH   3   4
ENDBRANCH   2   3
ENDBRANCH   1   2
BRANCH   1  25
ATOM     25  O   UNL A   1      35.160  29.444  28.026  1.00  0.00    -0.458 OA
BRANCH  25  26
ATOM     26  C   UNL A   1      36.000  30.138  28.835  1.00  0.00     0.338 C 
ATOM     27  O   UNL A   1      35.668  31.008  29.623  1.00  0.00    -0.246 OA
BRANCH  26  28
ATOM     28  C   UNL A   1      37.397  29.626  28.669  1.00  0.00     0.060 A 
ATOM     29  C   UNL A   1      38.139  29.182  29.765  1.00  0.00     0.016 A 
ATOM     30  C   UNL A   1      38.023  29.676  27.420  1.00  0.00     0.016 A 
ATOM     31  C   UNL A   1      39.502  28.907  29.652  1.00  0.00     0.010 A 
ATOM     32  C   UNL A   1      39.371  29.297  27.287  1.00  0.00     0.010 A 
ATOM     33  C   UNL A   1      40.136  28.925  28.406  1.00  0.00    -0.014 A 
BRANCH  33  34
ATOM     34  C   UNL A   1      41.571  28.527  28.285  1.00  0.00     0.031 A 
ATOM     35  C   UNL A   1      42.674  29.546  28.425  1.00  0.00     0.074 A 
ATOM     36  C   UNL A   1      41.901  27.238  28.049  1.00  0.00     0.049 A 
ATOM     37  N   UNL A   1      43.947  29.427  28.141  1.00  0.00    -0.248 NA
ATOM     38  C   UNL A   1      42.301  30.870  28.946  1.00  0.00     0.031 C 
ATOM     39  C   UNL A   1      40.959  26.120  27.946  1.00  0.00     0.029 A 
ATOM     40  N   UNL A   1      43.128  26.648  27.854  1.00  0.00    -0.354 N 
ATOM     41  C   UNL A   1      44.514  30.673  28.383  1.00  0.00     0.074 A 
ATOM     42  C   UNL A   1      43.449  31.532  28.856  1.00  0.00     0.031 C 
ATOM     43  C   UNL A   1      41.640  24.982  27.747  1.00  0.00     0.029 A 
ATOM     44  C   UNL A   1      43.055  25.298  27.596  1.00  0.00     0.049 A 
ATOM     45  H   UNL A   1      43.978  27.143  27.894  1.00  0.00     0.167 HD
ATOM     46  C   UNL A   1      45.801  31.066  28.216  1.00  0.00     0.031 A 
ATOM     47  C   UNL A   1      43.996  24.414  27.216  1.00  0.00     0.031 A 
ATOM     48  C   UNL A   1      46.873  30.200  27.794  1.00  0.00     0.049 A 
ATOM     49  C   UNL A   1      45.401  24.886  26.986  1.00  0.00     0.074 A 
ATOM     50  C   UNL A   1      48.212  30.512  27.616  1.00  0.00     0.029 A 
ATOM     51  N   UNL A   1      46.739  28.854  27.497  1.00  0.00    -0.354 N 
ATOM     52  N   UNL A   1      45.904  26.086  27.149  1.00  0.00    -0.248 NA
ATOM     53  C   UNL A   1      46.362  23.888  26.496  1.00  0.00     0.031 C 
ATOM     54  C   UNL A   1      48.878  29.366  27.170  1.00  0.00     0.029 A 
ATOM     55  C   UNL A   1      47.964  28.327  27.117  1.00  0.00     0.049 A 
ATOM     56  H   UNL A   1      45.898  28.345  27.548  1.00  0.00     0.167 HD
ATOM     57  C   UNL A   1      47.241  25.986  26.784  1.00  0.00     0.074 A 
ATOM     58  C   UNL A   1      47.476  24.603  26.421  1.00  0.00     0.031 C 
ATOM     59  C   UNL A   1      48.186  26.955  26.744  1.00  0.00     0.031 A 
BRANCH  46  60
ATOM     60  C   UNL A   1      46.132  32.517  28.441  1.00  0.00    -0.014 A 
ATOM     61  C   UNL A   1      46.591  32.985  29.684  1.00  0.00     0.010 A 
ATOM     62  C   UNL A   1      46.071  33.408  27.352  1.00  0.00     0.010 A 
ATOM     63  C   UNL A   1      46.964  34.325  29.838  1.00  0.00     0.020 A 
ATOM     64  C   UNL A   1      46.463  34.742  27.496  1.00  0.00     0.020 A 
ATOM     65  C   UNL A   1      46.898  35.194  28.744  1.00  0.00     0.054 A 
BRANCH  65  66
ATOM     66  S   UNL A   1      47.429  36.915  28.962  1.00  0.00     0.124 S 
ATOM     67  O   UNL A   1      46.149  37.601  29.133  1.00  0.00    -0.237 OA
ATOM     68  O   UNL A   1      48.268  36.844  30.154  1.00  0.00    -0.237 OA
ATOM     69  O   UNL A   1      48.137  37.220  27.721  1.00  0.00    -0.744 OA
ENDBRANCH  65  66
ENDBRANCH  46  60
BRANCH  47  70
ATOM     70  C   UNL A   1      43.620  23.000  26.942  1.00  0.00    -0.014 A 
ATOM     71  C   UNL A   1      42.951  22.233  27.911  1.00  0.00     0.010 A 
ATOM     72  C   UNL A   1      43.931  22.415  25.699  1.00  0.00     0.010 A 
ATOM     73  C   UNL A   1      42.614  20.902  27.648  1.00  0.00     0.020 A 
ATOM     74  C   UNL A   1      43.565  21.097  25.421  1.00  0.00     0.020 A 
ATOM     75  C   UNL A   1      42.922  20.344  26.404  1.00  0.00     0.054 A 
BRANCH  75  76
ATOM     76  S   UNL A   1      42.426  18.634  26.056  1.00  0.00     0.124 S 
ATOM     77  O   UNL A   1      41.029  18.798  25.668  1.00  0.00    -0.237 OA
ATOM     78  O   UNL A   1      43.340  18.246  24.986  1.00  0.00    -0.237 OA
ATOM     79  O   UNL A   1      42.647  17.951  27.330  1.00  0.00    -0.744 OA
ENDBRANCH  75  76
ENDBRANCH  47  70
BRANCH  59  80
ATOM     80  C   UNL A   1      49.567  26.540  26.314  1.00  0.00    -0.014 A 
ATOM     81  C   UNL A   1      50.480  25.996  27.234  1.00  0.00     0.010 A 
ATOM     82  C   UNL A   1      49.958  26.705  24.974  1.00  0.00     0.010 A 
ATOM     83  C   UNL A   1      51.779  25.673  26.833  1.00  0.00     0.020 A 
ATOM     84  C   UNL A   1      51.248  26.360  24.563  1.00  0.00     0.020 A 
ATOM     85  C   UNL A   1      52.158  25.867  25.501  1.00  0.00     0.054 A 
BRANCH  85  86
ATOM     86  S   UNL A   1      53.849  25.445  25.000  1.00  0.00     0.124 S 
ATOM     87  O   UNL A   1      53.767  23.995  24.846  1.00  0.00    -0.237 OA
ATOM     88  O   UNL A   1      54.019  26.200  23.761  1.00  0.00    -0.237 OA
ATOM     89  O   UNL A   1      54.665  25.908  26.120  1.00  0.00    -0.744 OA
ENDBRANCH  85  86
ENDBRANCH  59  80
ENDBRANCH  33  34
ENDBRANCH  26  28
ENDBRANCH  25  26
ENDBRANCH   1  25
TORSDOF 18
ENDMDL
MODEL 3
REMARK VINA RESULT:     -10.1      3.525      8.748
REMARK SMILES Cc1cnc(S[C@H]2CC[C@@]([NH2+]C(C)C)(C(=O)OCCOC(=O)c3ccc(-c4c5nc(c(-c6ccc(S(=O)(=O)[O-])cc6)c6ccc([nH]6)c(-c6ccc(S(=O)(=O)[O-])cc6)c6nc(c(-c7ccc(S(=O)(=O)[O-])cc7)c7ccc4[nH]7)C=C6)C=C5)cc3)C2)nc1
REMARK SMILES IDX 19 1 18 2 17 3 15 4 16 5 10 6 7 7 8 8 83 9 9 10 6 11 5 12
REMARK SMILES IDX 1 13 2 14 3 15 85 16 4 17 84 18 11 19 12 22 13 23 14 24
REMARK SMILES IDX 20 25 21 26 22 27 23 28 24 29 82 30 25 31 81 32 26 33 27 34
REMARK SMILES IDX 28 35 75 36 29 37 80 38 74 39 76 40 30 41 79 42 73 43 72 44
REMARK SMILES IDX 31 46 61 47 42 48 60 49 43 50 46 51 59 52 77 53 44 54 45 55
REMARK SMILES IDX 58 57 78 58 47 59 32 60 33 61 41 62 34 63 40 64 35 65 36 66
REMARK SMILES IDX 37 67 38 68 39 69 62 70 63 71 71 72 64 73 70 74 65 75 66 76
REMARK SMILES IDX 67 77 68 78 69 79 48 80 49 81 57 82 50 83 56 84 51 85 52 86
REMARK SMILES IDX 53 87 54 88 55 89
REMARK H PARENT 11 20 11 21 76 45 46 56
REMARK Flexibility Score: inf
ROOT
ATOM      1  C   UNL A   1      33.009  29.731  25.922  1.00  0.00     0.275 C 
ENDROOT
BRANCH   1   2
ATOM      2  C   UNL A   1      33.993  28.631  25.494  1.00  0.00     0.274 C 
BRANCH   2   3
ATOM      3  O   UNL A   1      33.600  27.318  25.951  1.00  0.00    -0.457 OA
BRANCH   3   4
ATOM      4  C   UNL A   1      33.468  26.386  24.968  1.00  0.00     0.368 C 
ATOM      5  O   UNL A   1      34.120  26.424  23.924  1.00  0.00    -0.245 OA
BRANCH   4   6
ATOM      6  C   UNL A   1      32.392  25.281  25.245  1.00  0.00     0.195 C 
ATOM      7  C   UNL A   1      30.312  25.798  23.980  1.00  0.00     0.062 C 
ATOM      8  C   UNL A   1      30.700  24.357  23.674  1.00  0.00     0.022 C 
ATOM      9  C   UNL A   1      30.993  25.958  25.355  1.00  0.00     0.096 C 
ATOM     10  C   UNL A   1      32.177  24.250  24.093  1.00  0.00     0.082 C 
BRANCH   7  11
ATOM     11  S   UNL A   1      31.066  26.895  22.721  1.00  0.00    -0.083 SA
BRANCH  11  12
ATOM     12  C   UNL A   1      30.152  28.407  22.806  1.00  0.00     0.187 A 
ATOM     13  C   UNL A   1      27.449  31.509  23.678  1.00  0.00     0.048 C 
ATOM     14  C   UNL A   1      28.426  30.442  23.314  1.00  0.00    -0.014 A 
ATOM     15  C   UNL A   1      29.751  30.462  23.710  1.00  0.00     0.119 A 
ATOM     16  C   UNL A   1      28.059  29.327  22.600  1.00  0.00     0.119 A 
ATOM     17  N   UNL A   1      30.633  29.461  23.479  1.00  0.00    -0.231 NA
ATOM     18  N   UNL A   1      28.894  28.309  22.338  1.00  0.00    -0.231 NA
ENDBRANCH  11  12
ENDBRANCH   7  11
BRANCH   6  19
ATOM     19  N   UNL A   1      32.759  24.488  26.461  1.00  0.00    -0.330 N 
ATOM     20  H   UNL A   1      31.889  24.254  26.941  1.00  0.00     0.347 HD
ATOM     21  H   UNL A   1      33.406  25.094  26.966  1.00  0.00     0.347 HD
BRANCH  19  22
ATOM     22  C   UNL A   1      33.508  23.232  26.290  1.00  0.00     0.176 C 
ATOM     23  C   UNL A   1      35.026  23.416  26.302  1.00  0.00     0.075 C 
ATOM     24  C   UNL A   1      33.097  22.281  27.418  1.00  0.00     0.075 C 
ENDBRANCH  19  22
ENDBRANCH   6  19
ENDBRANCH   4   6
ENDBRANCH   3   4
ENDBRANCH   2   3
ENDBRANCH   1   2
BRANCH   1  25
ATOM     25  O   UNL A   1      33.184  30.036  27.312  1.00  0.00    -0.458 OA
BRANCH  25  26
ATOM     26  C   UNL A   1      33.844  31.185  27.608  1.00  0.00     0.338 C 
ATOM     27  O   UNL A   1      33.388  32.311  27.502  1.00  0.00    -0.246 OA
BRANCH  26  28
ATOM     28  C   UNL A   1      35.198  30.861  28.155  1.00  0.00     0.060 A 
ATOM     29  C   UNL A   1      35.444  29.653  28.809  1.00  0.00     0.016 A 
ATOM     30  C   UNL A   1      36.224  31.810  28.109  1.00  0.00     0.016 A 
ATOM     31  C   UNL A   1      36.634  29.435  29.504  1.00  0.00     0.010 A 
ATOM     32  C   UNL A   1      37.463  31.547  28.719  1.00  0.00     0.010 A 
ATOM     33  C   UNL A   1      37.679  30.362  29.443  1.00  0.00    -0.014 A 
BRANCH  33  34
ATOM     34  C   UNL A   1      38.986  30.068  30.107  1.00  0.00     0.031 A 
ATOM     35  C   UNL A   1      39.911  29.007  29.564  1.00  0.00     0.074 A 
ATOM     36  C   UNL A   1      39.358  30.755  31.208  1.00  0.00     0.049 A 
ATOM     37  N   UNL A   1      40.969  28.473  30.122  1.00  0.00    -0.248 NA
ATOM     38  C   UNL A   1      39.609  28.474  28.227  1.00  0.00     0.031 C 
ATOM     39  C   UNL A   1      38.607  31.852  31.826  1.00  0.00     0.029 A 
ATOM     40  N   UNL A   1      40.471  30.634  32.008  1.00  0.00    -0.354 N 
ATOM     41  C   UNL A   1      41.419  27.498  29.238  1.00  0.00     0.074 A 
ATOM     42  C   UNL A   1      40.529  27.526  28.097  1.00  0.00     0.031 C 
ATOM     43  C   UNL A   1      39.292  32.325  32.876  1.00  0.00     0.029 A 
ATOM     44  C   UNL A   1      40.476  31.498  33.079  1.00  0.00     0.049 A 
ATOM     45  H   UNL A   1      41.194  29.989  31.832  1.00  0.00     0.167 HD
ATOM     46  C   UNL A   1      42.471  26.652  29.373  1.00  0.00     0.031 A 
ATOM     47  C   UNL A   1      41.294  31.587  34.145  1.00  0.00     0.031 A 
ATOM     48  C   UNL A   1      43.387  26.656  30.485  1.00  0.00     0.049 A 
ATOM     49  C   UNL A   1      42.416  30.604  34.296  1.00  0.00     0.074 A 
ATOM     50  C   UNL A   1      44.491  25.844  30.693  1.00  0.00     0.029 A 
ATOM     51  N   UNL A   1      43.321  27.517  31.568  1.00  0.00    -0.354 N 
ATOM     52  N   UNL A   1      42.782  29.640  33.486  1.00  0.00    -0.248 NA
ATOM     53  C   UNL A   1      43.222  30.706  35.521  1.00  0.00     0.031 C 
ATOM     54  C   UNL A   1      45.067  26.185  31.921  1.00  0.00     0.029 A 
ATOM     55  C   UNL A   1      44.350  27.243  32.456  1.00  0.00     0.049 A 
ATOM     56  H   UNL A   1      42.644  28.220  31.690  1.00  0.00     0.167 HD
ATOM     57  C   UNL A   1      43.863  29.022  34.103  1.00  0.00     0.074 A 
ATOM     58  C   UNL A   1      44.111  29.739  35.337  1.00  0.00     0.031 C 
ATOM     59  C   UNL A   1      44.580  27.951  33.688  1.00  0.00     0.031 A 
BRANCH  46  60
ATOM     60  C   UNL A   1      42.672  25.602  28.313  1.00  0.00    -0.014 A 
ATOM     61  C   UNL A   1      43.541  25.807  27.228  1.00  0.00     0.010 A 
ATOM     62  C   UNL A   1      42.050  24.348  28.467  1.00  0.00     0.010 A 
ATOM     63  C   UNL A   1      43.767  24.781  26.303  1.00  0.00     0.020 A 
ATOM     64  C   UNL A   1      42.289  23.314  27.557  1.00  0.00     0.020 A 
ATOM     65  C   UNL A   1      43.139  23.543  26.474  1.00  0.00     0.054 A 
BRANCH  65  66
ATOM     66  S   UNL A   1      43.483  22.218  25.284  1.00  0.00     0.124 S 
ATOM     67  O   UNL A   1      44.801  21.760  25.721  1.00  0.00    -0.237 OA
ATOM     68  O   UNL A   1      42.385  21.283  25.516  1.00  0.00    -0.237 OA
ATOM     69  O   UNL A   1      43.458  22.896  23.990  1.00  0.00    -0.744 OA
ENDBRANCH  65  66
ENDBRANCH  46  60
BRANCH  47  70
ATOM     70  C   UNL A   1      41.025  32.597  35.204  1.00  0.00    -0.014 A 
ATOM     71  C   UNL A   1      41.604  33.877  35.141  1.00  0.00     0.010 A 
ATOM     72  C   UNL A   1      40.182  32.279  36.286  1.00  0.00     0.010 A 
ATOM     73  C   UNL A   1      41.355  34.814  36.148  1.00  0.00     0.020 A 
ATOM     74  C   UNL A   1      39.906  33.223  37.276  1.00  0.00     0.020 A 
ATOM     75  C   UNL A   1      40.507  34.481  37.208  1.00  0.00     0.054 A 
BRANCH  75  76
ATOM     76  S   UNL A   1      40.149  35.726  38.478  1.00  0.00     0.124 S 
ATOM     77  O   UNL A   1      39.770  36.881  37.669  1.00  0.00    -0.237 OA
ATOM     78  O   UNL A   1      39.069  35.106  39.240  1.00  0.00    -0.237 OA
ATOM     79  O   UNL A   1      41.415  35.852  39.196  1.00  0.00    -0.744 OA
ENDBRANCH  75  76
ENDBRANCH  47  70
BRANCH  59  80
ATOM     80  C   UNL A   1      45.716  27.510  34.571  1.00  0.00    -0.014 A 
ATOM     81  C   UNL A   1      47.012  28.027  34.397  1.00  0.00     0.010 A 
ATOM     82  C   UNL A   1      45.485  26.559  35.580  1.00  0.00     0.010 A 
ATOM     83  C   UNL A   1      48.069  27.562  35.184  1.00  0.00     0.020 A 
ATOM     84  C   UNL A   1      46.534  26.110  36.386  1.00  0.00     0.020 A 
ATOM     85  C   UNL A   1      47.824  26.597  36.168  1.00  0.00     0.054 A 
BRANCH  85  86
ATOM     86  S   UNL A   1      49.209  26.004  37.177  1.00  0.00     0.124 S 
ATOM     87  O   UNL A   1      50.252  26.976  36.863  1.00  0.00    -0.237 OA
ATOM     88  O   UNL A   1      48.675  26.071  38.535  1.00  0.00    -0.237 OA
ATOM     89  O   UNL A   1      49.446  24.652  36.675  1.00  0.00    -0.744 OA
ENDBRANCH  85  86
ENDBRANCH  59  80
ENDBRANCH  33  34
ENDBRANCH  26  28
ENDBRANCH  25  26
ENDBRANCH   1  25
TORSDOF 18
ENDMDL
