MODEL 1
REMARK VINA RESULT:     -11.1      0.000      0.000
REMARK SMILES O=C(CCCN1C(=O)C(=O)/C(=C(/[O-])c2ccc(Cl)cc2)[C@@H]1c1ccccc1[N+](=O)[O-])OCCOC(=O)c1ccc(-c2c3nc(c(-c4ccc(S(=O)(=O)[O-])cc4)c4ccc([nH]4)c(-c4ccc(S(=O)(=O)[O-])cc4)c4nc(c(-c5ccc(S(=O)(=O)[O-])cc5)c5ccc2[nH]5)C=C4)C=C3)cc1
REMARK SMILES IDX 32 1 31 2 2 3 1 4 3 5 4 6 5 7 6 8 7 9 21 10 8 11 9 12 11 13
REMARK SMILES IDX 10 14 12 15 13 16 22 17 23 18 27 19 24 20 26 21 25 22 28 23
REMARK SMILES IDX 29 24 30 25 14 26 15 27 20 28 16 29 19 30 17 31 18 32 33 33
REMARK SMILES IDX 34 34 35 35 36 36 37 37 38 38 96 39 39 40 95 41 40 42 41 43
REMARK SMILES IDX 42 44 89 45 43 46 94 47 88 48 90 49 44 50 93 51 87 52 86 53
REMARK SMILES IDX 45 55 75 56 56 57 74 58 57 59 60 60 73 61 91 62 58 63 59 64
REMARK SMILES IDX 72 66 92 67 61 68 46 69 47 70 55 71 48 72 54 73 49 74 50 75
REMARK SMILES IDX 51 76 52 77 53 78 76 79 77 80 85 81 78 82 84 83 79 84 80 85
REMARK SMILES IDX 81 86 82 87 83 88 62 89 63 90 71 91 64 92 70 93 65 94 66 95
REMARK SMILES IDX 67 96 68 97 69 98
REMARK H PARENT 90 54 60 65
REMARK Flexibility Score: inf
ROOT
ATOM      1  C   UNL A   1      34.514  31.174  27.792  1.00  0.00     0.274 C 
ENDROOT
BRANCH   1   2
ATOM      2  O   UNL A   1      34.157  29.993  27.049  1.00  0.00    -0.462 OA
BRANCH   2   3
ATOM      3  C   UNL A   1      32.957  29.841  26.436  1.00  0.00     0.305 C 
ATOM      4  O   UNL A   1      32.121  30.739  26.462  1.00  0.00    -0.252 OA
BRANCH   3   5
ATOM      5  C   UNL A   1      32.623  28.484  25.851  1.00  0.00     0.124 C 
BRANCH   5   6
ATOM      6  C   UNL A   1      33.800  27.731  25.263  1.00  0.00     0.033 C 
BRANCH   6   7
ATOM      7  C   UNL A   1      34.245  26.566  26.127  1.00  0.00     0.121 C 
BRANCH   7   8
ATOM      8  N   UNL A   1      33.869  25.199  25.735  1.00  0.00    -0.324 N 
ATOM      9  C   UNL A   1      34.890  24.316  25.406  1.00  0.00     0.295 C 
ATOM     10  C   UNL A   1      32.528  24.609  25.551  1.00  0.00     0.157 C 
ATOM     11  O   UNL A   1      36.084  24.471  25.549  1.00  0.00    -0.265 OA
ATOM     12  C   UNL A   1      34.250  23.026  24.926  1.00  0.00     0.248 C 
ATOM     13  C   UNL A   1      32.799  23.130  25.237  1.00  0.00     0.025 C 
ATOM     14  O   UNL A   1      34.872  22.092  24.470  1.00  0.00    -0.283 OA
ATOM     15  C   UNL A   1      32.011  22.036  25.313  1.00  0.00    -0.092 C 
ATOM     16  O   UNL A   1      30.718  22.054  25.784  1.00  0.00    -0.872 OA
BRANCH  10  17
ATOM     17  C   UNL A   1      31.560  25.275  24.562  1.00  0.00     0.057 A 
ATOM     18  C   UNL A   1      30.299  25.677  25.069  1.00  0.00     0.013 A 
ATOM     19  C   UNL A   1      31.763  25.563  23.198  1.00  0.00     0.275 A 
ATOM     20  C   UNL A   1      29.330  26.315  24.284  1.00  0.00     0.001 A 
ATOM     21  C   UNL A   1      30.826  26.275  22.421  1.00  0.00     0.086 A 
ATOM     22  C   UNL A   1      29.604  26.641  22.966  1.00  0.00     0.007 A 
BRANCH  19  23
ATOM     23  N   UNL A   1      32.915  25.091  22.458  1.00  0.00     0.063 N 
ATOM     24  O   UNL A   1      33.867  25.873  22.337  1.00  0.00    -0.258 OA
ATOM     25  O   UNL A   1      32.848  23.950  21.985  1.00  0.00    -0.258 OA
ENDBRANCH  19  23
ENDBRANCH  10  17
BRANCH  15  26
ATOM     26  C   UNL A   1      32.387  20.693  24.833  1.00  0.00    -0.033 A 
ATOM     27  C   UNL A   1      32.243  20.321  23.490  1.00  0.00     0.009 A 
ATOM     28  C   UNL A   1      32.893  19.757  25.748  1.00  0.00     0.009 A 
ATOM     29  C   UNL A   1      32.555  19.019  23.079  1.00  0.00     0.021 A 
ATOM     30  C   UNL A   1      33.210  18.458  25.337  1.00  0.00     0.021 A 
ATOM     31  C   UNL A   1      33.027  18.092  24.006  1.00  0.00     0.041 A 
ATOM     32  Cl  UNL A   1      33.383  16.483  23.507  1.00  0.00    -0.084 Cl
ENDBRANCH  15  26
ENDBRANCH   7   8
ENDBRANCH   6   7
ENDBRANCH   5   6
ENDBRANCH   3   5
ENDBRANCH   2   3
ENDBRANCH   1   2
BRANCH   1  33
ATOM     33  C   UNL A   1      35.543  30.945  28.904  1.00  0.00     0.275 C 
BRANCH  33  34
ATOM     34  O   UNL A   1      36.015  29.590  28.940  1.00  0.00    -0.458 OA
BRANCH  34  35
ATOM     35  C   UNL A   1      36.900  29.352  29.946  1.00  0.00     0.338 C 
ATOM     36  O   UNL A   1      36.653  29.337  31.139  1.00  0.00    -0.246 OA
BRANCH  35  37
ATOM     37  C   UNL A   1      38.190  28.914  29.375  1.00  0.00     0.060 A 
ATOM     38  C   UNL A   1      39.138  28.365  30.249  1.00  0.00     0.016 A 
ATOM     39  C   UNL A   1      38.475  29.042  28.012  1.00  0.00     0.016 A 
ATOM     40  C   UNL A   1      40.396  28.002  29.774  1.00  0.00     0.010 A 
ATOM     41  C   UNL A   1      39.739  28.679  27.538  1.00  0.00     0.010 A 
ATOM     42  C   UNL A   1      40.721  28.203  28.426  1.00  0.00    -0.014 A 
BRANCH  42  43
ATOM     43  C   UNL A   1      42.140  28.116  27.999  1.00  0.00     0.031 A 
ATOM     44  C   UNL A   1      43.019  29.326  28.189  1.00  0.00     0.074 A 
ATOM     45  C   UNL A   1      42.656  26.981  27.496  1.00  0.00     0.049 A 
ATOM     46  N   UNL A   1      44.290  29.477  27.921  1.00  0.00    -0.248 NA
ATOM     47  C   UNL A   1      42.376  30.524  28.754  1.00  0.00     0.031 C 
ATOM     48  C   UNL A   1      41.925  25.730  27.300  1.00  0.00     0.029 A 
ATOM     49  N   UNL A   1      43.929  26.699  27.064  1.00  0.00    -0.354 N 
ATOM     50  C   UNL A   1      44.599  30.782  28.289  1.00  0.00     0.074 A 
ATOM     51  C   UNL A   1      43.373  31.395  28.752  1.00  0.00     0.031 C 
ATOM     52  C   UNL A   1      42.764  24.812  26.788  1.00  0.00     0.029 A 
ATOM     53  C   UNL A   1      44.082  25.415  26.595  1.00  0.00     0.049 A 
ATOM     54  H   UNL A   1      44.663  27.354  27.087  1.00  0.00     0.167 HD
ATOM     55  C   UNL A   1      45.797  31.414  28.258  1.00  0.00     0.031 A 
ATOM     56  C   UNL A   1      45.159  24.801  26.066  1.00  0.00     0.031 A 
ATOM     57  C   UNL A   1      47.012  30.812  27.781  1.00  0.00     0.049 A 
ATOM     58  C   UNL A   1      46.465  25.550  25.964  1.00  0.00     0.074 A 
ATOM     59  C   UNL A   1      48.279  31.366  27.723  1.00  0.00     0.029 A 
ATOM     60  N   UNL A   1      47.113  29.528  27.267  1.00  0.00    -0.354 N 
ATOM     61  N   UNL A   1      46.749  26.771  26.353  1.00  0.00    -0.248 NA
ATOM     62  C   UNL A   1      47.598  24.833  25.360  1.00  0.00     0.031 C 
ATOM     63  C   UNL A   1      49.131  30.442  27.109  1.00  0.00     0.029 A 
ATOM     64  C   UNL A   1      48.413  29.285  26.855  1.00  0.00     0.049 A 
ATOM     65  H   UNL A   1      46.370  28.884  27.206  1.00  0.00     0.167 HD
ATOM     66  C   UNL A   1      48.100  26.955  26.070  1.00  0.00     0.074 A 
ATOM     67  C   UNL A   1      48.578  25.717  25.491  1.00  0.00     0.031 C 
ATOM     68  C   UNL A   1      48.876  28.049  26.275  1.00  0.00     0.031 A 
BRANCH  55  69
ATOM     69  C   UNL A   1      45.838  32.846  28.722  1.00  0.00    -0.014 A 
ATOM     70  C   UNL A   1      46.122  33.173  30.061  1.00  0.00     0.010 A 
ATOM     71  C   UNL A   1      45.617  33.881  27.796  1.00  0.00     0.010 A 
ATOM     72  C   UNL A   1      46.141  34.509  30.473  1.00  0.00     0.020 A 
ATOM     73  C   UNL A   1      45.666  35.219  28.198  1.00  0.00     0.020 A 
ATOM     74  C   UNL A   1      45.910  35.523  29.539  1.00  0.00     0.054 A 
BRANCH  74  75
ATOM     75  S   UNL A   1      45.953  37.247  30.100  1.00  0.00     0.124 S 
ATOM     76  O   UNL A   1      44.882  37.847  29.306  1.00  0.00    -0.237 OA
ATOM     77  O   UNL A   1      45.682  37.124  31.529  1.00  0.00    -0.237 OA
ATOM     78  O   UNL A   1      47.303  37.690  29.759  1.00  0.00    -0.744 OA
ENDBRANCH  74  75
ENDBRANCH  55  69
BRANCH  56  79
ATOM     79  C   UNL A   1      45.051  23.397  25.576  1.00  0.00    -0.014 A 
ATOM     80  C   UNL A   1      45.332  22.310  26.422  1.00  0.00     0.010 A 
ATOM     81  C   UNL A   1      44.675  23.144  24.243  1.00  0.00     0.010 A 
ATOM     82  C   UNL A   1      45.254  20.999  25.943  1.00  0.00     0.020 A 
ATOM     83  C   UNL A   1      44.566  21.834  23.770  1.00  0.00     0.020 A 
ATOM     84  C   UNL A   1      44.867  20.770  24.620  1.00  0.00     0.054 A 
BRANCH  84  85
ATOM     85  S   UNL A   1      44.721  19.058  24.033  1.00  0.00     0.124 S 
ATOM     86  O   UNL A   1      46.007  18.491  24.425  1.00  0.00    -0.237 OA
ATOM     87  O   UNL A   1      43.559  18.572  24.774  1.00  0.00    -0.237 OA
ATOM     88  O   UNL A   1      44.515  19.209  22.594  1.00  0.00    -0.744 OA
ENDBRANCH  84  85
ENDBRANCH  56  79
BRANCH  68  89
ATOM     89  C   UNL A   1      50.334  27.957  25.900  1.00  0.00    -0.014 A 
ATOM     90  C   UNL A   1      50.779  28.267  24.603  1.00  0.00     0.010 A 
ATOM     91  C   UNL A   1      51.283  27.618  26.884  1.00  0.00     0.010 A 
ATOM     92  C   UNL A   1      52.140  28.208  24.288  1.00  0.00     0.020 A 
ATOM     93  C   UNL A   1      52.647  27.590  26.582  1.00  0.00     0.020 A 
ATOM     94  C   UNL A   1      53.066  27.872  25.281  1.00  0.00     0.054 A 
BRANCH  94  95
ATOM     95  S   UNL A   1      54.830  27.848  24.858  1.00  0.00     0.124 S 
ATOM     96  O   UNL A   1      54.916  26.686  23.978  1.00  0.00    -0.237 OA
ATOM     97  O   UNL A   1      55.018  29.142  24.208  1.00  0.00    -0.237 OA
ATOM     98  O   UNL A   1      55.496  27.703  26.150  1.00  0.00    -0.744 OA
ENDBRANCH  94  95
ENDBRANCH  68  89
ENDBRANCH  42  43
ENDBRANCH  35  37
ENDBRANCH  34  35
ENDBRANCH  33  34
ENDBRANCH   1  33
TORSDOF 20
ENDMDL
MODEL 2
REMARK VINA RESULT:     -10.9      4.693      9.286
REMARK SMILES O=C(CCCN1C(=O)C(=O)/C(=C(/[O-])c2ccc(Cl)cc2)[C@@H]1c1ccccc1[N+](=O)[O-])OCCOC(=O)c1ccc(-c2c3nc(c(-c4ccc(S(=O)(=O)[O-])cc4)c4ccc([nH]4)c(-c4ccc(S(=O)(=O)[O-])cc4)c4nc(c(-c5ccc(S(=O)(=O)[O-])cc5)c5ccc2[nH]5)C=C4)C=C3)cc1
REMARK SMILES IDX 32 1 31 2 2 3 1 4 3 5 4 6 5 7 6 8 7 9 21 10 8 11 9 12 11 13
REMARK SMILES IDX 10 14 12 15 13 16 22 17 23 18 27 19 24 20 26 21 25 22 28 23
REMARK SMILES IDX 29 24 30 25 14 26 15 27 20 28 16 29 19 30 17 31 18 32 33 33
REMARK SMILES IDX 34 34 35 35 36 36 37 37 38 38 96 39 39 40 95 41 40 42 41 43
REMARK SMILES IDX 42 44 89 45 43 46 94 47 88 48 90 49 44 50 93 51 87 52 86 53
REMARK SMILES IDX 45 55 75 56 56 57 74 58 57 59 60 60 73 61 91 62 58 63 59 64
REMARK SMILES IDX 72 66 92 67 61 68 46 69 47 70 55 71 48 72 54 73 49 74 50 75
REMARK SMILES IDX 51 76 52 77 53 78 76 79 77 80 85 81 78 82 84 83 79 84 80 85
REMARK SMILES IDX 81 86 82 87 83 88 62 89 63 90 71 91 64 92 70 93 65 94 66 95
REMARK SMILES IDX 67 96 68 97 69 98
REMARK H PARENT 90 54 60 65
REMARK Flexibility Score: inf
ROOT
ATOM      1  C   UNL A   1      36.297  21.147  25.633  1.00  0.00     0.274 C 
ENDROOT
BRANCH   1   2
ATOM      2  O   UNL A   1      35.271  20.543  24.821  1.00  0.00    -0.462 OA
BRANCH   2   3
ATOM      3  C   UNL A   1      33.980  20.957  24.834  1.00  0.00     0.305 C 
ATOM      4  O   UNL A   1      33.280  20.798  25.830  1.00  0.00    -0.252 OA
BRANCH   3   5
ATOM      5  C   UNL A   1      33.386  21.480  23.543  1.00  0.00     0.124 C 
BRANCH   5   6
ATOM      6  C   UNL A   1      33.934  22.816  23.079  1.00  0.00     0.033 C 
BRANCH   6   7
ATOM      7  C   UNL A   1      33.072  23.469  22.015  1.00  0.00     0.121 C 
BRANCH   7   8
ATOM      8  N   UNL A   1      32.317  24.686  22.354  1.00  0.00    -0.324 N 
ATOM      9  C   UNL A   1      32.748  25.888  21.807  1.00  0.00     0.295 C 
ATOM     10  C   UNL A   1      31.179  24.859  23.279  1.00  0.00     0.157 C 
ATOM     11  O   UNL A   1      33.586  26.057  20.945  1.00  0.00    -0.265 OA
ATOM     12  C   UNL A   1      31.894  26.997  22.394  1.00  0.00     0.248 C 
ATOM     13  C   UNL A   1      30.779  26.334  23.121  1.00  0.00     0.025 C 
ATOM     14  O   UNL A   1      32.087  28.176  22.193  1.00  0.00    -0.283 OA
ATOM     15  C   UNL A   1      29.637  26.992  23.418  1.00  0.00    -0.092 C 
ATOM     16  O   UNL A   1      28.507  26.381  23.912  1.00  0.00    -0.872 OA
BRANCH  10  17
ATOM     17  C   UNL A   1      31.346  24.426  24.742  1.00  0.00     0.057 A 
ATOM     18  C   UNL A   1      30.481  23.407  25.212  1.00  0.00     0.013 A 
ATOM     19  C   UNL A   1      32.271  24.898  25.695  1.00  0.00     0.275 A 
ATOM     20  C   UNL A   1      30.539  22.900  26.518  1.00  0.00     0.001 A 
ATOM     21  C   UNL A   1      32.389  24.340  26.984  1.00  0.00     0.086 A 
ATOM     22  C   UNL A   1      31.513  23.346  27.397  1.00  0.00     0.007 A 
BRANCH  19  23
ATOM     23  N   UNL A   1      33.127  26.041  25.459  1.00  0.00     0.063 N 
ATOM     24  O   UNL A   1      34.218  25.826  24.914  1.00  0.00    -0.258 OA
ATOM     25  O   UNL A   1      32.711  27.141  25.843  1.00  0.00    -0.258 OA
ENDBRANCH  19  23
ENDBRANCH  10  17
BRANCH  15  26
ATOM     26  C   UNL A   1      29.464  28.455  23.337  1.00  0.00    -0.033 A 
ATOM     27  C   UNL A   1      30.180  29.331  24.163  1.00  0.00     0.009 A 
ATOM     28  C   UNL A   1      28.548  28.983  22.414  1.00  0.00     0.009 A 
ATOM     29  C   UNL A   1      29.947  30.711  24.099  1.00  0.00     0.021 A 
ATOM     30  C   UNL A   1      28.319  30.361  22.346  1.00  0.00     0.021 A 
ATOM     31  C   UNL A   1      29.012  31.218  23.199  1.00  0.00     0.041 A 
ATOM     32  Cl  UNL A   1      28.705  32.911  23.142  1.00  0.00    -0.084 Cl
ENDBRANCH  15  26
ENDBRANCH   7   8
ENDBRANCH   6   7
ENDBRANCH   5   6
ENDBRANCH   3   5
ENDBRANCH   2   3
ENDBRANCH   1   2
BRANCH   1  33
ATOM     33  C   UNL A   1      37.422  21.824  24.844  1.00  0.00     0.275 C 
BRANCH  33  34
ATOM     34  O   UNL A   1      37.830  23.068  25.435  1.00  0.00    -0.458 OA
BRANCH  34  35
ATOM     35  C   UNL A   1      38.979  22.970  26.160  1.00  0.00     0.338 C 
ATOM     36  O   UNL A   1      39.767  22.042  26.146  1.00  0.00    -0.246 OA
BRANCH  35  37
ATOM     37  C   UNL A   1      39.244  24.256  26.838  1.00  0.00     0.060 A 
ATOM     38  C   UNL A   1      40.013  25.207  26.154  1.00  0.00     0.016 A 
ATOM     39  C   UNL A   1      38.758  24.529  28.120  1.00  0.00     0.016 A 
ATOM     40  C   UNL A   1      40.352  26.407  26.776  1.00  0.00     0.010 A 
ATOM     41  C   UNL A   1      39.100  25.733  28.743  1.00  0.00     0.010 A 
ATOM     42  C   UNL A   1      39.939  26.655  28.091  1.00  0.00    -0.014 A 
BRANCH  42  43
ATOM     43  C   UNL A   1      40.558  27.771  28.850  1.00  0.00     0.031 A 
ATOM     44  C   UNL A   1      39.741  29.016  29.085  1.00  0.00     0.074 A 
ATOM     45  C   UNL A   1      41.798  27.674  29.361  1.00  0.00     0.049 A 
ATOM     46  N   UNL A   1      40.055  30.102  29.741  1.00  0.00    -0.248 NA
ATOM     47  C   UNL A   1      38.390  29.036  28.498  1.00  0.00     0.031 C 
ATOM     48  C   UNL A   1      42.676  26.511  29.241  1.00  0.00     0.029 A 
ATOM     49  N   UNL A   1      42.530  28.575  30.094  1.00  0.00    -0.354 N 
ATOM     50  C   UNL A   1      38.942  30.932  29.651  1.00  0.00     0.074 A 
ATOM     51  C   UNL A   1      37.965  30.244  28.835  1.00  0.00     0.031 C 
ATOM     52  C   UNL A   1      43.830  26.769  29.882  1.00  0.00     0.029 A 
ATOM     53  C   UNL A   1      43.784  28.122  30.434  1.00  0.00     0.049 A 
ATOM     54  H   UNL A   1      42.190  29.462  30.351  1.00  0.00     0.167 HD
ATOM     55  C   UNL A   1      38.742  32.151  30.205  1.00  0.00     0.031 A 
ATOM     56  C   UNL A   1      44.780  28.733  31.108  1.00  0.00     0.031 A 
ATOM     57  C   UNL A   1      39.720  32.844  31.000  1.00  0.00     0.049 A 
ATOM     58  C   UNL A   1      44.566  30.126  31.647  1.00  0.00     0.074 A 
ATOM     59  C   UNL A   1      39.606  34.077  31.618  1.00  0.00     0.029 A 
ATOM     60  N   UNL A   1      40.994  32.373  31.277  1.00  0.00    -0.354 N 
ATOM     61  N   UNL A   1      43.494  30.880  31.586  1.00  0.00    -0.248 NA
ATOM     62  C   UNL A   1      45.696  30.746  32.355  1.00  0.00     0.031 C 
ATOM     63  C   UNL A   1      40.837  34.383  32.209  1.00  0.00     0.029 A 
ATOM     64  C   UNL A   1      41.690  33.308  32.026  1.00  0.00     0.049 A 
ATOM     65  H   UNL A   1      41.351  31.502  30.986  1.00  0.00     0.167 HD
ATOM     66  C   UNL A   1      43.810  32.047  32.275  1.00  0.00     0.074 A 
ATOM     67  C   UNL A   1      45.167  31.895  32.755  1.00  0.00     0.031 C 
ATOM     68  C   UNL A   1      43.045  33.146  32.494  1.00  0.00     0.031 A 
BRANCH  55  69
ATOM     69  C   UNL A   1      37.424  32.828  29.936  1.00  0.00    -0.014 A 
ATOM     70  C   UNL A   1      37.150  33.427  28.693  1.00  0.00     0.010 A 
ATOM     71  C   UNL A   1      36.433  32.837  30.934  1.00  0.00     0.010 A 
ATOM     72  C   UNL A   1      35.926  34.063  28.469  1.00  0.00     0.020 A 
ATOM     73  C   UNL A   1      35.196  33.444  30.703  1.00  0.00     0.020 A 
ATOM     74  C   UNL A   1      34.957  34.069  29.478  1.00  0.00     0.054 A 
BRANCH  74  75
ATOM     75  S   UNL A   1      33.372  34.890  29.155  1.00  0.00     0.124 S 
ATOM     76  O   UNL A   1      33.806  36.196  28.665  1.00  0.00    -0.237 OA
ATOM     77  O   UNL A   1      32.759  34.017  28.157  1.00  0.00    -0.237 OA
ATOM     78  O   UNL A   1      32.715  34.901  30.459  1.00  0.00    -0.744 OA
ENDBRANCH  74  75
ENDBRANCH  55  69
BRANCH  56  79
ATOM     79  C   UNL A   1      46.083  28.037  31.303  1.00  0.00    -0.014 A 
ATOM     80  C   UNL A   1      46.256  27.099  32.337  1.00  0.00     0.010 A 
ATOM     81  C   UNL A   1      47.168  28.323  30.454  1.00  0.00     0.010 A 
ATOM     82  C   UNL A   1      47.492  26.474  32.528  1.00  0.00     0.020 A 
ATOM     83  C   UNL A   1      48.395  27.677  30.622  1.00  0.00     0.020 A 
ATOM     84  C   UNL A   1      48.553  26.764  31.665  1.00  0.00     0.054 A 
BRANCH  84  85
ATOM     85  S   UNL A   1      50.133  25.900  31.897  1.00  0.00     0.124 S 
ATOM     86  O   UNL A   1      51.095  26.991  31.778  1.00  0.00    -0.237 OA
ATOM     87  O   UNL A   1      49.983  25.327  33.232  1.00  0.00    -0.237 OA
ATOM     88  O   UNL A   1      50.151  24.927  30.806  1.00  0.00    -0.744 OA
ENDBRANCH  84  85
ENDBRANCH  56  79
BRANCH  68  89
ATOM     89  C   UNL A   1      43.638  34.265  33.313  1.00  0.00    -0.014 A 
ATOM     90  C   UNL A   1      44.407  35.281  32.719  1.00  0.00     0.010 A 
ATOM     91  C   UNL A   1      43.364  34.334  34.693  1.00  0.00     0.010 A 
ATOM     92  C   UNL A   1      44.918  36.326  33.493  1.00  0.00     0.020 A 
ATOM     93  C   UNL A   1      43.846  35.396  35.464  1.00  0.00     0.020 A 
ATOM     94  C   UNL A   1      44.632  36.379  34.861  1.00  0.00     0.054 A 
BRANCH  94  95
ATOM     95  S   UNL A   1      45.269  37.772  35.834  1.00  0.00     0.124 S 
ATOM     96  O   UNL A   1      46.371  37.153  36.565  1.00  0.00    -0.237 OA
ATOM     97  O   UNL A   1      45.659  38.728  34.801  1.00  0.00    -0.237 OA
ATOM     98  O   UNL A   1      44.127  38.176  36.651  1.00  0.00    -0.744 OA
ENDBRANCH  94  95
ENDBRANCH  68  89
ENDBRANCH  42  43
ENDBRANCH  35  37
ENDBRANCH  34  35
ENDBRANCH  33  34
ENDBRANCH   1  33
TORSDOF 20
ENDMDL
MODEL 3
REMARK VINA RESULT:     -10.9      0.744      7.790
REMARK SMILES O=C(CCCN1C(=O)C(=O)/C(=C(/[O-])c2ccc(Cl)cc2)[C@@H]1c1ccccc1[N+](=O)[O-])OCCOC(=O)c1ccc(-c2c3nc(c(-c4ccc(S(=O)(=O)[O-])cc4)c4ccc([nH]4)c(-c4ccc(S(=O)(=O)[O-])cc4)c4nc(c(-c5ccc(S(=O)(=O)[O-])cc5)c5ccc2[nH]5)C=C4)C=C3)cc1
REMARK SMILES IDX 32 1 31 2 2 3 1 4 3 5 4 6 5 7 6 8 7 9 21 10 8 11 9 12 11 13
REMARK SMILES IDX 10 14 12 15 13 16 22 17 23 18 27 19 24 20 26 21 25 22 28 23
REMARK SMILES IDX 29 24 30 25 14 26 15 27 20 28 16 29 19 30 17 31 18 32 33 33
REMARK SMILES IDX 34 34 35 35 36 36 37 37 38 38 96 39 39 40 95 41 40 42 41 43
REMARK SMILES IDX 42 44 89 45 43 46 94 47 88 48 90 49 44 50 93 51 87 52 86 53
REMARK SMILES IDX 45 55 75 56 56 57 74 58 57 59 60 60 73 61 91 62 58 63 59 64
REMARK SMILES IDX 72 66 92 67 61 68 46 69 47 70 55 71 48 72 54 73 49 74 50 75
REMARK SMILES IDX 51 76 52 77 53 78 76 79 77 80 85 81 78 82 84 83 79 84 80 85
REMARK SMILES IDX 81 86 82 87 83 88 62 89 63 90 71 91 64 92 70 93 65 94 66 95
REMARK SMILES IDX 67 96 68 97 69 98
REMARK H PARENT 90 54 60 65
REMARK Flexibility Score: inf
ROOT
ATOM      1  C   UNL A   1      34.056  30.459  27.352  1.00  0.00     0.274 C 
ENDROOT
BRANCH   1   2
ATOM      2  O   UNL A   1      33.502  29.209  27.806  1.00  0.00    -0.462 OA
BRANCH   2   3
ATOM      3  C   UNL A   1      32.553  28.528  27.117  1.00  0.00     0.305 C 
ATOM      4  O   UNL A   1      31.641  27.954  27.705  1.00  0.00    -0.252 OA
BRANCH   3   5
ATOM      5  C   UNL A   1      32.734  28.370  25.621  1.00  0.00     0.124 C 
BRANCH   5   6
ATOM      6  C   UNL A   1      33.992  27.634  25.201  1.00  0.00     0.033 C 
BRANCH   6   7
ATOM      7  C   UNL A   1      34.330  26.474  26.118  1.00  0.00     0.121 C 
BRANCH   7   8
ATOM      8  N   UNL A   1      33.932  25.113  25.727  1.00  0.00    -0.324 N 
ATOM      9  C   UNL A   1      34.939  24.214  25.402  1.00  0.00     0.295 C 
ATOM     10  C   UNL A   1      32.582  24.545  25.541  1.00  0.00     0.157 C 
ATOM     11  O   UNL A   1      36.136  24.349  25.547  1.00  0.00    -0.265 OA
ATOM     12  C   UNL A   1      34.280  22.934  24.922  1.00  0.00     0.248 C 
ATOM     13  C   UNL A   1      32.830  23.062  25.229  1.00  0.00     0.025 C 
ATOM     14  O   UNL A   1      34.888  21.989  24.468  1.00  0.00    -0.283 OA
ATOM     15  C   UNL A   1      32.025  21.980  25.305  1.00  0.00    -0.092 C 
ATOM     16  O   UNL A   1      30.731  22.020  25.773  1.00  0.00    -0.872 OA
BRANCH  10  17
ATOM     17  C   UNL A   1      31.628  25.225  24.549  1.00  0.00     0.057 A 
ATOM     18  C   UNL A   1      30.382  25.669  25.058  1.00  0.00     0.013 A 
ATOM     19  C   UNL A   1      31.831  25.490  23.180  1.00  0.00     0.275 A 
ATOM     20  C   UNL A   1      29.426  26.324  24.270  1.00  0.00     0.001 A 
ATOM     21  C   UNL A   1      30.909  26.218  22.399  1.00  0.00     0.086 A 
ATOM     22  C   UNL A   1      29.701  26.626  22.947  1.00  0.00     0.007 A 
BRANCH  19  23
ATOM     23  N   UNL A   1      32.964  24.976  22.440  1.00  0.00     0.063 N 
ATOM     24  O   UNL A   1      32.850  23.847  21.945  1.00  0.00    -0.258 OA
ATOM     25  O   UNL A   1      33.968  25.697  22.379  1.00  0.00    -0.258 OA
ENDBRANCH  19  23
ENDBRANCH  10  17
BRANCH  15  26
ATOM     26  C   UNL A   1      32.380  20.630  24.827  1.00  0.00    -0.033 A 
ATOM     27  C   UNL A   1      32.208  20.251  23.489  1.00  0.00     0.009 A 
ATOM     28  C   UNL A   1      32.895  19.696  25.739  1.00  0.00     0.009 A 
ATOM     29  C   UNL A   1      32.501  18.944  23.082  1.00  0.00     0.021 A 
ATOM     30  C   UNL A   1      33.193  18.392  25.332  1.00  0.00     0.021 A 
ATOM     31  C   UNL A   1      32.982  18.019  24.007  1.00  0.00     0.041 A 
ATOM     32  Cl  UNL A   1      33.314  16.403  23.512  1.00  0.00    -0.084 Cl
ENDBRANCH  15  26
ENDBRANCH   7   8
ENDBRANCH   6   7
ENDBRANCH   5   6
ENDBRANCH   3   5
ENDBRANCH   2   3
ENDBRANCH   1   2
BRANCH   1  33
ATOM     33  C   UNL A   1      35.432  30.799  27.934  1.00  0.00     0.275 C 
BRANCH  33  34
ATOM     34  O   UNL A   1      36.385  29.744  27.733  1.00  0.00    -0.458 OA
BRANCH  34  35
ATOM     35  C   UNL A   1      37.098  29.440  28.852  1.00  0.00     0.338 C 
ATOM     36  O   UNL A   1      36.656  29.311  29.980  1.00  0.00    -0.246 OA
BRANCH  35  37
ATOM     37  C   UNL A   1      38.484  29.092  28.474  1.00  0.00     0.060 A 
ATOM     38  C   UNL A   1      39.326  28.590  29.474  1.00  0.00     0.016 A 
ATOM     39  C   UNL A   1      38.956  29.256  27.168  1.00  0.00     0.016 A 
ATOM     40  C   UNL A   1      40.661  28.312  29.187  1.00  0.00     0.010 A 
ATOM     41  C   UNL A   1      40.296  28.979  26.883  1.00  0.00     0.010 A 
ATOM     42  C   UNL A   1      41.166  28.552  27.903  1.00  0.00    -0.014 A 
BRANCH  42  43
ATOM     43  C   UNL A   1      42.635  28.559  27.688  1.00  0.00     0.031 A 
ATOM     44  C   UNL A   1      43.283  27.313  27.141  1.00  0.00     0.074 A 
ATOM     45  C   UNL A   1      43.376  29.656  27.925  1.00  0.00     0.049 A 
ATOM     46  N   UNL A   1      44.537  27.094  26.845  1.00  0.00    -0.248 NA
ATOM     47  C   UNL A   1      42.397  26.162  26.901  1.00  0.00     0.031 C 
ATOM     48  C   UNL A   1      42.866  30.935  28.414  1.00  0.00     0.029 A 
ATOM     49  N   UNL A   1      44.726  29.865  27.777  1.00  0.00    -0.354 N 
ATOM     50  C   UNL A   1      44.590  25.784  26.379  1.00  0.00     0.074 A 
ATOM     51  C   UNL A   1      43.252  25.243  26.480  1.00  0.00     0.031 C 
ATOM     52  C   UNL A   1      43.891  31.799  28.523  1.00  0.00     0.029 A 
ATOM     53  C   UNL A   1      45.132  31.128  28.138  1.00  0.00     0.049 A 
ATOM     54  H   UNL A   1      45.343  29.175  27.444  1.00  0.00     0.167 HD
ATOM     55  C   UNL A   1      45.652  25.094  25.898  1.00  0.00     0.031 A 
ATOM     56  C   UNL A   1      46.364  31.676  28.161  1.00  0.00     0.031 A 
ATOM     57  C   UNL A   1      46.986  25.625  25.815  1.00  0.00     0.049 A 
ATOM     58  C   UNL A   1      47.547  30.861  27.698  1.00  0.00     0.074 A 
ATOM     59  C   UNL A   1      48.126  25.008  25.329  1.00  0.00     0.029 A 
ATOM     60  N   UNL A   1      47.364  26.889  26.239  1.00  0.00    -0.354 N 
ATOM     61  N   UNL A   1      47.573  29.638  27.224  1.00  0.00    -0.248 NA
ATOM     62  C   UNL A   1      48.866  31.508  27.766  1.00  0.00     0.031 C 
ATOM     63  C   UNL A   1      49.206  25.874  25.525  1.00  0.00     0.029 A 
ATOM     64  C   UNL A   1      48.727  27.059  26.061  1.00  0.00     0.049 A 
ATOM     65  H   UNL A   1      46.754  27.567  26.611  1.00  0.00     0.167 HD
ATOM     66  C   UNL A   1      48.904  29.381  26.907  1.00  0.00     0.074 A 
ATOM     67  C   UNL A   1      49.649  30.580  27.230  1.00  0.00     0.031 C 
ATOM     68  C   UNL A   1      49.460  28.256  26.391  1.00  0.00     0.031 A 
BRANCH  55  69
ATOM     69  C   UNL A   1      45.414  23.673  25.459  1.00  0.00    -0.014 A 
ATOM     70  C   UNL A   1      45.433  22.610  26.381  1.00  0.00     0.010 A 
ATOM     71  C   UNL A   1      45.139  23.402  24.107  1.00  0.00     0.010 A 
ATOM     72  C   UNL A   1      45.224  21.297  25.949  1.00  0.00     0.020 A 
ATOM     73  C   UNL A   1      44.899  22.094  23.677  1.00  0.00     0.020 A 
ATOM     74  C   UNL A   1      44.961  21.048  24.599  1.00  0.00     0.054 A 
BRANCH  74  75
ATOM     75  S   UNL A   1      44.681  19.336  24.070  1.00  0.00     0.124 S 
ATOM     76  O   UNL A   1      44.516  19.491  22.627  1.00  0.00    -0.237 OA
ATOM     77  O   UNL A   1      45.909  18.667  24.493  1.00  0.00    -0.237 OA
ATOM     78  O   UNL A   1      43.477  18.940  24.796  1.00  0.00    -0.744 OA
ENDBRANCH  74  75
ENDBRANCH  55  69
BRANCH  56  79
ATOM     79  C   UNL A   1      46.550  33.070  28.652  1.00  0.00    -0.014 A 
ATOM     80  C   UNL A   1      46.493  34.164  27.769  1.00  0.00     0.010 A 
ATOM     81  C   UNL A   1      46.800  33.309  30.016  1.00  0.00     0.010 A 
ATOM     82  C   UNL A   1      46.697  35.465  28.237  1.00  0.00     0.020 A 
ATOM     83  C   UNL A   1      46.973  34.611  30.493  1.00  0.00     0.020 A 
ATOM     84  C   UNL A   1      46.932  35.681  29.598  1.00  0.00     0.054 A 
BRANCH  84  85
ATOM     85  S   UNL A   1      47.141  37.382  30.194  1.00  0.00     0.124 S 
ATOM     86  O   UNL A   1      48.370  37.282  30.975  1.00  0.00    -0.237 OA
ATOM     87  O   UNL A   1      47.239  38.140  28.948  1.00  0.00    -0.237 OA
ATOM     88  O   UNL A   1      45.924  37.623  30.967  1.00  0.00    -0.744 OA
ENDBRANCH  84  85
ENDBRANCH  56  79
BRANCH  68  89
ATOM     89  C   UNL A   1      50.941  28.268  26.112  1.00  0.00    -0.014 A 
ATOM     90  C   UNL A   1      51.873  27.845  27.076  1.00  0.00     0.010 A 
ATOM     91  C   UNL A   1      51.404  28.646  24.836  1.00  0.00     0.010 A 
ATOM     92  C   UNL A   1      53.240  27.832  26.783  1.00  0.00     0.020 A 
ATOM     93  C   UNL A   1      52.766  28.603  24.528  1.00  0.00     0.020 A 
ATOM     94  C   UNL A   1      53.678  28.209  25.509  1.00  0.00     0.054 A 
BRANCH  94  95
ATOM     95  S   UNL A   1      55.452  28.138  25.140  1.00  0.00     0.124 S 
ATOM     96  O   UNL A   1      55.482  28.487  23.722  1.00  0.00    -0.237 OA
ATOM     97  O   UNL A   1      56.006  29.142  26.045  1.00  0.00    -0.237 OA
ATOM     98  O   UNL A   1      55.818  26.758  25.450  1.00  0.00    -0.744 OA
ENDBRANCH  94  95
ENDBRANCH  68  89
ENDBRANCH  42  43
ENDBRANCH  35  37
ENDBRANCH  34  35
ENDBRANCH  33  34
ENDBRANCH   1  33
TORSDOF 20
ENDMDL
