MODEL 1
REMARK VINA RESULT:      -9.7      0.000      0.000
REMARK SMILES CCC(CC)(C(=O)OCCOC(=O)c1ccc(-c2c3nc(c(-c4ccc(S(=O)(=O)[O-])cc4)c4ccc([nH]4)c(-c4ccc(S(=O)(=O)[O-])cc4)c4nc(c(-c5ccc(S(=O)(=O)[O-])cc5)c5ccc2[nH]5)C=C4)C=C3)cc1)n1nnnc1CC[C@@H]1CCCO1
REMARK SMILES IDX 9 1 8 2 6 3 7 4 3 5 2 6 1 7 4 8 5 9 74 10 75 11 78 12 76 13
REMARK SMILES IDX 77 14 79 15 80 16 81 17 82 18 85 19 83 20 84 21 10 22 11 23
REMARK SMILES IDX 12 24 13 25 14 26 15 27 73 28 16 29 72 30 17 31 18 32 19 33
REMARK SMILES IDX 66 34 20 35 71 36 65 37 67 38 21 39 70 40 64 41 63 42 22 44
REMARK SMILES IDX 52 45 33 46 51 47 34 48 37 49 50 50 68 51 35 52 36 53 49 55
REMARK SMILES IDX 69 56 38 57 23 58 24 59 32 60 25 61 31 62 26 63 27 64 28 65
REMARK SMILES IDX 29 66 30 67 53 68 54 69 62 70 55 71 61 72 56 73 57 74 58 75
REMARK SMILES IDX 59 76 60 77 39 78 40 79 48 80 41 81 47 82 42 83 43 84 44 85
REMARK SMILES IDX 45 86 46 87
REMARK H PARENT 67 43 37 54
REMARK Flexibility Score: inf
ROOT
ATOM      1  C   UNL A   1      32.468  28.611  27.451  1.00  0.00     0.274 C 
ENDROOT
BRANCH   1   2
ATOM      2  O   UNL A   1      32.807  27.655  26.422  1.00  0.00    -0.460 OA
BRANCH   2   3
ATOM      3  C   UNL A   1      31.926  26.629  26.227  1.00  0.00     0.334 C 
ATOM      4  O   UNL A   1      30.837  26.581  26.787  1.00  0.00    -0.249 OA
BRANCH   3   5
ATOM      5  C   UNL A   1      32.502  25.497  25.338  1.00  0.00     0.163 C 
BRANCH   5   6
ATOM      6  C   UNL A   1      33.793  24.890  25.949  1.00  0.00     0.039 C 
ATOM      7  C   UNL A   1      33.901  23.373  25.860  1.00  0.00     0.007 C 
ENDBRANCH   5   6
BRANCH   5   8
ATOM      8  C   UNL A   1      31.375  24.393  25.284  1.00  0.00     0.039 C 
ATOM      9  C   UNL A   1      31.091  23.761  23.927  1.00  0.00     0.007 C 
ENDBRANCH   5   8
BRANCH   5  10
ATOM     10  N   UNL A   1      32.677  26.054  23.974  1.00  0.00    -0.212 N 
ATOM     11  N   UNL A   1      33.823  25.728  23.321  1.00  0.00    -0.044 NA
ATOM     12  C   UNL A   1      31.904  26.811  23.103  1.00  0.00     0.152 A 
ATOM     13  N   UNL A   1      33.704  26.182  22.093  1.00  0.00    -0.024 NA
ATOM     14  N   UNL A   1      32.530  26.833  21.941  1.00  0.00    -0.114 NA
BRANCH  12  15
ATOM     15  C   UNL A   1      30.575  27.458  23.282  1.00  0.00     0.082 C 
BRANCH  15  16
ATOM     16  C   UNL A   1      30.665  28.942  23.659  1.00  0.00     0.040 C 
BRANCH  16  17
ATOM     17  C   UNL A   1      29.623  29.865  23.012  1.00  0.00     0.118 C 
ATOM     18  C   UNL A   1      29.156  31.051  23.839  1.00  0.00     0.034 C 
ATOM     19  O   UNL A   1      28.431  29.078  22.781  1.00  0.00    -0.378 OA
ATOM     20  C   UNL A   1      27.772  31.299  23.295  1.00  0.00     0.031 C 
ATOM     21  C   UNL A   1      27.278  29.900  23.014  1.00  0.00     0.160 C 
ENDBRANCH  16  17
ENDBRANCH  15  16
ENDBRANCH  12  15
ENDBRANCH   5  10
ENDBRANCH   3   5
ENDBRANCH   2   3
ENDBRANCH   1   2
BRANCH   1  22
ATOM     22  C   UNL A   1      32.585  30.056  26.960  1.00  0.00     0.275 C 
BRANCH  22  23
ATOM     23  O   UNL A   1      33.957  30.455  26.808  1.00  0.00    -0.458 OA
BRANCH  23  24
ATOM     24  C   UNL A   1      34.400  31.331  27.735  1.00  0.00     0.338 C 
ATOM     25  O   UNL A   1      33.772  32.240  28.255  1.00  0.00    -0.246 OA
BRANCH  24  26
ATOM     26  C   UNL A   1      35.749  30.956  28.173  1.00  0.00     0.060 A 
ATOM     27  C   UNL A   1      35.921  29.669  28.669  1.00  0.00     0.016 A 
ATOM     28  C   UNL A   1      36.776  31.894  28.268  1.00  0.00     0.016 A 
ATOM     29  C   UNL A   1      37.076  29.339  29.364  1.00  0.00     0.010 A 
ATOM     30  C   UNL A   1      37.977  31.531  28.893  1.00  0.00     0.010 A 
ATOM     31  C   UNL A   1      38.121  30.262  29.486  1.00  0.00    -0.014 A 
BRANCH  31  32
ATOM     32  C   UNL A   1      39.322  29.899  30.286  1.00  0.00     0.031 A 
ATOM     33  C   UNL A   1      40.323  28.909  29.748  1.00  0.00     0.074 A 
ATOM     34  C   UNL A   1      39.562  30.511  31.464  1.00  0.00     0.049 A 
ATOM     35  N   UNL A   1      41.362  28.383  30.342  1.00  0.00    -0.248 NA
ATOM     36  C   UNL A   1      40.124  28.445  28.365  1.00  0.00     0.031 C 
ATOM     37  C   UNL A   1      38.718  31.542  32.072  1.00  0.00     0.029 A 
ATOM     38  N   UNL A   1      40.607  30.380  32.342  1.00  0.00    -0.354 N 
ATOM     39  C   UNL A   1      41.902  27.479  29.436  1.00  0.00     0.074 A 
ATOM     40  C   UNL A   1      41.086  27.539  28.242  1.00  0.00     0.031 C 
ATOM     41  C   UNL A   1      39.313  31.998  33.185  1.00  0.00     0.029 A 
ATOM     42  C   UNL A   1      40.535  31.235  33.415  1.00  0.00     0.049 A 
ATOM     43  H   UNL A   1      41.340  29.733  32.216  1.00  0.00     0.167 HD
ATOM     44  C   UNL A   1      42.972  26.662  29.590  1.00  0.00     0.031 A 
ATOM     45  C   UNL A   1      41.345  31.378  34.481  1.00  0.00     0.031 A 
ATOM     46  C   UNL A   1      43.815  26.640  30.755  1.00  0.00     0.049 A 
ATOM     47  C   UNL A   1      42.531  30.470  34.627  1.00  0.00     0.074 A 
ATOM     48  C   UNL A   1      44.903  25.826  31.019  1.00  0.00     0.029 A 
ATOM     49  N   UNL A   1      43.681  27.494  31.839  1.00  0.00    -0.354 N 
ATOM     50  N   UNL A   1      42.958  29.540  33.809  1.00  0.00    -0.248 NA
ATOM     51  C   UNL A   1      43.323  30.611  35.856  1.00  0.00     0.031 C 
ATOM     52  C   UNL A   1      45.417  26.176  32.274  1.00  0.00     0.029 A 
ATOM     53  C   UNL A   1      44.666  27.227  32.775  1.00  0.00     0.049 A 
ATOM     54  H   UNL A   1      42.989  28.187  31.930  1.00  0.00     0.167 HD
ATOM     55  C   UNL A   1      44.062  28.971  34.431  1.00  0.00     0.074 A 
ATOM     56  C   UNL A   1      44.256  29.684  35.678  1.00  0.00     0.031 C 
ATOM     57  C   UNL A   1      44.835  27.939  34.015  1.00  0.00     0.031 A 
BRANCH  44  58
ATOM     58  C   UNL A   1      43.251  25.680  28.487  1.00  0.00    -0.014 A 
ATOM     59  C   UNL A   1      42.608  24.432  28.432  1.00  0.00     0.010 A 
ATOM     60  C   UNL A   1      44.169  26.026  27.478  1.00  0.00     0.010 A 
ATOM     61  C   UNL A   1      42.907  23.531  27.405  1.00  0.00     0.020 A 
ATOM     62  C   UNL A   1      44.457  25.135  26.441  1.00  0.00     0.020 A 
ATOM     63  C   UNL A   1      43.838  23.884  26.423  1.00  0.00     0.054 A 
BRANCH  63  64
ATOM     64  S   UNL A   1      44.213  22.706  25.094  1.00  0.00     0.124 S 
ATOM     65  O   UNL A   1      42.882  22.214  24.747  1.00  0.00    -0.237 OA
ATOM     66  O   UNL A   1      44.855  23.544  24.084  1.00  0.00    -0.237 OA
ATOM     67  O   UNL A   1      45.090  21.731  25.737  1.00  0.00    -0.744 OA
ENDBRANCH  63  64
ENDBRANCH  44  58
BRANCH  45  68
ATOM     68  C   UNL A   1      41.027  32.396  35.516  1.00  0.00    -0.014 A 
ATOM     69  C   UNL A   1      41.584  33.683  35.446  1.00  0.00     0.010 A 
ATOM     70  C   UNL A   1      40.133  32.089  36.559  1.00  0.00     0.010 A 
ATOM     71  C   UNL A   1      41.253  34.650  36.401  1.00  0.00     0.020 A 
ATOM     72  C   UNL A   1      39.783  33.058  37.502  1.00  0.00     0.020 A 
ATOM     73  C   UNL A   1      40.353  34.332  37.422  1.00  0.00     0.054 A 
BRANCH  73  74
ATOM     74  S   UNL A   1      39.865  35.610  38.613  1.00  0.00     0.124 S 
ATOM     75  O   UNL A   1      38.725  34.986  39.277  1.00  0.00    -0.237 OA
ATOM     76  O   UNL A   1      41.064  35.769  39.433  1.00  0.00    -0.237 OA
ATOM     77  O   UNL A   1      39.548  36.756  37.763  1.00  0.00    -0.744 OA
ENDBRANCH  73  74
ENDBRANCH  45  68
BRANCH  57  78
ATOM     78  C   UNL A   1      45.954  27.518  34.922  1.00  0.00    -0.014 A 
ATOM     79  C   UNL A   1      45.745  26.530  35.900  1.00  0.00     0.010 A 
ATOM     80  C   UNL A   1      47.231  28.086  34.774  1.00  0.00     0.010 A 
ATOM     81  C   UNL A   1      46.792  26.132  36.735  1.00  0.00     0.020 A 
ATOM     82  C   UNL A   1      48.284  27.681  35.598  1.00  0.00     0.020 A 
ATOM     83  C   UNL A   1      48.054  26.716  36.583  1.00  0.00     0.054 A 
BRANCH  83  84
ATOM     84  S   UNL A   1      49.414  26.163  37.649  1.00  0.00     0.124 S 
ATOM     85  O   UNL A   1      48.932  26.542  38.974  1.00  0.00    -0.237 OA
ATOM     86  O   UNL A   1      49.470  24.726  37.388  1.00  0.00    -0.237 OA
ATOM     87  O   UNL A   1      50.563  26.922  37.161  1.00  0.00    -0.744 OA
ENDBRANCH  83  84
ENDBRANCH  57  78
ENDBRANCH  31  32
ENDBRANCH  24  26
ENDBRANCH  23  24
ENDBRANCH  22  23
ENDBRANCH   1  22
TORSDOF 20
ENDMDL
MODEL 2
REMARK VINA RESULT:      -9.5      1.276      8.690
REMARK SMILES CCC(CC)(C(=O)OCCOC(=O)c1ccc(-c2c3nc(c(-c4ccc(S(=O)(=O)[O-])cc4)c4ccc([nH]4)c(-c4ccc(S(=O)(=O)[O-])cc4)c4nc(c(-c5ccc(S(=O)(=O)[O-])cc5)c5ccc2[nH]5)C=C4)C=C3)cc1)n1nnnc1CC[C@@H]1CCCO1
REMARK SMILES IDX 9 1 8 2 6 3 7 4 3 5 2 6 1 7 4 8 5 9 74 10 75 11 78 12 76 13
REMARK SMILES IDX 77 14 79 15 80 16 81 17 82 18 85 19 83 20 84 21 10 22 11 23
REMARK SMILES IDX 12 24 13 25 14 26 15 27 73 28 16 29 72 30 17 31 18 32 19 33
REMARK SMILES IDX 66 34 20 35 71 36 65 37 67 38 21 39 70 40 64 41 63 42 22 44
REMARK SMILES IDX 52 45 33 46 51 47 34 48 37 49 50 50 68 51 35 52 36 53 49 55
REMARK SMILES IDX 69 56 38 57 23 58 24 59 32 60 25 61 31 62 26 63 27 64 28 65
REMARK SMILES IDX 29 66 30 67 53 68 54 69 62 70 55 71 61 72 56 73 57 74 58 75
REMARK SMILES IDX 59 76 60 77 39 78 40 79 48 80 41 81 47 82 42 83 43 84 44 85
REMARK SMILES IDX 45 86 46 87
REMARK H PARENT 67 43 37 54
REMARK Flexibility Score: inf
ROOT
ATOM      1  C   UNL A   1      32.047  29.735  25.586  1.00  0.00     0.274 C 
ENDROOT
BRANCH   1   2
ATOM      2  O   UNL A   1      32.123  28.625  24.663  1.00  0.00    -0.460 OA
BRANCH   2   3
ATOM      3  C   UNL A   1      31.382  27.520  24.972  1.00  0.00     0.334 C 
ATOM      4  O   UNL A   1      31.118  27.207  26.127  1.00  0.00    -0.249 OA
BRANCH   3   5
ATOM      5  C   UNL A   1      31.028  26.661  23.731  1.00  0.00     0.163 C 
BRANCH   5   6
ATOM      6  C   UNL A   1      29.981  25.566  24.073  1.00  0.00     0.039 C 
ATOM      7  C   UNL A   1      30.152  24.251  23.324  1.00  0.00     0.007 C 
ENDBRANCH   5   6
BRANCH   5   8
ATOM      8  C   UNL A   1      30.412  27.671  22.685  1.00  0.00     0.039 C 
ATOM      9  C   UNL A   1      29.038  28.247  23.007  1.00  0.00     0.007 C 
ENDBRANCH   5   8
BRANCH   5  10
ATOM     10  N   UNL A   1      32.301  26.136  23.181  1.00  0.00    -0.212 N 
ATOM     11  N   UNL A   1      32.377  26.002  21.830  1.00  0.00    -0.044 NA
ATOM     12  C   UNL A   1      33.541  25.789  23.702  1.00  0.00     0.152 A 
ATOM     13  N   UNL A   1      33.621  25.684  21.548  1.00  0.00    -0.024 NA
ATOM     14  N   UNL A   1      34.348  25.564  22.681  1.00  0.00    -0.114 NA
BRANCH  12  15
ATOM     15  C   UNL A   1      34.029  25.722  25.107  1.00  0.00     0.082 C 
BRANCH  15  16
ATOM     16  C   UNL A   1      34.006  24.304  25.693  1.00  0.00     0.040 C 
BRANCH  16  17
ATOM     17  C   UNL A   1      33.265  23.245  24.865  1.00  0.00     0.118 C 
ATOM     18  C   UNL A   1      32.176  22.462  25.579  1.00  0.00     0.034 C 
ATOM     19  O   UNL A   1      34.236  22.251  24.463  1.00  0.00    -0.378 OA
ATOM     20  C   UNL A   1      32.156  21.165  24.812  1.00  0.00     0.031 C 
ATOM     21  C   UNL A   1      33.617  20.957  24.488  1.00  0.00     0.160 C 
ENDBRANCH  16  17
ENDBRANCH  15  16
ENDBRANCH  12  15
ENDBRANCH   5  10
ENDBRANCH   3   5
ENDBRANCH   2   3
ENDBRANCH   1   2
BRANCH   1  22
ATOM     22  C   UNL A   1      33.420  30.126  26.136  1.00  0.00     0.275 C 
BRANCH  22  23
ATOM     23  O   UNL A   1      33.358  30.450  27.534  1.00  0.00    -0.458 OA
BRANCH  23  24
ATOM     24  C   UNL A   1      34.139  31.485  27.913  1.00  0.00     0.338 C 
ATOM     25  O   UNL A   1      33.797  32.642  28.101  1.00  0.00    -0.246 OA
BRANCH  24  26
ATOM     26  C   UNL A   1      35.489  31.004  28.227  1.00  0.00     0.060 A 
ATOM     27  C   UNL A   1      35.597  29.736  28.789  1.00  0.00     0.016 A 
ATOM     28  C   UNL A   1      36.603  31.838  28.145  1.00  0.00     0.016 A 
ATOM     29  C   UNL A   1      36.788  29.334  29.375  1.00  0.00     0.010 A 
ATOM     30  C   UNL A   1      37.829  31.394  28.660  1.00  0.00     0.010 A 
ATOM     31  C   UNL A   1      37.921  30.153  29.320  1.00  0.00    -0.014 A 
BRANCH  31  32
ATOM     32  C   UNL A   1      39.167  29.720  30.008  1.00  0.00     0.031 A 
ATOM     33  C   UNL A   1      39.546  30.315  31.339  1.00  0.00     0.074 A 
ATOM     34  C   UNL A   1      39.924  28.735  29.482  1.00  0.00     0.049 A 
ATOM     35  N   UNL A   1      40.644  30.152  32.032  1.00  0.00    -0.248 NA
ATOM     36  C   UNL A   1      38.569  31.219  31.968  1.00  0.00     0.031 C 
ATOM     37  C   UNL A   1      39.639  28.017  28.237  1.00  0.00     0.029 A 
ATOM     38  N   UNL A   1      41.071  28.144  29.948  1.00  0.00    -0.354 N 
ATOM     39  C   UNL A   1      40.520  30.979  33.141  1.00  0.00     0.074 A 
ATOM     40  C   UNL A   1      39.233  31.632  33.040  1.00  0.00     0.031 C 
ATOM     41  C   UNL A   1      40.542  27.039  28.076  1.00  0.00     0.029 A 
ATOM     42  C   UNL A   1      41.518  27.113  29.158  1.00  0.00     0.049 A 
ATOM     43  H   UNL A   1      41.530  28.431  30.771  1.00  0.00     0.167 HD
ATOM     44  C   UNL A   1      41.406  31.186  34.146  1.00  0.00     0.031 A 
ATOM     45  C   UNL A   1      42.606  26.327  29.272  1.00  0.00     0.031 A 
ATOM     46  C   UNL A   1      42.661  30.497  34.275  1.00  0.00     0.049 A 
ATOM     47  C   UNL A   1      43.568  26.566  30.397  1.00  0.00     0.074 A 
ATOM     48  C   UNL A   1      43.642  30.661  35.239  1.00  0.00     0.029 A 
ATOM     49  N   UNL A   1      43.097  29.490  33.428  1.00  0.00    -0.354 N 
ATOM     50  N   UNL A   1      43.489  27.436  31.375  1.00  0.00    -0.248 NA
ATOM     51  C   UNL A   1      44.783  25.740  30.415  1.00  0.00     0.031 C 
ATOM     52  C   UNL A   1      44.680  29.763  34.964  1.00  0.00     0.029 A 
ATOM     53  C   UNL A   1      44.332  29.022  33.846  1.00  0.00     0.049 A 
ATOM     54  H   UNL A   1      42.602  29.156  32.645  1.00  0.00     0.167 HD
ATOM     55  C   UNL A   1      44.651  27.273  32.118  1.00  0.00     0.074 A 
ATOM     56  C   UNL A   1      45.401  26.200  31.496  1.00  0.00     0.031 C 
ATOM     57  C   UNL A   1      45.068  27.962  33.207  1.00  0.00     0.031 A 
BRANCH  44  58
ATOM     58  C   UNL A   1      41.066  32.248  35.153  1.00  0.00    -0.014 A 
ATOM     59  C   UNL A   1      40.470  31.931  36.386  1.00  0.00     0.010 A 
ATOM     60  C   UNL A   1      41.364  33.591  34.858  1.00  0.00     0.010 A 
ATOM     61  C   UNL A   1      40.144  32.945  37.292  1.00  0.00     0.020 A 
ATOM     62  C   UNL A   1      41.055  34.605  35.769  1.00  0.00     0.020 A 
ATOM     63  C   UNL A   1      40.428  34.277  36.972  1.00  0.00     0.054 A 
BRANCH  63  64
ATOM     64  S   UNL A   1      40.004  35.582  38.159  1.00  0.00     0.124 S 
ATOM     65  O   UNL A   1      39.831  36.738  37.283  1.00  0.00    -0.237 OA
ATOM     66  O   UNL A   1      38.781  35.077  38.779  1.00  0.00    -0.237 OA
ATOM     67  O   UNL A   1      41.167  35.636  39.041  1.00  0.00    -0.744 OA
ENDBRANCH  63  64
ENDBRANCH  44  58
BRANCH  45  68
ATOM     68  C   UNL A   1      42.860  25.271  28.257  1.00  0.00    -0.014 A 
ATOM     69  C   UNL A   1      43.588  25.562  27.091  1.00  0.00     0.010 A 
ATOM     70  C   UNL A   1      42.403  23.958  28.473  1.00  0.00     0.010 A 
ATOM     71  C   UNL A   1      43.856  24.557  26.156  1.00  0.00     0.020 A 
ATOM     72  C   UNL A   1      42.688  22.947  27.552  1.00  0.00     0.020 A 
ATOM     73  C   UNL A   1      43.406  23.255  26.394  1.00  0.00     0.054 A 
BRANCH  73  74
ATOM     74  S   UNL A   1      43.824  21.937  25.218  1.00  0.00     0.124 S 
ATOM     75  O   UNL A   1      42.774  20.958  25.476  1.00  0.00    -0.237 OA
ATOM     76  O   UNL A   1      43.752  22.617  23.926  1.00  0.00    -0.237 OA
ATOM     77  O   UNL A   1      45.169  21.540  25.625  1.00  0.00    -0.744 OA
ENDBRANCH  73  74
ENDBRANCH  45  68
BRANCH  57  78
ATOM     78  C   UNL A   1      46.398  27.580  33.787  1.00  0.00    -0.014 A 
ATOM     79  C   UNL A   1      46.486  26.578  34.768  1.00  0.00     0.010 A 
ATOM     80  C   UNL A   1      47.571  28.200  33.323  1.00  0.00     0.010 A 
ATOM     81  C   UNL A   1      47.728  26.216  35.297  1.00  0.00     0.020 A 
ATOM     82  C   UNL A   1      48.816  27.832  33.840  1.00  0.00     0.020 A 
ATOM     83  C   UNL A   1      48.885  26.852  34.834  1.00  0.00     0.054 A 
BRANCH  83  84
ATOM     84  S   UNL A   1      50.494  26.346  35.503  1.00  0.00     0.124 S 
ATOM     85  O   UNL A   1      51.369  27.411  35.020  1.00  0.00    -0.237 OA
ATOM     86  O   UNL A   1      50.259  26.333  36.945  1.00  0.00    -0.237 OA
ATOM     87  O   UNL A   1      50.717  25.033  34.904  1.00  0.00    -0.744 OA
ENDBRANCH  83  84
ENDBRANCH  57  78
ENDBRANCH  31  32
ENDBRANCH  24  26
ENDBRANCH  23  24
ENDBRANCH  22  23
ENDBRANCH   1  22
TORSDOF 20
ENDMDL
MODEL 3
REMARK VINA RESULT:      -9.5      5.880      7.390
REMARK SMILES CCC(CC)(C(=O)OCCOC(=O)c1ccc(-c2c3nc(c(-c4ccc(S(=O)(=O)[O-])cc4)c4ccc([nH]4)c(-c4ccc(S(=O)(=O)[O-])cc4)c4nc(c(-c5ccc(S(=O)(=O)[O-])cc5)c5ccc2[nH]5)C=C4)C=C3)cc1)n1nnnc1CC[C@@H]1CCCO1
REMARK SMILES IDX 9 1 8 2 6 3 7 4 3 5 2 6 1 7 4 8 5 9 74 10 75 11 78 12 76 13
REMARK SMILES IDX 77 14 79 15 80 16 81 17 82 18 85 19 83 20 84 21 10 22 11 23
REMARK SMILES IDX 12 24 13 25 14 26 15 27 73 28 16 29 72 30 17 31 18 32 19 33
REMARK SMILES IDX 66 34 20 35 71 36 65 37 67 38 21 39 70 40 64 41 63 42 22 44
REMARK SMILES IDX 52 45 33 46 51 47 34 48 37 49 50 50 68 51 35 52 36 53 49 55
REMARK SMILES IDX 69 56 38 57 23 58 24 59 32 60 25 61 31 62 26 63 27 64 28 65
REMARK SMILES IDX 29 66 30 67 53 68 54 69 62 70 55 71 61 72 56 73 57 74 58 75
REMARK SMILES IDX 59 76 60 77 39 78 40 79 48 80 41 81 47 82 42 83 43 84 44 85
REMARK SMILES IDX 45 86 46 87
REMARK H PARENT 67 43 37 54
REMARK Flexibility Score: inf
ROOT
ATOM      1  C   UNL A   1      34.249  29.374  27.474  1.00  0.00     0.274 C 
ENDROOT
BRANCH   1   2
ATOM      2  O   UNL A   1      33.829  28.213  26.723  1.00  0.00    -0.460 OA
BRANCH   2   3
ATOM      3  C   UNL A   1      32.908  28.423  25.736  1.00  0.00     0.334 C 
ATOM      4  O   UNL A   1      32.186  29.412  25.710  1.00  0.00    -0.249 OA
BRANCH   3   5
ATOM      5  C   UNL A   1      32.798  27.234  24.747  1.00  0.00     0.163 C 
BRANCH   5   6
ATOM      6  C   UNL A   1      33.088  27.676  23.287  1.00  0.00     0.039 C 
ATOM      7  C   UNL A   1      34.242  28.658  23.124  1.00  0.00     0.007 C 
ENDBRANCH   5   6
BRANCH   5   8
ATOM      8  C   UNL A   1      33.897  26.201  25.212  1.00  0.00     0.039 C 
ATOM      9  C   UNL A   1      34.090  24.961  24.347  1.00  0.00     0.007 C 
ENDBRANCH   5   8
BRANCH   5  10
ATOM     10  N   UNL A   1      31.463  26.619  24.944  1.00  0.00    -0.212 N 
ATOM     11  N   UNL A   1      31.300  25.851  26.054  1.00  0.00    -0.044 NA
ATOM     12  C   UNL A   1      30.237  26.677  24.296  1.00  0.00     0.152 A 
ATOM     13  N   UNL A   1      30.023  25.544  26.120  1.00  0.00    -0.024 NA
ATOM     14  N   UNL A   1      29.358  26.054  25.059  1.00  0.00    -0.114 NA
BRANCH  12  15
ATOM     15  C   UNL A   1      29.829  27.345  23.029  1.00  0.00     0.082 C 
BRANCH  15  16
ATOM     16  C   UNL A   1      28.647  28.309  23.200  1.00  0.00     0.040 C 
BRANCH  16  17
ATOM     17  C   UNL A   1      28.902  29.765  22.786  1.00  0.00     0.118 C 
ATOM     18  C   UNL A   1      27.973  30.813  23.377  1.00  0.00     0.034 C 
ATOM     19  O   UNL A   1      28.700  29.851  21.356  1.00  0.00    -0.378 OA
ATOM     20  C   UNL A   1      28.008  31.900  22.333  1.00  0.00     0.031 C 
ATOM     21  C   UNL A   1      28.089  31.112  21.046  1.00  0.00     0.160 C 
ENDBRANCH  16  17
ENDBRANCH  15  16
ENDBRANCH  12  15
ENDBRANCH   5  10
ENDBRANCH   3   5
ENDBRANCH   2   3
ENDBRANCH   1   2
BRANCH   1  22
ATOM     22  C   UNL A   1      35.746  29.652  27.322  1.00  0.00     0.275 C 
BRANCH  22  23
ATOM     23  O   UNL A   1      36.516  28.972  28.328  1.00  0.00    -0.458 OA
BRANCH  23  24
ATOM     24  C   UNL A   1      37.464  29.728  28.924  1.00  0.00     0.338 C 
ATOM     25  O   UNL A   1      37.300  30.573  29.791  1.00  0.00    -0.246 OA
BRANCH  24  26
ATOM     26  C   UNL A   1      38.796  29.292  28.492  1.00  0.00     0.060 A 
ATOM     27  C   UNL A   1      39.727  29.013  29.487  1.00  0.00     0.016 A 
ATOM     28  C   UNL A   1      39.181  29.330  27.153  1.00  0.00     0.016 A 
ATOM     29  C   UNL A   1      41.071  28.882  29.166  1.00  0.00     0.010 A 
ATOM     30  C   UNL A   1      40.526  29.110  26.823  1.00  0.00     0.010 A 
ATOM     31  C   UNL A   1      41.491  28.927  27.832  1.00  0.00    -0.014 A 
BRANCH  31  32
ATOM     32  C   UNL A   1      42.944  28.842  27.524  1.00  0.00     0.031 A 
ATOM     33  C   UNL A   1      43.520  27.589  26.918  1.00  0.00     0.074 A 
ATOM     34  C   UNL A   1      43.741  29.914  27.714  1.00  0.00     0.049 A 
ATOM     35  N   UNL A   1      44.772  27.284  26.689  1.00  0.00    -0.248 NA
ATOM     36  C   UNL A   1      42.567  26.537  26.527  1.00  0.00     0.031 C 
ATOM     37  C   UNL A   1      43.305  31.216  28.224  1.00  0.00     0.029 A 
ATOM     38  N   UNL A   1      45.079  30.088  27.465  1.00  0.00    -0.354 N 
ATOM     39  C   UNL A   1      44.763  25.987  26.192  1.00  0.00     0.074 A 
ATOM     40  C   UNL A   1      43.380  25.565  26.135  1.00  0.00     0.031 C 
ATOM     41  C   UNL A   1      44.337  32.073  28.184  1.00  0.00     0.029 A 
ATOM     42  C   UNL A   1      45.525  31.361  27.726  1.00  0.00     0.049 A 
ATOM     43  H   UNL A   1      45.663  29.369  27.130  1.00  0.00     0.167 HD
ATOM     44  C   UNL A   1      45.814  25.212  25.829  1.00  0.00     0.031 A 
ATOM     45  C   UNL A   1      46.758  31.895  27.634  1.00  0.00     0.031 A 
ATOM     46  C   UNL A   1      47.184  25.649  25.835  1.00  0.00     0.049 A 
ATOM     47  C   UNL A   1      47.906  31.022  27.220  1.00  0.00     0.074 A 
ATOM     48  C   UNL A   1      48.323  24.928  25.517  1.00  0.00     0.029 A 
ATOM     49  N   UNL A   1      47.599  26.934  26.149  1.00  0.00    -0.354 N 
ATOM     50  N   UNL A   1      47.892  29.761  26.864  1.00  0.00    -0.248 NA
ATOM     51  C   UNL A   1      49.241  31.637  27.229  1.00  0.00     0.031 C 
ATOM     52  C   UNL A   1      49.430  25.775  25.656  1.00  0.00     0.029 A 
ATOM     53  C   UNL A   1      48.976  27.028  26.032  1.00  0.00     0.049 A 
ATOM     54  H   UNL A   1      47.003  27.671  26.415  1.00  0.00     0.167 HD
ATOM     55  C   UNL A   1      49.218  29.425  26.620  1.00  0.00     0.074 A 
ATOM     56  C   UNL A   1      50.003  30.623  26.838  1.00  0.00     0.031 C 
ATOM     57  C   UNL A   1      49.740  28.226  26.265  1.00  0.00     0.031 A 
BRANCH  44  58
ATOM     58  C   UNL A   1      45.519  23.788  25.453  1.00  0.00    -0.014 A 
ATOM     59  C   UNL A   1      45.445  22.770  26.420  1.00  0.00     0.010 A 
ATOM     60  C   UNL A   1      45.300  23.469  24.100  1.00  0.00     0.010 A 
ATOM     61  C   UNL A   1      45.191  21.450  26.034  1.00  0.00     0.020 A 
ATOM     62  C   UNL A   1      45.030  22.153  23.713  1.00  0.00     0.020 A 
ATOM     63  C   UNL A   1      44.998  21.148  24.682  1.00  0.00     0.054 A 
BRANCH  63  64
ATOM     64  S   UNL A   1      44.666  19.431  24.197  1.00  0.00     0.124 S 
ATOM     65  O   UNL A   1      44.535  19.550  22.747  1.00  0.00    -0.237 OA
ATOM     66  O   UNL A   1      45.856  18.723  24.663  1.00  0.00    -0.237 OA
ATOM     67  O   UNL A   1      43.433  19.105  24.910  1.00  0.00    -0.744 OA
ENDBRANCH  63  64
ENDBRANCH  44  58
BRANCH  45  68
ATOM     68  C   UNL A   1      46.969  33.323  27.989  1.00  0.00    -0.014 A 
ATOM     69  C   UNL A   1      47.296  33.690  29.305  1.00  0.00     0.010 A 
ATOM     70  C   UNL A   1      46.879  34.319  26.999  1.00  0.00     0.010 A 
ATOM     71  C   UNL A   1      47.530  35.031  29.627  1.00  0.00     0.020 A 
ATOM     72  C   UNL A   1      47.134  35.656  27.312  1.00  0.00     0.020 A 
ATOM     73  C   UNL A   1      47.449  36.006  28.628  1.00  0.00     0.054 A 
BRANCH  73  74
ATOM     74  S   UNL A   1      47.831  37.733  29.032  1.00  0.00     0.124 S 
ATOM     75  O   UNL A   1      49.039  37.595  29.838  1.00  0.00    -0.237 OA
ATOM     76  O   UNL A   1      48.014  38.344  27.717  1.00  0.00    -0.237 OA
ATOM     77  O   UNL A   1      46.640  38.178  29.753  1.00  0.00    -0.744 OA
ENDBRANCH  73  74
ENDBRANCH  45  68
BRANCH  57  78
ATOM     78  C   UNL A   1      51.229  28.155  26.099  1.00  0.00    -0.014 A 
ATOM     79  C   UNL A   1      52.047  27.754  27.169  1.00  0.00     0.010 A 
ATOM     80  C   UNL A   1      51.813  28.456  24.856  1.00  0.00     0.010 A 
ATOM     81  C   UNL A   1      53.433  27.678  27.007  1.00  0.00     0.020 A 
ATOM     82  C   UNL A   1      53.197  28.367  24.687  1.00  0.00     0.020 A 
ATOM     83  C   UNL A   1      54.000  27.992  25.768  1.00  0.00     0.054 A 
BRANCH  83  84
ATOM     84  S   UNL A   1      55.797  27.852  25.561  1.00  0.00     0.124 S 
ATOM     85  O   UNL A   1      56.126  26.783  26.499  1.00  0.00    -0.237 OA
ATOM     86  O   UNL A   1      55.937  27.512  24.147  1.00  0.00    -0.237 OA
ATOM     87  O   UNL A   1      56.289  29.178  25.926  1.00  0.00    -0.744 OA
ENDBRANCH  83  84
ENDBRANCH  57  78
ENDBRANCH  31  32
ENDBRANCH  24  26
ENDBRANCH  23  24
ENDBRANCH  22  23
ENDBRANCH   1  22
TORSDOF 20
ENDMDL
