MODEL 1
REMARK VINA RESULT:     -12.5      0.000      0.000
REMARK SMILES Cc1cc(C(=O)OCCOC(=O)c2ccc(-c3c4nc(c(-c5ccc(S(=O)(=O)[O-])cc5)c5ccc([nH]5)c(-c5ccc(S(=O)(=O)[O-])cc5)c5nc(c(-c6ccc(S(=O)(=O)[O-])cc6)c6ccc3[nH]6)C=C5)C=C4)cc2)ccc1NS(=O)(=O)c1ccc(C#N)cc1C
REMARK SMILES IDX 8 1 7 2 5 3 6 4 4 5 1 6 2 7 3 8 75 9 74 10 73 11 76 12 77 14
REMARK SMILES IDX 78 15 79 16 80 17 81 18 87 19 82 20 86 21 88 22 83 23 84 24
REMARK SMILES IDX 85 25 9 26 10 27 11 28 12 29 13 30 14 31 72 32 15 33 71 34
REMARK SMILES IDX 16 35 17 36 18 37 65 38 19 39 70 40 64 41 66 42 20 43 69 44
REMARK SMILES IDX 63 45 62 46 21 48 51 49 32 50 50 51 33 52 36 53 49 54 67 55
REMARK SMILES IDX 34 56 35 57 48 59 68 60 37 61 22 62 23 63 31 64 24 65 30 66
REMARK SMILES IDX 25 67 26 68 27 69 28 70 29 71 52 72 53 73 61 74 54 75 60 76
REMARK SMILES IDX 55 77 56 78 57 79 58 80 59 81 38 82 39 83 47 84 40 85 46 86
REMARK SMILES IDX 41 87 42 88 43 89 44 90 45 91
REMARK H PARENT 76 13 66 47 36 58
REMARK Flexibility Score: inf
ROOT
ATOM      1  C   UNL A   1      37.565  22.222  25.745  1.00  0.00     0.275 C 
ENDROOT
BRANCH   1   2
ATOM      2  O   UNL A   1      37.290  21.866  24.379  1.00  0.00    -0.458 OA
BRANCH   2   3
ATOM      3  C   UNL A   1      36.405  22.675  23.752  1.00  0.00     0.338 C 
ATOM      4  O   UNL A   1      36.551  23.201  22.656  1.00  0.00    -0.246 OA
BRANCH   3   5
ATOM      5  C   UNL A   1      35.271  23.070  24.602  1.00  0.00     0.060 A 
ATOM      6  C   UNL A   1      31.770  21.802  25.359  1.00  0.00     0.046 C 
ATOM      7  C   UNL A   1      32.898  22.745  25.040  1.00  0.00    -0.026 A 
ATOM      8  C   UNL A   1      34.172  22.224  24.800  1.00  0.00     0.021 A 
ATOM      9  C   UNL A   1      32.746  24.124  24.895  1.00  0.00     0.052 A 
ATOM     10  C   UNL A   1      33.862  24.960  25.015  1.00  0.00     0.028 A 
ATOM     11  C   UNL A   1      35.137  24.432  24.833  1.00  0.00     0.018 A 
BRANCH   9  12
ATOM     12  N   UNL A   1      31.510  24.588  24.355  1.00  0.00    -0.279 N 
ATOM     13  H   UNL A   1      31.286  24.321  23.434  1.00  0.00     0.180 HD
BRANCH  12  14
ATOM     14  S   UNL A   1      30.415  25.553  25.172  1.00  0.00     0.262 S 
ATOM     15  O   UNL A   1      29.355  25.851  24.233  1.00  0.00    -0.201 OA
ATOM     16  O   UNL A   1      30.137  24.872  26.422  1.00  0.00    -0.201 OA
BRANCH  14  17
ATOM     17  C   UNL A   1      31.181  27.134  25.598  1.00  0.00     0.090 A 
ATOM     18  C   UNL A   1      31.469  27.469  26.932  1.00  0.00     0.024 A 
ATOM     19  C   UNL A   1      31.311  28.115  24.593  1.00  0.00    -0.029 A 
ATOM     20  C   UNL A   1      31.706  28.806  27.289  1.00  0.00     0.021 A 
ATOM     21  C   UNL A   1      31.552  29.450  24.972  1.00  0.00     0.024 A 
ATOM     22  C   UNL A   1      31.261  27.825  23.117  1.00  0.00     0.046 C 
ATOM     23  C   UNL A   1      31.702  29.805  26.315  1.00  0.00     0.052 A 
BRANCH  23  24
ATOM     24  C   UNL A   1      31.808  31.197  26.673  1.00  0.00     0.099 C 
ATOM     25  N   UNL A   1      31.954  32.309  26.935  1.00  0.00    -0.192 NA
ENDBRANCH  23  24
ENDBRANCH  14  17
ENDBRANCH  12  14
ENDBRANCH   9  12
ENDBRANCH   3   5
ENDBRANCH   2   3
ENDBRANCH   1   2
BRANCH   1  26
ATOM     26  C   UNL A   1      38.487  23.458  25.861  1.00  0.00     0.275 C 
BRANCH  26  27
ATOM     27  O   UNL A   1      38.430  24.317  27.027  1.00  0.00    -0.458 OA
BRANCH  27  28
ATOM     28  C   UNL A   1      39.609  24.724  27.565  1.00  0.00     0.338 C 
ATOM     29  O   UNL A   1      40.668  24.156  27.368  1.00  0.00    -0.246 OA
BRANCH  28  30
ATOM     30  C   UNL A   1      39.442  26.113  28.068  1.00  0.00     0.060 A 
ATOM     31  C   UNL A   1      39.048  26.299  29.396  1.00  0.00     0.016 A 
ATOM     32  C   UNL A   1      40.063  27.139  27.357  1.00  0.00     0.016 A 
ATOM     33  C   UNL A   1      39.395  27.454  30.075  1.00  0.00     0.010 A 
ATOM     34  C   UNL A   1      40.590  28.181  28.060  1.00  0.00     0.010 A 
ATOM     35  C   UNL A   1      40.190  28.364  29.392  1.00  0.00    -0.014 A 
BRANCH  35  36
ATOM     36  C   UNL A   1      40.311  29.751  29.781  1.00  0.00     0.031 A 
ATOM     37  C   UNL A   1      39.177  30.653  29.508  1.00  0.00     0.074 A 
ATOM     38  C   UNL A   1      41.431  29.856  30.544  1.00  0.00     0.049 A 
ATOM     39  N   UNL A   1      39.263  31.927  29.403  1.00  0.00    -0.248 NA
ATOM     40  C   UNL A   1      37.805  30.194  29.232  1.00  0.00     0.031 C 
ATOM     41  C   UNL A   1      41.938  30.816  31.500  1.00  0.00     0.029 A 
ATOM     42  N   UNL A   1      42.506  28.949  30.441  1.00  0.00    -0.354 N 
ATOM     43  C   UNL A   1      37.978  32.418  29.571  1.00  0.00     0.074 A 
ATOM     44  C   UNL A   1      37.108  31.340  29.202  1.00  0.00     0.031 C 
ATOM     45  C   UNL A   1      43.281  30.665  31.586  1.00  0.00     0.029 A 
ATOM     46  C   UNL A   1      43.688  29.640  30.622  1.00  0.00     0.049 A 
ATOM     47  H   UNL A   1      42.426  27.983  30.271  1.00  0.00     0.167 HD
ATOM     48  C   UNL A   1      37.820  33.571  30.283  1.00  0.00     0.031 A 
ATOM     49  C   UNL A   1      44.414  29.835  29.479  1.00  0.00     0.031 A 
ATOM     50  C   UNL A   1      39.144  34.026  30.706  1.00  0.00     0.049 A 
ATOM     51  C   UNL A   1      44.214  31.274  29.057  1.00  0.00     0.074 A 
ATOM     52  C   UNL A   1      39.843  33.835  31.886  1.00  0.00     0.029 A 
ATOM     53  N   UNL A   1      40.080  34.335  29.731  1.00  0.00    -0.354 N 
ATOM     54  N   UNL A   1      43.086  31.936  29.145  1.00  0.00    -0.248 NA
ATOM     55  C   UNL A   1      45.357  32.119  28.737  1.00  0.00     0.031 C 
ATOM     56  C   UNL A   1      41.230  33.922  31.571  1.00  0.00     0.029 A 
ATOM     57  C   UNL A   1      41.360  34.105  30.202  1.00  0.00     0.049 A 
ATOM     58  H   UNL A   1      39.864  34.672  28.832  1.00  0.00     0.167 HD
ATOM     59  C   UNL A   1      43.361  33.277  29.058  1.00  0.00     0.074 A 
ATOM     60  C   UNL A   1      44.789  33.333  28.767  1.00  0.00     0.031 C 
ATOM     61  C   UNL A   1      42.491  34.302  29.309  1.00  0.00     0.031 A 
BRANCH  48  62
ATOM     62  C   UNL A   1      36.552  34.141  30.887  1.00  0.00    -0.014 A 
ATOM     63  C   UNL A   1      35.433  34.290  30.034  1.00  0.00     0.010 A 
ATOM     64  C   UNL A   1      36.370  34.553  32.222  1.00  0.00     0.010 A 
ATOM     65  C   UNL A   1      34.221  34.842  30.462  1.00  0.00     0.020 A 
ATOM     66  C   UNL A   1      35.149  35.109  32.668  1.00  0.00     0.020 A 
ATOM     67  C   UNL A   1      34.083  35.253  31.782  1.00  0.00     0.054 A 
BRANCH  67  68
ATOM     68  S   UNL A   1      32.487  35.948  32.296  1.00  0.00     0.124 S 
ATOM     69  O   UNL A   1      32.881  36.903  33.330  1.00  0.00    -0.237 OA
ATOM     70  O   UNL A   1      31.985  36.537  31.058  1.00  0.00    -0.237 OA
ATOM     71  O   UNL A   1      31.741  34.788  32.778  1.00  0.00    -0.744 OA
ENDBRANCH  67  68
ENDBRANCH  48  62
BRANCH  49  72
ATOM     72  C   UNL A   1      44.522  28.610  28.591  1.00  0.00    -0.014 A 
ATOM     73  C   UNL A   1      44.160  28.769  27.225  1.00  0.00     0.010 A 
ATOM     74  C   UNL A   1      45.176  27.417  28.940  1.00  0.00     0.010 A 
ATOM     75  C   UNL A   1      44.550  27.856  26.235  1.00  0.00     0.020 A 
ATOM     76  C   UNL A   1      45.542  26.471  27.948  1.00  0.00     0.020 A 
ATOM     77  C   UNL A   1      45.256  26.715  26.599  1.00  0.00     0.054 A 
BRANCH  77  78
ATOM     78  S   UNL A   1      46.000  25.704  25.267  1.00  0.00     0.124 S 
ATOM     79  O   UNL A   1      46.486  26.720  24.339  1.00  0.00    -0.237 OA
ATOM     80  O   UNL A   1      47.037  24.970  25.989  1.00  0.00    -0.237 OA
ATOM     81  O   UNL A   1      44.873  24.906  24.791  1.00  0.00    -0.744 OA
ENDBRANCH  77  78
ENDBRANCH  49  72
BRANCH  61  82
ATOM     82  C   UNL A   1      42.681  35.683  28.737  1.00  0.00    -0.014 A 
ATOM     83  C   UNL A   1      43.274  36.724  29.461  1.00  0.00     0.010 A 
ATOM     84  C   UNL A   1      42.415  35.915  27.366  1.00  0.00     0.010 A 
ATOM     85  C   UNL A   1      43.464  37.979  28.889  1.00  0.00     0.020 A 
ATOM     86  C   UNL A   1      42.692  37.134  26.758  1.00  0.00     0.020 A 
ATOM     87  C   UNL A   1      43.163  38.176  27.543  1.00  0.00     0.054 A 
BRANCH  87  88
ATOM     88  S   UNL A   1      43.400  39.812  26.833  1.00  0.00     0.124 S 
ATOM     89  O   UNL A   1      42.121  40.025  26.162  1.00  0.00    -0.237 OA
ATOM     90  O   UNL A   1      43.636  40.642  28.013  1.00  0.00    -0.237 OA
ATOM     91  O   UNL A   1      44.553  39.643  25.954  1.00  0.00    -0.744 OA
ENDBRANCH  87  88
ENDBRANCH  61  82
ENDBRANCH  35  36
ENDBRANCH  28  30
ENDBRANCH  27  28
ENDBRANCH  26  27
ENDBRANCH   1  26
TORSDOF 18
ENDMDL
MODEL 2
REMARK VINA RESULT:     -12.3      4.710     11.253
REMARK SMILES Cc1cc(C(=O)OCCOC(=O)c2ccc(-c3c4nc(c(-c5ccc(S(=O)(=O)[O-])cc5)c5ccc([nH]5)c(-c5ccc(S(=O)(=O)[O-])cc5)c5nc(c(-c6ccc(S(=O)(=O)[O-])cc6)c6ccc3[nH]6)C=C5)C=C4)cc2)ccc1NS(=O)(=O)c1ccc(C#N)cc1C
REMARK SMILES IDX 8 1 7 2 5 3 6 4 4 5 1 6 2 7 3 8 75 9 74 10 73 11 76 12 77 14
REMARK SMILES IDX 78 15 79 16 80 17 81 18 87 19 82 20 86 21 88 22 83 23 84 24
REMARK SMILES IDX 85 25 9 26 10 27 11 28 12 29 13 30 14 31 72 32 15 33 71 34
REMARK SMILES IDX 16 35 17 36 18 37 65 38 19 39 70 40 64 41 66 42 20 43 69 44
REMARK SMILES IDX 63 45 62 46 21 48 51 49 32 50 50 51 33 52 36 53 49 54 67 55
REMARK SMILES IDX 34 56 35 57 48 59 68 60 37 61 22 62 23 63 31 64 24 65 30 66
REMARK SMILES IDX 25 67 26 68 27 69 28 70 29 71 52 72 53 73 61 74 54 75 60 76
REMARK SMILES IDX 55 77 56 78 57 79 58 80 59 81 38 82 39 83 47 84 40 85 46 86
REMARK SMILES IDX 41 87 42 88 43 89 44 90 45 91
REMARK H PARENT 76 13 66 47 36 58
REMARK Flexibility Score: inf
ROOT
ATOM      1  C   UNL A   1      33.684  29.777  26.736  1.00  0.00     0.275 C 
ENDROOT
BRANCH   1   2
ATOM      2  O   UNL A   1      33.369  29.463  25.369  1.00  0.00    -0.458 OA
BRANCH   2   3
ATOM      3  C   UNL A   1      32.103  29.762  24.997  1.00  0.00     0.338 C 
ATOM      4  O   UNL A   1      31.377  30.606  25.505  1.00  0.00    -0.246 OA
BRANCH   3   5
ATOM      5  C   UNL A   1      31.545  28.820  24.015  1.00  0.00     0.060 A 
ATOM      6  C   UNL A   1      28.597  26.432  23.792  1.00  0.00     0.046 C 
ATOM      7  C   UNL A   1      29.998  26.969  23.681  1.00  0.00    -0.026 A 
ATOM      8  C   UNL A   1      30.282  28.239  24.188  1.00  0.00     0.021 A 
ATOM      9  C   UNL A   1      31.071  26.247  23.159  1.00  0.00     0.052 A 
ATOM     10  C   UNL A   1      32.209  26.927  22.709  1.00  0.00     0.028 A 
ATOM     11  C   UNL A   1      32.465  28.216  23.169  1.00  0.00     0.018 A 
BRANCH   9  12
ATOM     12  N   UNL A   1      31.069  24.836  23.368  1.00  0.00    -0.279 N 
ATOM     13  H   UNL A   1      30.730  24.268  22.640  1.00  0.00     0.180 HD
BRANCH  12  14
ATOM     14  S   UNL A   1      31.599  24.078  24.762  1.00  0.00     0.262 S 
ATOM     15  O   UNL A   1      31.456  25.044  25.830  1.00  0.00    -0.201 OA
ATOM     16  O   UNL A   1      30.910  22.803  24.810  1.00  0.00    -0.201 OA
BRANCH  14  17
ATOM     17  C   UNL A   1      33.364  23.713  24.634  1.00  0.00     0.090 A 
ATOM     18  C   UNL A   1      33.821  22.501  24.089  1.00  0.00     0.024 A 
ATOM     19  C   UNL A   1      34.281  24.577  25.269  1.00  0.00    -0.029 A 
ATOM     20  C   UNL A   1      35.135  22.069  24.330  1.00  0.00     0.021 A 
ATOM     21  C   UNL A   1      35.596  24.126  25.498  1.00  0.00     0.024 A 
ATOM     22  C   UNL A   1      33.966  25.990  25.679  1.00  0.00     0.046 C 
ATOM     23  C   UNL A   1      36.011  22.860  25.075  1.00  0.00     0.052 A 
BRANCH  23  24
ATOM     24  C   UNL A   1      37.317  22.380  25.449  1.00  0.00     0.099 C 
ATOM     25  N   UNL A   1      38.371  22.054  25.780  1.00  0.00    -0.192 NA
ENDBRANCH  23  24
ENDBRANCH  14  17
ENDBRANCH  12  14
ENDBRANCH   9  12
ENDBRANCH   3   5
ENDBRANCH   2   3
ENDBRANCH   1   2
BRANCH   1  26
ATOM     26  C   UNL A   1      35.022  29.153  27.195  1.00  0.00     0.275 C 
BRANCH  26  27
ATOM     27  O   UNL A   1      36.233  29.948  27.243  1.00  0.00    -0.458 OA
BRANCH  27  28
ATOM     28  C   UNL A   1      36.862  30.063  28.441  1.00  0.00     0.338 C 
ATOM     29  O   UNL A   1      36.363  30.603  29.411  1.00  0.00    -0.246 OA
BRANCH  28  30
ATOM     30  C   UNL A   1      38.016  29.126  28.459  1.00  0.00     0.060 A 
ATOM     31  C   UNL A   1      39.005  29.266  27.481  1.00  0.00     0.016 A 
ATOM     32  C   UNL A   1      38.276  28.440  29.644  1.00  0.00     0.016 A 
ATOM     33  C   UNL A   1      40.302  28.854  27.732  1.00  0.00     0.010 A 
ATOM     34  C   UNL A   1      39.577  28.221  29.988  1.00  0.00     0.010 A 
ATOM     35  C   UNL A   1      40.565  28.362  29.003  1.00  0.00    -0.014 A 
BRANCH  35  36
ATOM     36  C   UNL A   1      41.717  27.544  29.307  1.00  0.00     0.031 A 
ATOM     37  C   UNL A   1      41.695  26.128  28.897  1.00  0.00     0.074 A 
ATOM     38  C   UNL A   1      42.699  28.379  29.741  1.00  0.00     0.049 A 
ATOM     39  N   UNL A   1      42.404  25.200  29.425  1.00  0.00    -0.248 NA
ATOM     40  C   UNL A   1      40.782  25.577  27.880  1.00  0.00     0.031 C 
ATOM     41  C   UNL A   1      44.137  28.296  29.873  1.00  0.00     0.029 A 
ATOM     42  N   UNL A   1      42.422  29.634  30.322  1.00  0.00    -0.354 N 
ATOM     43  C   UNL A   1      42.413  24.153  28.516  1.00  0.00     0.074 A 
ATOM     44  C   UNL A   1      41.222  24.318  27.736  1.00  0.00     0.031 C 
ATOM     45  C   UNL A   1      44.536  29.214  30.786  1.00  0.00     0.029 A 
ATOM     46  C   UNL A   1      43.343  29.870  31.325  1.00  0.00     0.049 A 
ATOM     47  H   UNL A   1      41.696  30.242  30.056  1.00  0.00     0.167 HD
ATOM     48  C   UNL A   1      43.575  23.459  28.350  1.00  0.00     0.031 A 
ATOM     49  C   UNL A   1      42.846  29.748  32.594  1.00  0.00     0.031 A 
ATOM     50  C   UNL A   1      44.579  24.036  29.245  1.00  0.00     0.049 A 
ATOM     51  C   UNL A   1      43.329  28.423  33.142  1.00  0.00     0.074 A 
ATOM     52  C   UNL A   1      45.556  24.991  29.028  1.00  0.00     0.029 A 
ATOM     53  N   UNL A   1      44.340  24.009  30.610  1.00  0.00    -0.354 N 
ATOM     54  N   UNL A   1      43.431  27.313  32.452  1.00  0.00    -0.248 NA
ATOM     55  C   UNL A   1      43.959  28.348  34.454  1.00  0.00     0.031 C 
ATOM     56  C   UNL A   1      45.816  25.619  30.280  1.00  0.00     0.029 A 
ATOM     57  C   UNL A   1      44.956  25.083  31.228  1.00  0.00     0.049 A 
ATOM     58  H   UNL A   1      43.809  23.322  31.075  1.00  0.00     0.167 HD
ATOM     59  C   UNL A   1      44.253  26.451  33.133  1.00  0.00     0.074 A 
ATOM     60  C   UNL A   1      44.525  27.134  34.392  1.00  0.00     0.031 C 
ATOM     61  C   UNL A   1      44.773  25.279  32.657  1.00  0.00     0.031 A 
BRANCH  48  62
ATOM     62  C   UNL A   1      43.958  22.516  27.228  1.00  0.00    -0.014 A 
ATOM     63  C   UNL A   1      43.072  21.452  26.938  1.00  0.00     0.010 A 
ATOM     64  C   UNL A   1      45.122  22.581  26.437  1.00  0.00     0.010 A 
ATOM     65  C   UNL A   1      43.333  20.492  25.954  1.00  0.00     0.020 A 
ATOM     66  C   UNL A   1      45.397  21.619  25.438  1.00  0.00     0.020 A 
ATOM     67  C   UNL A   1      44.500  20.578  25.206  1.00  0.00     0.054 A 
BRANCH  67  68
ATOM     68  S   UNL A   1      44.790  19.321  23.930  1.00  0.00     0.124 S 
ATOM     69  O   UNL A   1      46.194  18.975  24.146  1.00  0.00    -0.237 OA
ATOM     70  O   UNL A   1      43.827  18.282  24.286  1.00  0.00    -0.237 OA
ATOM     71  O   UNL A   1      44.511  20.023  22.680  1.00  0.00    -0.744 OA
ENDBRANCH  67  68
ENDBRANCH  48  62
BRANCH  49  72
ATOM     72  C   UNL A   1      41.495  30.405  32.802  1.00  0.00    -0.014 A 
ATOM     73  C   UNL A   1      40.459  29.595  33.342  1.00  0.00     0.010 A 
ATOM     74  C   UNL A   1      41.254  31.788  32.741  1.00  0.00     0.010 A 
ATOM     75  C   UNL A   1      39.303  30.141  33.919  1.00  0.00     0.020 A 
ATOM     76  C   UNL A   1      40.070  32.344  33.292  1.00  0.00     0.020 A 
ATOM     77  C   UNL A   1      39.120  31.519  33.907  1.00  0.00     0.054 A 
BRANCH  77  78
ATOM     78  S   UNL A   1      37.764  32.214  34.919  1.00  0.00     0.124 S 
ATOM     79  O   UNL A   1      36.618  32.108  34.021  1.00  0.00    -0.237 OA
ATOM     80  O   UNL A   1      37.746  31.306  36.065  1.00  0.00    -0.237 OA
ATOM     81  O   UNL A   1      38.222  33.573  35.195  1.00  0.00    -0.744 OA
ENDBRANCH  77  78
ENDBRANCH  49  72
BRANCH  61  82
ATOM     82  C   UNL A   1      45.234  24.171  33.567  1.00  0.00    -0.014 A 
ATOM     83  C   UNL A   1      46.566  24.040  33.982  1.00  0.00     0.010 A 
ATOM     84  C   UNL A   1      44.279  23.320  34.174  1.00  0.00     0.010 A 
ATOM     85  C   UNL A   1      46.950  23.022  34.851  1.00  0.00     0.020 A 
ATOM     86  C   UNL A   1      44.638  22.364  35.117  1.00  0.00     0.020 A 
ATOM     87  C   UNL A   1      45.983  22.187  35.404  1.00  0.00     0.054 A 
BRANCH  87  88
ATOM     88  S   UNL A   1      46.508  20.868  36.510  1.00  0.00     0.124 S 
ATOM     89  O   UNL A   1      45.654  21.104  37.670  1.00  0.00    -0.237 OA
ATOM     90  O   UNL A   1      46.202  19.663  35.740  1.00  0.00    -0.237 OA
ATOM     91  O   UNL A   1      47.930  21.130  36.710  1.00  0.00    -0.744 OA
ENDBRANCH  87  88
ENDBRANCH  61  82
ENDBRANCH  35  36
ENDBRANCH  28  30
ENDBRANCH  27  28
ENDBRANCH  26  27
ENDBRANCH   1  26
TORSDOF 18
ENDMDL
MODEL 3
REMARK VINA RESULT:     -12.2      4.679     11.486
REMARK SMILES Cc1cc(C(=O)OCCOC(=O)c2ccc(-c3c4nc(c(-c5ccc(S(=O)(=O)[O-])cc5)c5ccc([nH]5)c(-c5ccc(S(=O)(=O)[O-])cc5)c5nc(c(-c6ccc(S(=O)(=O)[O-])cc6)c6ccc3[nH]6)C=C5)C=C4)cc2)ccc1NS(=O)(=O)c1ccc(C#N)cc1C
REMARK SMILES IDX 8 1 7 2 5 3 6 4 4 5 1 6 2 7 3 8 75 9 74 10 73 11 76 12 77 14
REMARK SMILES IDX 78 15 79 16 80 17 81 18 87 19 82 20 86 21 88 22 83 23 84 24
REMARK SMILES IDX 85 25 9 26 10 27 11 28 12 29 13 30 14 31 72 32 15 33 71 34
REMARK SMILES IDX 16 35 17 36 18 37 65 38 19 39 70 40 64 41 66 42 20 43 69 44
REMARK SMILES IDX 63 45 62 46 21 48 51 49 32 50 50 51 33 52 36 53 49 54 67 55
REMARK SMILES IDX 34 56 35 57 48 59 68 60 37 61 22 62 23 63 31 64 24 65 30 66
REMARK SMILES IDX 25 67 26 68 27 69 28 70 29 71 52 72 53 73 61 74 54 75 60 76
REMARK SMILES IDX 55 77 56 78 57 79 58 80 59 81 38 82 39 83 47 84 40 85 46 86
REMARK SMILES IDX 41 87 42 88 43 89 44 90 45 91
REMARK H PARENT 76 13 66 47 36 58
REMARK Flexibility Score: inf
ROOT
ATOM      1  C   UNL A   1      33.646  30.781  27.276  1.00  0.00     0.275 C 
ENDROOT
BRANCH   1   2
ATOM      2  O   UNL A   1      32.985  30.298  26.093  1.00  0.00    -0.458 OA
BRANCH   2   3
ATOM      3  C   UNL A   1      32.168  29.239  26.295  1.00  0.00     0.338 C 
ATOM      4  O   UNL A   1      31.497  29.019  27.294  1.00  0.00    -0.246 OA
BRANCH   3   5
ATOM      5  C   UNL A   1      32.292  28.200  25.259  1.00  0.00     0.060 A 
ATOM      6  C   UNL A   1      30.441  25.047  24.226  1.00  0.00     0.046 C 
ATOM      7  C   UNL A   1      31.571  25.982  24.563  1.00  0.00    -0.026 A 
ATOM      8  C   UNL A   1      31.275  27.264  25.033  1.00  0.00     0.021 A 
ATOM      9  C   UNL A   1      32.919  25.629  24.504  1.00  0.00     0.052 A 
ATOM     10  C   UNL A   1      33.893  26.631  24.421  1.00  0.00     0.028 A 
ATOM     11  C   UNL A   1      33.585  27.923  24.836  1.00  0.00     0.018 A 
BRANCH   9  12
ATOM     12  N   UNL A   1      33.252  24.277  24.813  1.00  0.00    -0.279 N 
ATOM     13  H   UNL A   1      32.828  23.872  25.603  1.00  0.00     0.180 HD
BRANCH  12  14
ATOM     14  S   UNL A   1      34.310  23.330  23.929  1.00  0.00     0.262 S 
ATOM     15  O   UNL A   1      33.968  23.528  22.537  1.00  0.00    -0.201 OA
ATOM     16  O   UNL A   1      35.636  23.643  24.425  1.00  0.00    -0.201 OA
BRANCH  14  17
ATOM     17  C   UNL A   1      34.020  21.582  24.284  1.00  0.00     0.090 A 
ATOM     18  C   UNL A   1      34.994  20.796  24.923  1.00  0.00     0.024 A 
ATOM     19  C   UNL A   1      32.878  20.961  23.737  1.00  0.00    -0.029 A 
ATOM     20  C   UNL A   1      34.924  19.395  24.860  1.00  0.00     0.021 A 
ATOM     21  C   UNL A   1      32.826  19.555  23.686  1.00  0.00     0.024 A 
ATOM     22  C   UNL A   1      31.667  21.705  23.242  1.00  0.00     0.046 C 
ATOM     23  C   UNL A   1      33.863  18.772  24.200  1.00  0.00     0.052 A 
BRANCH  23  24
ATOM     24  C   UNL A   1      33.839  17.345  24.005  1.00  0.00     0.099 C 
ATOM     25  N   UNL A   1      33.757  16.204  23.870  1.00  0.00    -0.192 NA
ENDBRANCH  23  24
ENDBRANCH  14  17
ENDBRANCH  12  14
ENDBRANCH   9  12
ENDBRANCH   3   5
ENDBRANCH   2   3
ENDBRANCH   1   2
BRANCH   1  26
ATOM     26  C   UNL A   1      34.659  29.762  27.847  1.00  0.00     0.275 C 
BRANCH  26  27
ATOM     27  O   UNL A   1      36.003  29.676  27.311  1.00  0.00    -0.458 OA
BRANCH  27  28
ATOM     28  C   UNL A   1      37.007  30.227  28.041  1.00  0.00     0.338 C 
ATOM     29  O   UNL A   1      36.857  31.194  28.766  1.00  0.00    -0.246 OA
BRANCH  28  30
ATOM     30  C   UNL A   1      38.136  29.261  28.095  1.00  0.00     0.060 A 
ATOM     31  C   UNL A   1      39.164  29.382  27.156  1.00  0.00     0.016 A 
ATOM     32  C   UNL A   1      38.334  28.562  29.285  1.00  0.00     0.016 A 
ATOM     33  C   UNL A   1      40.440  28.935  27.453  1.00  0.00     0.010 A 
ATOM     34  C   UNL A   1      39.615  28.307  29.675  1.00  0.00     0.010 A 
ATOM     35  C   UNL A   1      40.643  28.429  28.729  1.00  0.00    -0.014 A 
BRANCH  35  36
ATOM     36  C   UNL A   1      41.761  27.579  29.070  1.00  0.00     0.031 A 
ATOM     37  C   UNL A   1      41.710  26.162  28.666  1.00  0.00     0.074 A 
ATOM     38  C   UNL A   1      42.754  28.388  29.528  1.00  0.00     0.049 A 
ATOM     39  N   UNL A   1      42.376  25.218  29.219  1.00  0.00    -0.248 NA
ATOM     40  C   UNL A   1      40.811  25.633  27.626  1.00  0.00     0.031 C 
ATOM     41  C   UNL A   1      44.185  28.264  29.701  1.00  0.00     0.029 A 
ATOM     42  N   UNL A   1      42.498  29.654  30.095  1.00  0.00    -0.354 N 
ATOM     43  C   UNL A   1      42.381  24.166  28.316  1.00  0.00     0.074 A 
ATOM     44  C   UNL A   1      41.219  24.361  27.500  1.00  0.00     0.031 C 
ATOM     45  C   UNL A   1      44.584  29.175  30.621  1.00  0.00     0.029 A 
ATOM     46  C   UNL A   1      43.396  29.869  31.123  1.00  0.00     0.049 A 
ATOM     47  H   UNL A   1      41.797  30.281  29.805  1.00  0.00     0.167 HD
ATOM     48  C   UNL A   1      43.527  23.437  28.186  1.00  0.00     0.031 A 
ATOM     49  C   UNL A   1      42.859  29.768  32.377  1.00  0.00     0.031 A 
ATOM     50  C   UNL A   1      44.520  23.990  29.107  1.00  0.00     0.049 A 
ATOM     51  C   UNL A   1      43.287  28.433  32.946  1.00  0.00     0.074 A 
ATOM     52  C   UNL A   1      45.531  24.916  28.913  1.00  0.00     0.029 A 
ATOM     53  N   UNL A   1      44.242  23.977  30.465  1.00  0.00    -0.354 N 
ATOM     54  N   UNL A   1      43.377  27.317  32.264  1.00  0.00    -0.248 NA
ATOM     55  C   UNL A   1      43.877  28.347  34.275  1.00  0.00     0.031 C 
ATOM     56  C   UNL A   1      45.773  25.542  30.170  1.00  0.00     0.029 A 
ATOM     57  C   UNL A   1      44.871  25.037  31.095  1.00  0.00     0.049 A 
ATOM     58  H   UNL A   1      43.678  23.309  30.918  1.00  0.00     0.167 HD
ATOM     59  C   UNL A   1      44.154  26.435  32.972  1.00  0.00     0.074 A 
ATOM     60  C   UNL A   1      44.409  27.117  34.236  1.00  0.00     0.031 C 
ATOM     61  C   UNL A   1      44.653  25.246  32.518  1.00  0.00     0.031 A 
BRANCH  48  62
ATOM     62  C   UNL A   1      43.914  22.477  27.080  1.00  0.00    -0.014 A 
ATOM     63  C   UNL A   1      43.128  21.312  26.922  1.00  0.00     0.010 A 
ATOM     64  C   UNL A   1      44.993  22.619  26.186  1.00  0.00     0.010 A 
ATOM     65  C   UNL A   1      43.409  20.330  25.965  1.00  0.00     0.020 A 
ATOM     66  C   UNL A   1      45.286  21.637  25.212  1.00  0.00     0.020 A 
ATOM     67  C   UNL A   1      44.492  20.496  25.112  1.00  0.00     0.054 A 
BRANCH  67  68
ATOM     68  S   UNL A   1      44.809  19.205  23.876  1.00  0.00     0.124 S 
ATOM     69  O   UNL A   1      43.871  18.156  24.271  1.00  0.00    -0.237 OA
ATOM     70  O   UNL A   1      44.496  19.886  22.622  1.00  0.00    -0.237 OA
ATOM     71  O   UNL A   1      46.220  18.878  24.068  1.00  0.00    -0.744 OA
ENDBRANCH  67  68
ENDBRANCH  48  62
BRANCH  49  72
ATOM     72  C   UNL A   1      41.522  30.465  32.543  1.00  0.00    -0.014 A 
ATOM     73  C   UNL A   1      40.417  29.659  32.932  1.00  0.00     0.010 A 
ATOM     74  C   UNL A   1      41.340  31.858  32.588  1.00  0.00     0.010 A 
ATOM     75  C   UNL A   1      39.242  30.205  33.469  1.00  0.00     0.020 A 
ATOM     76  C   UNL A   1      40.139  32.417  33.097  1.00  0.00     0.020 A 
ATOM     77  C   UNL A   1      39.114  31.586  33.566  1.00  0.00     0.054 A 
BRANCH  77  78
ATOM     78  S   UNL A   1      37.711  32.253  34.533  1.00  0.00     0.124 S 
ATOM     79  O   UNL A   1      38.115  33.637  34.756  1.00  0.00    -0.237 OA
ATOM     80  O   UNL A   1      36.593  32.069  33.609  1.00  0.00    -0.237 OA
ATOM     81  O   UNL A   1      37.697  31.403  35.721  1.00  0.00    -0.744 OA
ENDBRANCH  77  78
ENDBRANCH  49  72
BRANCH  61  82
ATOM     82  C   UNL A   1      45.056  24.131  33.445  1.00  0.00    -0.014 A 
ATOM     83  C   UNL A   1      46.317  24.072  34.052  1.00  0.00     0.010 A 
ATOM     84  C   UNL A   1      44.088  23.188  33.869  1.00  0.00     0.010 A 
ATOM     85  C   UNL A   1      46.643  23.042  34.931  1.00  0.00     0.020 A 
ATOM     86  C   UNL A   1      44.373  22.216  34.820  1.00  0.00     0.020 A 
ATOM     87  C   UNL A   1      45.669  22.117  35.301  1.00  0.00     0.054 A 
BRANCH  87  88
ATOM     88  S   UNL A   1      46.122  20.786  36.424  1.00  0.00     0.124 S 
ATOM     89  O   UNL A   1      47.563  20.696  36.201  1.00  0.00    -0.237 OA
ATOM     90  O   UNL A   1      45.721  21.315  37.726  1.00  0.00    -0.237 OA
ATOM     91  O   UNL A   1      45.339  19.650  35.948  1.00  0.00    -0.744 OA
ENDBRANCH  87  88
ENDBRANCH  61  82
ENDBRANCH  35  36
ENDBRANCH  28  30
ENDBRANCH  27  28
ENDBRANCH  26  27
ENDBRANCH   1  26
TORSDOF 18
ENDMDL
