MODEL 1
REMARK VINA RESULT:     -10.2      0.000      0.000
REMARK SMILES O=C(OCCOC(=O)c1cccc2c(C(F)(F)F)cc(Br)nc12)c1ccc(-c2c3nc(c(-c4ccc(S(=O)(=O)[O-])cc4)c4ccc([nH]4)c(-c4ccc(S(=O)(=O)[O-])cc4)c4nc(c(-c5ccc(S(=O)(=O)[O-])cc5)c5ccc2[nH]5)C=C4)C=C3)cc1
REMARK SMILES IDX 4 1 3 2 2 3 1 4 24 5 25 6 83 7 26 8 82 9 27 10 28 11 29 12
REMARK SMILES IDX 76 13 30 14 81 15 75 16 77 17 31 18 80 19 74 20 73 21 32 23
REMARK SMILES IDX 62 24 43 25 61 26 44 27 47 28 60 29 78 30 45 31 46 32 59 34
REMARK SMILES IDX 79 35 48 36 33 37 34 38 42 39 35 40 41 41 36 42 37 43 38 44
REMARK SMILES IDX 39 45 40 46 63 47 64 48 72 49 65 50 71 51 66 52 67 53 68 54
REMARK SMILES IDX 69 55 70 56 49 57 50 58 58 59 51 60 57 61 52 62 53 63 54 64
REMARK SMILES IDX 55 65 56 66 5 67 6 68 7 69 8 70 9 71 10 72 23 73 11 74 13 75
REMARK SMILES IDX 22 76 12 77 14 78 20 79 19 80 21 81 15 82 16 83 17 84 18 85
REMARK H PARENT 77 22 47 33
REMARK Flexibility Score: inf
ROOT
ATOM      1  C   UNL A   1      33.757  33.011  27.993  1.00  0.00     0.275 C 
ENDROOT
BRANCH   1   2
ATOM      2  O   UNL A   1      33.671  31.586  28.152  1.00  0.00    -0.458 OA
BRANCH   2   3
ATOM      3  C   UNL A   1      34.392  30.639  27.499  1.00  0.00     0.338 C 
ATOM      4  O   UNL A   1      33.904  30.064  26.529  1.00  0.00    -0.246 OA
BRANCH   3   5
ATOM      5  C   UNL A   1      35.692  30.139  28.036  1.00  0.00     0.060 A 
ATOM      6  C   UNL A   1      36.784  30.181  27.158  1.00  0.00     0.016 A 
ATOM      7  C   UNL A   1      35.910  29.666  29.332  1.00  0.00     0.016 A 
ATOM      8  C   UNL A   1      38.021  29.638  27.519  1.00  0.00     0.010 A 
ATOM      9  C   UNL A   1      37.150  29.141  29.707  1.00  0.00     0.010 A 
ATOM     10  C   UNL A   1      38.213  29.106  28.800  1.00  0.00    -0.014 A 
BRANCH  10  11
ATOM     11  C   UNL A   1      39.569  28.748  29.274  1.00  0.00     0.031 A 
ATOM     12  C   UNL A   1      40.451  29.706  30.023  1.00  0.00     0.074 A 
ATOM     13  C   UNL A   1      40.023  27.525  28.941  1.00  0.00     0.049 A 
ATOM     14  N   UNL A   1      41.573  29.459  30.647  1.00  0.00    -0.248 NA
ATOM     15  C   UNL A   1      40.023  31.109  30.109  1.00  0.00     0.031 C 
ATOM     16  C   UNL A   1      39.264  26.534  28.171  1.00  0.00     0.029 A 
ATOM     17  N   UNL A   1      41.222  26.913  29.182  1.00  0.00    -0.354 N 
ATOM     18  C   UNL A   1      41.929  30.643  31.281  1.00  0.00     0.074 A 
ATOM     19  C   UNL A   1      40.941  31.631  30.916  1.00  0.00     0.031 C 
ATOM     20  C   UNL A   1      40.013  25.438  28.009  1.00  0.00     0.029 A 
ATOM     21  C   UNL A   1      41.319  25.665  28.615  1.00  0.00     0.049 A 
ATOM     22  H   UNL A   1      41.945  27.326  29.709  1.00  0.00     0.167 HD
ATOM     23  C   UNL A   1      42.989  30.873  32.090  1.00  0.00     0.031 A 
ATOM     24  C   UNL A   1      42.351  24.804  28.566  1.00  0.00     0.031 A 
ATOM     25  C   UNL A   1      44.070  29.935  32.256  1.00  0.00     0.049 A 
ATOM     26  C   UNL A   1      43.610  25.163  29.292  1.00  0.00     0.074 A 
ATOM     27  C   UNL A   1      45.227  30.080  33.001  1.00  0.00     0.029 A 
ATOM     28  N   UNL A   1      44.165  28.711  31.605  1.00  0.00    -0.354 N 
ATOM     29  N   UNL A   1      43.853  26.220  30.032  1.00  0.00    -0.248 NA
ATOM     30  C   UNL A   1      44.728  24.219  29.197  1.00  0.00     0.031 C 
ATOM     31  C   UNL A   1      46.073  29.012  32.693  1.00  0.00     0.029 A 
ATOM     32  C   UNL A   1      45.399  28.137  31.854  1.00  0.00     0.049 A 
ATOM     33  H   UNL A   1      43.459  28.312  31.048  1.00  0.00     0.167 HD
ATOM     34  C   UNL A   1      45.147  26.060  30.509  1.00  0.00     0.074 A 
ATOM     35  C   UNL A   1      45.627  24.794  29.988  1.00  0.00     0.031 C 
ATOM     36  C   UNL A   1      45.867  26.884  31.309  1.00  0.00     0.031 A 
BRANCH  23  37
ATOM     37  C   UNL A   1      43.067  32.182  32.840  1.00  0.00    -0.014 A 
ATOM     38  C   UNL A   1      42.491  32.311  34.117  1.00  0.00     0.010 A 
ATOM     39  C   UNL A   1      43.568  33.332  32.201  1.00  0.00     0.010 A 
ATOM     40  C   UNL A   1      42.375  33.568  34.722  1.00  0.00     0.020 A 
ATOM     41  C   UNL A   1      43.471  34.589  32.813  1.00  0.00     0.020 A 
ATOM     42  C   UNL A   1      42.853  34.701  34.060  1.00  0.00     0.054 A 
BRANCH  42  43
ATOM     43  S   UNL A   1      42.631  36.327  34.837  1.00  0.00     0.124 S 
ATOM     44  O   UNL A   1      41.181  36.408  34.980  1.00  0.00    -0.237 OA
ATOM     45  O   UNL A   1      43.383  36.184  36.082  1.00  0.00    -0.237 OA
ATOM     46  O   UNL A   1      43.217  37.253  33.869  1.00  0.00    -0.744 OA
ENDBRANCH  42  43
ENDBRANCH  23  37
BRANCH  24  47
ATOM     47  C   UNL A   1      42.176  23.527  27.823  1.00  0.00    -0.014 A 
ATOM     48  C   UNL A   1      41.533  22.432  28.436  1.00  0.00     0.010 A 
ATOM     49  C   UNL A   1      42.776  23.349  26.566  1.00  0.00     0.010 A 
ATOM     50  C   UNL A   1      41.564  21.167  27.844  1.00  0.00     0.020 A 
ATOM     51  C   UNL A   1      42.776  22.091  25.952  1.00  0.00     0.020 A 
ATOM     52  C   UNL A   1      42.201  21.003  26.614  1.00  0.00     0.054 A 
BRANCH  52  53
ATOM     53  S   UNL A   1      42.299  19.337  25.905  1.00  0.00     0.124 S 
ATOM     54  O   UNL A   1      42.810  18.561  27.032  1.00  0.00    -0.237 OA
ATOM     55  O   UNL A   1      40.912  19.069  25.534  1.00  0.00    -0.237 OA
ATOM     56  O   UNL A   1      43.221  19.495  24.783  1.00  0.00    -0.744 OA
ENDBRANCH  52  53
ENDBRANCH  24  47
BRANCH  36  57
ATOM     57  C   UNL A   1      47.272  26.473  31.661  1.00  0.00    -0.014 A 
ATOM     58  C   UNL A   1      48.310  26.670  30.730  1.00  0.00     0.010 A 
ATOM     59  C   UNL A   1      47.536  25.759  32.843  1.00  0.00     0.010 A 
ATOM     60  C   UNL A   1      49.569  26.108  30.945  1.00  0.00     0.020 A 
ATOM     61  C   UNL A   1      48.806  25.230  33.080  1.00  0.00     0.020 A 
ATOM     62  C   UNL A   1      49.803  25.378  32.114  1.00  0.00     0.054 A 
BRANCH  62  63
ATOM     63  S   UNL A   1      51.424  24.598  32.340  1.00  0.00     0.124 S 
ATOM     64  O   UNL A   1      52.258  25.348  31.406  1.00  0.00    -0.237 OA
ATOM     65  O   UNL A   1      51.695  24.832  33.757  1.00  0.00    -0.237 OA
ATOM     66  O   UNL A   1      51.186  23.202  31.982  1.00  0.00    -0.744 OA
ENDBRANCH  62  63
ENDBRANCH  36  57
ENDBRANCH  10  11
ENDBRANCH   3   5
ENDBRANCH   2   3
ENDBRANCH   1   2
BRANCH   1  67
ATOM     67  C   UNL A   1      34.137  33.780  29.261  1.00  0.00     0.275 C 
BRANCH  67  68
ATOM     68  O   UNL A   1      34.560  32.935  30.340  1.00  0.00    -0.458 OA
BRANCH  68  69
ATOM     69  C   UNL A   1      35.852  33.090  30.744  1.00  0.00     0.340 C 
ATOM     70  O   UNL A   1      36.850  32.845  30.084  1.00  0.00    -0.246 OA
BRANCH  69  71
ATOM     71  C   UNL A   1      35.857  33.563  32.144  1.00  0.00     0.086 A 
ATOM     72  C   UNL A   1      35.180  34.755  32.435  1.00  0.00     0.018 A 
ATOM     73  C   UNL A   1      36.538  32.832  33.127  1.00  0.00     0.087 A 
ATOM     74  C   UNL A   1      35.181  35.243  33.731  1.00  0.00     0.002 A 
ATOM     75  C   UNL A   1      36.561  33.354  34.447  1.00  0.00     0.013 A 
ATOM     76  N   UNL A   1      37.205  31.700  32.817  1.00  0.00    -0.240 NA
ATOM     77  C   UNL A   1      35.879  34.561  34.723  1.00  0.00     0.011 A 
ATOM     78  C   UNL A   1      37.302  32.651  35.432  1.00  0.00     0.068 A 
ATOM     79  C   UNL A   1      37.917  31.060  33.764  1.00  0.00     0.107 A 
ATOM     80  C   UNL A   1      38.000  31.495  35.067  1.00  0.00     0.049 A 
ATOM     81  Br  UNL A   1      38.882  29.513  33.248  1.00  0.00    -0.029 Br
BRANCH  78  82
ATOM     82  C   UNL A   1      37.379  33.122  36.865  1.00  0.00     0.417 C 
ATOM     83  F   UNL A   1      36.156  33.387  37.396  1.00  0.00    -0.166 F 
ATOM     84  F   UNL A   1      37.966  32.207  37.686  1.00  0.00    -0.166 F 
ATOM     85  F   UNL A   1      38.107  34.264  37.017  1.00  0.00    -0.166 F 
ENDBRANCH  78  82
ENDBRANCH  69  71
ENDBRANCH  68  69
ENDBRANCH  67  68
ENDBRANCH   1  67
TORSDOF 15
ENDMDL
MODEL 2
REMARK VINA RESULT:     -10.2      4.921      6.973
REMARK SMILES O=C(OCCOC(=O)c1cccc2c(C(F)(F)F)cc(Br)nc12)c1ccc(-c2c3nc(c(-c4ccc(S(=O)(=O)[O-])cc4)c4ccc([nH]4)c(-c4ccc(S(=O)(=O)[O-])cc4)c4nc(c(-c5ccc(S(=O)(=O)[O-])cc5)c5ccc2[nH]5)C=C4)C=C3)cc1
REMARK SMILES IDX 4 1 3 2 2 3 1 4 24 5 25 6 83 7 26 8 82 9 27 10 28 11 29 12
REMARK SMILES IDX 76 13 30 14 81 15 75 16 77 17 31 18 80 19 74 20 73 21 32 23
REMARK SMILES IDX 62 24 43 25 61 26 44 27 47 28 60 29 78 30 45 31 46 32 59 34
REMARK SMILES IDX 79 35 48 36 33 37 34 38 42 39 35 40 41 41 36 42 37 43 38 44
REMARK SMILES IDX 39 45 40 46 63 47 64 48 72 49 65 50 71 51 66 52 67 53 68 54
REMARK SMILES IDX 69 55 70 56 49 57 50 58 58 59 51 60 57 61 52 62 53 63 54 64
REMARK SMILES IDX 55 65 56 66 5 67 6 68 7 69 8 70 9 71 10 72 23 73 11 74 13 75
REMARK SMILES IDX 22 76 12 77 14 78 20 79 19 80 21 81 15 82 16 83 17 84 18 85
REMARK H PARENT 77 22 47 33
REMARK Flexibility Score: inf
ROOT
ATOM      1  C   UNL A   1      33.125  28.855  26.986  1.00  0.00     0.275 C 
ENDROOT
BRANCH   1   2
ATOM      2  O   UNL A   1      33.841  30.100  26.945  1.00  0.00    -0.458 OA
BRANCH   2   3
ATOM      3  C   UNL A   1      34.535  30.684  27.955  1.00  0.00     0.338 C 
ATOM      4  O   UNL A   1      34.131  31.738  28.442  1.00  0.00    -0.246 OA
BRANCH   3   5
ATOM      5  C   UNL A   1      35.879  30.184  28.371  1.00  0.00     0.060 A 
ATOM      6  C   UNL A   1      36.886  30.224  27.398  1.00  0.00     0.016 A 
ATOM      7  C   UNL A   1      36.214  29.713  29.643  1.00  0.00     0.016 A 
ATOM      8  C   UNL A   1      38.150  29.680  27.644  1.00  0.00     0.010 A 
ATOM      9  C   UNL A   1      37.483  29.188  29.904  1.00  0.00     0.010 A 
ATOM     10  C   UNL A   1      38.458  29.150  28.904  1.00  0.00    -0.014 A 
BRANCH  10  11
ATOM     11  C   UNL A   1      39.852  28.792  29.252  1.00  0.00     0.031 A 
ATOM     12  C   UNL A   1      40.811  29.763  29.877  1.00  0.00     0.074 A 
ATOM     13  C   UNL A   1      40.259  27.553  28.918  1.00  0.00     0.049 A 
ATOM     14  N   UNL A   1      41.988  29.523  30.395  1.00  0.00    -0.248 NA
ATOM     15  C   UNL A   1      40.406  31.173  29.958  1.00  0.00     0.031 C 
ATOM     16  C   UNL A   1      39.419  26.547  28.261  1.00  0.00     0.029 A 
ATOM     17  N   UNL A   1      41.471  26.935  29.059  1.00  0.00    -0.354 N 
ATOM     18  C   UNL A   1      42.416  30.723  30.950  1.00  0.00     0.074 A 
ATOM     19  C   UNL A   1      41.405  31.711  30.652  1.00  0.00     0.031 C 
ATOM     20  C   UNL A   1      40.138  25.437  28.063  1.00  0.00     0.029 A 
ATOM     21  C   UNL A   1      41.500  25.668  28.528  1.00  0.00     0.049 A 
ATOM     22  H   UNL A   1      42.246  27.356  29.497  1.00  0.00     0.167 HD
ATOM     23  C   UNL A   1      43.553  30.966  31.642  1.00  0.00     0.031 A 
ATOM     24  C   UNL A   1      42.515  24.793  28.406  1.00  0.00     0.031 A 
ATOM     25  C   UNL A   1      44.638  30.021  31.731  1.00  0.00     0.049 A 
ATOM     26  C   UNL A   1      43.843  25.161  28.991  1.00  0.00     0.074 A 
ATOM     27  C   UNL A   1      45.864  30.178  32.352  1.00  0.00     0.029 A 
ATOM     28  N   UNL A   1      44.656  28.776  31.115  1.00  0.00    -0.354 N 
ATOM     29  N   UNL A   1      44.168  26.238  29.667  1.00  0.00    -0.248 NA
ATOM     30  C   UNL A   1      44.937  24.200  28.817  1.00  0.00     0.031 C 
ATOM     31  C   UNL A   1      46.666  29.090  31.998  1.00  0.00     0.029 A 
ATOM     32  C   UNL A   1      45.904  28.196  31.260  1.00  0.00     0.049 A 
ATOM     33  H   UNL A   1      43.894  28.368  30.645  1.00  0.00     0.167 HD
ATOM     34  C   UNL A   1      45.501  26.079  30.018  1.00  0.00     0.074 A 
ATOM     35  C   UNL A   1      45.915  24.790  29.495  1.00  0.00     0.031 C 
ATOM     36  C   UNL A   1      46.305  26.920  30.713  1.00  0.00     0.031 A 
BRANCH  23  37
ATOM     37  C   UNL A   1      43.717  32.298  32.335  1.00  0.00    -0.014 A 
ATOM     38  C   UNL A   1      43.186  32.506  33.621  1.00  0.00     0.010 A 
ATOM     39  C   UNL A   1      44.254  33.396  31.637  1.00  0.00     0.010 A 
ATOM     40  C   UNL A   1      43.149  33.790  34.178  1.00  0.00     0.020 A 
ATOM     41  C   UNL A   1      44.237  34.679  32.199  1.00  0.00     0.020 A 
ATOM     42  C   UNL A   1      43.662  34.871  33.457  1.00  0.00     0.054 A 
BRANCH  42  43
ATOM     43  S   UNL A   1      43.543  36.536  34.173  1.00  0.00     0.124 S 
ATOM     44  O   UNL A   1      43.716  37.391  33.004  1.00  0.00    -0.237 OA
ATOM     45  O   UNL A   1      42.205  36.528  34.760  1.00  0.00    -0.237 OA
ATOM     46  O   UNL A   1      44.637  36.572  35.142  1.00  0.00    -0.744 OA
ENDBRANCH  42  43
ENDBRANCH  23  37
BRANCH  24  47
ATOM     47  C   UNL A   1      42.255  23.495  27.728  1.00  0.00    -0.014 A 
ATOM     48  C   UNL A   1      41.736  22.405  28.456  1.00  0.00     0.010 A 
ATOM     49  C   UNL A   1      42.661  23.295  26.398  1.00  0.00     0.010 A 
ATOM     50  C   UNL A   1      41.703  21.126  27.896  1.00  0.00     0.020 A 
ATOM     51  C   UNL A   1      42.594  22.022  25.821  1.00  0.00     0.020 A 
ATOM     52  C   UNL A   1      42.149  20.941  26.587  1.00  0.00     0.054 A 
BRANCH  52  53
ATOM     53  S   UNL A   1      42.172  19.259  25.910  1.00  0.00     0.124 S 
ATOM     54  O   UNL A   1      40.756  19.025  25.639  1.00  0.00    -0.237 OA
ATOM     55  O   UNL A   1      43.022  19.405  24.731  1.00  0.00    -0.237 OA
ATOM     56  O   UNL A   1      42.743  18.461  26.992  1.00  0.00    -0.744 OA
ENDBRANCH  52  53
ENDBRANCH  24  47
BRANCH  36  57
ATOM     57  C   UNL A   1      47.734  26.504  30.938  1.00  0.00    -0.014 A 
ATOM     58  C   UNL A   1      48.091  25.857  32.137  1.00  0.00     0.010 A 
ATOM     59  C   UNL A   1      48.743  26.884  30.036  1.00  0.00     0.010 A 
ATOM     60  C   UNL A   1      49.433  25.654  32.459  1.00  0.00     0.020 A 
ATOM     61  C   UNL A   1      50.086  26.646  30.338  1.00  0.00     0.020 A 
ATOM     62  C   UNL A   1      50.423  26.065  31.562  1.00  0.00     0.054 A 
BRANCH  62  63
ATOM     63  S   UNL A   1      52.161  25.855  32.030  1.00  0.00     0.124 S 
ATOM     64  O   UNL A   1      52.250  24.414  32.242  1.00  0.00    -0.237 OA
ATOM     65  O   UNL A   1      52.871  26.367  30.860  1.00  0.00    -0.237 OA
ATOM     66  O   UNL A   1      52.293  26.672  33.234  1.00  0.00    -0.744 OA
ENDBRANCH  62  63
ENDBRANCH  36  57
ENDBRANCH  10  11
ENDBRANCH   3   5
ENDBRANCH   2   3
ENDBRANCH   1   2
BRANCH   1  67
ATOM     67  C   UNL A   1      32.681  28.323  25.621  1.00  0.00     0.275 C 
BRANCH  67  68
ATOM     68  O   UNL A   1      32.999  26.940  25.413  1.00  0.00    -0.458 OA
BRANCH  68  69
ATOM     69  C   UNL A   1      33.187  26.563  24.118  1.00  0.00     0.340 C 
ATOM     70  O   UNL A   1      33.695  27.238  23.235  1.00  0.00    -0.246 OA
BRANCH  69  71
ATOM     71  C   UNL A   1      32.627  25.208  23.932  1.00  0.00     0.086 A 
ATOM     72  C   UNL A   1      31.289  25.104  23.530  1.00  0.00     0.018 A 
ATOM     73  C   UNL A   1      33.425  24.082  24.172  1.00  0.00     0.087 A 
ATOM     74  C   UNL A   1      30.719  23.851  23.367  1.00  0.00     0.002 A 
ATOM     75  C   UNL A   1      32.827  22.802  24.033  1.00  0.00     0.013 A 
ATOM     76  N   UNL A   1      34.704  24.208  24.583  1.00  0.00    -0.240 NA
ATOM     77  C   UNL A   1      31.474  22.713  23.633  1.00  0.00     0.011 A 
ATOM     78  C   UNL A   1      33.612  21.659  24.336  1.00  0.00     0.068 A 
ATOM     79  C   UNL A   1      35.425  23.111  24.883  1.00  0.00     0.107 A 
ATOM     80  C   UNL A   1      34.927  21.831  24.783  1.00  0.00     0.049 A 
ATOM     81  Br  UNL A   1      37.193  23.361  25.516  1.00  0.00    -0.029 Br
BRANCH  78  82
ATOM     82  C   UNL A   1      33.069  20.255  24.209  1.00  0.00     0.417 C 
ATOM     83  F   UNL A   1      32.156  19.959  25.172  1.00  0.00    -0.166 F 
ATOM     84  F   UNL A   1      32.454  20.037  23.014  1.00  0.00    -0.166 F 
ATOM     85  F   UNL A   1      34.032  19.296  24.302  1.00  0.00    -0.166 F 
ENDBRANCH  78  82
ENDBRANCH  69  71
ENDBRANCH  68  69
ENDBRANCH  67  68
ENDBRANCH   1  67
TORSDOF 15
ENDMDL
MODEL 3
REMARK VINA RESULT:     -10.1      4.799     11.020
REMARK SMILES O=C(OCCOC(=O)c1cccc2c(C(F)(F)F)cc(Br)nc12)c1ccc(-c2c3nc(c(-c4ccc(S(=O)(=O)[O-])cc4)c4ccc([nH]4)c(-c4ccc(S(=O)(=O)[O-])cc4)c4nc(c(-c5ccc(S(=O)(=O)[O-])cc5)c5ccc2[nH]5)C=C4)C=C3)cc1
REMARK SMILES IDX 4 1 3 2 2 3 1 4 24 5 25 6 83 7 26 8 82 9 27 10 28 11 29 12
REMARK SMILES IDX 76 13 30 14 81 15 75 16 77 17 31 18 80 19 74 20 73 21 32 23
REMARK SMILES IDX 62 24 43 25 61 26 44 27 47 28 60 29 78 30 45 31 46 32 59 34
REMARK SMILES IDX 79 35 48 36 33 37 34 38 42 39 35 40 41 41 36 42 37 43 38 44
REMARK SMILES IDX 39 45 40 46 63 47 64 48 72 49 65 50 71 51 66 52 67 53 68 54
REMARK SMILES IDX 69 55 70 56 49 57 50 58 58 59 51 60 57 61 52 62 53 63 54 64
REMARK SMILES IDX 55 65 56 66 5 67 6 68 7 69 8 70 9 71 10 72 23 73 11 74 13 75
REMARK SMILES IDX 22 76 12 77 14 78 20 79 19 80 21 81 15 82 16 83 17 84 18 85
REMARK H PARENT 77 22 47 33
REMARK Flexibility Score: inf
ROOT
ATOM      1  C   UNL A   1      36.714  23.707  25.362  1.00  0.00     0.275 C 
ENDROOT
BRANCH   1   2
ATOM      2  O   UNL A   1      37.676  22.675  25.637  1.00  0.00    -0.458 OA
BRANCH   2   3
ATOM      3  C   UNL A   1      38.852  22.801  26.304  1.00  0.00     0.338 C 
ATOM      4  O   UNL A   1      39.460  21.795  26.662  1.00  0.00    -0.246 OA
BRANCH   3   5
ATOM      5  C   UNL A   1      39.340  24.128  26.783  1.00  0.00     0.060 A 
ATOM      6  C   UNL A   1      39.037  24.460  28.110  1.00  0.00     0.016 A 
ATOM      7  C   UNL A   1      40.088  25.039  26.033  1.00  0.00     0.016 A 
ATOM      8  C   UNL A   1      39.350  25.720  28.628  1.00  0.00     0.010 A 
ATOM      9  C   UNL A   1      40.423  26.294  26.551  1.00  0.00     0.010 A 
ATOM     10  C   UNL A   1      40.043  26.654  27.847  1.00  0.00    -0.014 A 
BRANCH  10  11
ATOM     11  C   UNL A   1      40.586  27.891  28.453  1.00  0.00     0.031 A 
ATOM     12  C   UNL A   1      41.993  27.998  28.966  1.00  0.00     0.074 A 
ATOM     13  C   UNL A   1      39.732  28.921  28.593  1.00  0.00     0.049 A 
ATOM     14  N   UNL A   1      42.641  29.069  29.345  1.00  0.00    -0.248 NA
ATOM     15  C   UNL A   1      42.790  26.766  29.049  1.00  0.00     0.031 C 
ATOM     16  C   UNL A   1      38.327  28.904  28.172  1.00  0.00     0.029 A 
ATOM     17  N   UNL A   1      39.900  30.164  29.140  1.00  0.00    -0.354 N 
ATOM     18  C   UNL A   1      43.941  28.658  29.611  1.00  0.00     0.074 A 
ATOM     19  C   UNL A   1      43.981  27.228  29.415  1.00  0.00     0.031 C 
ATOM     20  C   UNL A   1      37.765  30.081  28.469  1.00  0.00     0.029 A 
ATOM     21  C   UNL A   1      38.750  30.915  29.147  1.00  0.00     0.049 A 
ATOM     22  H   UNL A   1      40.761  30.488  29.493  1.00  0.00     0.167 HD
ATOM     23  C   UNL A   1      44.997  29.416  29.987  1.00  0.00     0.031 A 
ATOM     24  C   UNL A   1      38.504  32.133  29.662  1.00  0.00     0.031 A 
ATOM     25  C   UNL A   1      44.874  30.795  30.387  1.00  0.00     0.049 A 
ATOM     26  C   UNL A   1      39.642  32.888  30.276  1.00  0.00     0.074 A 
ATOM     27  C   UNL A   1      45.862  31.648  30.845  1.00  0.00     0.029 A 
ATOM     28  N   UNL A   1      43.677  31.498  30.451  1.00  0.00    -0.354 N 
ATOM     29  N   UNL A   1      40.905  32.538  30.355  1.00  0.00    -0.248 NA
ATOM     30  C   UNL A   1      39.338  34.200  30.855  1.00  0.00     0.031 C 
ATOM     31  C   UNL A   1      45.243  32.811  31.310  1.00  0.00     0.029 A 
ATOM     32  C   UNL A   1      43.887  32.737  31.030  1.00  0.00     0.049 A 
ATOM     33  H   UNL A   1      42.808  31.163  30.132  1.00  0.00     0.167 HD
ATOM     34  C   UNL A   1      41.553  33.597  30.976  1.00  0.00     0.074 A 
ATOM     35  C   UNL A   1      40.544  34.607  31.234  1.00  0.00     0.031 C 
ATOM     36  C   UNL A   1      42.864  33.721  31.298  1.00  0.00     0.031 A 
BRANCH  23  37
ATOM     37  C   UNL A   1      46.372  28.791  30.020  1.00  0.00    -0.014 A 
ATOM     38  C   UNL A   1      46.811  28.086  31.157  1.00  0.00     0.010 A 
ATOM     39  C   UNL A   1      47.290  29.048  28.985  1.00  0.00     0.010 A 
ATOM     40  C   UNL A   1      48.148  27.690  31.277  1.00  0.00     0.020 A 
ATOM     41  C   UNL A   1      48.624  28.635  29.093  1.00  0.00     0.020 A 
ATOM     42  C   UNL A   1      49.049  27.980  30.250  1.00  0.00     0.054 A 
BRANCH  42  43
ATOM     43  S   UNL A   1      50.792  27.513  30.459  1.00  0.00     0.124 S 
ATOM     44  O   UNL A   1      51.405  28.773  30.867  1.00  0.00    -0.237 OA
ATOM     45  O   UNL A   1      50.718  26.481  31.490  1.00  0.00    -0.237 OA
ATOM     46  O   UNL A   1      51.179  27.030  29.134  1.00  0.00    -0.744 OA
ENDBRANCH  42  43
ENDBRANCH  23  37
BRANCH  24  47
ATOM     47  C   UNL A   1      37.124  32.680  29.564  1.00  0.00    -0.014 A 
ATOM     48  C   UNL A   1      36.667  33.243  28.355  1.00  0.00     0.010 A 
ATOM     49  C   UNL A   1      36.316  32.777  30.709  1.00  0.00     0.010 A 
ATOM     50  C   UNL A   1      35.470  33.960  28.311  1.00  0.00     0.020 A 
ATOM     51  C   UNL A   1      35.097  33.463  30.660  1.00  0.00     0.020 A 
ATOM     52  C   UNL A   1      34.701  34.079  29.469  1.00  0.00     0.054 A 
BRANCH  52  53
ATOM     53  S   UNL A   1      33.193  35.083  29.408  1.00  0.00     0.124 S 
ATOM     54  O   UNL A   1      32.692  34.955  30.774  1.00  0.00    -0.237 OA
ATOM     55  O   UNL A   1      33.705  36.402  29.048  1.00  0.00    -0.237 OA
ATOM     56  O   UNL A   1      32.386  34.429  28.382  1.00  0.00    -0.744 OA
ENDBRANCH  52  53
ENDBRANCH  24  47
BRANCH  36  57
ATOM     57  C   UNL A   1      43.302  34.983  31.994  1.00  0.00    -0.014 A 
ATOM     58  C   UNL A   1      43.095  35.121  33.380  1.00  0.00     0.010 A 
ATOM     59  C   UNL A   1      43.776  36.082  31.257  1.00  0.00     0.010 A 
ATOM     60  C   UNL A   1      43.293  36.353  34.005  1.00  0.00     0.020 A 
ATOM     61  C   UNL A   1      44.015  37.305  31.887  1.00  0.00     0.020 A 
ATOM     62  C   UNL A   1      43.739  37.441  33.250  1.00  0.00     0.054 A 
BRANCH  62  63
ATOM     63  S   UNL A   1      43.924  39.048  34.067  1.00  0.00     0.124 S 
ATOM     64  O   UNL A   1      43.939  38.674  35.478  1.00  0.00    -0.237 OA
ATOM     65  O   UNL A   1      45.192  39.536  33.529  1.00  0.00    -0.237 OA
ATOM     66  O   UNL A   1      42.744  39.792  33.632  1.00  0.00    -0.744 OA
ENDBRANCH  62  63
ENDBRANCH  36  57
ENDBRANCH  10  11
ENDBRANCH   3   5
ENDBRANCH   2   3
ENDBRANCH   1   2
BRANCH   1  67
ATOM     67  C   UNL A   1      35.283  23.386  25.798  1.00  0.00     0.275 C 
BRANCH  67  68
ATOM     68  O   UNL A   1      34.329  24.389  25.424  1.00  0.00    -0.458 OA
BRANCH  68  69
ATOM     69  C   UNL A   1      33.099  24.282  25.999  1.00  0.00     0.340 C 
ATOM     70  O   UNL A   1      32.829  23.665  27.018  1.00  0.00    -0.246 OA
BRANCH  69  71
ATOM     71  C   UNL A   1      32.118  24.999  25.157  1.00  0.00     0.086 A 
ATOM     72  C   UNL A   1      31.326  24.240  24.286  1.00  0.00     0.018 A 
ATOM     73  C   UNL A   1      32.015  26.394  25.237  1.00  0.00     0.087 A 
ATOM     74  C   UNL A   1      30.411  24.877  23.463  1.00  0.00     0.002 A 
ATOM     75  C   UNL A   1      31.098  27.043  24.369  1.00  0.00     0.013 A 
ATOM     76  N   UNL A   1      32.807  27.106  26.065  1.00  0.00    -0.240 NA
ATOM     77  C   UNL A   1      30.310  26.264  23.491  1.00  0.00     0.011 A 
ATOM     78  C   UNL A   1      31.034  28.460  24.400  1.00  0.00     0.068 A 
ATOM     79  C   UNL A   1      32.744  28.451  26.065  1.00  0.00     0.107 A 
ATOM     80  C   UNL A   1      31.889  29.165  25.255  1.00  0.00     0.049 A 
ATOM     81  Br  UNL A   1      33.928  29.392  27.205  1.00  0.00    -0.029 Br
BRANCH  78  82
ATOM     82  C   UNL A   1      30.084  29.241  23.523  1.00  0.00     0.417 C 
ATOM     83  F   UNL A   1      28.861  28.656  23.426  1.00  0.00    -0.166 F 
ATOM     84  F   UNL A   1      29.872  30.507  23.976  1.00  0.00    -0.166 F 
ATOM     85  F   UNL A   1      30.530  29.384  22.243  1.00  0.00    -0.166 F 
ENDBRANCH  78  82
ENDBRANCH  69  71
ENDBRANCH  68  69
ENDBRANCH  67  68
ENDBRANCH   1  67
TORSDOF 15
ENDMDL
