MODEL 1
REMARK VINA RESULT:     -10.0      0.000      0.000
REMARK SMILES [NH3+][C@H]1C=C[C@@H](C(=O)NC2(CC(=O)OCCOC(=O)c3ccc(-c4c5nc(c(-c6ccc(S(=O)(=O)[O-])cc6)c6ccc([nH]6)c(-c6ccc(S(=O)(=O)[O-])cc6)c6nc(c(-c7ccc(S(=O)(=O)[O-])cc7)c7ccc4[nH]7)C=C6)C=C5)cc3)CCC2)C1
REMARK SMILES IDX 14 1 13 2 11 3 12 4 10 5 9 6 79 7 81 8 80 9 8 10 6 11 7 12
REMARK SMILES IDX 5 14 2 15 3 16 82 17 4 18 1 19 15 23 16 24 17 25 18 26 19 27
REMARK SMILES IDX 20 28 78 29 21 30 77 31 22 32 23 33 24 34 71 35 25 36 76 37
REMARK SMILES IDX 70 38 72 39 26 40 75 41 69 42 68 43 27 45 57 46 38 47 56 48
REMARK SMILES IDX 39 49 42 50 55 51 73 52 40 53 41 54 54 56 74 57 43 58 28 59
REMARK SMILES IDX 29 60 37 61 30 62 36 63 31 64 32 65 33 66 34 67 35 68 58 69
REMARK SMILES IDX 59 70 67 71 60 72 66 73 61 74 62 75 63 76 64 77 65 78 44 79
REMARK SMILES IDX 45 80 53 81 46 82 52 83 47 84 48 85 49 86 50 87 51 88
REMARK H PARENT 8 13 1 20 1 21 1 22 72 44 42 55
REMARK Flexibility Score: inf
ROOT
ATOM      1  C   UNL A   1      31.619  28.348  26.223  1.00  0.00     0.274 C 
ENDROOT
BRANCH   1   2
ATOM      2  O   UNL A   1      31.154  27.166  26.909  1.00  0.00    -0.462 OA
BRANCH   2   3
ATOM      3  C   UNL A   1      30.749  26.154  26.104  1.00  0.00     0.308 C 
ATOM      4  O   UNL A   1      30.059  25.208  26.470  1.00  0.00    -0.252 OA
BRANCH   3   5
ATOM      5  C   UNL A   1      31.218  26.265  24.679  1.00  0.00     0.151 C 
BRANCH   5   6
ATOM      6  C   UNL A   1      32.431  25.441  24.210  1.00  0.00     0.051 C 
ATOM      7  C   UNL A   1      33.647  26.385  23.895  1.00  0.00     0.029 C 
ATOM      8  C   UNL A   1      32.427  25.119  22.703  1.00  0.00     0.029 C 
ATOM      9  C   UNL A   1      33.160  26.447  22.440  1.00  0.00     0.005 C 
BRANCH   6  10
ATOM     10  N   UNL A   1      32.846  24.475  25.252  1.00  0.00    -0.350 N 
ATOM     11  C   UNL A   1      33.993  23.928  25.730  1.00  0.00     0.227 C 
ATOM     12  O   UNL A   1      33.879  23.425  26.859  1.00  0.00    -0.274 OA
ATOM     13  H   UNL A   1      32.064  24.129  25.739  1.00  0.00     0.164 HD
BRANCH  11  14
ATOM     14  C   UNL A   1      35.371  23.906  25.072  1.00  0.00     0.107 C 
ATOM     15  C   UNL A   1      37.518  22.773  24.881  1.00  0.00     0.205 C 
ATOM     16  C   UNL A   1      36.655  22.525  23.686  1.00  0.00     0.033 C 
ATOM     17  C   UNL A   1      36.552  23.406  25.899  1.00  0.00     0.087 C 
ATOM     18  C   UNL A   1      35.466  23.133  23.792  1.00  0.00    -0.012 C 
BRANCH  15  19
ATOM     19  N   UNL A   1      38.127  21.546  25.372  1.00  0.00    -0.352 N 
ATOM     20  H   UNL A   1      37.799  21.360  26.319  1.00  0.00     0.345 HD
ATOM     21  H   UNL A   1      39.142  21.648  25.377  1.00  0.00     0.345 HD
ATOM     22  H   UNL A   1      37.866  20.771  24.764  1.00  0.00     0.345 HD
ENDBRANCH  15  19
ENDBRANCH  11  14
ENDBRANCH   6  10
ENDBRANCH   5   6
ENDBRANCH   3   5
ENDBRANCH   2   3
ENDBRANCH   1   2
BRANCH   1  23
ATOM     23  C   UNL A   1      32.158  29.370  27.220  1.00  0.00     0.275 C 
BRANCH  23  24
ATOM     24  O   UNL A   1      33.590  29.431  27.120  1.00  0.00    -0.458 OA
BRANCH  24  25
ATOM     25  C   UNL A   1      34.183  30.413  27.838  1.00  0.00     0.338 C 
ATOM     26  O   UNL A   1      33.690  31.476  28.172  1.00  0.00    -0.246 OA
BRANCH  25  27
ATOM     27  C   UNL A   1      35.570  30.020  28.150  1.00  0.00     0.060 A 
ATOM     28  C   UNL A   1      35.933  29.652  29.447  1.00  0.00     0.016 A 
ATOM     29  C   UNL A   1      36.534  30.079  27.145  1.00  0.00     0.016 A 
ATOM     30  C   UNL A   1      37.267  29.387  29.755  1.00  0.00     0.010 A 
ATOM     31  C   UNL A   1      37.858  29.737  27.437  1.00  0.00     0.010 A 
ATOM     32  C   UNL A   1      38.241  29.405  28.749  1.00  0.00    -0.014 A 
BRANCH  32  33
ATOM     33  C   UNL A   1      39.659  29.072  29.050  1.00  0.00     0.031 A 
ATOM     34  C   UNL A   1      40.578  30.120  29.619  1.00  0.00     0.074 A 
ATOM     35  C   UNL A   1      40.131  27.837  28.784  1.00  0.00     0.049 A 
ATOM     36  N   UNL A   1      41.876  30.081  29.778  1.00  0.00    -0.248 NA
ATOM     37  C   UNL A   1      39.955  31.380  30.059  1.00  0.00     0.031 C 
ATOM     38  C   UNL A   1      39.340  26.716  28.270  1.00  0.00     0.029 A 
ATOM     39  N   UNL A   1      41.398  27.319  28.901  1.00  0.00    -0.354 N 
ATOM     40  C   UNL A   1      42.231  31.319  30.302  1.00  0.00     0.074 A 
ATOM     41  C   UNL A   1      41.013  32.091  30.427  1.00  0.00     0.031 C 
ATOM     42  C   UNL A   1      40.135  25.644  28.128  1.00  0.00     0.029 A 
ATOM     43  C   UNL A   1      41.503  26.019  28.468  1.00  0.00     0.049 A 
ATOM     44  H   UNL A   1      42.159  27.831  29.260  1.00  0.00     0.167 HD
ATOM     45  C   UNL A   1      43.463  31.772  30.642  1.00  0.00     0.031 A 
ATOM     46  C   UNL A   1      42.582  25.226  28.315  1.00  0.00     0.031 A 
ATOM     47  C   UNL A   1      44.669  30.996  30.528  1.00  0.00     0.049 A 
ATOM     48  C   UNL A   1      43.943  25.771  28.644  1.00  0.00     0.074 A 
ATOM     49  C   UNL A   1      45.965  31.365  30.848  1.00  0.00     0.029 A 
ATOM     50  N   UNL A   1      44.731  29.691  30.063  1.00  0.00    -0.354 N 
ATOM     51  N   UNL A   1      44.266  26.956  29.106  1.00  0.00    -0.248 NA
ATOM     52  C   UNL A   1      45.088  24.877  28.421  1.00  0.00     0.031 C 
ATOM     53  C   UNL A   1      46.814  30.297  30.541  1.00  0.00     0.029 A 
ATOM     54  C   UNL A   1      46.042  29.246  30.076  1.00  0.00     0.049 A 
ATOM     55  H   UNL A   1      43.956  29.159  29.769  1.00  0.00     0.167 HD
ATOM     56  C   UNL A   1      45.649  26.943  29.241  1.00  0.00     0.074 A 
ATOM     57  C   UNL A   1      46.099  25.630  28.832  1.00  0.00     0.031 C 
ATOM     58  C   UNL A   1      46.472  27.934  29.665  1.00  0.00     0.031 A 
BRANCH  45  59
ATOM     59  C   UNL A   1      43.575  33.186  31.144  1.00  0.00    -0.014 A 
ATOM     60  C   UNL A   1      43.613  33.472  32.520  1.00  0.00     0.010 A 
ATOM     61  C   UNL A   1      43.702  34.242  30.222  1.00  0.00     0.010 A 
ATOM     62  C   UNL A   1      43.749  34.790  32.965  1.00  0.00     0.020 A 
ATOM     63  C   UNL A   1      43.860  35.560  30.663  1.00  0.00     0.020 A 
ATOM     64  C   UNL A   1      43.869  35.827  32.033  1.00  0.00     0.054 A 
BRANCH  64  65
ATOM     65  S   UNL A   1      44.082  37.525  32.636  1.00  0.00     0.124 S 
ATOM     66  O   UNL A   1      43.877  38.305  31.418  1.00  0.00    -0.237 OA
ATOM     67  O   UNL A   1      43.028  37.644  33.642  1.00  0.00    -0.237 OA
ATOM     68  O   UNL A   1      45.444  37.538  33.163  1.00  0.00    -0.744 OA
ENDBRANCH  64  65
ENDBRANCH  45  59
BRANCH  46  69
ATOM     69  C   UNL A   1      42.423  23.847  27.778  1.00  0.00    -0.014 A 
ATOM     70  C   UNL A   1      42.429  23.614  26.392  1.00  0.00     0.010 A 
ATOM     71  C   UNL A   1      42.268  22.758  28.656  1.00  0.00     0.010 A 
ATOM     72  C   UNL A   1      42.267  22.317  25.894  1.00  0.00     0.020 A 
ATOM     73  C   UNL A   1      42.134  21.458  28.162  1.00  0.00     0.020 A 
ATOM     74  C   UNL A   1      42.120  21.248  26.782  1.00  0.00     0.054 A 
BRANCH  74  75
ATOM     75  S   UNL A   1      41.958  19.567  26.117  1.00  0.00     0.124 S 
ATOM     76  O   UNL A   1      42.896  19.593  24.999  1.00  0.00    -0.237 OA
ATOM     77  O   UNL A   1      42.350  18.735  27.252  1.00  0.00    -0.237 OA
ATOM     78  O   UNL A   1      40.546  19.481  25.751  1.00  0.00    -0.744 OA
ENDBRANCH  74  75
ENDBRANCH  46  69
BRANCH  58  79
ATOM     79  C   UNL A   1      47.941  27.621  29.739  1.00  0.00    -0.014 A 
ATOM     80  C   UNL A   1      48.490  26.978  30.864  1.00  0.00     0.010 A 
ATOM     81  C   UNL A   1      48.772  27.934  28.650  1.00  0.00     0.010 A 
ATOM     82  C   UNL A   1      49.854  26.680  30.907  1.00  0.00     0.020 A 
ATOM     83  C   UNL A   1      50.132  27.618  28.681  1.00  0.00     0.020 A 
ATOM     84  C   UNL A   1      50.668  27.004  29.816  1.00  0.00     0.054 A 
BRANCH  84  85
ATOM     85  S   UNL A   1      52.428  26.569  29.877  1.00  0.00     0.124 S 
ATOM     86  O   UNL A   1      52.459  25.584  30.955  1.00  0.00    -0.237 OA
ATOM     87  O   UNL A   1      52.677  26.044  28.537  1.00  0.00    -0.237 OA
ATOM     88  O   UNL A   1      53.087  27.839  30.174  1.00  0.00    -0.744 OA
ENDBRANCH  84  85
ENDBRANCH  58  79
ENDBRANCH  32  33
ENDBRANCH  25  27
ENDBRANCH  24  25
ENDBRANCH  23  24
ENDBRANCH   1  23
TORSDOF 18
ENDMDL
MODEL 2
REMARK VINA RESULT:      -9.8      2.563      3.905
REMARK SMILES [NH3+][C@H]1C=C[C@@H](C(=O)NC2(CC(=O)OCCOC(=O)c3ccc(-c4c5nc(c(-c6ccc(S(=O)(=O)[O-])cc6)c6ccc([nH]6)c(-c6ccc(S(=O)(=O)[O-])cc6)c6nc(c(-c7ccc(S(=O)(=O)[O-])cc7)c7ccc4[nH]7)C=C6)C=C5)cc3)CCC2)C1
REMARK SMILES IDX 14 1 13 2 11 3 12 4 10 5 9 6 79 7 81 8 80 9 8 10 6 11 7 12
REMARK SMILES IDX 5 14 2 15 3 16 82 17 4 18 1 19 15 23 16 24 17 25 18 26 19 27
REMARK SMILES IDX 20 28 78 29 21 30 77 31 22 32 23 33 24 34 71 35 25 36 76 37
REMARK SMILES IDX 70 38 72 39 26 40 75 41 69 42 68 43 27 45 57 46 38 47 56 48
REMARK SMILES IDX 39 49 42 50 55 51 73 52 40 53 41 54 54 56 74 57 43 58 28 59
REMARK SMILES IDX 29 60 37 61 30 62 36 63 31 64 32 65 33 66 34 67 35 68 58 69
REMARK SMILES IDX 59 70 67 71 60 72 66 73 61 74 62 75 63 76 64 77 65 78 44 79
REMARK SMILES IDX 45 80 53 81 46 82 52 83 47 84 48 85 49 86 50 87 51 88
REMARK H PARENT 8 13 1 20 1 21 1 22 72 44 42 55
REMARK Flexibility Score: inf
ROOT
ATOM      1  C   UNL A   1      33.311  29.291  27.015  1.00  0.00     0.274 C 
ENDROOT
BRANCH   1   2
ATOM      2  O   UNL A   1      33.376  29.426  25.579  1.00  0.00    -0.462 OA
BRANCH   2   3
ATOM      3  C   UNL A   1      33.813  28.327  24.917  1.00  0.00     0.308 C 
ATOM      4  O   UNL A   1      34.003  28.275  23.706  1.00  0.00    -0.252 OA
BRANCH   3   5
ATOM      5  C   UNL A   1      34.058  27.128  25.792  1.00  0.00     0.151 C 
BRANCH   5   6
ATOM      6  C   UNL A   1      33.323  25.808  25.498  1.00  0.00     0.051 C 
ATOM      7  C   UNL A   1      34.088  24.598  26.147  1.00  0.00     0.029 C 
ATOM      8  C   UNL A   1      33.687  25.173  24.143  1.00  0.00     0.029 C 
ATOM      9  C   UNL A   1      34.853  24.435  24.826  1.00  0.00     0.005 C 
BRANCH   6  10
ATOM     10  N   UNL A   1      31.947  25.838  26.044  1.00  0.00    -0.350 N 
ATOM     11  C   UNL A   1      30.680  26.025  25.594  1.00  0.00     0.227 C 
ATOM     12  O   UNL A   1      29.804  25.607  26.368  1.00  0.00    -0.274 OA
ATOM     13  H   UNL A   1      31.953  25.677  27.015  1.00  0.00     0.164 HD
BRANCH  11  14
ATOM     14  C   UNL A   1      30.233  26.630  24.265  1.00  0.00     0.107 C 
ATOM     15  C   UNL A   1      30.626  28.332  22.568  1.00  0.00     0.205 C 
ATOM     16  C   UNL A   1      31.063  26.979  22.104  1.00  0.00     0.033 C 
ATOM     17  C   UNL A   1      30.386  28.137  24.076  1.00  0.00     0.087 C 
ATOM     18  C   UNL A   1      30.864  26.041  23.040  1.00  0.00    -0.012 C 
BRANCH  15  19
ATOM     19  N   UNL A   1      31.628  29.349  22.286  1.00  0.00    -0.352 N 
ATOM     20  H   UNL A   1      31.737  29.953  23.099  1.00  0.00     0.345 HD
ATOM     21  H   UNL A   1      31.330  29.906  21.485  1.00  0.00     0.345 HD
ATOM     22  H   UNL A   1      32.518  28.899  22.075  1.00  0.00     0.345 HD
ENDBRANCH  15  19
ENDBRANCH  11  14
ENDBRANCH   6  10
ENDBRANCH   5   6
ENDBRANCH   3   5
ENDBRANCH   2   3
ENDBRANCH   1   2
BRANCH   1  23
ATOM     23  C   UNL A   1      34.086  30.417  27.695  1.00  0.00     0.275 C 
BRANCH  23  24
ATOM     24  O   UNL A   1      35.489  30.109  27.685  1.00  0.00    -0.458 OA
BRANCH  24  25
ATOM     25  C   UNL A   1      36.145  30.344  28.846  1.00  0.00     0.338 C 
ATOM     26  O   UNL A   1      35.698  30.882  29.844  1.00  0.00    -0.246 OA
BRANCH  25  27
ATOM     27  C   UNL A   1      37.536  29.868  28.726  1.00  0.00     0.060 A 
ATOM     28  C   UNL A   1      38.303  29.613  29.864  1.00  0.00     0.016 A 
ATOM     29  C   UNL A   1      38.099  29.731  27.458  1.00  0.00     0.016 A 
ATOM     30  C   UNL A   1      39.649  29.268  29.742  1.00  0.00     0.010 A 
ATOM     31  C   UNL A   1      39.426  29.308  27.335  1.00  0.00     0.010 A 
ATOM     32  C   UNL A   1      40.220  29.090  28.475  1.00  0.00    -0.014 A 
BRANCH  32  33
ATOM     33  C   UNL A   1      41.638  28.669  28.328  1.00  0.00     0.031 A 
ATOM     34  C   UNL A   1      42.742  29.689  28.411  1.00  0.00     0.074 A 
ATOM     35  C   UNL A   1      41.935  27.375  28.087  1.00  0.00     0.049 A 
ATOM     36  N   UNL A   1      44.013  29.554  28.131  1.00  0.00    -0.248 NA
ATOM     37  C   UNL A   1      42.366  31.040  28.860  1.00  0.00     0.031 C 
ATOM     38  C   UNL A   1      40.966  26.278  28.023  1.00  0.00     0.029 A 
ATOM     39  N   UNL A   1      43.141  26.764  27.843  1.00  0.00    -0.354 N 
ATOM     40  C   UNL A   1      44.582  30.806  28.335  1.00  0.00     0.074 A 
ATOM     41  C   UNL A   1      43.517  31.691  28.754  1.00  0.00     0.031 C 
ATOM     42  C   UNL A   1      41.615  25.131  27.768  1.00  0.00     0.029 A 
ATOM     43  C   UNL A   1      43.032  25.420  27.578  1.00  0.00     0.049 A 
ATOM     44  H   UNL A   1      44.001  27.243  27.854  1.00  0.00     0.167 HD
ATOM     45  C   UNL A   1      45.875  31.183  28.180  1.00  0.00     0.031 A 
ATOM     46  C   UNL A   1      43.956  24.523  27.182  1.00  0.00     0.031 A 
ATOM     47  C   UNL A   1      46.933  30.296  27.775  1.00  0.00     0.049 A 
ATOM     48  C   UNL A   1      45.371  24.979  26.960  1.00  0.00     0.074 A 
ATOM     49  C   UNL A   1      48.275  30.584  27.591  1.00  0.00     0.029 A 
ATOM     50  N   UNL A   1      46.773  28.947  27.496  1.00  0.00    -0.354 N 
ATOM     51  N   UNL A   1      45.885  26.175  27.125  1.00  0.00    -0.248 NA
ATOM     52  C   UNL A   1      46.328  23.969  26.490  1.00  0.00     0.031 C 
ATOM     53  C   UNL A   1      48.919  29.417  27.164  1.00  0.00     0.029 A 
ATOM     54  C   UNL A   1      47.987  28.393  27.129  1.00  0.00     0.049 A 
ATOM     55  H   UNL A   1      45.921  28.456  27.552  1.00  0.00     0.167 HD
ATOM     56  C   UNL A   1      47.229  26.056  26.791  1.00  0.00     0.074 A 
ATOM     57  C   UNL A   1      47.452  24.670  26.434  1.00  0.00     0.031 C 
ATOM     58  C   UNL A   1      48.191  27.011  26.778  1.00  0.00     0.031 A 
BRANCH  45  59
ATOM     59  C   UNL A   1      46.216  32.629  28.421  1.00  0.00    -0.014 A 
ATOM     60  C   UNL A   1      46.661  33.074  29.678  1.00  0.00     0.010 A 
ATOM     61  C   UNL A   1      46.144  33.546  27.356  1.00  0.00     0.010 A 
ATOM     62  C   UNL A   1      47.002  34.416  29.873  1.00  0.00     0.020 A 
ATOM     63  C   UNL A   1      46.505  34.885  27.541  1.00  0.00     0.020 A 
ATOM     64  C   UNL A   1      46.919  35.314  28.803  1.00  0.00     0.054 A 
BRANCH  64  65
ATOM     65  S   UNL A   1      47.404  37.042  29.072  1.00  0.00     0.124 S 
ATOM     66  O   UNL A   1      46.347  37.516  29.962  1.00  0.00    -0.237 OA
ATOM     67  O   UNL A   1      48.726  36.915  29.681  1.00  0.00    -0.237 OA
ATOM     68  O   UNL A   1      47.394  37.618  27.730  1.00  0.00    -0.744 OA
ENDBRANCH  64  65
ENDBRANCH  45  59
BRANCH  46  69
ATOM     69  C   UNL A   1      43.561  23.112  26.918  1.00  0.00    -0.014 A 
ATOM     70  C   UNL A   1      43.776  22.532  25.656  1.00  0.00     0.010 A 
ATOM     71  C   UNL A   1      42.969  22.340  27.936  1.00  0.00     0.010 A 
ATOM     72  C   UNL A   1      43.390  21.210  25.412  1.00  0.00     0.020 A 
ATOM     73  C   UNL A   1      42.609  21.011  27.703  1.00  0.00     0.020 A 
ATOM     74  C   UNL A   1      42.809  20.459  26.437  1.00  0.00     0.054 A 
BRANCH  74  75
ATOM     75  S   UNL A   1      42.360  18.730  26.114  1.00  0.00     0.124 S 
ATOM     76  O   UNL A   1      42.592  18.110  27.415  1.00  0.00    -0.237 OA
ATOM     77  O   UNL A   1      40.962  18.835  25.703  1.00  0.00    -0.237 OA
ATOM     78  O   UNL A   1      43.283  18.332  25.054  1.00  0.00    -0.744 OA
ENDBRANCH  74  75
ENDBRANCH  46  69
BRANCH  58  79
ATOM     79  C   UNL A   1      49.581  26.580  26.399  1.00  0.00    -0.014 A 
ATOM     80  C   UNL A   1      50.084  26.807  25.105  1.00  0.00     0.010 A 
ATOM     81  C   UNL A   1      50.408  25.979  27.364  1.00  0.00     0.010 A 
ATOM     82  C   UNL A   1      51.383  26.415  24.776  1.00  0.00     0.020 A 
ATOM     83  C   UNL A   1      51.716  25.606  27.045  1.00  0.00     0.020 A 
ATOM     84  C   UNL A   1      52.191  25.814  25.748  1.00  0.00     0.054 A 
BRANCH  84  85
ATOM     85  S   UNL A   1      53.890  25.352  25.311  1.00  0.00     0.124 S 
ATOM     86  O   UNL A   1      53.835  23.894  25.384  1.00  0.00    -0.237 OA
ATOM     87  O   UNL A   1      54.041  25.909  23.970  1.00  0.00    -0.237 OA
ATOM     88  O   UNL A   1      54.699  25.998  26.342  1.00  0.00    -0.744 OA
ENDBRANCH  84  85
ENDBRANCH  58  79
ENDBRANCH  32  33
ENDBRANCH  25  27
ENDBRANCH  24  25
ENDBRANCH  23  24
ENDBRANCH   1  23
TORSDOF 18
ENDMDL
MODEL 3
REMARK VINA RESULT:      -9.7      3.724      8.252
REMARK SMILES [NH3+][C@H]1C=C[C@@H](C(=O)NC2(CC(=O)OCCOC(=O)c3ccc(-c4c5nc(c(-c6ccc(S(=O)(=O)[O-])cc6)c6ccc([nH]6)c(-c6ccc(S(=O)(=O)[O-])cc6)c6nc(c(-c7ccc(S(=O)(=O)[O-])cc7)c7ccc4[nH]7)C=C6)C=C5)cc3)CCC2)C1
REMARK SMILES IDX 14 1 13 2 11 3 12 4 10 5 9 6 79 7 81 8 80 9 8 10 6 11 7 12
REMARK SMILES IDX 5 14 2 15 3 16 82 17 4 18 1 19 15 23 16 24 17 25 18 26 19 27
REMARK SMILES IDX 20 28 78 29 21 30 77 31 22 32 23 33 24 34 71 35 25 36 76 37
REMARK SMILES IDX 70 38 72 39 26 40 75 41 69 42 68 43 27 45 57 46 38 47 56 48
REMARK SMILES IDX 39 49 42 50 55 51 73 52 40 53 41 54 54 56 74 57 43 58 28 59
REMARK SMILES IDX 29 60 37 61 30 62 36 63 31 64 32 65 33 66 34 67 35 68 58 69
REMARK SMILES IDX 59 70 67 71 60 72 66 73 61 74 62 75 63 76 64 77 65 78 44 79
REMARK SMILES IDX 45 80 53 81 46 82 52 83 47 84 48 85 49 86 50 87 51 88
REMARK H PARENT 8 13 1 20 1 21 1 22 72 44 42 55
REMARK Flexibility Score: inf
ROOT
ATOM      1  C   UNL A   1      38.647  21.334  25.743  1.00  0.00     0.274 C 
ENDROOT
BRANCH   1   2
ATOM      2  O   UNL A   1      37.665  21.609  24.721  1.00  0.00    -0.462 OA
BRANCH   2   3
ATOM      3  C   UNL A   1      36.444  21.061  24.933  1.00  0.00     0.308 C 
ATOM      4  O   UNL A   1      36.223  19.855  24.985  1.00  0.00    -0.252 OA
BRANCH   3   5
ATOM      5  C   UNL A   1      35.333  22.060  25.107  1.00  0.00     0.151 C 
BRANCH   5   6
ATOM      6  C   UNL A   1      33.941  21.581  25.556  1.00  0.00     0.051 C 
ATOM      7  C   UNL A   1      33.046  22.806  25.968  1.00  0.00     0.029 C 
ATOM      8  C   UNL A   1      33.867  21.165  27.038  1.00  0.00     0.029 C 
ATOM      9  C   UNL A   1      33.545  22.624  27.409  1.00  0.00     0.005 C 
BRANCH   6  10
ATOM     10  N   UNL A   1      33.258  20.850  24.466  1.00  0.00    -0.350 N 
ATOM     11  C   UNL A   1      32.929  19.570  24.152  1.00  0.00     0.227 C 
ATOM     12  O   UNL A   1      32.039  19.476  23.292  1.00  0.00    -0.274 OA
ATOM     13  H   UNL A   1      32.957  21.471  23.764  1.00  0.00     0.164 HD
BRANCH  11  14
ATOM     14  C   UNL A   1      33.483  18.281  24.755  1.00  0.00     0.107 C 
ATOM     15  C   UNL A   1      33.015  15.996  25.456  1.00  0.00     0.205 C 
ATOM     16  C   UNL A   1      33.780  16.034  24.173  1.00  0.00     0.033 C 
ATOM     17  C   UNL A   1      32.562  17.455  25.649  1.00  0.00     0.087 C 
ATOM     18  C   UNL A   1      34.027  17.289  23.774  1.00  0.00    -0.012 C 
BRANCH  15  19
ATOM     19  N   UNL A   1      31.897  15.066  25.392  1.00  0.00    -0.352 N 
ATOM     20  H   UNL A   1      31.106  15.516  24.933  1.00  0.00     0.345 HD
ATOM     21  H   UNL A   1      31.631  14.790  26.336  1.00  0.00     0.345 HD
ATOM     22  H   UNL A   1      32.173  14.241  24.861  1.00  0.00     0.345 HD
ENDBRANCH  15  19
ENDBRANCH  11  14
ENDBRANCH   6  10
ENDBRANCH   5   6
ENDBRANCH   3   5
ENDBRANCH   2   3
ENDBRANCH   1   2
BRANCH   1  23
ATOM     23  C   UNL A   1      39.324  19.990  25.488  1.00  0.00     0.275 C 
BRANCH  23  24
ATOM     24  O   UNL A   1      40.270  19.722  26.535  1.00  0.00    -0.458 OA
BRANCH  24  25
ATOM     25  C   UNL A   1      41.572  19.760  26.168  1.00  0.00     0.338 C 
ATOM     26  O   UNL A   1      42.226  18.849  25.693  1.00  0.00    -0.246 OA
BRANCH  25  27
ATOM     27  C   UNL A   1      42.122  21.098  26.458  1.00  0.00     0.060 A 
ATOM     28  C   UNL A   1      42.377  22.004  25.427  1.00  0.00     0.016 A 
ATOM     29  C   UNL A   1      42.444  21.428  27.774  1.00  0.00     0.016 A 
ATOM     30  C   UNL A   1      42.997  23.223  25.699  1.00  0.00     0.010 A 
ATOM     31  C   UNL A   1      42.993  22.682  28.056  1.00  0.00     0.010 A 
ATOM     32  C   UNL A   1      43.292  23.586  27.019  1.00  0.00    -0.014 A 
BRANCH  32  33
ATOM     33  C   UNL A   1      43.903  24.904  27.332  1.00  0.00     0.031 A 
ATOM     34  C   UNL A   1      43.041  26.046  27.801  1.00  0.00     0.074 A 
ATOM     35  C   UNL A   1      45.229  25.088  27.165  1.00  0.00     0.049 A 
ATOM     36  N   UNL A   1      43.352  27.308  27.948  1.00  0.00    -0.248 NA
ATOM     37  C   UNL A   1      41.644  25.727  28.141  1.00  0.00     0.031 C 
ATOM     38  C   UNL A   1      46.186  24.056  26.756  1.00  0.00     0.029 A 
ATOM     39  N   UNL A   1      46.002  26.214  27.312  1.00  0.00    -0.354 N 
ATOM     40  C   UNL A   1      42.185  27.941  28.362  1.00  0.00     0.074 A 
ATOM     41  C   UNL A   1      41.156  26.925  28.435  1.00  0.00     0.031 C 
ATOM     42  C   UNL A   1      47.414  24.593  26.696  1.00  0.00     0.029 A 
ATOM     43  C   UNL A   1      47.324  26.020  26.987  1.00  0.00     0.049 A 
ATOM     44  H   UNL A   1      45.643  27.079  27.617  1.00  0.00     0.167 HD
ATOM     45  C   UNL A   1      41.989  29.251  28.650  1.00  0.00     0.031 A 
ATOM     46  C   UNL A   1      48.344  26.895  26.890  1.00  0.00     0.031 A 
ATOM     47  C   UNL A   1      43.018  30.255  28.588  1.00  0.00     0.049 A 
ATOM     48  C   UNL A   1      48.087  28.351  27.157  1.00  0.00     0.074 A 
ATOM     49  C   UNL A   1      42.918  31.608  28.862  1.00  0.00     0.029 A 
ATOM     50  N   UNL A   1      44.337  30.016  28.234  1.00  0.00    -0.354 N 
ATOM     51  N   UNL A   1      46.969  28.938  27.514  1.00  0.00    -0.248 NA
ATOM     52  C   UNL A   1      49.226  29.266  26.997  1.00  0.00     0.031 C 
ATOM     53  C   UNL A   1      44.168  32.195  28.636  1.00  0.00     0.029 A 
ATOM     54  C   UNL A   1      45.057  31.198  28.269  1.00  0.00     0.049 A 
ATOM     55  H   UNL A   1      44.707  29.136  27.994  1.00  0.00     0.167 HD
ATOM     56  C   UNL A   1      47.275  30.288  27.635  1.00  0.00     0.074 A 
ATOM     57  C   UNL A   1      48.684  30.429  27.332  1.00  0.00     0.031 C 
ATOM     58  C   UNL A   1      46.460  31.320  27.965  1.00  0.00     0.031 A 
BRANCH  45  59
ATOM     59  C   UNL A   1      40.598  29.683  29.030  1.00  0.00    -0.014 A 
ATOM     60  C   UNL A   1      39.551  29.680  28.091  1.00  0.00     0.010 A 
ATOM     61  C   UNL A   1      40.322  30.044  30.362  1.00  0.00     0.010 A 
ATOM     62  C   UNL A   1      38.259  30.056  28.472  1.00  0.00     0.020 A 
ATOM     63  C   UNL A   1      39.027  30.399  30.752  1.00  0.00     0.020 A 
ATOM     64  C   UNL A   1      38.006  30.415  29.801  1.00  0.00     0.054 A 
BRANCH  64  65
ATOM     65  S   UNL A   1      36.313  30.862  30.278  1.00  0.00     0.124 S 
ATOM     66  O   UNL A   1      35.649  30.952  28.980  1.00  0.00    -0.237 OA
ATOM     67  O   UNL A   1      35.906  29.735  31.114  1.00  0.00    -0.237 OA
ATOM     68  O   UNL A   1      36.475  32.130  30.985  1.00  0.00    -0.744 OA
ENDBRANCH  64  65
ENDBRANCH  45  59
BRANCH  46  69
ATOM     69  C   UNL A   1      49.692  26.423  26.472  1.00  0.00    -0.014 A 
ATOM     70  C   UNL A   1      50.086  26.484  25.124  1.00  0.00     0.010 A 
ATOM     71  C   UNL A   1      50.592  25.912  27.426  1.00  0.00     0.010 A 
ATOM     72  C   UNL A   1      51.350  26.028  24.737  1.00  0.00     0.020 A 
ATOM     73  C   UNL A   1      51.865  25.481  27.046  1.00  0.00     0.020 A 
ATOM     74  C   UNL A   1      52.231  25.529  25.700  1.00  0.00     0.054 A 
BRANCH  74  75
ATOM     75  S   UNL A   1      53.884  24.986  25.184  1.00  0.00     0.124 S 
ATOM     76  O   UNL A   1      54.089  25.759  23.964  1.00  0.00    -0.237 OA
ATOM     77  O   UNL A   1      54.715  25.367  26.324  1.00  0.00    -0.237 OA
ATOM     78  O   UNL A   1      53.724  23.545  24.996  1.00  0.00    -0.744 OA
ENDBRANCH  74  75
ENDBRANCH  46  69
BRANCH  58  79
ATOM     79  C   UNL A   1      47.081  32.686  28.050  1.00  0.00    -0.014 A 
ATOM     80  C   UNL A   1      47.473  33.231  29.286  1.00  0.00     0.010 A 
ATOM     81  C   UNL A   1      47.316  33.415  26.871  1.00  0.00     0.010 A 
ATOM     82  C   UNL A   1      48.064  34.494  29.343  1.00  0.00     0.020 A 
ATOM     83  C   UNL A   1      47.928  34.669  26.921  1.00  0.00     0.020 A 
ATOM     84  C   UNL A   1      48.286  35.208  28.159  1.00  0.00     0.054 A 
BRANCH  84  85
ATOM     85  S   UNL A   1      49.094  36.829  28.253  1.00  0.00     0.124 S 
ATOM     86  O   UNL A   1      48.121  37.692  27.588  1.00  0.00    -0.237 OA
ATOM     87  O   UNL A   1      49.239  37.035  29.691  1.00  0.00    -0.237 OA
ATOM     88  O   UNL A   1      50.348  36.631  27.530  1.00  0.00    -0.744 OA
ENDBRANCH  84  85
ENDBRANCH  58  79
ENDBRANCH  32  33
ENDBRANCH  25  27
ENDBRANCH  24  25
ENDBRANCH  23  24
ENDBRANCH   1  23
TORSDOF 18
ENDMDL
