MODEL 1
REMARK VINA RESULT:     -12.9      0.000      0.000
REMARK SMILES Cc1ccccc1[C@@H]1[NH2+][C@H](C(=O)OCCOC(=O)c2ccc(-c3c4nc(c(-c5ccc(S(=O)(=O)[O-])cc5)c5ccc([nH]5)c(-c5ccc(S(=O)(=O)[O-])cc5)c5nc(c(-c6ccc(S(=O)(=O)[O-])cc6)c6ccc3[nH]6)C=C5)C=C4)cc2)CC2=c3ccccc3=N[C@@H]21
REMARK SMILES IDX 15 1 14 2 13 3 11 4 12 5 10 6 8 7 9 8 88 9 80 12 87 13 79 14
REMARK SMILES IDX 81 15 86 16 82 17 85 18 83 19 84 20 7 21 1 22 2 23 3 24 4 25
REMARK SMILES IDX 6 26 5 27 16 28 17 29 18 30 19 31 20 32 78 33 21 34 77 35
REMARK SMILES IDX 22 36 23 37 24 38 71 39 25 40 76 41 70 42 72 43 26 44 75 45
REMARK SMILES IDX 69 46 68 47 27 49 57 50 38 51 56 52 39 53 42 54 55 55 73 56
REMARK SMILES IDX 40 57 41 58 54 60 74 61 43 62 28 63 29 64 37 65 30 66 36 67
REMARK SMILES IDX 31 68 32 69 33 70 34 71 35 72 58 73 59 74 67 75 60 76 66 77
REMARK SMILES IDX 61 78 62 79 63 80 64 81 65 82 44 83 45 84 53 85 46 86 52 87
REMARK SMILES IDX 47 88 48 89 49 90 50 91 51 92
REMARK H PARENT 9 10 9 11 72 48 42 59
REMARK Flexibility Score: inf
ROOT
ATOM      1  C   UNL A   1      33.689  27.689  26.124  1.00  0.00     0.275 C 
ENDROOT
BRANCH   1   2
ATOM      2  C   UNL A   1      33.741  27.507  24.587  1.00  0.00     0.274 C 
BRANCH   2   3
ATOM      3  O   UNL A   1      33.582  26.192  23.972  1.00  0.00    -0.458 OA
BRANCH   3   4
ATOM      4  C   UNL A   1      33.785  25.729  22.698  1.00  0.00     0.365 C 
ATOM      5  O   UNL A   1      33.852  26.517  21.763  1.00  0.00    -0.245 OA
BRANCH   4   6
ATOM      6  C   UNL A   1      33.983  24.215  22.559  1.00  0.00     0.298 C 
ATOM      7  C   UNL A   1      34.551  22.517  24.276  1.00  0.00     0.243 C 
ATOM      8  N   UNL A   1      34.662  23.873  23.786  1.00  0.00    -0.326 N 
ATOM      9  C   UNL A   1      33.021  22.330  24.655  1.00  0.00     0.196 C 
ATOM     10  H   UNL A   1      35.655  24.062  23.644  1.00  0.00     0.347 HD
ATOM     11  H   UNL A   1      34.197  24.437  24.497  1.00  0.00     0.347 HD
ATOM     12  C   UNL A   1      32.144  22.948  23.552  1.00  0.00    -0.024 C 
ATOM     13  N   UNL A   1      32.581  23.096  25.865  1.00  0.00    -0.270 NA
ATOM     14  C   UNL A   1      32.787  23.298  22.242  1.00  0.00     0.111 C 
ATOM     15  C   UNL A   1      31.177  23.726  24.034  1.00  0.00     0.002 A 
ATOM     16  C   UNL A   1      31.595  23.835  25.442  1.00  0.00     0.066 A 
ATOM     17  C   UNL A   1      30.388  24.740  23.396  1.00  0.00     0.010 A 
ATOM     18  C   UNL A   1      30.937  24.917  26.212  1.00  0.00     0.028 A 
ATOM     19  C   UNL A   1      29.957  25.776  24.128  1.00  0.00     0.001 A 
ATOM     20  C   UNL A   1      30.196  25.830  25.558  1.00  0.00     0.002 A 
BRANCH   7  21
ATOM     21  C   UNL A   1      35.765  22.498  25.232  1.00  0.00     0.015 A 
ATOM     22  C   UNL A   1      36.212  19.960  24.838  1.00  0.00     0.045 C 
ATOM     23  C   UNL A   1      36.594  21.341  25.323  1.00  0.00    -0.042 A 
ATOM     24  C   UNL A   1      37.942  21.474  25.731  1.00  0.00     0.004 A 
ATOM     25  C   UNL A   1      38.500  22.720  26.008  1.00  0.00     0.000 A 
ATOM     26  C   UNL A   1      36.348  23.741  25.597  1.00  0.00     0.010 A 
ATOM     27  C   UNL A   1      37.702  23.853  25.939  1.00  0.00     0.001 A 
ENDBRANCH   7  21
ENDBRANCH   4   6
ENDBRANCH   3   4
ENDBRANCH   2   3
ENDBRANCH   1   2
BRANCH   1  28
ATOM     28  O   UNL A   1      34.669  28.534  26.803  1.00  0.00    -0.458 OA
BRANCH  28  29
ATOM     29  C   UNL A   1      34.554  29.763  27.431  1.00  0.00     0.338 C 
ATOM     30  O   UNL A   1      33.496  30.356  27.446  1.00  0.00    -0.246 OA
BRANCH  29  31
ATOM     31  C   UNL A   1      35.727  30.162  28.257  1.00  0.00     0.060 A 
ATOM     32  C   UNL A   1      35.980  29.659  29.551  1.00  0.00     0.016 A 
ATOM     33  C   UNL A   1      36.746  30.631  27.497  1.00  0.00     0.016 A 
ATOM     34  C   UNL A   1      37.303  29.324  29.919  1.00  0.00     0.010 A 
ATOM     35  C   UNL A   1      37.889  29.927  27.689  1.00  0.00     0.010 A 
ATOM     36  C   UNL A   1      38.266  29.354  28.915  1.00  0.00    -0.014 A 
BRANCH  36  37
ATOM     37  C   UNL A   1      39.667  28.878  28.888  1.00  0.00     0.031 A 
ATOM     38  C   UNL A   1      40.059  27.491  28.501  1.00  0.00     0.074 A 
ATOM     39  C   UNL A   1      40.554  29.864  29.209  1.00  0.00     0.049 A 
ATOM     40  N   UNL A   1      40.770  26.686  29.224  1.00  0.00    -0.248 NA
ATOM     41  C   UNL A   1      39.682  26.865  27.225  1.00  0.00     0.031 C 
ATOM     42  C   UNL A   1      41.995  29.958  29.235  1.00  0.00     0.029 A 
ATOM     43  N   UNL A   1      40.195  31.101  29.755  1.00  0.00    -0.354 N 
ATOM     44  C   UNL A   1      41.219  25.684  28.365  1.00  0.00     0.074 A 
ATOM     45  C   UNL A   1      40.318  25.686  27.249  1.00  0.00     0.031 C 
ATOM     46  C   UNL A   1      42.341  30.969  30.074  1.00  0.00     0.029 A 
ATOM     47  C   UNL A   1      41.119  31.536  30.654  1.00  0.00     0.049 A 
ATOM     48  H   UNL A   1      39.376  31.595  29.520  1.00  0.00     0.167 HD
ATOM     49  C   UNL A   1      42.514  25.245  28.412  1.00  0.00     0.031 A 
ATOM     50  C   UNL A   1      40.659  31.570  31.938  1.00  0.00     0.031 A 
ATOM     51  C   UNL A   1      43.276  26.129  29.281  1.00  0.00     0.049 A 
ATOM     52  C   UNL A   1      41.370  30.476  32.668  1.00  0.00     0.074 A 
ATOM     53  C   UNL A   1      44.128  27.178  28.979  1.00  0.00     0.029 A 
ATOM     54  N   UNL A   1      42.939  26.248  30.616  1.00  0.00    -0.354 N 
ATOM     55  N   UNL A   1      41.697  29.330  32.136  1.00  0.00    -0.248 NA
ATOM     56  C   UNL A   1      41.939  30.694  33.987  1.00  0.00     0.031 C 
ATOM     57  C   UNL A   1      44.292  27.947  30.157  1.00  0.00     0.029 A 
ATOM     58  C   UNL A   1      43.509  27.382  31.151  1.00  0.00     0.049 A 
ATOM     59  H   UNL A   1      42.374  25.614  31.113  1.00  0.00     0.167 HD
ATOM     60  C   UNL A   1      42.641  28.744  32.934  1.00  0.00     0.074 A 
ATOM     61  C   UNL A   1      42.724  29.612  34.099  1.00  0.00     0.031 C 
ATOM     62  C   UNL A   1      43.370  27.651  32.566  1.00  0.00     0.031 A 
BRANCH  49  63
ATOM     63  C   UNL A   1      43.220  24.316  27.430  1.00  0.00    -0.014 A 
ATOM     64  C   UNL A   1      42.821  22.958  27.373  1.00  0.00     0.010 A 
ATOM     65  C   UNL A   1      44.207  24.703  26.501  1.00  0.00     0.010 A 
ATOM     66  C   UNL A   1      43.399  22.026  26.501  1.00  0.00     0.020 A 
ATOM     67  C   UNL A   1      44.802  23.771  25.617  1.00  0.00     0.020 A 
ATOM     68  C   UNL A   1      44.395  22.435  25.627  1.00  0.00     0.054 A 
BRANCH  68  69
ATOM     69  S   UNL A   1      45.102  21.201  24.498  1.00  0.00     0.124 S 
ATOM     70  O   UNL A   1      44.592  21.635  23.199  1.00  0.00    -0.237 OA
ATOM     71  O   UNL A   1      46.538  21.374  24.695  1.00  0.00    -0.237 OA
ATOM     72  O   UNL A   1      44.557  19.935  24.981  1.00  0.00    -0.744 OA
ENDBRANCH  68  69
ENDBRANCH  49  63
BRANCH  50  73
ATOM     73  C   UNL A   1      39.186  31.953  32.076  1.00  0.00    -0.014 A 
ATOM     74  C   UNL A   1      38.443  31.359  33.130  1.00  0.00     0.010 A 
ATOM     75  C   UNL A   1      38.612  33.082  31.456  1.00  0.00     0.010 A 
ATOM     76  C   UNL A   1      37.240  31.916  33.604  1.00  0.00     0.020 A 
ATOM     77  C   UNL A   1      37.390  33.635  31.917  1.00  0.00     0.020 A 
ATOM     78  C   UNL A   1      36.726  33.066  33.009  1.00  0.00     0.054 A 
BRANCH  78  79
ATOM     79  S   UNL A   1      35.315  33.902  33.825  1.00  0.00     0.124 S 
ATOM     80  O   UNL A   1      35.468  35.284  33.381  1.00  0.00    -0.237 OA
ATOM     81  O   UNL A   1      34.165  33.195  33.258  1.00  0.00    -0.237 OA
ATOM     82  O   UNL A   1      35.552  33.670  35.247  1.00  0.00    -0.744 OA
ENDBRANCH  78  79
ENDBRANCH  50  73
BRANCH  62  83
ATOM     83  C   UNL A   1      44.115  26.749  33.509  1.00  0.00    -0.014 A 
ATOM     84  C   UNL A   1      45.510  26.690  33.575  1.00  0.00     0.010 A 
ATOM     85  C   UNL A   1      43.391  26.034  34.497  1.00  0.00     0.010 A 
ATOM     86  C   UNL A   1      46.153  25.893  34.519  1.00  0.00     0.020 A 
ATOM     87  C   UNL A   1      44.023  25.298  35.493  1.00  0.00     0.020 A 
ATOM     88  C   UNL A   1      45.405  25.205  35.473  1.00  0.00     0.054 A 
BRANCH  88  89
ATOM     89  S   UNL A   1      46.276  24.226  36.707  1.00  0.00     0.124 S 
ATOM     90  O   UNL A   1      46.088  22.872  36.194  1.00  0.00    -0.237 OA
ATOM     91  O   UNL A   1      47.638  24.746  36.623  1.00  0.00    -0.237 OA
ATOM     92  O   UNL A   1      45.574  24.530  37.951  1.00  0.00    -0.744 OA
ENDBRANCH  88  89
ENDBRANCH  62  83
ENDBRANCH  36  37
ENDBRANCH  29  31
ENDBRANCH  28  29
ENDBRANCH   1  28
TORSDOF 15
ENDMDL
MODEL 2
REMARK VINA RESULT:     -12.9      2.150      4.329
REMARK SMILES Cc1ccccc1[C@@H]1[NH2+][C@H](C(=O)OCCOC(=O)c2ccc(-c3c4nc(c(-c5ccc(S(=O)(=O)[O-])cc5)c5ccc([nH]5)c(-c5ccc(S(=O)(=O)[O-])cc5)c5nc(c(-c6ccc(S(=O)(=O)[O-])cc6)c6ccc3[nH]6)C=C5)C=C4)cc2)CC2=c3ccccc3=N[C@@H]21
REMARK SMILES IDX 15 1 14 2 13 3 11 4 12 5 10 6 8 7 9 8 88 9 80 12 87 13 79 14
REMARK SMILES IDX 81 15 86 16 82 17 85 18 83 19 84 20 7 21 1 22 2 23 3 24 4 25
REMARK SMILES IDX 6 26 5 27 16 28 17 29 18 30 19 31 20 32 78 33 21 34 77 35
REMARK SMILES IDX 22 36 23 37 24 38 71 39 25 40 76 41 70 42 72 43 26 44 75 45
REMARK SMILES IDX 69 46 68 47 27 49 57 50 38 51 56 52 39 53 42 54 55 55 73 56
REMARK SMILES IDX 40 57 41 58 54 60 74 61 43 62 28 63 29 64 37 65 30 66 36 67
REMARK SMILES IDX 31 68 32 69 33 70 34 71 35 72 58 73 59 74 67 75 60 76 66 77
REMARK SMILES IDX 61 78 62 79 63 80 64 81 65 82 44 83 45 84 53 85 46 86 52 87
REMARK SMILES IDX 47 88 48 89 49 90 50 91 51 92
REMARK H PARENT 9 10 9 11 72 48 42 59
REMARK Flexibility Score: inf
ROOT
ATOM      1  C   UNL A   1      34.770  31.336  27.819  1.00  0.00     0.275 C 
ENDROOT
BRANCH   1   2
ATOM      2  C   UNL A   1      33.792  30.209  27.405  1.00  0.00     0.274 C 
BRANCH   2   3
ATOM      3  O   UNL A   1      34.118  29.278  26.328  1.00  0.00    -0.458 OA
BRANCH   3   4
ATOM      4  C   UNL A   1      33.359  28.667  25.365  1.00  0.00     0.365 C 
ATOM      5  O   UNL A   1      33.876  28.306  24.314  1.00  0.00    -0.245 OA
BRANCH   4   6
ATOM      6  C   UNL A   1      31.889  28.419  25.726  1.00  0.00     0.298 C 
ATOM      7  C   UNL A   1      29.980  27.770  24.280  1.00  0.00     0.243 C 
ATOM      8  N   UNL A   1      31.237  28.468  24.439  1.00  0.00    -0.326 N 
ATOM      9  C   UNL A   1      30.329  26.230  24.441  1.00  0.00     0.196 C 
ATOM     10  H   UNL A   1      31.066  29.451  24.224  1.00  0.00     0.347 HD
ATOM     11  H   UNL A   1      31.878  27.979  23.813  1.00  0.00     0.347 HD
ATOM     12  C   UNL A   1      31.300  26.049  25.622  1.00  0.00    -0.024 C 
ATOM     13  N   UNL A   1      31.111  25.647  23.305  1.00  0.00    -0.270 NA
ATOM     14  C   UNL A   1      31.489  27.195  26.571  1.00  0.00     0.111 C 
ATOM     15  C   UNL A   1      32.336  25.268  25.325  1.00  0.00     0.002 A 
ATOM     16  C   UNL A   1      32.184  25.162  23.863  1.00  0.00     0.066 A 
ATOM     17  C   UNL A   1      33.609  25.120  25.968  1.00  0.00     0.010 A 
ATOM     18  C   UNL A   1      33.371  24.644  23.142  1.00  0.00     0.028 A 
ATOM     19  C   UNL A   1      34.675  24.800  25.221  1.00  0.00     0.001 A 
ATOM     20  C   UNL A   1      34.534  24.513  23.806  1.00  0.00     0.002 A 
BRANCH   7  21
ATOM     21  C   UNL A   1      29.456  28.488  23.016  1.00  0.00     0.015 A 
ATOM     22  C   UNL A   1      26.960  28.086  23.652  1.00  0.00     0.045 C 
ATOM     23  C   UNL A   1      28.064  28.754  22.861  1.00  0.00    -0.042 A 
ATOM     24  C   UNL A   1      27.640  29.830  22.047  1.00  0.00     0.004 A 
ATOM     25  C   UNL A   1      28.555  30.672  21.420  1.00  0.00     0.000 A 
ATOM     26  C   UNL A   1      30.356  29.320  22.298  1.00  0.00     0.010 A 
ATOM     27  C   UNL A   1      29.913  30.417  21.547  1.00  0.00     0.001 A 
ENDBRANCH   7  21
ENDBRANCH   4   6
ENDBRANCH   3   4
ENDBRANCH   2   3
ENDBRANCH   1   2
BRANCH   1  28
ATOM     28  O   UNL A   1      35.529  31.236  29.064  1.00  0.00    -0.458 OA
BRANCH  28  29
ATOM     29  C   UNL A   1      36.378  30.258  29.554  1.00  0.00     0.338 C 
ATOM     30  O   UNL A   1      36.335  29.925  30.718  1.00  0.00    -0.246 OA
BRANCH  29  31
ATOM     31  C   UNL A   1      37.147  29.514  28.518  1.00  0.00     0.060 A 
ATOM     32  C   UNL A   1      37.962  30.137  27.550  1.00  0.00     0.016 A 
ATOM     33  C   UNL A   1      37.389  28.233  28.889  1.00  0.00     0.016 A 
ATOM     34  C   UNL A   1      39.215  29.568  27.225  1.00  0.00     0.010 A 
ATOM     35  C   UNL A   1      38.715  27.948  28.899  1.00  0.00     0.010 A 
ATOM     36  C   UNL A   1      39.648  28.504  28.010  1.00  0.00    -0.014 A 
BRANCH  36  37
ATOM     37  C   UNL A   1      40.957  27.818  28.092  1.00  0.00     0.031 A 
ATOM     38  C   UNL A   1      41.153  26.375  27.763  1.00  0.00     0.074 A 
ATOM     39  C   UNL A   1      41.962  28.665  28.454  1.00  0.00     0.049 A 
ATOM     40  N   UNL A   1      41.681  25.493  28.551  1.00  0.00    -0.248 NA
ATOM     41  C   UNL A   1      40.770  25.775  26.477  1.00  0.00     0.031 C 
ATOM     42  C   UNL A   1      43.395  28.538  28.580  1.00  0.00     0.029 A 
ATOM     43  N   UNL A   1      41.764  29.959  28.948  1.00  0.00    -0.354 N 
ATOM     44  C   UNL A   1      42.025  24.408  27.748  1.00  0.00     0.074 A 
ATOM     45  C   UNL A   1      41.212  24.514  26.570  1.00  0.00     0.031 C 
ATOM     46  C   UNL A   1      43.838  29.509  29.420  1.00  0.00     0.029 A 
ATOM     47  C   UNL A   1      42.683  30.275  29.900  1.00  0.00     0.049 A 
ATOM     48  H   UNL A   1      41.050  30.565  28.645  1.00  0.00     0.167 HD
ATOM     49  C   UNL A   1      43.230  23.777  27.895  1.00  0.00     0.031 A 
ATOM     50  C   UNL A   1      42.149  30.421  31.147  1.00  0.00     0.031 A 
ATOM     51  C   UNL A   1      44.060  24.561  28.797  1.00  0.00     0.049 A 
ATOM     52  C   UNL A   1      42.631  29.254  31.949  1.00  0.00     0.074 A 
ATOM     53  C   UNL A   1      45.083  25.457  28.534  1.00  0.00     0.029 A 
ATOM     54  N   UNL A   1      43.658  24.772  30.102  1.00  0.00    -0.354 N 
ATOM     55  N   UNL A   1      42.811  28.055  31.465  1.00  0.00    -0.248 NA
ATOM     56  C   UNL A   1      43.138  29.423  33.299  1.00  0.00     0.031 C 
ATOM     57  C   UNL A   1      45.286  26.229  29.704  1.00  0.00     0.029 A 
ATOM     58  C   UNL A   1      44.361  25.822  30.652  1.00  0.00     0.049 A 
ATOM     59  H   UNL A   1      42.969  24.248  30.571  1.00  0.00     0.167 HD
ATOM     60  C   UNL A   1      43.598  27.357  32.340  1.00  0.00     0.074 A 
ATOM     61  C   UNL A   1      43.736  28.238  33.489  1.00  0.00     0.031 C 
ATOM     62  C   UNL A   1      44.170  26.154  32.048  1.00  0.00     0.031 A 
BRANCH  49  63
ATOM     63  C   UNL A   1      43.848  22.720  26.985  1.00  0.00    -0.014 A 
ATOM     64  C   UNL A   1      43.043  21.634  26.562  1.00  0.00     0.010 A 
ATOM     65  C   UNL A   1      45.152  22.757  26.454  1.00  0.00     0.010 A 
ATOM     66  C   UNL A   1      43.510  20.617  25.720  1.00  0.00     0.020 A 
ATOM     67  C   UNL A   1      45.639  21.734  25.605  1.00  0.00     0.020 A 
ATOM     68  C   UNL A   1      44.813  20.667  25.248  1.00  0.00     0.054 A 
BRANCH  68  69
ATOM     69  S   UNL A   1      45.372  19.340  24.140  1.00  0.00     0.124 S 
ATOM     70  O   UNL A   1      44.565  19.569  22.943  1.00  0.00    -0.237 OA
ATOM     71  O   UNL A   1      46.797  19.624  23.998  1.00  0.00    -0.237 OA
ATOM     72  O   UNL A   1      45.053  18.117  24.873  1.00  0.00    -0.744 OA
ENDBRANCH  68  69
ENDBRANCH  49  63
BRANCH  50  73
ATOM     73  C   UNL A   1      40.748  31.030  31.173  1.00  0.00    -0.014 A 
ATOM     74  C   UNL A   1      39.787  30.443  32.037  1.00  0.00     0.010 A 
ATOM     75  C   UNL A   1      40.444  32.309  30.664  1.00  0.00     0.010 A 
ATOM     76  C   UNL A   1      38.630  31.133  32.449  1.00  0.00     0.020 A 
ATOM     77  C   UNL A   1      39.271  33.000  31.060  1.00  0.00     0.020 A 
ATOM     78  C   UNL A   1      38.385  32.420  31.974  1.00  0.00     0.054 A 
BRANCH  78  79
ATOM     79  S   UNL A   1      37.022  33.375  32.740  1.00  0.00     0.124 S 
ATOM     80  O   UNL A   1      35.943  33.218  31.769  1.00  0.00    -0.237 OA
ATOM     81  O   UNL A   1      36.821  32.669  34.006  1.00  0.00    -0.237 OA
ATOM     82  O   UNL A   1      37.569  34.724  32.857  1.00  0.00    -0.744 OA
ENDBRANCH  78  79
ENDBRANCH  50  73
BRANCH  62  83
ATOM     83  C   UNL A   1      44.702  25.178  33.060  1.00  0.00    -0.014 A 
ATOM     84  C   UNL A   1      43.901  24.248  33.727  1.00  0.00     0.010 A 
ATOM     85  C   UNL A   1      46.105  25.072  33.243  1.00  0.00     0.010 A 
ATOM     86  C   UNL A   1      44.456  23.315  34.600  1.00  0.00     0.020 A 
ATOM     87  C   UNL A   1      46.677  24.094  34.050  1.00  0.00     0.020 A 
ATOM     88  C   UNL A   1      45.840  23.242  34.753  1.00  0.00     0.054 A 
BRANCH  88  89
ATOM     89  S   UNL A   1      46.520  21.990  35.851  1.00  0.00     0.124 S 
ATOM     90  O   UNL A   1      45.630  22.095  37.004  1.00  0.00    -0.237 OA
ATOM     91  O   UNL A   1      46.383  20.767  35.063  1.00  0.00    -0.237 OA
ATOM     92  O   UNL A   1      47.894  22.431  36.075  1.00  0.00    -0.744 OA
ENDBRANCH  88  89
ENDBRANCH  62  83
ENDBRANCH  36  37
ENDBRANCH  29  31
ENDBRANCH  28  29
ENDBRANCH   1  28
TORSDOF 15
ENDMDL
MODEL 3
REMARK VINA RESULT:     -12.8      1.968      3.005
REMARK SMILES Cc1ccccc1[C@@H]1[NH2+][C@H](C(=O)OCCOC(=O)c2ccc(-c3c4nc(c(-c5ccc(S(=O)(=O)[O-])cc5)c5ccc([nH]5)c(-c5ccc(S(=O)(=O)[O-])cc5)c5nc(c(-c6ccc(S(=O)(=O)[O-])cc6)c6ccc3[nH]6)C=C5)C=C4)cc2)CC2=c3ccccc3=N[C@@H]21
REMARK SMILES IDX 15 1 14 2 13 3 11 4 12 5 10 6 8 7 9 8 88 9 80 12 87 13 79 14
REMARK SMILES IDX 81 15 86 16 82 17 85 18 83 19 84 20 7 21 1 22 2 23 3 24 4 25
REMARK SMILES IDX 6 26 5 27 16 28 17 29 18 30 19 31 20 32 78 33 21 34 77 35
REMARK SMILES IDX 22 36 23 37 24 38 71 39 25 40 76 41 70 42 72 43 26 44 75 45
REMARK SMILES IDX 69 46 68 47 27 49 57 50 38 51 56 52 39 53 42 54 55 55 73 56
REMARK SMILES IDX 40 57 41 58 54 60 74 61 43 62 28 63 29 64 37 65 30 66 36 67
REMARK SMILES IDX 31 68 32 69 33 70 34 71 35 72 58 73 59 74 67 75 60 76 66 77
REMARK SMILES IDX 61 78 62 79 63 80 64 81 65 82 44 83 45 84 53 85 46 86 52 87
REMARK SMILES IDX 47 88 48 89 49 90 50 91 51 92
REMARK H PARENT 9 10 9 11 72 48 42 59
REMARK Flexibility Score: inf
ROOT
ATOM      1  C   UNL A   1      33.878  31.153  27.573  1.00  0.00     0.275 C 
ENDROOT
BRANCH   1   2
ATOM      2  C   UNL A   1      32.741  30.311  26.944  1.00  0.00     0.274 C 
BRANCH   2   3
ATOM      3  O   UNL A   1      32.424  28.974  27.438  1.00  0.00    -0.458 OA
BRANCH   3   4
ATOM      4  C   UNL A   1      32.235  27.770  26.812  1.00  0.00     0.365 C 
ATOM      5  O   UNL A   1      31.137  27.228  26.841  1.00  0.00    -0.245 OA
BRANCH   4   6
ATOM      6  C   UNL A   1      33.443  27.217  26.045  1.00  0.00     0.298 C 
ATOM      7  C   UNL A   1      33.778  25.000  24.983  1.00  0.00     0.243 C 
ATOM      8  N   UNL A   1      33.185  25.797  26.034  1.00  0.00    -0.326 N 
ATOM      9  C   UNL A   1      33.091  25.494  23.640  1.00  0.00     0.196 C 
ATOM     10  H   UNL A   1      33.520  25.422  26.922  1.00  0.00     0.347 HD
ATOM     11  H   UNL A   1      32.181  25.725  25.869  1.00  0.00     0.347 HD
ATOM     12  C   UNL A   1      33.007  27.031  23.647  1.00  0.00    -0.024 C 
ATOM     13  N   UNL A   1      31.651  25.106  23.499  1.00  0.00    -0.270 NA
ATOM     14  C   UNL A   1      33.815  27.784  24.661  1.00  0.00     0.111 C 
ATOM     15  C   UNL A   1      31.805  27.485  23.300  1.00  0.00     0.002 A 
ATOM     16  C   UNL A   1      31.024  26.236  23.334  1.00  0.00     0.066 A 
ATOM     17  C   UNL A   1      31.195  28.767  23.506  1.00  0.00     0.010 A 
ATOM     18  C   UNL A   1      29.552  26.413  23.336  1.00  0.00     0.028 A 
ATOM     19  C   UNL A   1      29.865  28.831  23.657  1.00  0.00     0.001 A 
ATOM     20  C   UNL A   1      29.041  27.645  23.518  1.00  0.00     0.002 A 
BRANCH   7  21
ATOM     21  C   UNL A   1      33.667  23.604  25.637  1.00  0.00     0.015 A 
ATOM     22  C   UNL A   1      35.862  22.752  24.519  1.00  0.00     0.045 C 
ATOM     23  C   UNL A   1      34.737  22.668  25.527  1.00  0.00    -0.042 A 
ATOM     24  C   UNL A   1      34.899  21.667  26.513  1.00  0.00     0.004 A 
ATOM     25  C   UNL A   1      34.061  21.597  27.623  1.00  0.00     0.000 A 
ATOM     26  C   UNL A   1      32.787  23.451  26.741  1.00  0.00     0.010 A 
ATOM     27  C   UNL A   1      33.006  22.490  27.737  1.00  0.00     0.001 A 
ENDBRANCH   7  21
ENDBRANCH   4   6
ENDBRANCH   3   4
ENDBRANCH   2   3
ENDBRANCH   1   2
BRANCH   1  28
ATOM     28  O   UNL A   1      34.981  30.499  28.275  1.00  0.00    -0.458 OA
BRANCH  28  29
ATOM     29  C   UNL A   1      36.030  29.716  27.822  1.00  0.00     0.338 C 
ATOM     30  O   UNL A   1      36.003  29.220  26.717  1.00  0.00    -0.246 OA
BRANCH  29  31
ATOM     31  C   UNL A   1      37.247  29.736  28.680  1.00  0.00     0.060 A 
ATOM     32  C   UNL A   1      37.365  29.017  29.889  1.00  0.00     0.016 A 
ATOM     33  C   UNL A   1      38.357  30.075  27.979  1.00  0.00     0.016 A 
ATOM     34  C   UNL A   1      38.579  28.358  30.190  1.00  0.00     0.010 A 
ATOM     35  C   UNL A   1      39.319  29.122  28.058  1.00  0.00     0.010 A 
ATOM     36  C   UNL A   1      39.543  28.319  29.187  1.00  0.00    -0.014 A 
BRANCH  36  37
ATOM     37  C   UNL A   1      40.809  27.561  29.076  1.00  0.00     0.031 A 
ATOM     38  C   UNL A   1      40.886  26.148  28.600  1.00  0.00     0.074 A 
ATOM     39  C   UNL A   1      41.894  28.316  29.412  1.00  0.00     0.049 A 
ATOM     40  N   UNL A   1      41.431  25.169  29.248  1.00  0.00    -0.248 NA
ATOM     41  C   UNL A   1      40.347  25.695  27.309  1.00  0.00     0.031 C 
ATOM     42  C   UNL A   1      43.322  28.104  29.383  1.00  0.00     0.029 A 
ATOM     43  N   UNL A   1      41.822  29.566  30.038  1.00  0.00    -0.354 N 
ATOM     44  C   UNL A   1      41.631  24.150  28.320  1.00  0.00     0.074 A 
ATOM     45  C   UNL A   1      40.719  24.410  27.244  1.00  0.00     0.031 C 
ATOM     46  C   UNL A   1      43.900  28.966  30.259  1.00  0.00     0.029 A 
ATOM     47  C   UNL A   1      42.844  29.741  30.920  1.00  0.00     0.049 A 
ATOM     48  H   UNL A   1      41.121  30.234  29.864  1.00  0.00     0.167 HD
ATOM     49  C   UNL A   1      42.804  23.446  28.289  1.00  0.00     0.031 A 
ATOM     50  C   UNL A   1      42.440  29.793  32.222  1.00  0.00     0.031 A 
ATOM     51  C   UNL A   1      43.761  24.096  29.171  1.00  0.00     0.049 A 
ATOM     52  C   UNL A   1      42.923  28.531  32.862  1.00  0.00     0.074 A 
ATOM     53  C   UNL A   1      44.808  24.959  28.890  1.00  0.00     0.029 A 
ATOM     54  N   UNL A   1      43.498  24.201  30.523  1.00  0.00    -0.354 N 
ATOM     55  N   UNL A   1      42.984  27.377  32.256  1.00  0.00    -0.248 NA
ATOM     56  C   UNL A   1      43.565  28.544  34.165  1.00  0.00     0.031 C 
ATOM     57  C   UNL A   1      45.166  25.603  30.099  1.00  0.00     0.029 A 
ATOM     58  C   UNL A   1      44.311  25.155  31.094  1.00  0.00     0.049 A 
ATOM     59  H   UNL A   1      42.825  23.671  31.009  1.00  0.00     0.167 HD
ATOM     60  C   UNL A   1      43.805  26.558  32.982  1.00  0.00     0.074 A 
ATOM     61  C   UNL A   1      44.104  27.316  34.187  1.00  0.00     0.031 C 
ATOM     62  C   UNL A   1      44.273  25.360  32.526  1.00  0.00     0.031 A 
BRANCH  49  63
ATOM     63  C   UNL A   1      43.268  22.451  27.230  1.00  0.00    -0.014 A 
ATOM     64  C   UNL A   1      44.529  22.652  26.616  1.00  0.00     0.010 A 
ATOM     65  C   UNL A   1      42.580  21.284  26.845  1.00  0.00     0.010 A 
ATOM     66  C   UNL A   1      45.051  21.793  25.640  1.00  0.00     0.020 A 
ATOM     67  C   UNL A   1      43.094  20.409  25.858  1.00  0.00     0.020 A 
ATOM     68  C   UNL A   1      44.327  20.674  25.259  1.00  0.00     0.054 A 
BRANCH  68  69
ATOM     69  S   UNL A   1      45.050  19.574  24.007  1.00  0.00     0.124 S 
ATOM     70  O   UNL A   1      44.462  18.279  24.349  1.00  0.00    -0.237 OA
ATOM     71  O   UNL A   1      44.581  20.162  22.757  1.00  0.00    -0.237 OA
ATOM     72  O   UNL A   1      46.488  19.678  24.242  1.00  0.00    -0.744 OA
ENDBRANCH  68  69
ENDBRANCH  49  63
BRANCH  50  73
ATOM     73  C   UNL A   1      41.087  30.468  32.441  1.00  0.00    -0.014 A 
ATOM     74  C   UNL A   1      40.098  29.750  33.164  1.00  0.00     0.010 A 
ATOM     75  C   UNL A   1      40.869  31.851  32.275  1.00  0.00     0.010 A 
ATOM     76  C   UNL A   1      39.000  30.391  33.770  1.00  0.00     0.020 A 
ATOM     77  C   UNL A   1      39.755  32.499  32.867  1.00  0.00     0.020 A 
ATOM     78  C   UNL A   1      38.842  31.769  33.636  1.00  0.00     0.054 A 
BRANCH  78  79
ATOM     79  S   UNL A   1      37.563  32.592  34.657  1.00  0.00     0.124 S 
ATOM     80  O   UNL A   1      37.467  31.708  35.815  1.00  0.00    -0.237 OA
ATOM     81  O   UNL A   1      38.172  33.896  34.926  1.00  0.00    -0.237 OA
ATOM     82  O   UNL A   1      36.390  32.618  33.788  1.00  0.00    -0.744 OA
ENDBRANCH  78  79
ENDBRANCH  50  73
BRANCH  62  83
ATOM     83  C   UNL A   1      44.838  24.266  33.387  1.00  0.00    -0.014 A 
ATOM     84  C   UNL A   1      46.153  24.262  33.862  1.00  0.00     0.010 A 
ATOM     85  C   UNL A   1      43.968  23.262  33.885  1.00  0.00     0.010 A 
ATOM     86  C   UNL A   1      46.605  23.262  34.720  1.00  0.00     0.020 A 
ATOM     87  C   UNL A   1      44.387  22.305  34.803  1.00  0.00     0.020 A 
ATOM     88  C   UNL A   1      45.719  22.292  35.187  1.00  0.00     0.054 A 
BRANCH  88  89
ATOM     89  S   UNL A   1      46.330  21.048  36.333  1.00  0.00     0.124 S 
ATOM     90  O   UNL A   1      47.756  21.034  36.019  1.00  0.00    -0.237 OA
ATOM     91  O   UNL A   1      45.979  21.613  37.634  1.00  0.00    -0.237 OA
ATOM     92  O   UNL A   1      45.594  19.842  35.964  1.00  0.00    -0.744 OA
ENDBRANCH  88  89
ENDBRANCH  62  83
ENDBRANCH  36  37
ENDBRANCH  29  31
ENDBRANCH  28  29
ENDBRANCH   1  28
TORSDOF 15
ENDMDL
