MODEL 1
REMARK VINA RESULT:      -9.4      0.000      0.000
REMARK SMILES CC[C@H](Oc1c(C)cc(Br)cc1N)C(=O)OCCOC(=O)c1ccc(-c2c3nc(c(-c4ccc(S(=O)(=O)[O-])cc4)c4ccc([nH]4)c(-c4ccc(S(=O)(=O)[O-])cc4)c4nc(c(-c5ccc(S(=O)(=O)[O-])cc5)c5ccc2[nH]5)C=C4)C=C3)cc1
REMARK SMILES IDX 17 1 16 2 14 3 15 4 3 5 2 6 1 7 4 8 5 9 6 10 12 11 7 12 8 13
REMARK SMILES IDX 11 14 9 15 10 16 13 17 18 20 19 21 20 22 21 23 22 24 23 25
REMARK SMILES IDX 81 26 24 27 80 28 25 29 26 30 27 31 74 32 28 33 79 34 73 35
REMARK SMILES IDX 75 36 29 37 78 38 72 39 71 40 30 42 60 43 41 44 59 45 42 46
REMARK SMILES IDX 45 47 58 48 76 49 43 50 44 51 57 53 77 54 46 55 31 56 32 57
REMARK SMILES IDX 40 58 33 59 39 60 34 61 35 62 36 63 37 64 38 65 61 66 62 67
REMARK SMILES IDX 70 68 63 69 69 70 64 71 65 72 66 73 67 74 68 75 47 76 48 77
REMARK SMILES IDX 56 78 49 79 55 80 50 81 51 82 52 83 53 84 54 85
REMARK H PARENT 13 18 13 19 75 41 45 52
REMARK Flexibility Score: inf
ROOT
ATOM      1  C   UNL A   1      33.219  33.797  27.851  1.00  0.00     0.274 C 
ENDROOT
BRANCH   1   2
ATOM      2  O   UNL A   1      32.678  34.249  29.106  1.00  0.00    -0.459 OA
BRANCH   2   3
ATOM      3  C   UNL A   1      33.325  35.293  29.699  1.00  0.00     0.347 C 
ATOM      4  O   UNL A   1      33.718  36.292  29.103  1.00  0.00    -0.248 OA
BRANCH   3   5
ATOM      5  C   UNL A   1      33.605  35.050  31.189  1.00  0.00     0.282 C 
BRANCH   5   6
ATOM      6  C   UNL A   1      34.360  36.288  31.714  1.00  0.00     0.054 C 
ATOM      7  C   UNL A   1      33.880  36.896  33.019  1.00  0.00     0.008 C 
ENDBRANCH   5   6
BRANCH   5   8
ATOM      8  O   UNL A   1      34.173  33.753  31.335  1.00  0.00    -0.476 OA
BRANCH   8   9
ATOM      9  C   UNL A   1      35.385  33.543  31.933  1.00  0.00     0.146 A 
ATOM     10  C   UNL A   1      36.649  33.549  31.323  1.00  0.00    -0.006 A 
ATOM     11  C   UNL A   1      35.288  33.347  33.335  1.00  0.00     0.076 A 
ATOM     12  C   UNL A   1      36.927  34.036  29.931  1.00  0.00     0.048 C 
ATOM     13  C   UNL A   1      37.758  33.110  32.074  1.00  0.00     0.023 A 
ATOM     14  C   UNL A   1      36.403  32.919  34.059  1.00  0.00     0.045 A 
ATOM     15  C   UNL A   1      37.626  32.776  33.419  1.00  0.00     0.020 A 
ATOM     16  Br  UNL A   1      39.128  32.151  34.384  1.00  0.00    -0.051 Br
BRANCH  11  17
ATOM     17  N   UNL A   1      34.044  33.429  33.977  1.00  0.00    -0.396 N 
ATOM     18  H   UNL A   1      33.907  32.984  34.844  1.00  0.00     0.156 HD
ATOM     19  H   UNL A   1      33.307  33.932  33.560  1.00  0.00     0.156 HD
ENDBRANCH  11  17
ENDBRANCH   8   9
ENDBRANCH   5   8
ENDBRANCH   3   5
ENDBRANCH   2   3
ENDBRANCH   1   2
BRANCH   1  20
ATOM     20  C   UNL A   1      34.516  33.002  28.019  1.00  0.00     0.275 C 
BRANCH  20  21
ATOM     21  O   UNL A   1      34.310  31.802  28.782  1.00  0.00    -0.458 OA
BRANCH  21  22
ATOM     22  C   UNL A   1      34.436  30.652  28.076  1.00  0.00     0.338 C 
ATOM     23  O   UNL A   1      33.621  30.165  27.312  1.00  0.00    -0.246 OA
BRANCH  22  24
ATOM     24  C   UNL A   1      35.798  30.118  28.259  1.00  0.00     0.060 A 
ATOM     25  C   UNL A   1      36.156  29.669  29.533  1.00  0.00     0.016 A 
ATOM     26  C   UNL A   1      36.726  30.106  27.212  1.00  0.00     0.016 A 
ATOM     27  C   UNL A   1      37.451  29.215  29.771  1.00  0.00     0.010 A 
ATOM     28  C   UNL A   1      38.029  29.663  27.457  1.00  0.00     0.010 A 
ATOM     29  C   UNL A   1      38.402  29.230  28.740  1.00  0.00    -0.014 A 
BRANCH  29  30
ATOM     30  C   UNL A   1      39.810  28.878  29.041  1.00  0.00     0.031 A 
ATOM     31  C   UNL A   1      40.683  29.876  29.747  1.00  0.00     0.074 A 
ATOM     32  C   UNL A   1      40.284  27.658  28.730  1.00  0.00     0.049 A 
ATOM     33  N   UNL A   1      41.940  29.771  30.094  1.00  0.00    -0.248 NA
ATOM     34  C   UNL A   1      40.059  31.157  30.117  1.00  0.00     0.031 C 
ATOM     35  C   UNL A   1      39.513  26.587  28.098  1.00  0.00     0.029 A 
ATOM     36  N   UNL A   1      41.529  27.112  28.914  1.00  0.00    -0.354 N 
ATOM     37  C   UNL A   1      42.257  30.968  30.726  1.00  0.00     0.074 A 
ATOM     38  C   UNL A   1      41.070  31.794  30.691  1.00  0.00     0.031 C 
ATOM     39  C   UNL A   1      40.301  25.508  27.957  1.00  0.00     0.029 A 
ATOM     40  C   UNL A   1      41.639  25.821  28.454  1.00  0.00     0.049 A 
ATOM     41  H   UNL A   1      42.274  27.599  29.336  1.00  0.00     0.167 HD
ATOM     42  C   UNL A   1      43.429  31.341  31.291  1.00  0.00     0.031 A 
ATOM     43  C   UNL A   1      42.701  24.993  28.426  1.00  0.00     0.031 A 
ATOM     44  C   UNL A   1      44.613  30.524  31.309  1.00  0.00     0.049 A 
ATOM     45  C   UNL A   1      44.020  25.467  28.974  1.00  0.00     0.074 A 
ATOM     46  C   UNL A   1      45.855  30.822  31.842  1.00  0.00     0.029 A 
ATOM     47  N   UNL A   1      44.704  29.251  30.769  1.00  0.00    -0.354 N 
ATOM     48  N   UNL A   1      44.308  26.608  29.556  1.00  0.00    -0.248 NA
ATOM     49  C   UNL A   1      45.159  24.545  28.858  1.00  0.00     0.031 C 
ATOM     50  C   UNL A   1      46.710  29.744  31.585  1.00  0.00     0.029 A 
ATOM     51  C   UNL A   1      45.986  28.756  30.936  1.00  0.00     0.049 A 
ATOM     52  H   UNL A   1      43.965  28.769  30.331  1.00  0.00     0.167 HD
ATOM     53  C   UNL A   1      45.656  26.534  29.888  1.00  0.00     0.074 A 
ATOM     54  C   UNL A   1      46.124  25.232  29.457  1.00  0.00     0.031 C 
ATOM     55  C   UNL A   1      46.436  27.461  30.495  1.00  0.00     0.031 A 
BRANCH  42  56
ATOM     56  C   UNL A   1      43.496  32.705  31.919  1.00  0.00    -0.014 A 
ATOM     57  C   UNL A   1      43.941  33.817  31.183  1.00  0.00     0.010 A 
ATOM     58  C   UNL A   1      43.061  32.887  33.245  1.00  0.00     0.010 A 
ATOM     59  C   UNL A   1      43.971  35.085  31.769  1.00  0.00     0.020 A 
ATOM     60  C   UNL A   1      43.072  34.158  33.828  1.00  0.00     0.020 A 
ATOM     61  C   UNL A   1      43.538  35.247  33.088  1.00  0.00     0.054 A 
BRANCH  61  62
ATOM     62  S   UNL A   1      43.559  36.909  33.813  1.00  0.00     0.124 S 
ATOM     63  O   UNL A   1      42.314  36.921  34.577  1.00  0.00    -0.237 OA
ATOM     64  O   UNL A   1      44.784  36.896  34.610  1.00  0.00    -0.237 OA
ATOM     65  O   UNL A   1      43.585  37.796  32.651  1.00  0.00    -0.744 OA
ENDBRANCH  61  62
ENDBRANCH  42  56
BRANCH  43  66
ATOM     66  C   UNL A   1      42.567  23.632  27.838  1.00  0.00    -0.014 A 
ATOM     67  C   UNL A   1      42.123  22.555  28.624  1.00  0.00     0.010 A 
ATOM     68  C   UNL A   1      42.879  23.409  26.485  1.00  0.00     0.010 A 
ATOM     69  C   UNL A   1      42.001  21.277  28.070  1.00  0.00     0.020 A 
ATOM     70  C   UNL A   1      42.738  22.138  25.921  1.00  0.00     0.020 A 
ATOM     71  C   UNL A   1      42.308  21.077  26.720  1.00  0.00     0.054 A 
BRANCH  71  72
ATOM     72  S   UNL A   1      42.091  19.422  26.007  1.00  0.00     0.124 S 
ATOM     73  O   UNL A   1      40.648  19.367  25.800  1.00  0.00    -0.237 OA
ATOM     74  O   UNL A   1      42.904  19.493  24.795  1.00  0.00    -0.237 OA
ATOM     75  O   UNL A   1      42.611  18.534  27.045  1.00  0.00    -0.744 OA
ENDBRANCH  71  72
ENDBRANCH  43  66
BRANCH  55  76
ATOM     76  C   UNL A   1      47.875  27.104  30.745  1.00  0.00    -0.014 A 
ATOM     77  C   UNL A   1      48.874  27.440  29.814  1.00  0.00     0.010 A 
ATOM     78  C   UNL A   1      48.242  26.494  31.959  1.00  0.00     0.010 A 
ATOM     79  C   UNL A   1      50.215  27.156  30.087  1.00  0.00     0.020 A 
ATOM     80  C   UNL A   1      49.584  26.229  32.243  1.00  0.00     0.020 A 
ATOM     81  C   UNL A   1      50.562  26.554  31.301  1.00  0.00     0.054 A 
BRANCH  81  82
ATOM     82  S   UNL A   1      52.315  26.252  31.655  1.00  0.00     0.124 S 
ATOM     83  O   UNL A   1      52.304  24.855  32.081  1.00  0.00    -0.237 OA
ATOM     84  O   UNL A   1      52.953  26.512  30.366  1.00  0.00    -0.237 OA
ATOM     85  O   UNL A   1      52.629  27.221  32.703  1.00  0.00    -0.744 OA
ENDBRANCH  81  82
ENDBRANCH  55  76
ENDBRANCH  29  30
ENDBRANCH  22  24
ENDBRANCH  21  22
ENDBRANCH  20  21
ENDBRANCH   1  20
TORSDOF 18
ENDMDL
MODEL 2
REMARK VINA RESULT:      -8.9      3.913      6.116
REMARK SMILES CC[C@H](Oc1c(C)cc(Br)cc1N)C(=O)OCCOC(=O)c1ccc(-c2c3nc(c(-c4ccc(S(=O)(=O)[O-])cc4)c4ccc([nH]4)c(-c4ccc(S(=O)(=O)[O-])cc4)c4nc(c(-c5ccc(S(=O)(=O)[O-])cc5)c5ccc2[nH]5)C=C4)C=C3)cc1
REMARK SMILES IDX 17 1 16 2 14 3 15 4 3 5 2 6 1 7 4 8 5 9 6 10 12 11 7 12 8 13
REMARK SMILES IDX 11 14 9 15 10 16 13 17 18 20 19 21 20 22 21 23 22 24 23 25
REMARK SMILES IDX 81 26 24 27 80 28 25 29 26 30 27 31 74 32 28 33 79 34 73 35
REMARK SMILES IDX 75 36 29 37 78 38 72 39 71 40 30 42 60 43 41 44 59 45 42 46
REMARK SMILES IDX 45 47 58 48 76 49 43 50 44 51 57 53 77 54 46 55 31 56 32 57
REMARK SMILES IDX 40 58 33 59 39 60 34 61 35 62 36 63 37 64 38 65 61 66 62 67
REMARK SMILES IDX 70 68 63 69 69 70 64 71 65 72 66 73 67 74 68 75 47 76 48 77
REMARK SMILES IDX 56 78 49 79 55 80 50 81 51 82 52 83 53 84 54 85
REMARK H PARENT 13 18 13 19 75 41 45 52
REMARK Flexibility Score: inf
ROOT
ATOM      1  C   UNL A   1      32.639  28.192  25.148  1.00  0.00     0.274 C 
ENDROOT
BRANCH   1   2
ATOM      2  O   UNL A   1      31.456  27.411  24.894  1.00  0.00    -0.459 OA
BRANCH   2   3
ATOM      3  C   UNL A   1      31.359  26.229  25.567  1.00  0.00     0.347 C 
ATOM      4  O   UNL A   1      30.589  26.027  26.501  1.00  0.00    -0.248 OA
BRANCH   3   5
ATOM      5  C   UNL A   1      32.391  25.192  25.100  1.00  0.00     0.282 C 
BRANCH   5   6
ATOM      6  C   UNL A   1      32.046  24.840  23.638  1.00  0.00     0.054 C 
ATOM      7  C   UNL A   1      30.665  24.269  23.367  1.00  0.00     0.008 C 
ENDBRANCH   5   6
BRANCH   5   8
ATOM      8  O   UNL A   1      32.474  24.165  26.081  1.00  0.00    -0.476 OA
BRANCH   8   9
ATOM      9  C   UNL A   1      33.010  22.934  25.816  1.00  0.00     0.146 A 
ATOM     10  C   UNL A   1      34.355  22.629  25.558  1.00  0.00    -0.006 A 
ATOM     11  C   UNL A   1      32.053  21.887  25.870  1.00  0.00     0.076 A 
ATOM     12  C   UNL A   1      35.504  23.571  25.767  1.00  0.00     0.048 C 
ATOM     13  C   UNL A   1      34.673  21.332  25.109  1.00  0.00     0.023 A 
ATOM     14  C   UNL A   1      32.395  20.607  25.425  1.00  0.00     0.045 A 
ATOM     15  C   UNL A   1      33.696  20.343  25.021  1.00  0.00     0.020 A 
ATOM     16  Br  UNL A   1      34.152  18.625  24.374  1.00  0.00    -0.051 Br
BRANCH  11  17
ATOM     17  N   UNL A   1      30.723  22.159  26.217  1.00  0.00    -0.396 N 
ATOM     18  H   UNL A   1      30.410  23.090  26.276  1.00  0.00     0.156 HD
ATOM     19  H   UNL A   1      30.101  21.418  26.402  1.00  0.00     0.156 HD
ENDBRANCH  11  17
ENDBRANCH   8   9
ENDBRANCH   5   8
ENDBRANCH   3   5
ENDBRANCH   2   3
ENDBRANCH   1   2
BRANCH   1  20
ATOM     20  C   UNL A   1      32.553  28.986  26.453  1.00  0.00     0.275 C 
BRANCH  20  21
ATOM     21  O   UNL A   1      33.771  28.898  27.211  1.00  0.00    -0.458 OA
BRANCH  21  22
ATOM     22  C   UNL A   1      34.260  30.087  27.640  1.00  0.00     0.338 C 
ATOM     23  O   UNL A   1      33.645  31.133  27.764  1.00  0.00    -0.246 OA
BRANCH  22  24
ATOM     24  C   UNL A   1      35.653  29.906  28.085  1.00  0.00     0.060 A 
ATOM     25  C   UNL A   1      36.667  30.079  27.138  1.00  0.00     0.016 A 
ATOM     26  C   UNL A   1      35.960  29.523  29.395  1.00  0.00     0.016 A 
ATOM     27  C   UNL A   1      37.995  29.858  27.494  1.00  0.00     0.010 A 
ATOM     28  C   UNL A   1      37.294  29.288  29.746  1.00  0.00     0.010 A 
ATOM     29  C   UNL A   1      38.314  29.440  28.793  1.00  0.00    -0.014 A 
BRANCH  29  30
ATOM     30  C   UNL A   1      39.713  29.073  29.118  1.00  0.00     0.031 A 
ATOM     31  C   UNL A   1      40.582  30.057  29.848  1.00  0.00     0.074 A 
ATOM     32  C   UNL A   1      40.182  27.851  28.807  1.00  0.00     0.049 A 
ATOM     33  N   UNL A   1      41.830  29.939  30.219  1.00  0.00    -0.248 NA
ATOM     34  C   UNL A   1      39.962  31.342  30.216  1.00  0.00     0.031 C 
ATOM     35  C   UNL A   1      39.414  26.792  28.152  1.00  0.00     0.029 A 
ATOM     36  N   UNL A   1      41.418  27.292  29.011  1.00  0.00    -0.354 N 
ATOM     37  C   UNL A   1      42.146  31.127  30.866  1.00  0.00     0.074 A 
ATOM     38  C   UNL A   1      40.967  31.965  30.814  1.00  0.00     0.031 C 
ATOM     39  C   UNL A   1      40.195  25.706  28.019  1.00  0.00     0.029 A 
ATOM     40  C   UNL A   1      41.525  26.003  28.544  1.00  0.00     0.049 A 
ATOM     41  H   UNL A   1      42.159  27.769  29.452  1.00  0.00     0.167 HD
ATOM     42  C   UNL A   1      43.310  31.485  31.457  1.00  0.00     0.031 A 
ATOM     43  C   UNL A   1      42.581  25.166  28.530  1.00  0.00     0.031 A 
ATOM     44  C   UNL A   1      44.486  30.658  31.492  1.00  0.00     0.049 A 
ATOM     45  C   UNL A   1      43.893  25.624  29.108  1.00  0.00     0.074 A 
ATOM     46  C   UNL A   1      45.720  30.941  32.051  1.00  0.00     0.029 A 
ATOM     47  N   UNL A   1      44.576  29.388  30.944  1.00  0.00    -0.354 N 
ATOM     48  N   UNL A   1      44.179  26.757  29.703  1.00  0.00    -0.248 NA
ATOM     49  C   UNL A   1      45.025  24.692  29.007  1.00  0.00     0.031 C 
ATOM     50  C   UNL A   1      46.570  29.856  31.803  1.00  0.00     0.029 A 
ATOM     51  C   UNL A   1      45.850  28.880  31.132  1.00  0.00     0.049 A 
ATOM     52  H   UNL A   1      43.841  28.916  30.488  1.00  0.00     0.167 HD
ATOM     53  C   UNL A   1      45.520  26.669  30.061  1.00  0.00     0.074 A 
ATOM     54  C   UNL A   1      45.984  25.366  29.630  1.00  0.00     0.031 C 
ATOM     55  C   UNL A   1      46.297  27.584  30.690  1.00  0.00     0.031 A 
BRANCH  42  56
ATOM     56  C   UNL A   1      43.377  32.844  32.096  1.00  0.00    -0.014 A 
ATOM     57  C   UNL A   1      43.081  33.015  33.460  1.00  0.00     0.010 A 
ATOM     58  C   UNL A   1      43.789  33.955  31.338  1.00  0.00     0.010 A 
ATOM     59  C   UNL A   1      43.174  34.279  34.049  1.00  0.00     0.020 A 
ATOM     60  C   UNL A   1      43.903  35.217  31.929  1.00  0.00     0.020 A 
ATOM     61  C   UNL A   1      43.583  35.371  33.280  1.00  0.00     0.054 A 
BRANCH  61  62
ATOM     62  S   UNL A   1      43.726  36.994  34.079  1.00  0.00     0.124 S 
ATOM     63  O   UNL A   1      42.431  37.117  34.743  1.00  0.00    -0.237 OA
ATOM     64  O   UNL A   1      44.872  36.814  34.966  1.00  0.00    -0.237 OA
ATOM     65  O   UNL A   1      43.943  37.913  32.964  1.00  0.00    -0.744 OA
ENDBRANCH  61  62
ENDBRANCH  42  56
BRANCH  43  66
ATOM     66  C   UNL A   1      42.446  23.810  27.930  1.00  0.00    -0.014 A 
ATOM     67  C   UNL A   1      42.764  23.592  26.579  1.00  0.00     0.010 A 
ATOM     68  C   UNL A   1      42.003  22.729  28.713  1.00  0.00     0.010 A 
ATOM     69  C   UNL A   1      42.633  22.317  26.018  1.00  0.00     0.020 A 
ATOM     70  C   UNL A   1      41.892  21.449  28.162  1.00  0.00     0.020 A 
ATOM     71  C   UNL A   1      42.200  21.253  26.815  1.00  0.00     0.054 A 
BRANCH  71  72
ATOM     72  S   UNL A   1      42.089  19.597  26.080  1.00  0.00     0.124 S 
ATOM     73  O   UNL A   1      42.532  18.747  27.179  1.00  0.00    -0.237 OA
ATOM     74  O   UNL A   1      40.672  19.500  25.735  1.00  0.00    -0.237 OA
ATOM     75  O   UNL A   1      42.996  19.670  24.937  1.00  0.00    -0.744 OA
ENDBRANCH  71  72
ENDBRANCH  43  66
BRANCH  55  76
ATOM     76  C   UNL A   1      47.728  27.212  30.966  1.00  0.00    -0.014 A 
ATOM     77  C   UNL A   1      48.085  26.559  32.159  1.00  0.00     0.010 A 
ATOM     78  C   UNL A   1      48.711  27.448  29.988  1.00  0.00     0.010 A 
ATOM     79  C   UNL A   1      49.408  26.165  32.375  1.00  0.00     0.020 A 
ATOM     80  C   UNL A   1      50.030  27.035  30.193  1.00  0.00     0.020 A 
ATOM     81  C   UNL A   1      50.372  26.404  31.390  1.00  0.00     0.054 A 
BRANCH  81  82
ATOM     82  S   UNL A   1      52.069  25.826  31.672  1.00  0.00     0.124 S 
ATOM     83  O   UNL A   1      51.864  24.410  31.962  1.00  0.00    -0.237 OA
ATOM     84  O   UNL A   1      52.724  26.119  30.399  1.00  0.00    -0.237 OA
ATOM     85  O   UNL A   1      52.527  26.634  32.800  1.00  0.00    -0.744 OA
ENDBRANCH  81  82
ENDBRANCH  55  76
ENDBRANCH  29  30
ENDBRANCH  22  24
ENDBRANCH  21  22
ENDBRANCH  20  21
ENDBRANCH   1  20
TORSDOF 18
ENDMDL
MODEL 3
REMARK VINA RESULT:      -8.7      4.383     11.961
REMARK SMILES CC[C@H](Oc1c(C)cc(Br)cc1N)C(=O)OCCOC(=O)c1ccc(-c2c3nc(c(-c4ccc(S(=O)(=O)[O-])cc4)c4ccc([nH]4)c(-c4ccc(S(=O)(=O)[O-])cc4)c4nc(c(-c5ccc(S(=O)(=O)[O-])cc5)c5ccc2[nH]5)C=C4)C=C3)cc1
REMARK SMILES IDX 17 1 16 2 14 3 15 4 3 5 2 6 1 7 4 8 5 9 6 10 12 11 7 12 8 13
REMARK SMILES IDX 11 14 9 15 10 16 13 17 18 20 19 21 20 22 21 23 22 24 23 25
REMARK SMILES IDX 81 26 24 27 80 28 25 29 26 30 27 31 74 32 28 33 79 34 73 35
REMARK SMILES IDX 75 36 29 37 78 38 72 39 71 40 30 42 60 43 41 44 59 45 42 46
REMARK SMILES IDX 45 47 58 48 76 49 43 50 44 51 57 53 77 54 46 55 31 56 32 57
REMARK SMILES IDX 40 58 33 59 39 60 34 61 35 62 36 63 37 64 38 65 61 66 62 67
REMARK SMILES IDX 70 68 63 69 69 70 64 71 65 72 66 73 67 74 68 75 47 76 48 77
REMARK SMILES IDX 56 78 49 79 55 80 50 81 51 82 52 83 53 84 54 85
REMARK H PARENT 13 18 13 19 75 41 45 52
REMARK Flexibility Score: inf
ROOT
ATOM      1  C   UNL A   1      41.067  22.014  26.074  1.00  0.00     0.274 C 
ENDROOT
BRANCH   1   2
ATOM      2  O   UNL A   1      42.275  22.136  25.301  1.00  0.00    -0.459 OA
BRANCH   2   3
ATOM      3  C   UNL A   1      43.347  21.419  25.743  1.00  0.00     0.347 C 
ATOM      4  O   UNL A   1      43.265  20.394  26.413  1.00  0.00    -0.248 OA
BRANCH   3   5
ATOM      5  C   UNL A   1      44.689  22.081  25.397  1.00  0.00     0.282 C 
BRANCH   5   6
ATOM      6  C   UNL A   1      45.367  21.197  24.330  1.00  0.00     0.054 C 
ATOM      7  C   UNL A   1      46.315  20.117  24.819  1.00  0.00     0.008 C 
ENDBRANCH   5   6
BRANCH   5   8
ATOM      8  O   UNL A   1      45.369  22.381  26.611  1.00  0.00    -0.476 OA
BRANCH   8   9
ATOM      9  C   UNL A   1      45.337  23.622  27.187  1.00  0.00     0.146 A 
ATOM     10  C   UNL A   1      45.859  24.816  26.665  1.00  0.00    -0.006 A 
ATOM     11  C   UNL A   1      44.644  23.644  28.425  1.00  0.00     0.076 A 
ATOM     12  C   UNL A   1      46.339  24.999  25.255  1.00  0.00     0.048 C 
ATOM     13  C   UNL A   1      45.905  25.949  27.502  1.00  0.00     0.023 A 
ATOM     14  C   UNL A   1      44.698  24.782  29.233  1.00  0.00     0.045 A 
ATOM     15  C   UNL A   1      45.352  25.919  28.780  1.00  0.00     0.020 A 
ATOM     16  Br  UNL A   1      45.468  27.446  29.891  1.00  0.00    -0.051 Br
BRANCH  11  17
ATOM     17  N   UNL A   1      44.036  22.481  28.917  1.00  0.00    -0.396 N 
ATOM     18  H   UNL A   1      44.588  21.748  29.271  1.00  0.00     0.156 HD
ATOM     19  H   UNL A   1      43.054  22.398  28.909  1.00  0.00     0.156 HD
ENDBRANCH  11  17
ENDBRANCH   8   9
ENDBRANCH   5   8
ENDBRANCH   3   5
ENDBRANCH   2   3
ENDBRANCH   1   2
BRANCH   1  20
ATOM     20  C   UNL A   1      40.915  23.128  27.113  1.00  0.00     0.275 C 
BRANCH  20  21
ATOM     21  O   UNL A   1      40.109  24.210  26.619  1.00  0.00    -0.458 OA
BRANCH  21  22
ATOM     22  C   UNL A   1      40.790  25.355  26.366  1.00  0.00     0.338 C 
ATOM     23  O   UNL A   1      41.203  25.741  25.285  1.00  0.00    -0.246 OA
BRANCH  22  24
ATOM     24  C   UNL A   1      40.845  26.168  27.594  1.00  0.00     0.060 A 
ATOM     25  C   UNL A   1      39.772  26.076  28.485  1.00  0.00     0.016 A 
ATOM     26  C   UNL A   1      41.906  27.045  27.844  1.00  0.00     0.016 A 
ATOM     27  C   UNL A   1      39.749  26.871  29.628  1.00  0.00     0.010 A 
ATOM     28  C   UNL A   1      41.873  27.852  28.986  1.00  0.00     0.010 A 
ATOM     29  C   UNL A   1      40.787  27.779  29.874  1.00  0.00    -0.014 A 
BRANCH  29  30
ATOM     30  C   UNL A   1      40.681  28.717  31.017  1.00  0.00     0.031 A 
ATOM     31  C   UNL A   1      39.663  29.821  30.971  1.00  0.00     0.074 A 
ATOM     32  C   UNL A   1      41.455  28.550  32.104  1.00  0.00     0.049 A 
ATOM     33  N   UNL A   1      39.414  30.750  31.857  1.00  0.00    -0.248 NA
ATOM     34  C   UNL A   1      38.808  29.883  29.774  1.00  0.00     0.031 C 
ATOM     35  C   UNL A   1      42.437  27.480  32.287  1.00  0.00     0.029 A 
ATOM     36  N   UNL A   1      41.528  29.275  33.267  1.00  0.00    -0.354 N 
ATOM     37  C   UNL A   1      38.373  31.505  31.330  1.00  0.00     0.074 A 
ATOM     38  C   UNL A   1      38.054  30.943  30.035  1.00  0.00     0.031 C 
ATOM     39  C   UNL A   1      43.006  27.614  33.497  1.00  0.00     0.029 A 
ATOM     40  C   UNL A   1      42.457  28.795  34.159  1.00  0.00     0.049 A 
ATOM     41  H   UNL A   1      40.967  30.064  33.446  1.00  0.00     0.167 HD
ATOM     42  C   UNL A   1      37.735  32.565  31.878  1.00  0.00     0.031 A 
ATOM     43  C   UNL A   1      42.832  29.264  35.365  1.00  0.00     0.031 A 
ATOM     44  C   UNL A   1      38.065  33.134  33.158  1.00  0.00     0.049 A 
ATOM     45  C   UNL A   1      42.173  30.503  35.911  1.00  0.00     0.074 A 
ATOM     46  C   UNL A   1      37.487  34.220  33.791  1.00  0.00     0.029 A 
ATOM     47  N   UNL A   1      39.061  32.662  33.998  1.00  0.00    -0.354 N 
ATOM     48  N   UNL A   1      41.200  31.214  35.392  1.00  0.00    -0.248 NA
ATOM     49  C   UNL A   1      42.667  31.006  37.201  1.00  0.00     0.031 C 
ATOM     50  C   UNL A   1      38.165  34.432  34.997  1.00  0.00     0.029 A 
ATOM     51  C   UNL A   1      39.131  33.448  35.136  1.00  0.00     0.049 A 
ATOM     52  H   UNL A   1      39.634  31.884  33.814  1.00  0.00     0.167 HD
ATOM     53  C   UNL A   1      40.955  32.239  36.300  1.00  0.00     0.074 A 
ATOM     54  C   UNL A   1      41.870  32.047  37.407  1.00  0.00     0.031 C 
ATOM     55  C   UNL A   1      40.053  33.247  36.224  1.00  0.00     0.031 A 
BRANCH  42  56
ATOM     56  C   UNL A   1      36.626  33.197  31.084  1.00  0.00    -0.014 A 
ATOM     57  C   UNL A   1      35.281  33.011  31.447  1.00  0.00     0.010 A 
ATOM     58  C   UNL A   1      36.934  34.028  29.991  1.00  0.00     0.010 A 
ATOM     59  C   UNL A   1      34.261  33.626  30.718  1.00  0.00     0.020 A 
ATOM     60  C   UNL A   1      35.916  34.662  29.271  1.00  0.00     0.020 A 
ATOM     61  C   UNL A   1      34.585  34.447  29.634  1.00  0.00     0.054 A 
BRANCH  61  62
ATOM     62  S   UNL A   1      33.241  35.258  28.724  1.00  0.00     0.124 S 
ATOM     63  O   UNL A   1      33.974  36.188  27.869  1.00  0.00    -0.237 OA
ATOM     64  O   UNL A   1      32.601  34.142  28.034  1.00  0.00    -0.237 OA
ATOM     65  O   UNL A   1      32.437  35.881  29.774  1.00  0.00    -0.744 OA
ENDBRANCH  61  62
ENDBRANCH  42  56
BRANCH  43  66
ATOM     66  C   UNL A   1      43.901  28.570  36.134  1.00  0.00    -0.014 A 
ATOM     67  C   UNL A   1      43.600  27.444  36.919  1.00  0.00     0.010 A 
ATOM     68  C   UNL A   1      45.229  29.031  36.078  1.00  0.00     0.010 A 
ATOM     69  C   UNL A   1      44.606  26.796  37.642  1.00  0.00     0.020 A 
ATOM     70  C   UNL A   1      46.241  28.373  36.782  1.00  0.00     0.020 A 
ATOM     71  C   UNL A   1      45.921  27.264  37.567  1.00  0.00     0.054 A 
BRANCH  71  72
ATOM     72  S   UNL A   1      47.220  26.376  38.471  1.00  0.00     0.124 S 
ATOM     73  O   UNL A   1      48.362  27.271  38.321  1.00  0.00    -0.237 OA
ATOM     74  O   UNL A   1      46.660  26.283  39.817  1.00  0.00    -0.237 OA
ATOM     75  O   UNL A   1      47.322  25.103  37.759  1.00  0.00    -0.744 OA
ENDBRANCH  71  72
ENDBRANCH  43  66
BRANCH  55  76
ATOM     76  C   UNL A   1      39.996  34.218  37.371  1.00  0.00    -0.014 A 
ATOM     77  C   UNL A   1      40.756  35.400  37.353  1.00  0.00     0.010 A 
ATOM     78  C   UNL A   1      39.114  33.983  38.442  1.00  0.00     0.010 A 
ATOM     79  C   UNL A   1      40.648  36.323  38.397  1.00  0.00     0.020 A 
ATOM     80  C   UNL A   1      38.989  34.914  39.476  1.00  0.00     0.020 A 
ATOM     81  C   UNL A   1      39.763  36.075  39.451  1.00  0.00     0.054 A 
BRANCH  81  82
ATOM     82  S   UNL A   1      39.598  37.318  40.762  1.00  0.00     0.124 S 
ATOM     83  O   UNL A   1      38.776  38.336  40.114  1.00  0.00    -0.237 OA
ATOM     84  O   UNL A   1      38.943  36.570  41.834  1.00  0.00    -0.237 OA
ATOM     85  O   UNL A   1      40.977  37.714  41.041  1.00  0.00    -0.744 OA
ENDBRANCH  81  82
ENDBRANCH  55  76
ENDBRANCH  29  30
ENDBRANCH  22  24
ENDBRANCH  21  22
ENDBRANCH  20  21
ENDBRANCH   1  20
TORSDOF 18
ENDMDL
