MODEL 1
REMARK VINA RESULT:     -12.3      0.000      0.000
REMARK SMILES Cc1ccc(C(=O)N2C[C@@H](C(=O)OCCOC(=O)c3ccc(-c4c5nc(c(-c6ccc(S(=O)(=O)[O-])cc6)c6ccc([nH]6)c(-c6ccc(S(=O)(=O)[O-])cc6)c6nc(c(-c7ccc(S(=O)(=O)[O-])cc7)c7ccc4[nH]7)C=C6)C=C5)cc3)C[C@H](C(=O)N3CCOCC3)C2)cc1F
REMARK SMILES IDX 15 1 14 2 13 3 11 4 12 5 10 6 8 7 9 8 89 9 80 10 79 11 6 12
REMARK SMILES IDX 7 13 5 14 1 15 2 16 3 17 91 18 4 19 90 20 92 21 81 22 82 23
REMARK SMILES IDX 83 24 84 25 88 26 85 27 87 28 86 29 16 30 17 31 18 32 19 33
REMARK SMILES IDX 20 34 78 35 21 36 77 37 22 38 23 39 24 40 71 41 25 42 76 43
REMARK SMILES IDX 70 44 72 45 26 46 75 47 69 48 68 49 27 51 57 52 38 53 56 54
REMARK SMILES IDX 39 55 42 56 55 57 73 58 40 59 41 60 54 62 74 63 43 64 28 65
REMARK SMILES IDX 29 66 37 67 30 68 36 69 31 70 32 71 33 72 34 73 35 74 58 75
REMARK SMILES IDX 59 76 67 77 60 78 66 79 61 80 62 81 63 82 64 83 65 84 44 85
REMARK SMILES IDX 45 86 53 87 46 88 52 89 47 90 48 91 49 92 50 93 51 94
REMARK H PARENT 72 50 42 61
REMARK Flexibility Score: inf
ROOT
ATOM      1  C   UNL A   1      39.245  20.141  25.710  1.00  0.00     0.275 C 
ENDROOT
BRANCH   1   2
ATOM      2  C   UNL A   1      38.681  21.561  25.733  1.00  0.00     0.274 C 
BRANCH   2   3
ATOM      3  O   UNL A   1      37.579  21.711  24.816  1.00  0.00    -0.462 OA
BRANCH   3   4
ATOM      4  C   UNL A   1      36.652  22.634  25.182  1.00  0.00     0.310 C 
ATOM      5  O   UNL A   1      36.899  23.669  25.789  1.00  0.00    -0.252 OA
BRANCH   4   6
ATOM      6  C   UNL A   1      35.239  22.239  24.818  1.00  0.00     0.119 C 
ATOM      7  N   UNL A   1      32.996  23.125  24.547  1.00  0.00    -0.337 N 
ATOM      8  C   UNL A   1      34.338  23.439  25.012  1.00  0.00     0.135 C 
ATOM      9  C   UNL A   1      32.322  22.022  25.230  1.00  0.00     0.133 C 
ATOM     10  C   UNL A   1      33.185  20.737  25.289  1.00  0.00     0.099 C 
ATOM     11  C   UNL A   1      34.681  21.003  25.542  1.00  0.00     0.032 C 
BRANCH   7  12
ATOM     12  C   UNL A   1      32.553  23.709  23.367  1.00  0.00     0.254 C 
ATOM     13  O   UNL A   1      32.843  23.262  22.260  1.00  0.00    -0.269 OA
BRANCH  12  14
ATOM     14  C   UNL A   1      31.831  25.004  23.425  1.00  0.00     0.042 A 
ATOM     15  C   UNL A   1      29.313  28.452  22.904  1.00  0.00     0.047 C 
ATOM     16  C   UNL A   1      30.228  27.286  23.127  1.00  0.00    -0.015 A 
ATOM     17  C   UNL A   1      31.488  27.231  22.524  1.00  0.00     0.007 A 
ATOM     18  C   UNL A   1      29.802  26.203  23.904  1.00  0.00     0.126 A 
ATOM     19  C   UNL A   1      32.286  26.093  22.668  1.00  0.00     0.014 A 
ATOM     20  C   UNL A   1      30.584  25.063  24.050  1.00  0.00     0.053 A 
ATOM     21  F   UNL A   1      28.593  26.241  24.483  1.00  0.00    -0.207 F 
ENDBRANCH  12  14
ENDBRANCH   7  12
BRANCH  10  22
ATOM     22  C   UNL A   1      32.671  19.775  24.201  1.00  0.00     0.227 C 
ATOM     23  O   UNL A   1      32.305  20.290  23.134  1.00  0.00    -0.275 OA
ATOM     24  N   UNL A   1      32.837  18.415  24.279  1.00  0.00    -0.338 N 
ATOM     25  C   UNL A   1      32.550  17.552  25.418  1.00  0.00     0.148 C 
ATOM     26  C   UNL A   1      32.987  17.638  23.043  1.00  0.00     0.148 C 
ATOM     27  C   UNL A   1      33.646  16.494  25.569  1.00  0.00     0.181 C 
ATOM     28  C   UNL A   1      34.039  16.537  23.240  1.00  0.00     0.181 C 
ATOM     29  O   UNL A   1      33.735  15.710  24.372  1.00  0.00    -0.378 OA
ENDBRANCH  10  22
ENDBRANCH   4   6
ENDBRANCH   3   4
ENDBRANCH   2   3
ENDBRANCH   1   2
BRANCH   1  30
ATOM     30  O   UNL A   1      40.238  19.960  26.735  1.00  0.00    -0.458 OA
BRANCH  30  31
ATOM     31  C   UNL A   1      41.505  19.787  26.297  1.00  0.00     0.338 C 
ATOM     32  O   UNL A   1      41.978  18.790  25.768  1.00  0.00    -0.246 OA
BRANCH  31  33
ATOM     33  C   UNL A   1      42.277  21.022  26.492  1.00  0.00     0.060 A 
ATOM     34  C   UNL A   1      42.623  21.402  27.784  1.00  0.00     0.016 A 
ATOM     35  C   UNL A   1      42.537  21.873  25.416  1.00  0.00     0.016 A 
ATOM     36  C   UNL A   1      43.167  22.664  28.013  1.00  0.00     0.010 A 
ATOM     37  C   UNL A   1      43.159  23.110  25.646  1.00  0.00     0.010 A 
ATOM     38  C   UNL A   1      43.455  23.534  26.952  1.00  0.00    -0.014 A 
BRANCH  38  39
ATOM     39  C   UNL A   1      44.033  24.882  27.232  1.00  0.00     0.031 A 
ATOM     40  C   UNL A   1      43.176  25.983  27.806  1.00  0.00     0.074 A 
ATOM     41  C   UNL A   1      45.346  25.119  27.025  1.00  0.00     0.049 A 
ATOM     42  N   UNL A   1      43.466  27.247  27.983  1.00  0.00    -0.248 NA
ATOM     43  C   UNL A   1      41.815  25.616  28.232  1.00  0.00     0.031 C 
ATOM     44  C   UNL A   1      46.321  24.140  26.540  1.00  0.00     0.029 A 
ATOM     45  N   UNL A   1      46.093  26.255  27.219  1.00  0.00    -0.354 N 
ATOM     46  C   UNL A   1      42.312  27.839  28.486  1.00  0.00     0.074 A 
ATOM     47  C   UNL A   1      41.319  26.791  28.595  1.00  0.00     0.031 C 
ATOM     48  C   UNL A   1      47.542  24.698  26.531  1.00  0.00     0.029 A 
ATOM     49  C   UNL A   1      47.425  26.100  26.914  1.00  0.00     0.049 A 
ATOM     50  H   UNL A   1      45.711  27.102  27.548  1.00  0.00     0.167 HD
ATOM     51  C   UNL A   1      42.096  29.135  28.818  1.00  0.00     0.031 A 
ATOM     52  C   UNL A   1      48.439  26.988  26.897  1.00  0.00     0.031 A 
ATOM     53  C   UNL A   1      43.091  30.172  28.750  1.00  0.00     0.049 A 
ATOM     54  C   UNL A   1      48.167  28.428  27.224  1.00  0.00     0.074 A 
ATOM     55  C   UNL A   1      42.957  31.517  29.053  1.00  0.00     0.029 A 
ATOM     56  N   UNL A   1      44.410  29.981  28.370  1.00  0.00    -0.354 N 
ATOM     57  N   UNL A   1      47.043  28.985  27.606  1.00  0.00    -0.248 NA
ATOM     58  C   UNL A   1      49.291  29.363  27.085  1.00  0.00     0.031 C 
ATOM     59  C   UNL A   1      44.186  32.146  28.822  1.00  0.00     0.029 A 
ATOM     60  C   UNL A   1      45.096  31.185  28.415  1.00  0.00     0.049 A 
ATOM     61  H   UNL A   1      44.803  29.118  28.107  1.00  0.00     0.167 HD
ATOM     62  C   UNL A   1      47.324  30.339  27.744  1.00  0.00     0.074 A 
ATOM     63  C   UNL A   1      48.728  30.512  27.434  1.00  0.00     0.031 C 
ATOM     64  C   UNL A   1      46.487  31.349  28.086  1.00  0.00     0.031 A 
BRANCH  51  65
ATOM     65  C   UNL A   1      40.702  29.521  29.234  1.00  0.00    -0.014 A 
ATOM     66  C   UNL A   1      40.378  29.774  30.577  1.00  0.00     0.010 A 
ATOM     67  C   UNL A   1      39.710  29.669  28.248  1.00  0.00     0.010 A 
ATOM     68  C   UNL A   1      39.073  30.134  30.932  1.00  0.00     0.020 A 
ATOM     69  C   UNL A   1      38.411  30.050  28.595  1.00  0.00     0.020 A 
ATOM     70  C   UNL A   1      38.096  30.263  29.938  1.00  0.00     0.054 A 
BRANCH  70  71
ATOM     71  S   UNL A   1      36.414  30.746  30.416  1.00  0.00     0.124 S 
ATOM     72  O   UNL A   1      36.110  29.774  31.464  1.00  0.00    -0.237 OA
ATOM     73  O   UNL A   1      36.589  32.123  30.870  1.00  0.00    -0.237 OA
ATOM     74  O   UNL A   1      35.646  30.593  29.183  1.00  0.00    -0.744 OA
ENDBRANCH  70  71
ENDBRANCH  51  65
BRANCH  52  75
ATOM     75  C   UNL A   1      49.798  26.547  26.480  1.00  0.00    -0.014 A 
ATOM     76  C   UNL A   1      50.675  25.954  27.404  1.00  0.00     0.010 A 
ATOM     77  C   UNL A   1      50.210  26.699  25.143  1.00  0.00     0.010 A 
ATOM     78  C   UNL A   1      51.941  25.519  26.997  1.00  0.00     0.020 A 
ATOM     79  C   UNL A   1      51.462  26.242  24.728  1.00  0.00     0.020 A 
ATOM     80  C   UNL A   1      52.324  25.664  25.661  1.00  0.00     0.054 A 
BRANCH  80  81
ATOM     81  S   UNL A   1      53.938  25.027  25.125  1.00  0.00     0.124 S 
ATOM     82  O   UNL A   1      53.639  23.622  24.872  1.00  0.00    -0.237 OA
ATOM     83  O   UNL A   1      54.229  25.835  23.944  1.00  0.00    -0.237 OA
ATOM     84  O   UNL A   1      54.802  25.288  26.274  1.00  0.00    -0.744 OA
ENDBRANCH  80  81
ENDBRANCH  52  75
BRANCH  64  85
ATOM     85  C   UNL A   1      47.071  32.734  28.140  1.00  0.00    -0.014 A 
ATOM     86  C   UNL A   1      47.692  33.206  29.309  1.00  0.00     0.010 A 
ATOM     87  C   UNL A   1      47.026  33.559  27.003  1.00  0.00     0.010 A 
ATOM     88  C   UNL A   1      48.236  34.492  29.349  1.00  0.00     0.020 A 
ATOM     89  C   UNL A   1      47.585  34.839  27.033  1.00  0.00     0.020 A 
ATOM     90  C   UNL A   1      48.174  35.304  28.212  1.00  0.00     0.054 A 
BRANCH  90  91
ATOM     91  S   UNL A   1      48.915  36.959  28.273  1.00  0.00     0.124 S 
ATOM     92  O   UNL A   1      49.269  37.185  26.874  1.00  0.00    -0.237 OA
ATOM     93  O   UNL A   1      47.823  37.785  28.784  1.00  0.00    -0.237 OA
ATOM     94  O   UNL A   1      50.044  36.797  29.186  1.00  0.00    -0.744 OA
ENDBRANCH  90  91
ENDBRANCH  64  85
ENDBRANCH  38  39
ENDBRANCH  31  33
ENDBRANCH  30  31
ENDBRANCH   1  30
TORSDOF 17
ENDMDL
MODEL 2
REMARK VINA RESULT:     -12.2      6.226     10.449
REMARK SMILES Cc1ccc(C(=O)N2C[C@@H](C(=O)OCCOC(=O)c3ccc(-c4c5nc(c(-c6ccc(S(=O)(=O)[O-])cc6)c6ccc([nH]6)c(-c6ccc(S(=O)(=O)[O-])cc6)c6nc(c(-c7ccc(S(=O)(=O)[O-])cc7)c7ccc4[nH]7)C=C6)C=C5)cc3)C[C@H](C(=O)N3CCOCC3)C2)cc1F
REMARK SMILES IDX 15 1 14 2 13 3 11 4 12 5 10 6 8 7 9 8 89 9 80 10 79 11 6 12
REMARK SMILES IDX 7 13 5 14 1 15 2 16 3 17 91 18 4 19 90 20 92 21 81 22 82 23
REMARK SMILES IDX 83 24 84 25 88 26 85 27 87 28 86 29 16 30 17 31 18 32 19 33
REMARK SMILES IDX 20 34 78 35 21 36 77 37 22 38 23 39 24 40 71 41 25 42 76 43
REMARK SMILES IDX 70 44 72 45 26 46 75 47 69 48 68 49 27 51 57 52 38 53 56 54
REMARK SMILES IDX 39 55 42 56 55 57 73 58 40 59 41 60 54 62 74 63 43 64 28 65
REMARK SMILES IDX 29 66 37 67 30 68 36 69 31 70 32 71 33 72 34 73 35 74 58 75
REMARK SMILES IDX 59 76 67 77 60 78 66 79 61 80 62 81 63 82 64 83 65 84 44 85
REMARK SMILES IDX 45 86 53 87 46 88 52 89 47 90 48 91 49 92 50 93 51 94
REMARK H PARENT 72 50 42 61
REMARK Flexibility Score: inf
ROOT
ATOM      1  C   UNL A   1      39.555  22.072  26.534  1.00  0.00     0.275 C 
ENDROOT
BRANCH   1   2
ATOM      2  C   UNL A   1      38.527  22.095  25.405  1.00  0.00     0.274 C 
BRANCH   2   3
ATOM      3  O   UNL A   1      37.191  21.858  25.896  1.00  0.00    -0.462 OA
BRANCH   3   4
ATOM      4  C   UNL A   1      36.315  22.873  25.683  1.00  0.00     0.310 C 
ATOM      5  O   UNL A   1      36.552  24.057  25.895  1.00  0.00    -0.252 OA
BRANCH   4   6
ATOM      6  C   UNL A   1      34.960  22.404  25.203  1.00  0.00     0.119 C 
ATOM      7  N   UNL A   1      32.680  23.145  24.834  1.00  0.00    -0.337 N 
ATOM      8  C   UNL A   1      33.963  23.523  25.405  1.00  0.00     0.135 C 
ATOM      9  C   UNL A   1      32.047  21.957  25.406  1.00  0.00     0.133 C 
ATOM     10  C   UNL A   1      32.999  20.734  25.450  1.00  0.00     0.099 C 
ATOM     11  C   UNL A   1      34.452  21.089  25.816  1.00  0.00     0.032 C 
BRANCH   7  12
ATOM     12  C   UNL A   1      32.270  23.767  23.662  1.00  0.00     0.254 C 
ATOM     13  O   UNL A   1      32.572  23.345  22.549  1.00  0.00    -0.269 OA
BRANCH  12  14
ATOM     14  C   UNL A   1      31.570  25.073  23.742  1.00  0.00     0.042 A 
ATOM     15  C   UNL A   1      29.368  28.718  23.135  1.00  0.00     0.047 C 
ATOM     16  C   UNL A   1      30.157  27.473  23.404  1.00  0.00    -0.015 A 
ATOM     17  C   UNL A   1      31.546  27.448  23.244  1.00  0.00     0.007 A 
ATOM     18  C   UNL A   1      29.497  26.293  23.767  1.00  0.00     0.126 A 
ATOM     19  C   UNL A   1      32.250  26.253  23.407  1.00  0.00     0.014 A 
ATOM     20  C   UNL A   1      30.186  25.096  23.927  1.00  0.00     0.053 A 
ATOM     21  F   UNL A   1      28.165  26.302  23.918  1.00  0.00    -0.207 F 
ENDBRANCH  12  14
ENDBRANCH   7  12
BRANCH  10  22
ATOM     22  C   UNL A   1      32.626  19.807  24.276  1.00  0.00     0.227 C 
ATOM     23  O   UNL A   1      32.378  20.358  23.192  1.00  0.00    -0.275 OA
ATOM     24  N   UNL A   1      32.802  18.447  24.325  1.00  0.00    -0.338 N 
ATOM     25  C   UNL A   1      32.397  17.541  25.392  1.00  0.00     0.148 C 
ATOM     26  C   UNL A   1      33.104  17.718  23.088  1.00  0.00     0.148 C 
ATOM     27  C   UNL A   1      33.483  16.489  25.632  1.00  0.00     0.181 C 
ATOM     28  C   UNL A   1      34.142  16.620  23.367  1.00  0.00     0.181 C 
ATOM     29  O   UNL A   1      33.720  15.749  24.426  1.00  0.00    -0.378 OA
ENDBRANCH  10  22
ENDBRANCH   4   6
ENDBRANCH   3   4
ENDBRANCH   2   3
ENDBRANCH   1   2
BRANCH   1  30
ATOM     30  O   UNL A   1      39.515  23.290  27.299  1.00  0.00    -0.458 OA
BRANCH  30  31
ATOM     31  C   UNL A   1      40.519  24.162  27.059  1.00  0.00     0.338 C 
ATOM     32  O   UNL A   1      41.409  24.059  26.225  1.00  0.00    -0.246 OA
BRANCH  31  33
ATOM     33  C   UNL A   1      40.380  25.339  27.928  1.00  0.00     0.060 A 
ATOM     34  C   UNL A   1      41.466  26.196  28.078  1.00  0.00     0.016 A 
ATOM     35  C   UNL A   1      39.231  25.520  28.699  1.00  0.00     0.016 A 
ATOM     36  C   UNL A   1      41.431  27.193  29.051  1.00  0.00     0.010 A 
ATOM     37  C   UNL A   1      39.173  26.576  29.621  1.00  0.00     0.010 A 
ATOM     38  C   UNL A   1      40.285  27.409  29.829  1.00  0.00    -0.014 A 
BRANCH  38  39
ATOM     39  C   UNL A   1      40.283  28.483  30.867  1.00  0.00     0.031 A 
ATOM     40  C   UNL A   1      41.286  28.467  31.993  1.00  0.00     0.074 A 
ATOM     41  C   UNL A   1      39.415  29.513  30.782  1.00  0.00     0.049 A 
ATOM     42  N   UNL A   1      41.348  29.232  33.054  1.00  0.00    -0.248 NA
ATOM     43  C   UNL A   1      42.357  27.459  31.919  1.00  0.00     0.031 C 
ATOM     44  C   UNL A   1      38.429  29.710  29.716  1.00  0.00     0.029 A 
ATOM     45  N   UNL A   1      39.238  30.606  31.596  1.00  0.00    -0.354 N 
ATOM     46  C   UNL A   1      42.424  28.764  33.801  1.00  0.00     0.074 A 
ATOM     47  C   UNL A   1      42.994  27.655  33.066  1.00  0.00     0.031 C 
ATOM     48  C   UNL A   1      37.795  30.877  29.910  1.00  0.00     0.029 A 
ATOM     49  C   UNL A   1      38.256  31.466  31.162  1.00  0.00     0.049 A 
ATOM     50  H   UNL A   1      39.766  30.760  32.414  1.00  0.00     0.167 HD
ATOM     51  C   UNL A   1      42.890  29.211  34.993  1.00  0.00     0.031 A 
ATOM     52  C   UNL A   1      37.744  32.580  31.721  1.00  0.00     0.031 A 
ATOM     53  C   UNL A   1      42.354  30.339  35.709  1.00  0.00     0.049 A 
ATOM     54  C   UNL A   1      38.244  33.030  33.063  1.00  0.00     0.074 A 
ATOM     55  C   UNL A   1      42.754  30.854  36.931  1.00  0.00     0.029 A 
ATOM     56  N   UNL A   1      41.314  31.139  35.263  1.00  0.00    -0.354 N 
ATOM     57  N   UNL A   1      39.200  32.516  33.798  1.00  0.00    -0.248 NA
ATOM     58  C   UNL A   1      37.573  34.190  33.666  1.00  0.00     0.031 C 
ATOM     59  C   UNL A   1      41.933  31.944  37.240  1.00  0.00     0.029 A 
ATOM     60  C   UNL A   1      41.048  32.133  36.191  1.00  0.00     0.049 A 
ATOM     61  H   UNL A   1      40.834  31.020  34.412  1.00  0.00     0.167 HD
ATOM     62  C   UNL A   1      39.239  33.286  34.955  1.00  0.00     0.074 A 
ATOM     63  C   UNL A   1      38.232  34.317  34.809  1.00  0.00     0.031 C 
ATOM     64  C   UNL A   1      40.031  33.141  36.045  1.00  0.00     0.031 A 
BRANCH  51  65
ATOM     65  C   UNL A   1      44.011  28.438  35.633  1.00  0.00    -0.014 A 
ATOM     66  C   UNL A   1      45.358  28.745  35.377  1.00  0.00     0.010 A 
ATOM     67  C   UNL A   1      43.701  27.407  36.540  1.00  0.00     0.010 A 
ATOM     68  C   UNL A   1      46.378  28.009  35.991  1.00  0.00     0.020 A 
ATOM     69  C   UNL A   1      44.716  26.684  37.172  1.00  0.00     0.020 A 
ATOM     70  C   UNL A   1      46.050  26.978  36.879  1.00  0.00     0.054 A 
BRANCH  70  71
ATOM     71  S   UNL A   1      47.386  26.046  37.677  1.00  0.00     0.124 S 
ATOM     72  O   UNL A   1      47.125  26.302  39.092  1.00  0.00    -0.237 OA
ATOM     73  O   UNL A   1      47.139  24.678  37.230  1.00  0.00    -0.237 OA
ATOM     74  O   UNL A   1      48.601  26.661  37.147  1.00  0.00    -0.744 OA
ENDBRANCH  70  71
ENDBRANCH  51  65
BRANCH  52  75
ATOM     75  C   UNL A   1      36.639  33.306  31.039  1.00  0.00    -0.014 A 
ATOM     76  C   UNL A   1      36.852  33.943  29.805  1.00  0.00     0.010 A 
ATOM     77  C   UNL A   1      35.356  33.340  31.616  1.00  0.00     0.010 A 
ATOM     78  C   UNL A   1      35.800  34.602  29.159  1.00  0.00     0.020 A 
ATOM     79  C   UNL A   1      34.297  33.973  30.961  1.00  0.00     0.020 A 
ATOM     80  C   UNL A   1      34.529  34.609  29.741  1.00  0.00     0.054 A 
BRANCH  80  81
ATOM     81  S   UNL A   1      33.153  35.399  28.859  1.00  0.00     0.124 S 
ATOM     82  O   UNL A   1      32.398  36.000  29.954  1.00  0.00    -0.237 OA
ATOM     83  O   UNL A   1      33.834  36.337  27.971  1.00  0.00    -0.237 OA
ATOM     84  O   UNL A   1      32.498  34.281  28.184  1.00  0.00    -0.744 OA
ENDBRANCH  80  81
ENDBRANCH  52  75
BRANCH  64  85
ATOM     85  C   UNL A   1      39.838  34.122  37.168  1.00  0.00    -0.014 A 
ATOM     86  C   UNL A   1      40.442  35.391  37.125  1.00  0.00     0.010 A 
ATOM     87  C   UNL A   1      39.021  33.785  38.262  1.00  0.00     0.010 A 
ATOM     88  C   UNL A   1      40.253  36.298  38.171  1.00  0.00     0.020 A 
ATOM     89  C   UNL A   1      38.815  34.696  39.300  1.00  0.00     0.020 A 
ATOM     90  C   UNL A   1      39.445  35.943  39.255  1.00  0.00     0.054 A 
BRANCH  90  91
ATOM     91  S   UNL A   1      39.185  37.147  40.588  1.00  0.00     0.124 S 
ATOM     92  O   UNL A   1      40.546  37.613  40.844  1.00  0.00    -0.237 OA
ATOM     93  O   UNL A   1      38.293  38.126  39.971  1.00  0.00    -0.237 OA
ATOM     94  O   UNL A   1      38.585  36.353  41.657  1.00  0.00    -0.744 OA
ENDBRANCH  90  91
ENDBRANCH  64  85
ENDBRANCH  38  39
ENDBRANCH  31  33
ENDBRANCH  30  31
ENDBRANCH   1  30
TORSDOF 17
ENDMDL
MODEL 3
REMARK VINA RESULT:     -12.1      3.529      7.858
REMARK SMILES Cc1ccc(C(=O)N2C[C@@H](C(=O)OCCOC(=O)c3ccc(-c4c5nc(c(-c6ccc(S(=O)(=O)[O-])cc6)c6ccc([nH]6)c(-c6ccc(S(=O)(=O)[O-])cc6)c6nc(c(-c7ccc(S(=O)(=O)[O-])cc7)c7ccc4[nH]7)C=C6)C=C5)cc3)C[C@H](C(=O)N3CCOCC3)C2)cc1F
REMARK SMILES IDX 15 1 14 2 13 3 11 4 12 5 10 6 8 7 9 8 89 9 80 10 79 11 6 12
REMARK SMILES IDX 7 13 5 14 1 15 2 16 3 17 91 18 4 19 90 20 92 21 81 22 82 23
REMARK SMILES IDX 83 24 84 25 88 26 85 27 87 28 86 29 16 30 17 31 18 32 19 33
REMARK SMILES IDX 20 34 78 35 21 36 77 37 22 38 23 39 24 40 71 41 25 42 76 43
REMARK SMILES IDX 70 44 72 45 26 46 75 47 69 48 68 49 27 51 57 52 38 53 56 54
REMARK SMILES IDX 39 55 42 56 55 57 73 58 40 59 41 60 54 62 74 63 43 64 28 65
REMARK SMILES IDX 29 66 37 67 30 68 36 69 31 70 32 71 33 72 34 73 35 74 58 75
REMARK SMILES IDX 59 76 67 77 60 78 66 79 61 80 62 81 63 82 64 83 65 84 44 85
REMARK SMILES IDX 45 86 53 87 46 88 52 89 47 90 48 91 49 92 50 93 51 94
REMARK H PARENT 72 50 42 61
REMARK Flexibility Score: inf
ROOT
ATOM      1  C   UNL A   1      32.683  28.432  27.199  1.00  0.00     0.275 C 
ENDROOT
BRANCH   1   2
ATOM      2  C   UNL A   1      32.446  27.129  26.438  1.00  0.00     0.274 C 
BRANCH   2   3
ATOM      3  O   UNL A   1      31.285  26.429  26.930  1.00  0.00    -0.462 OA
BRANCH   3   4
ATOM      4  C   UNL A   1      30.613  25.707  25.996  1.00  0.00     0.310 C 
ATOM      5  O   UNL A   1      29.444  25.892  25.680  1.00  0.00    -0.252 OA
BRANCH   4   6
ATOM      6  C   UNL A   1      31.434  24.587  25.401  1.00  0.00     0.119 C 
ATOM      7  N   UNL A   1      32.663  23.940  23.411  1.00  0.00    -0.337 N 
ATOM      8  C   UNL A   1      31.766  24.941  23.968  1.00  0.00     0.135 C 
ATOM      9  C   UNL A   1      32.149  22.573  23.361  1.00  0.00     0.133 C 
ATOM     10  C   UNL A   1      31.587  22.094  24.724  1.00  0.00     0.099 C 
ATOM     11  C   UNL A   1      30.819  23.181  25.497  1.00  0.00     0.032 C 
BRANCH   7  12
ATOM     12  C   UNL A   1      33.991  24.290  23.198  1.00  0.00     0.254 C 
ATOM     13  O   UNL A   1      34.338  25.044  22.293  1.00  0.00    -0.269 OA
BRANCH  12  14
ATOM     14  C   UNL A   1      35.052  23.615  23.986  1.00  0.00     0.042 A 
ATOM     15  C   UNL A   1      38.661  22.211  25.859  1.00  0.00     0.047 C 
ATOM     16  C   UNL A   1      37.373  22.646  25.230  1.00  0.00    -0.015 A 
ATOM     17  C   UNL A   1      36.897  22.041  24.062  1.00  0.00     0.007 A 
ATOM     18  C   UNL A   1      36.653  23.714  25.778  1.00  0.00     0.126 A 
ATOM     19  C   UNL A   1      35.745  22.526  23.440  1.00  0.00     0.014 A 
ATOM     20  C   UNL A   1      35.508  24.209  25.165  1.00  0.00     0.053 A 
ATOM     21  F   UNL A   1      37.101  24.308  26.894  1.00  0.00    -0.207 F 
ENDBRANCH  12  14
ENDBRANCH   7  12
BRANCH  10  22
ATOM     22  C   UNL A   1      32.648  21.184  25.375  1.00  0.00     0.227 C 
ATOM     23  O   UNL A   1      33.139  21.582  26.442  1.00  0.00    -0.275 OA
ATOM     24  N   UNL A   1      32.867  19.893  24.963  1.00  0.00    -0.338 N 
ATOM     25  C   UNL A   1      33.053  19.420  23.597  1.00  0.00     0.148 C 
ATOM     26  C   UNL A   1      33.309  18.894  25.942  1.00  0.00     0.148 C 
ATOM     27  C   UNL A   1      32.315  18.095  23.392  1.00  0.00     0.181 C 
ATOM     28  C   UNL A   1      32.610  17.553  25.673  1.00  0.00     0.181 C 
ATOM     29  O   UNL A   1      32.804  17.116  24.320  1.00  0.00    -0.378 OA
ENDBRANCH  10  22
ENDBRANCH   4   6
ENDBRANCH   3   4
ENDBRANCH   2   3
ENDBRANCH   1   2
BRANCH   1  30
ATOM     30  O   UNL A   1      33.944  29.024  26.836  1.00  0.00    -0.458 OA
BRANCH  30  31
ATOM     31  C   UNL A   1      34.311  30.104  27.560  1.00  0.00     0.338 C 
ATOM     32  O   UNL A   1      33.624  31.076  27.844  1.00  0.00    -0.246 OA
BRANCH  31  33
ATOM     33  C   UNL A   1      35.692  29.944  28.036  1.00  0.00     0.060 A 
ATOM     34  C   UNL A   1      36.739  30.141  27.141  1.00  0.00     0.016 A 
ATOM     35  C   UNL A   1      35.948  29.466  29.323  1.00  0.00     0.016 A 
ATOM     36  C   UNL A   1      38.038  29.794  27.508  1.00  0.00     0.010 A 
ATOM     37  C   UNL A   1      37.268  29.194  29.712  1.00  0.00     0.010 A 
ATOM     38  C   UNL A   1      38.327  29.327  28.798  1.00  0.00    -0.014 A 
BRANCH  38  39
ATOM     39  C   UNL A   1      39.729  28.958  29.157  1.00  0.00     0.031 A 
ATOM     40  C   UNL A   1      40.594  29.904  29.953  1.00  0.00     0.074 A 
ATOM     41  C   UNL A   1      40.226  27.750  28.818  1.00  0.00     0.049 A 
ATOM     42  N   UNL A   1      41.869  29.815  30.237  1.00  0.00    -0.248 NA
ATOM     43  C   UNL A   1      39.943  31.105  30.499  1.00  0.00     0.031 C 
ATOM     44  C   UNL A   1      39.494  26.698  28.108  1.00  0.00     0.029 A 
ATOM     45  N   UNL A   1      41.460  27.191  29.047  1.00  0.00    -0.354 N 
ATOM     46  C   UNL A   1      42.187  30.971  30.942  1.00  0.00     0.074 A 
ATOM     47  C   UNL A   1      40.966  31.742  31.052  1.00  0.00     0.031 C 
ATOM     48  C   UNL A   1      40.270  25.606  28.012  1.00  0.00     0.029 A 
ATOM     49  C   UNL A   1      41.585  25.909  28.564  1.00  0.00     0.049 A 
ATOM     50  H   UNL A   1      42.187  27.664  29.514  1.00  0.00     0.167 HD
ATOM     51  C   UNL A   1      43.385  31.359  31.443  1.00  0.00     0.031 A 
ATOM     52  C   UNL A   1      42.645  25.078  28.523  1.00  0.00     0.031 A 
ATOM     53  C   UNL A   1      44.592  30.579  31.372  1.00  0.00     0.049 A 
ATOM     54  C   UNL A   1      43.973  25.547  29.044  1.00  0.00     0.074 A 
ATOM     55  C   UNL A   1      45.855  30.901  31.841  1.00  0.00     0.029 A 
ATOM     56  N   UNL A   1      44.686  29.315  30.814  1.00  0.00    -0.354 N 
ATOM     57  N   UNL A   1      44.273  26.684  29.622  1.00  0.00    -0.248 NA
ATOM     58  C   UNL A   1      45.111  24.633  28.874  1.00  0.00     0.031 C 
ATOM     59  C   UNL A   1      46.721  29.845  31.533  1.00  0.00     0.029 A 
ATOM     60  C   UNL A   1      45.988  28.850  30.910  1.00  0.00     0.049 A 
ATOM     61  H   UNL A   1      43.939  28.819  30.407  1.00  0.00     0.167 HD
ATOM     62  C   UNL A   1      45.638  26.626  29.878  1.00  0.00     0.074 A 
ATOM     63  C   UNL A   1      46.098  25.332  29.419  1.00  0.00     0.031 C 
ATOM     64  C   UNL A   1      46.439  27.568  30.433  1.00  0.00     0.031 A 
BRANCH  51  65
ATOM     65  C   UNL A   1      43.464  32.726  32.069  1.00  0.00    -0.014 A 
ATOM     66  C   UNL A   1      43.266  32.917  33.447  1.00  0.00     0.010 A 
ATOM     67  C   UNL A   1      43.781  33.832  31.260  1.00  0.00     0.010 A 
ATOM     68  C   UNL A   1      43.350  34.200  34.000  1.00  0.00     0.020 A 
ATOM     69  C   UNL A   1      43.887  35.112  31.811  1.00  0.00     0.020 A 
ATOM     70  C   UNL A   1      43.653  35.290  33.176  1.00  0.00     0.054 A 
BRANCH  70  71
ATOM     71  S   UNL A   1      43.773  36.944  33.914  1.00  0.00     0.124 S 
ATOM     72  O   UNL A   1      43.979  37.782  32.736  1.00  0.00    -0.237 OA
ATOM     73  O   UNL A   1      42.480  37.098  34.575  1.00  0.00    -0.237 OA
ATOM     74  O   UNL A   1      44.920  36.839  34.813  1.00  0.00    -0.744 OA
ENDBRANCH  70  71
ENDBRANCH  51  65
BRANCH  52  75
ATOM     75  C   UNL A   1      42.505  23.736  27.895  1.00  0.00    -0.014 A 
ATOM     76  C   UNL A   1      42.917  23.517  26.570  1.00  0.00     0.010 A 
ATOM     77  C   UNL A   1      41.978  22.662  28.636  1.00  0.00     0.010 A 
ATOM     78  C   UNL A   1      42.805  22.246  25.996  1.00  0.00     0.020 A 
ATOM     79  C   UNL A   1      41.890  21.387  28.076  1.00  0.00     0.020 A 
ATOM     80  C   UNL A   1      42.295  21.188  26.755  1.00  0.00     0.054 A 
BRANCH  80  81
ATOM     81  S   UNL A   1      42.225  19.526  26.029  1.00  0.00     0.124 S 
ATOM     82  O   UNL A   1      42.772  18.704  27.103  1.00  0.00    -0.237 OA
ATOM     83  O   UNL A   1      40.801  19.350  25.760  1.00  0.00    -0.237 OA
ATOM     84  O   UNL A   1      43.064  19.643  24.838  1.00  0.00    -0.744 OA
ENDBRANCH  80  81
ENDBRANCH  52  75
BRANCH  64  85
ATOM     85  C   UNL A   1      47.898  27.232  30.572  1.00  0.00    -0.014 A 
ATOM     86  C   UNL A   1      48.822  27.622  29.587  1.00  0.00     0.010 A 
ATOM     87  C   UNL A   1      48.355  26.548  31.712  1.00  0.00     0.010 A 
ATOM     88  C   UNL A   1      50.177  27.310  29.727  1.00  0.00     0.020 A 
ATOM     89  C   UNL A   1      49.711  26.251  31.864  1.00  0.00     0.020 A 
ATOM     90  C   UNL A   1      50.612  26.621  30.863  1.00  0.00     0.054 A 
BRANCH  90  91
ATOM     91  S   UNL A   1      52.380  26.253  31.042  1.00  0.00     0.124 S 
ATOM     92  O   UNL A   1      52.807  26.132  29.650  1.00  0.00    -0.237 OA
ATOM     93  O   UNL A   1      52.885  27.426  31.753  1.00  0.00    -0.237 OA
ATOM     94  O   UNL A   1      52.397  25.011  31.811  1.00  0.00    -0.744 OA
ENDBRANCH  90  91
ENDBRANCH  64  85
ENDBRANCH  38  39
ENDBRANCH  31  33
ENDBRANCH  30  31
ENDBRANCH   1  30
TORSDOF 17
ENDMDL
