MODEL 1
REMARK VINA RESULT:     -13.3      0.000      0.000
REMARK SMILES O=C(OCCOC(=O)[C@H](c1c[nH]c2ccc(Br)cc12)[N@H+]1CCC[C@H](c2nc3ccccc3s2)C1)c1ccc(-c2c3nc(c(-c4ccc(S(=O)(=O)[O-])cc4)c4ccc([nH]4)c(-c4ccc(S(=O)(=O)[O-])cc4)c4nc(c(-c5ccc(S(=O)(=O)[O-])cc5)c5ccc2[nH]5)C=C4)C=C3)cc1
REMARK SMILES IDX 4 1 3 2 2 3 1 4 35 5 36 6 94 7 37 8 93 9 38 10 39 11 40 12
REMARK SMILES IDX 87 13 41 14 92 15 86 16 88 17 42 18 91 19 85 20 84 21 43 23
REMARK SMILES IDX 73 24 54 25 72 26 55 27 58 28 71 29 89 30 56 31 57 32 70 34
REMARK SMILES IDX 90 35 59 36 44 37 45 38 53 39 46 40 52 41 47 42 48 43 49 44
REMARK SMILES IDX 50 45 51 46 74 47 75 48 83 49 76 50 82 51 77 52 78 53 79 54
REMARK SMILES IDX 80 55 81 56 60 57 61 58 69 59 62 60 68 61 63 62 64 63 65 64
REMARK SMILES IDX 66 65 67 66 5 67 6 68 7 69 8 70 9 71 20 72 21 73 34 74 22 76
REMARK SMILES IDX 24 77 23 78 25 79 26 80 33 81 27 82 32 83 28 84 31 85 29 86
REMARK SMILES IDX 30 87 10 88 11 89 19 90 12 91 13 92 18 93 14 95 16 96 15 97
REMARK SMILES IDX 17 98
REMARK H PARENT 88 22 58 33 20 75 12 94
REMARK Flexibility Score: inf
ROOT
ATOM      1  C   UNL A   1      33.250  28.073  27.134  1.00  0.00     0.275 C 
ENDROOT
BRANCH   1   2
ATOM      2  O   UNL A   1      33.506  29.529  27.136  1.00  0.00    -0.458 OA
BRANCH   2   3
ATOM      3  C   UNL A   1      34.286  30.395  27.856  1.00  0.00     0.338 C 
ATOM      4  O   UNL A   1      33.893  31.519  28.147  1.00  0.00    -0.246 OA
BRANCH   3   5
ATOM      5  C   UNL A   1      35.662  30.001  28.234  1.00  0.00     0.060 A 
ATOM      6  C   UNL A   1      36.956  30.185  26.975  1.00  0.00     0.016 A 
ATOM      7  C   UNL A   1      36.167  29.482  29.904  1.00  0.00     0.016 A 
ATOM      8  C   UNL A   1      38.665  30.020  27.335  1.00  0.00     0.010 A 
ATOM      9  C   UNL A   1      38.009  29.371  30.267  1.00  0.00     0.010 A 
ATOM     10  C   UNL A   1      39.241  29.565  28.926  1.00  0.00    -0.014 A 
BRANCH  10  11
ATOM     11  C   UNL A   1      40.643  29.002  28.850  1.00  0.00     0.031 A 
ATOM     12  C   UNL A   1      41.840  29.788  29.393  1.00  0.00     0.074 A 
ATOM     13  C   UNL A   1      40.928  27.725  28.557  1.00  0.00     0.049 A 
ATOM     14  N   UNL A   1      43.080  29.806  28.965  1.00  0.00    -0.248 NA
ATOM     15  C   UNL A   1      41.617  30.698  30.524  1.00  0.00     0.031 C 
ATOM     16  C   UNL A   1      39.969  26.647  28.364  1.00  0.00     0.029 A 
ATOM     17  N   UNL A   1      42.158  27.127  28.414  1.00  0.00    -0.354 N 
ATOM     18  C   UNL A   1      43.666  30.927  29.563  1.00  0.00     0.074 A 
ATOM     19  C   UNL A   1      42.708  31.452  30.497  1.00  0.00     0.031 C 
ATOM     20  C   UNL A   1      40.651  25.512  28.117  1.00  0.00     0.029 A 
ATOM     21  C   UNL A   1      42.085  25.811  28.045  1.00  0.00     0.049 A 
ATOM     22  H   UNL A   1      43.008  27.600  28.563  1.00  0.00     0.167 HD
ATOM     23  C   UNL A   1      44.865  31.486  29.268  1.00  0.00     0.031 A 
ATOM     24  C   UNL A   1      43.058  24.968  27.639  1.00  0.00     0.031 A 
ATOM     25  C   UNL A   1      45.918  30.727  28.644  1.00  0.00     0.049 A 
ATOM     26  C   UNL A   1      44.483  25.448  27.532  1.00  0.00     0.074 A 
ATOM     27  C   UNL A   1      47.226  31.097  28.386  1.00  0.00     0.029 A 
ATOM     28  N   UNL A   1      45.801  29.394  28.291  1.00  0.00    -0.354 N 
ATOM     29  N   UNL A   1      44.968  26.650  27.741  1.00  0.00    -0.248 NA
ATOM     30  C   UNL A   1      45.492  24.459  27.123  1.00  0.00     0.031 C 
ATOM     31  C   UNL A   1      47.901  29.982  27.876  1.00  0.00     0.029 A 
ATOM     32  C   UNL A   1      47.022  28.909  27.872  1.00  0.00     0.049 A 
ATOM     33  H   UNL A   1      44.969  28.869  28.334  1.00  0.00     0.167 HD
ATOM     34  C   UNL A   1      46.336  26.560  27.491  1.00  0.00     0.074 A 
ATOM     35  C   UNL A   1      46.606  25.182  27.139  1.00  0.00     0.031 C 
ATOM     36  C   UNL A   1      47.280  27.534  27.540  1.00  0.00     0.031 A 
BRANCH  23  37
ATOM     37  C   UNL A   1      45.089  32.969  29.491  1.00  0.00    -0.014 A 
ATOM     38  C   UNL A   1      45.891  33.530  30.495  1.00  0.00     0.010 A 
ATOM     39  C   UNL A   1      44.470  33.848  28.571  1.00  0.00     0.010 A 
ATOM     40  C   UNL A   1      46.020  34.925  30.609  1.00  0.00     0.020 A 
ATOM     41  C   UNL A   1      44.628  35.234  28.650  1.00  0.00     0.020 A 
ATOM     42  C   UNL A   1      45.386  35.767  29.688  1.00  0.00     0.054 A 
BRANCH  42  43
ATOM     43  S   UNL A   1      45.593  37.564  29.830  1.00  0.00     0.124 S 
ATOM     44  O   UNL A   1      46.983  37.736  29.415  1.00  0.00    -0.237 OA
ATOM     45  O   UNL A   1      44.592  38.081  28.899  1.00  0.00    -0.237 OA
ATOM     46  O   UNL A   1      45.323  37.833  31.240  1.00  0.00    -0.744 OA
ENDBRANCH  42  43
ENDBRANCH  23  37
BRANCH  24  47
ATOM     47  C   UNL A   1      42.670  23.592  27.236  1.00  0.00    -0.014 A 
ATOM     48  C   UNL A   1      42.685  23.208  25.885  1.00  0.00     0.010 A 
ATOM     49  C   UNL A   1      42.393  22.631  28.225  1.00  0.00     0.010 A 
ATOM     50  C   UNL A   1      42.469  21.873  25.534  1.00  0.00     0.020 A 
ATOM     51  C   UNL A   1      42.204  21.292  27.880  1.00  0.00     0.020 A 
ATOM     52  C   UNL A   1      42.252  20.920  26.536  1.00  0.00     0.054 A 
BRANCH  52  53
ATOM     53  S   UNL A   1      42.145  19.169  26.071  1.00  0.00     0.124 S 
ATOM     54  O   UNL A   1      42.668  18.504  27.260  1.00  0.00    -0.237 OA
ATOM     55  O   UNL A   1      40.715  18.997  25.824  1.00  0.00    -0.237 OA
ATOM     56  O   UNL A   1      42.987  19.082  24.879  1.00  0.00    -0.744 OA
ENDBRANCH  52  53
ENDBRANCH  24  47
BRANCH  36  57
ATOM     57  C   UNL A   1      48.709  27.157  27.264  1.00  0.00    -0.014 A 
ATOM     58  C   UNL A   1      49.555  26.708  28.291  1.00  0.00     0.010 A 
ATOM     59  C   UNL A   1      49.176  27.157  25.937  1.00  0.00     0.010 A 
ATOM     60  C   UNL A   1      50.857  26.291  27.998  1.00  0.00     0.020 A 
ATOM     61  C   UNL A   1      50.470  26.724  25.637  1.00  0.00     0.020 A 
ATOM     62  C   UNL A   1      51.307  26.304  26.673  1.00  0.00     0.054 A 
BRANCH  62  63
ATOM     63  S   UNL A   1      52.988  25.724  26.316  1.00  0.00     0.124 S 
ATOM     64  O   UNL A   1      53.664  25.952  27.589  1.00  0.00    -0.237 OA
ATOM     65  O   UNL A   1      52.776  24.324  25.958  1.00  0.00    -0.237 OA
ATOM     66  O   UNL A   1      53.425  26.582  25.217  1.00  0.00    -0.744 OA
ENDBRANCH  62  63
ENDBRANCH  36  57
ENDBRANCH  10  11
ENDBRANCH   3   5
ENDBRANCH   2   3
ENDBRANCH   1   2
BRANCH   1  67
ATOM     67  C   UNL A   1      31.820  27.455  26.893  1.00  0.00     0.274 C 
BRANCH  67  68
ATOM     68  O   UNL A   1      31.667  26.050  27.216  1.00  0.00    -0.457 OA
BRANCH  68  69
ATOM     69  C   UNL A   1      30.777  25.506  26.335  1.00  0.00     0.370 C 
ATOM     70  O   UNL A   1      29.671  26.032  26.263  1.00  0.00    -0.245 OA
BRANCH  69  71
ATOM     71  C   UNL A   1      31.323  24.212  25.199  1.00  0.00     0.328 C 
BRANCH  71  72
ATOM     72  N   UNL A   1      32.066  25.478  24.067  1.00  0.00    -0.319 N 
ATOM     73  C   UNL A   1      33.493  25.946  24.051  1.00  0.00     0.263 C 
ATOM     74  C   UNL A   1      31.669  25.476  22.611  1.00  0.00     0.274 C 
ATOM     75  H   UNL A   1      31.577  26.119  24.691  1.00  0.00     0.349 HD
ATOM     76  C   UNL A   1      33.617  27.372  23.494  1.00  0.00     0.062 C 
ATOM     77  C   UNL A   1      31.763  26.901  21.895  1.00  0.00     0.104 C 
ATOM     78  C   UNL A   1      33.199  27.429  22.044  1.00  0.00     0.022 C 
BRANCH  77  79
ATOM     79  C   UNL A   1      30.713  27.949  22.308  1.00  0.00     0.103 A 
ATOM     80  N   UNL A   1      30.846  29.249  22.187  1.00  0.00    -0.241 NA
ATOM     81  S   UNL A   1      29.262  27.512  23.165  1.00  0.00    -0.118 S 
ATOM     82  C   UNL A   1      29.708  29.931  22.565  1.00  0.00     0.082 A 
ATOM     83  C   UNL A   1      28.715  29.146  23.141  1.00  0.00     0.055 A 
ATOM     84  C   UNL A   1      29.487  31.317  22.430  1.00  0.00     0.030 A 
ATOM     85  C   UNL A   1      27.506  29.704  23.599  1.00  0.00     0.021 A 
ATOM     86  C   UNL A   1      28.282  31.882  22.857  1.00  0.00     0.002 A 
ATOM     87  C   UNL A   1      27.306  31.083  23.439  1.00  0.00     0.002 A 
ENDBRANCH  77  79
ENDBRANCH  71  72
BRANCH  71  88
ATOM     88  C   UNL A   1      32.312  22.306  25.792  1.00  0.00     0.046 A 
ATOM     89  C   UNL A   1      33.130  21.860  26.952  1.00  0.00     0.094 A 
ATOM     90  C   UNL A   1      32.689  20.832  24.925  1.00  0.00     0.010 A 
ATOM     91  N   UNL A   1      33.880  20.727  26.784  1.00  0.00    -0.361 N 
ATOM     92  C   UNL A   1      33.638  20.086  25.621  1.00  0.00     0.046 A 
ATOM     93  C   UNL A   1      32.267  20.163  23.696  1.00  0.00     0.026 A 
ATOM     94  H   UNL A   1      34.534  20.410  27.447  1.00  0.00     0.166 HD
ATOM     95  C   UNL A   1      34.190  18.865  25.183  1.00  0.00     0.028 A 
ATOM     96  C   UNL A   1      32.784  18.942  23.255  1.00  0.00     0.018 A 
ATOM     97  C   UNL A   1      33.758  18.305  23.985  1.00  0.00     0.018 A 
ATOM     98  Br  UNL A   1      32.092  18.148  21.682  1.00  0.00    -0.051 Br
ENDBRANCH  71  88
ENDBRANCH  69  71
ENDBRANCH  68  69
ENDBRANCH  67  68
ENDBRANCH   1  67
TORSDOF 17
ENDMDL
MODEL 2
REMARK VINA RESULT:     -12.9      2.264      5.269
REMARK SMILES O=C(OCCOC(=O)[C@H](c1c[nH]c2ccc(Br)cc12)[N@H+]1CCC[C@H](c2nc3ccccc3s2)C1)c1ccc(-c2c3nc(c(-c4ccc(S(=O)(=O)[O-])cc4)c4ccc([nH]4)c(-c4ccc(S(=O)(=O)[O-])cc4)c4nc(c(-c5ccc(S(=O)(=O)[O-])cc5)c5ccc2[nH]5)C=C4)C=C3)cc1
REMARK SMILES IDX 4 1 3 2 2 3 1 4 35 5 36 6 94 7 37 8 93 9 38 10 39 11 40 12
REMARK SMILES IDX 87 13 41 14 92 15 86 16 88 17 42 18 91 19 85 20 84 21 43 23
REMARK SMILES IDX 73 24 54 25 72 26 55 27 58 28 71 29 89 30 56 31 57 32 70 34
REMARK SMILES IDX 90 35 59 36 44 37 45 38 53 39 46 40 52 41 47 42 48 43 49 44
REMARK SMILES IDX 50 45 51 46 74 47 75 48 83 49 76 50 82 51 77 52 78 53 79 54
REMARK SMILES IDX 80 55 81 56 60 57 61 58 69 59 62 60 68 61 63 62 64 63 65 64
REMARK SMILES IDX 66 65 67 66 5 67 6 68 7 69 8 70 9 71 20 72 21 73 34 74 22 76
REMARK SMILES IDX 24 77 23 78 25 79 26 80 33 81 27 82 32 83 28 84 31 85 29 86
REMARK SMILES IDX 30 87 10 88 11 89 19 90 12 91 13 92 18 93 14 95 16 96 15 97
REMARK SMILES IDX 17 98
REMARK H PARENT 88 22 58 33 20 75 12 94
REMARK Flexibility Score: inf
ROOT
ATOM      1  C   UNL A   1      33.755  29.155  26.678  1.00  0.00     0.275 C 
ENDROOT
BRANCH   1   2
ATOM      2  O   UNL A   1      33.758  30.445  27.401  1.00  0.00    -0.458 OA
BRANCH   2   3
ATOM      3  C   UNL A   1      34.529  31.034  28.368  1.00  0.00     0.338 C 
ATOM      4  O   UNL A   1      34.175  32.066  28.927  1.00  0.00    -0.246 OA
BRANCH   3   5
ATOM      5  C   UNL A   1      35.852  30.460  28.701  1.00  0.00     0.060 A 
ATOM      6  C   UNL A   1      37.269  31.001  27.706  1.00  0.00     0.016 A 
ATOM      7  C   UNL A   1      36.177  29.365  30.118  1.00  0.00     0.016 A 
ATOM      8  C   UNL A   1      38.930  30.631  28.131  1.00  0.00     0.010 A 
ATOM      9  C   UNL A   1      37.971  29.036  30.578  1.00  0.00     0.010 A 
ATOM     10  C   UNL A   1      39.334  29.620  29.504  1.00  0.00    -0.014 A 
BRANCH  10  11
ATOM     11  C   UNL A   1      40.726  29.044  29.357  1.00  0.00     0.031 A 
ATOM     12  C   UNL A   1      41.949  29.786  29.904  1.00  0.00     0.074 A 
ATOM     13  C   UNL A   1      40.984  27.780  28.989  1.00  0.00     0.049 A 
ATOM     14  N   UNL A   1      43.176  29.811  29.441  1.00  0.00    -0.248 NA
ATOM     15  C   UNL A   1      41.771  30.638  31.088  1.00  0.00     0.031 C 
ATOM     16  C   UNL A   1      40.005  26.726  28.769  1.00  0.00     0.029 A 
ATOM     17  N   UNL A   1      42.201  27.176  28.779  1.00  0.00    -0.354 N 
ATOM     18  C   UNL A   1      43.795  30.892  30.078  1.00  0.00     0.074 A 
ATOM     19  C   UNL A   1      42.872  31.378  31.067  1.00  0.00     0.031 C 
ATOM     20  C   UNL A   1      40.664  25.598  28.443  1.00  0.00     0.029 A 
ATOM     21  C   UNL A   1      42.100  25.882  28.344  1.00  0.00     0.049 A 
ATOM     22  H   UNL A   1      43.062  27.630  28.927  1.00  0.00     0.167 HD
ATOM     23  C   UNL A   1      44.992  31.451  29.777  1.00  0.00     0.031 A 
ATOM     24  C   UNL A   1      43.048  25.050  27.866  1.00  0.00     0.031 A 
ATOM     25  C   UNL A   1      46.016  30.713  29.083  1.00  0.00     0.049 A 
ATOM     26  C   UNL A   1      44.476  25.518  27.741  1.00  0.00     0.074 A 
ATOM     27  C   UNL A   1      47.321  31.080  28.806  1.00  0.00     0.029 A 
ATOM     28  N   UNL A   1      45.870  29.402  28.665  1.00  0.00    -0.354 N 
ATOM     29  N   UNL A   1      44.984  26.700  27.999  1.00  0.00    -0.248 NA
ATOM     30  C   UNL A   1      45.459  24.539  27.251  1.00  0.00     0.031 C 
ATOM     31  C   UNL A   1      47.965  29.985  28.219  1.00  0.00     0.029 A 
ATOM     32  C   UNL A   1      47.072  28.925  28.185  1.00  0.00     0.049 A 
ATOM     33  H   UNL A   1      45.033  28.886  28.706  1.00  0.00     0.167 HD
ATOM     34  C   UNL A   1      46.342  26.607  27.703  1.00  0.00     0.074 A 
ATOM     35  C   UNL A   1      46.583  25.247  27.271  1.00  0.00     0.031 C 
ATOM     36  C   UNL A   1      47.301  27.566  27.774  1.00  0.00     0.031 A 
BRANCH  23  37
ATOM     37  C   UNL A   1      45.243  32.917  30.070  1.00  0.00    -0.014 A 
ATOM     38  C   UNL A   1      46.273  33.423  30.877  1.00  0.00     0.010 A 
ATOM     39  C   UNL A   1      44.388  33.846  29.431  1.00  0.00     0.010 A 
ATOM     40  C   UNL A   1      46.405  34.806  31.082  1.00  0.00     0.020 A 
ATOM     41  C   UNL A   1      44.539  35.225  29.594  1.00  0.00     0.020 A 
ATOM     42  C   UNL A   1      45.535  35.698  30.442  1.00  0.00     0.054 A 
BRANCH  42  43
ATOM     43  S   UNL A   1      45.743  37.483  30.690  1.00  0.00     0.124 S 
ATOM     44  O   UNL A   1      45.253  38.018  29.422  1.00  0.00    -0.237 OA
ATOM     45  O   UNL A   1      44.899  37.751  31.852  1.00  0.00    -0.237 OA
ATOM     46  O   UNL A   1      47.178  37.636  30.920  1.00  0.00    -0.744 OA
ENDBRANCH  42  43
ENDBRANCH  23  37
BRANCH  24  47
ATOM     47  C   UNL A   1      42.630  23.702  27.403  1.00  0.00    -0.014 A 
ATOM     48  C   UNL A   1      42.629  23.379  26.037  1.00  0.00     0.010 A 
ATOM     49  C   UNL A   1      42.339  22.702  28.350  1.00  0.00     0.010 A 
ATOM     50  C   UNL A   1      42.383  22.067  25.627  1.00  0.00     0.020 A 
ATOM     51  C   UNL A   1      42.121  21.384  27.945  1.00  0.00     0.020 A 
ATOM     52  C   UNL A   1      42.153  21.074  26.586  1.00  0.00     0.054 A 
BRANCH  52  53
ATOM     53  S   UNL A   1      42.007  19.348  26.042  1.00  0.00     0.124 S 
ATOM     54  O   UNL A   1      42.915  19.310  24.901  1.00  0.00    -0.237 OA
ATOM     55  O   UNL A   1      42.442  18.608  27.224  1.00  0.00    -0.237 OA
ATOM     56  O   UNL A   1      40.588  19.212  25.722  1.00  0.00    -0.744 OA
ENDBRANCH  52  53
ENDBRANCH  24  47
BRANCH  36  57
ATOM     57  C   UNL A   1      48.715  27.186  27.437  1.00  0.00    -0.014 A 
ATOM     58  C   UNL A   1      49.571  26.632  28.402  1.00  0.00     0.010 A 
ATOM     59  C   UNL A   1      49.157  27.295  26.105  1.00  0.00     0.010 A 
ATOM     60  C   UNL A   1      50.858  26.216  28.046  1.00  0.00     0.020 A 
ATOM     61  C   UNL A   1      50.435  26.864  25.741  1.00  0.00     0.020 A 
ATOM     62  C   UNL A   1      51.283  26.338  26.718  1.00  0.00     0.054 A 
BRANCH  62  63
ATOM     63  S   UNL A   1      52.944  25.758  26.277  1.00  0.00     0.124 S 
ATOM     64  O   UNL A   1      52.679  24.399  25.817  1.00  0.00    -0.237 OA
ATOM     65  O   UNL A   1      53.350  26.705  25.241  1.00  0.00    -0.237 OA
ATOM     66  O   UNL A   1      53.690  25.857  27.529  1.00  0.00    -0.744 OA
ENDBRANCH  62  63
ENDBRANCH  36  57
ENDBRANCH  10  11
ENDBRANCH   3   5
ENDBRANCH   2   3
ENDBRANCH   1   2
BRANCH   1  67
ATOM     67  C   UNL A   1      32.974  27.886  27.194  1.00  0.00     0.274 C 
BRANCH  67  68
ATOM     68  O   UNL A   1      33.233  26.645  26.490  1.00  0.00    -0.457 OA
BRANCH  68  69
ATOM     69  C   UNL A   1      32.037  26.124  26.093  1.00  0.00     0.370 C 
ATOM     70  O   UNL A   1      31.370  25.544  26.943  1.00  0.00    -0.245 OA
BRANCH  69  71
ATOM     71  C   UNL A   1      31.411  26.485  24.436  1.00  0.00     0.328 C 
BRANCH  71  72
ATOM     72  N   UNL A   1      31.863  24.782  23.862  1.00  0.00    -0.319 N 
ATOM     73  C   UNL A   1      30.971  23.574  23.837  1.00  0.00     0.263 C 
ATOM     74  C   UNL A   1      32.712  24.632  22.623  1.00  0.00     0.274 C 
ATOM     75  H   UNL A   1      32.333  24.754  24.766  1.00  0.00     0.349 HD
ATOM     76  C   UNL A   1      31.779  22.270  23.936  1.00  0.00     0.062 C 
ATOM     77  C   UNL A   1      33.601  23.305  22.585  1.00  0.00     0.104 C 
ATOM     78  C   UNL A   1      32.672  22.089  22.731  1.00  0.00     0.022 C 
BRANCH  77  79
ATOM     79  C   UNL A   1      34.792  23.246  23.559  1.00  0.00     0.103 A 
ATOM     80  N   UNL A   1      35.551  22.197  23.770  1.00  0.00    -0.241 NA
ATOM     81  S   UNL A   1      35.161  24.557  24.644  1.00  0.00    -0.118 S 
ATOM     82  C   UNL A   1      36.591  22.467  24.637  1.00  0.00     0.082 A 
ATOM     83  C   UNL A   1      36.548  23.722  25.235  1.00  0.00     0.055 A 
ATOM     84  C   UNL A   1      37.649  21.593  24.962  1.00  0.00     0.030 A 
ATOM     85  C   UNL A   1      37.527  24.131  26.160  1.00  0.00     0.021 A 
ATOM     86  C   UNL A   1      38.641  21.995  25.860  1.00  0.00     0.002 A 
ATOM     87  C   UNL A   1      38.576  23.250  26.455  1.00  0.00     0.002 A 
ENDBRANCH  77  79
ENDBRANCH  71  72
BRANCH  71  88
ATOM     88  C   UNL A   1      29.485  27.508  23.979  1.00  0.00     0.046 A 
ATOM     89  C   UNL A   1      28.118  27.060  23.600  1.00  0.00     0.094 A 
ATOM     90  C   UNL A   1      29.068  29.172  23.624  1.00  0.00     0.010 A 
ATOM     91  N   UNL A   1      27.295  27.994  23.030  1.00  0.00    -0.361 N 
ATOM     92  C   UNL A   1      27.804  29.244  23.043  1.00  0.00     0.046 A 
ATOM     93  C   UNL A   1      29.665  30.495  23.792  1.00  0.00     0.026 A 
ATOM     94  H   UNL A   1      26.415  27.775  22.648  1.00  0.00     0.166 HD
ATOM     95  C   UNL A   1      27.182  30.428  22.599  1.00  0.00     0.028 A 
ATOM     96  C   UNL A   1      29.055  31.684  23.382  1.00  0.00     0.018 A 
ATOM     97  C   UNL A   1      27.827  31.649  22.767  1.00  0.00     0.018 A 
ATOM     98  Br  UNL A   1      29.906  33.338  23.731  1.00  0.00    -0.051 Br
ENDBRANCH  71  88
ENDBRANCH  69  71
ENDBRANCH  68  69
ENDBRANCH  67  68
ENDBRANCH   1  67
TORSDOF 17
ENDMDL
MODEL 3
REMARK VINA RESULT:     -12.8      2.846      8.888
REMARK SMILES O=C(OCCOC(=O)[C@H](c1c[nH]c2ccc(Br)cc12)[N@H+]1CCC[C@H](c2nc3ccccc3s2)C1)c1ccc(-c2c3nc(c(-c4ccc(S(=O)(=O)[O-])cc4)c4ccc([nH]4)c(-c4ccc(S(=O)(=O)[O-])cc4)c4nc(c(-c5ccc(S(=O)(=O)[O-])cc5)c5ccc2[nH]5)C=C4)C=C3)cc1
REMARK SMILES IDX 4 1 3 2 2 3 1 4 35 5 36 6 94 7 37 8 93 9 38 10 39 11 40 12
REMARK SMILES IDX 87 13 41 14 92 15 86 16 88 17 42 18 91 19 85 20 84 21 43 23
REMARK SMILES IDX 73 24 54 25 72 26 55 27 58 28 71 29 89 30 56 31 57 32 70 34
REMARK SMILES IDX 90 35 59 36 44 37 45 38 53 39 46 40 52 41 47 42 48 43 49 44
REMARK SMILES IDX 50 45 51 46 74 47 75 48 83 49 76 50 82 51 77 52 78 53 79 54
REMARK SMILES IDX 80 55 81 56 60 57 61 58 69 59 62 60 68 61 63 62 64 63 65 64
REMARK SMILES IDX 66 65 67 66 5 67 6 68 7 69 8 70 9 71 20 72 21 73 34 74 22 76
REMARK SMILES IDX 24 77 23 78 25 79 26 80 33 81 27 82 32 83 28 84 31 85 29 86
REMARK SMILES IDX 30 87 10 88 11 89 19 90 12 91 13 92 18 93 14 95 16 96 15 97
REMARK SMILES IDX 17 98
REMARK H PARENT 88 22 58 33 20 75 12 94
REMARK Flexibility Score: inf
ROOT
ATOM      1  C   UNL A   1      37.184  21.975  24.259  1.00  0.00     0.275 C 
ENDROOT
BRANCH   1   2
ATOM      2  O   UNL A   1      37.836  21.648  25.545  1.00  0.00    -0.458 OA
BRANCH   2   3
ATOM      3  C   UNL A   1      39.119  21.626  26.025  1.00  0.00     0.338 C 
ATOM      4  O   UNL A   1      39.784  20.596  26.027  1.00  0.00    -0.246 OA
BRANCH   3   5
ATOM      5  C   UNL A   1      39.698  22.850  26.623  1.00  0.00     0.060 A 
ATOM      6  C   UNL A   1      38.721  24.375  26.510  1.00  0.00     0.016 A 
ATOM      7  C   UNL A   1      41.246  22.901  27.580  1.00  0.00     0.016 A 
ATOM      8  C   UNL A   1      39.130  25.836  27.389  1.00  0.00     0.010 A 
ATOM      9  C   UNL A   1      41.623  24.465  28.553  1.00  0.00     0.010 A 
ATOM     10  C   UNL A   1      40.579  25.958  28.367  1.00  0.00    -0.014 A 
BRANCH  10  11
ATOM     11  C   UNL A   1      40.965  27.406  28.581  1.00  0.00     0.031 A 
ATOM     12  C   UNL A   1      42.296  27.954  28.058  1.00  0.00     0.074 A 
ATOM     13  C   UNL A   1      40.116  28.359  28.993  1.00  0.00     0.049 A 
ATOM     14  N   UNL A   1      43.059  28.893  28.565  1.00  0.00    -0.248 NA
ATOM     15  C   UNL A   1      42.866  27.351  26.846  1.00  0.00     0.031 C 
ATOM     16  C   UNL A   1      38.684  28.209  29.206  1.00  0.00     0.029 A 
ATOM     17  N   UNL A   1      40.373  29.682  29.264  1.00  0.00    -0.354 N 
ATOM     18  C   UNL A   1      44.294  28.759  27.921  1.00  0.00     0.074 A 
ATOM     19  C   UNL A   1      44.122  27.776  26.886  1.00  0.00     0.031 C 
ATOM     20  C   UNL A   1      38.185  29.401  29.587  1.00  0.00     0.029 A 
ATOM     21  C   UNL A   1      39.282  30.365  29.730  1.00  0.00     0.049 A 
ATOM     22  H   UNL A   1      41.255  30.098  29.135  1.00  0.00     0.167 HD
ATOM     23  C   UNL A   1      45.464  29.359  28.249  1.00  0.00     0.031 A 
ATOM     24  C   UNL A   1      39.194  31.600  30.266  1.00  0.00     0.031 A 
ATOM     25  C   UNL A   1      45.497  30.587  29.001  1.00  0.00     0.049 A 
ATOM     26  C   UNL A   1      40.432  32.446  30.430  1.00  0.00     0.074 A 
ATOM     27  C   UNL A   1      46.580  31.389  29.315  1.00  0.00     0.029 A 
ATOM     28  N   UNL A   1      44.366  31.246  29.450  1.00  0.00    -0.354 N 
ATOM     29  N   UNL A   1      41.680  32.146  30.158  1.00  0.00    -0.248 NA
ATOM     30  C   UNL A   1      40.248  33.798  30.983  1.00  0.00     0.031 C 
ATOM     31  C   UNL A   1      46.099  32.537  29.956  1.00  0.00     0.029 A 
ATOM     32  C   UNL A   1      44.715  32.467  29.987  1.00  0.00     0.049 A 
ATOM     33  H   UNL A   1      43.448  30.894  29.393  1.00  0.00     0.167 HD
ATOM     34  C   UNL A   1      42.429  33.268  30.505  1.00  0.00     0.074 A 
ATOM     35  C   UNL A   1      41.492  34.263  30.984  1.00  0.00     0.031 C 
ATOM     36  C   UNL A   1      43.772  33.453  30.443  1.00  0.00     0.031 A 
BRANCH  23  37
ATOM     37  C   UNL A   1      46.782  28.684  27.925  1.00  0.00    -0.014 A 
ATOM     38  C   UNL A   1      47.422  27.720  28.719  1.00  0.00     0.010 A 
ATOM     39  C   UNL A   1      47.384  29.029  26.691  1.00  0.00     0.010 A 
ATOM     40  C   UNL A   1      48.649  27.165  28.318  1.00  0.00     0.020 A 
ATOM     41  C   UNL A   1      48.581  28.450  26.264  1.00  0.00     0.020 A 
ATOM     42  C   UNL A   1      49.222  27.537  27.096  1.00  0.00     0.054 A 
BRANCH  42  43
ATOM     43  S   UNL A   1      50.790  26.783  26.577  1.00  0.00     0.124 S 
ATOM     44  O   UNL A   1      51.463  26.588  27.859  1.00  0.00    -0.237 OA
ATOM     45  O   UNL A   1      50.356  25.561  25.904  1.00  0.00    -0.237 OA
ATOM     46  O   UNL A   1      51.387  27.792  25.706  1.00  0.00    -0.744 OA
ENDBRANCH  42  43
ENDBRANCH  23  37
BRANCH  24  47
ATOM     47  C   UNL A   1      37.868  32.062  30.750  1.00  0.00    -0.014 A 
ATOM     48  C   UNL A   1      37.479  31.858  32.084  1.00  0.00     0.010 A 
ATOM     49  C   UNL A   1      37.039  32.812  29.895  1.00  0.00     0.010 A 
ATOM     50  C   UNL A   1      36.300  32.431  32.566  1.00  0.00     0.020 A 
ATOM     51  C   UNL A   1      35.875  33.409  30.380  1.00  0.00     0.020 A 
ATOM     52  C   UNL A   1      35.518  33.222  31.716  1.00  0.00     0.054 A 
BRANCH  52  53
ATOM     53  S   UNL A   1      34.084  34.096  32.406  1.00  0.00     0.124 S 
ATOM     54  O   UNL A   1      34.718  35.093  33.262  1.00  0.00    -0.237 OA
ATOM     55  O   UNL A   1      33.425  34.614  31.209  1.00  0.00    -0.237 OA
ATOM     56  O   UNL A   1      33.349  33.043  33.103  1.00  0.00    -0.744 OA
ENDBRANCH  52  53
ENDBRANCH  24  47
BRANCH  36  57
ATOM     57  C   UNL A   1      44.328  34.791  30.842  1.00  0.00    -0.014 A 
ATOM     58  C   UNL A   1      44.433  35.842  29.917  1.00  0.00     0.010 A 
ATOM     59  C   UNL A   1      44.652  35.026  32.191  1.00  0.00     0.010 A 
ATOM     60  C   UNL A   1      44.882  37.101  30.329  1.00  0.00     0.020 A 
ATOM     61  C   UNL A   1      45.083  36.287  32.612  1.00  0.00     0.020 A 
ATOM     62  C   UNL A   1      45.206  37.314  31.674  1.00  0.00     0.054 A 
BRANCH  62  63
ATOM     63  S   UNL A   1      45.751  38.966  32.188  1.00  0.00     0.124 S 
ATOM     64  O   UNL A   1      45.888  38.804  33.632  1.00  0.00    -0.237 OA
ATOM     65  O   UNL A   1      47.002  39.136  31.453  1.00  0.00    -0.237 OA
ATOM     66  O   UNL A   1      44.661  39.840  31.761  1.00  0.00    -0.744 OA
ENDBRANCH  62  63
ENDBRANCH  36  57
ENDBRANCH  10  11
ENDBRANCH   3   5
ENDBRANCH   2   3
ENDBRANCH   1   2
BRANCH   1  67
ATOM     67  C   UNL A   1      36.519  23.374  23.967  1.00  0.00     0.274 C 
BRANCH  67  68
ATOM     68  O   UNL A   1      35.623  23.883  24.988  1.00  0.00    -0.457 OA
BRANCH  68  69
ATOM     69  C   UNL A   1      34.432  24.185  24.395  1.00  0.00     0.370 C 
ATOM     70  O   UNL A   1      34.405  25.170  23.666  1.00  0.00    -0.245 OA
BRANCH  69  71
ATOM     71  C   UNL A   1      33.046  23.034  24.539  1.00  0.00     0.328 C 
BRANCH  71  72
ATOM     72  N   UNL A   1      31.837  24.439  24.504  1.00  0.00    -0.319 N 
ATOM     73  C   UNL A   1      30.934  24.821  23.366  1.00  0.00     0.263 C 
ATOM     74  C   UNL A   1      31.011  24.720  25.734  1.00  0.00     0.274 C 
ATOM     75  H   UNL A   1      32.688  24.984  24.369  1.00  0.00     0.349 HD
ATOM     76  C   UNL A   1      30.577  26.316  23.402  1.00  0.00     0.062 C 
ATOM     77  C   UNL A   1      30.556  26.244  25.894  1.00  0.00     0.104 C 
ATOM     78  C   UNL A   1      29.775  26.655  24.636  1.00  0.00     0.022 C 
BRANCH  77  79
ATOM     79  C   UNL A   1      31.658  27.257  26.252  1.00  0.00     0.103 A 
ATOM     80  N   UNL A   1      31.502  28.558  26.322  1.00  0.00    -0.241 NA
ATOM     81  S   UNL A   1      33.323  26.781  26.437  1.00  0.00    -0.118 S 
ATOM     82  C   UNL A   1      32.647  29.202  26.745  1.00  0.00     0.082 A 
ATOM     83  C   UNL A   1      33.771  28.391  26.859  1.00  0.00     0.055 A 
ATOM     84  C   UNL A   1      32.764  30.575  27.046  1.00  0.00     0.030 A 
ATOM     85  C   UNL A   1      35.017  28.911  27.257  1.00  0.00     0.021 A 
ATOM     86  C   UNL A   1      33.989  31.100  27.466  1.00  0.00     0.002 A 
ATOM     87  C   UNL A   1      35.104  30.276  27.565  1.00  0.00     0.002 A 
ENDBRANCH  77  79
ENDBRANCH  71  72
BRANCH  71  88
ATOM     88  C   UNL A   1      32.819  21.137  23.393  1.00  0.00     0.046 A 
ATOM     89  C   UNL A   1      31.985  20.694  22.243  1.00  0.00     0.094 A 
ATOM     90  C   UNL A   1      33.333  19.490  23.690  1.00  0.00     0.010 A 
ATOM     91  N   UNL A   1      31.848  19.344  22.060  1.00  0.00    -0.361 N 
ATOM     92  C   UNL A   1      32.633  18.606  22.872  1.00  0.00     0.046 A 
ATOM     93  C   UNL A   1      34.303  18.796  24.534  1.00  0.00     0.026 A 
ATOM     94  H   UNL A   1      31.235  18.950  21.399  1.00  0.00     0.166 HD
ATOM     95  C   UNL A   1      32.775  17.203  22.885  1.00  0.00     0.028 A 
ATOM     96  C   UNL A   1      34.477  17.409  24.546  1.00  0.00     0.018 A 
ATOM     97  C   UNL A   1      33.700  16.613  23.740  1.00  0.00     0.018 A 
ATOM     98  Br  UNL A   1      35.825  16.646  25.633  1.00  0.00    -0.051 Br
ENDBRANCH  71  88
ENDBRANCH  69  71
ENDBRANCH  68  69
ENDBRANCH  67  68
ENDBRANCH   1  67
TORSDOF 17
ENDMDL
