MODEL 1
REMARK VINA RESULT:      -9.7      0.000      0.000
REMARK SMILES CCCCCCCNC(=O)Oc1cccc(-c2ccc([C@@H](C)C(=O)OCCOC(=O)c3ccc(-c4c5nc(c(-c6ccc(S(=O)(=O)[O-])cc6)c6ccc([nH]6)c(-c6ccc(S(=O)(=O)[O-])cc6)c6nc(c(-c7ccc(S(=O)(=O)[O-])cc7)c7ccc4[nH]7)C=C6)C=C5)cc3)cc2F)c1
REMARK SMILES IDX 21 1 22 2 20 3 17 4 18 5 92 6 19 7 91 8 93 9 16 10 12 11
REMARK SMILES IDX 13 12 94 13 14 14 15 15 11 16 9 17 8 18 10 20 7 21 6 22 5 23
REMARK SMILES IDX 4 24 3 25 2 26 1 27 23 28 24 29 25 30 26 31 27 32 28 33
REMARK SMILES IDX 29 34 30 35 31 36 32 37 90 38 33 39 89 40 34 41 35 42 36 43
REMARK SMILES IDX 83 44 37 45 88 46 82 47 84 48 38 49 87 50 81 51 80 52 39 54
REMARK SMILES IDX 69 55 50 56 68 57 51 58 54 59 67 60 85 61 52 62 53 63 66 65
REMARK SMILES IDX 86 66 55 67 40 68 41 69 49 70 42 71 48 72 43 73 44 74 45 75
REMARK SMILES IDX 46 76 47 77 70 78 71 79 79 80 72 81 78 82 73 83 74 84 75 85
REMARK SMILES IDX 76 86 77 87 56 88 57 89 65 90 58 91 64 92 59 93 60 94 61 95
REMARK SMILES IDX 62 96 63 97
REMARK H PARENT 8 19 84 53 54 64
REMARK Flexibility Score: inf
ROOT
ATOM      1  C   UNL A   1      34.950  32.129  28.521  1.00  0.00     0.126 C 
ATOM      2  C   UNL A   1      36.323  32.275  27.867  1.00  0.00     0.025 C 
ENDROOT
BRANCH   1   3
ATOM      3  C   UNL A   1      34.046  31.172  27.761  1.00  0.00    -0.031 A 
ATOM      4  C   UNL A   1      32.407  29.366  26.286  1.00  0.00     0.018 A 
ATOM      5  C   UNL A   1      31.926  30.622  26.692  1.00  0.00     0.012 A 
ATOM      6  C   UNL A   1      33.714  29.030  26.656  1.00  0.00     0.131 A 
ATOM      7  C   UNL A   1      32.732  31.513  27.412  1.00  0.00     0.005 A 
ATOM      8  C   UNL A   1      34.524  29.910  27.378  1.00  0.00     0.044 A 
ATOM      9  F   UNL A   1      34.242  27.852  26.287  1.00  0.00    -0.206 F 
BRANCH   4  10
ATOM     10  C   UNL A   1      31.568  28.470  25.472  1.00  0.00    -0.012 A 
ATOM     11  C   UNL A   1      30.583  26.300  25.015  1.00  0.00     0.133 A 
ATOM     12  C   UNL A   1      29.978  26.783  23.857  1.00  0.00     0.047 A 
ATOM     13  C   UNL A   1      31.381  27.121  25.814  1.00  0.00     0.056 A 
ATOM     14  C   UNL A   1      30.153  28.116  23.504  1.00  0.00     0.004 A 
ATOM     15  C   UNL A   1      30.941  28.949  24.304  1.00  0.00     0.009 A 
BRANCH  11  16
ATOM     16  O   UNL A   1      30.459  24.926  25.268  1.00  0.00    -0.410 OA
BRANCH  16  17
ATOM     17  C   UNL A   1      31.114  24.054  24.412  1.00  0.00     0.412 C 
ATOM     18  N   UNL A   1      32.355  23.694  24.862  1.00  0.00    -0.321 N 
ATOM     19  H   UNL A   1      32.857  23.055  24.307  1.00  0.00     0.167 HD
ATOM     20  O   UNL A   1      30.690  23.637  23.340  1.00  0.00    -0.224 OA
BRANCH  18  21
ATOM     21  C   UNL A   1      33.011  24.156  26.071  1.00  0.00     0.119 C 
BRANCH  21  22
ATOM     22  C   UNL A   1      33.270  23.024  27.064  1.00  0.00     0.021 C 
BRANCH  22  23
ATOM     23  C   UNL A   1      33.620  21.673  26.428  1.00  0.00     0.002 C 
BRANCH  23  24
ATOM     24  C   UNL A   1      35.116  21.399  26.236  1.00  0.00     0.000 C 
BRANCH  24  25
ATOM     25  C   UNL A   1      35.556  21.145  24.790  1.00  0.00    -0.000 C 
BRANCH  25  26
ATOM     26  C   UNL A   1      36.834  21.867  24.357  1.00  0.00    -0.003 C 
ATOM     27  C   UNL A   1      36.623  22.830  23.198  1.00  0.00     0.004 C 
ENDBRANCH  25  26
ENDBRANCH  24  25
ENDBRANCH  23  24
ENDBRANCH  22  23
ENDBRANCH  21  22
ENDBRANCH  18  21
ENDBRANCH  16  17
ENDBRANCH  11  16
ENDBRANCH   4  10
ENDBRANCH   1   3
BRANCH   1  28
ATOM     28  C   UNL A   1      34.369  33.508  28.819  1.00  0.00     0.313 C 
ATOM     29  O   UNL A   1      34.257  34.367  27.952  1.00  0.00    -0.252 OA
BRANCH  28  30
ATOM     30  O   UNL A   1      33.965  33.665  30.106  1.00  0.00    -0.462 OA
BRANCH  30  31
ATOM     31  C   UNL A   1      34.613  32.845  31.096  1.00  0.00     0.274 C 
BRANCH  31  32
ATOM     32  C   UNL A   1      35.890  33.515  31.607  1.00  0.00     0.275 C 
BRANCH  32  33
ATOM     33  O   UNL A   1      37.057  32.784  31.191  1.00  0.00    -0.458 OA
BRANCH  33  34
ATOM     34  C   UNL A   1      37.528  31.883  32.085  1.00  0.00     0.338 C 
ATOM     35  O   UNL A   1      36.988  31.492  33.103  1.00  0.00    -0.246 OA
BRANCH  34  36
ATOM     36  C   UNL A   1      38.791  31.330  31.578  1.00  0.00     0.060 A 
ATOM     37  C   UNL A   1      39.592  30.596  32.455  1.00  0.00     0.016 A 
ATOM     38  C   UNL A   1      39.205  31.571  30.268  1.00  0.00     0.016 A 
ATOM     39  C   UNL A   1      40.815  30.092  32.027  1.00  0.00     0.010 A 
ATOM     40  C   UNL A   1      40.426  31.047  29.833  1.00  0.00     0.010 A 
ATOM     41  C   UNL A   1      41.237  30.304  30.709  1.00  0.00    -0.014 A 
BRANCH  41  42
ATOM     42  C   UNL A   1      42.520  29.723  30.243  1.00  0.00     0.031 A 
ATOM     43  C   UNL A   1      43.782  30.534  30.294  1.00  0.00     0.074 A 
ATOM     44  C   UNL A   1      42.539  28.461  29.774  1.00  0.00     0.049 A 
ATOM     45  N   UNL A   1      44.973  30.231  29.844  1.00  0.00    -0.248 NA
ATOM     46  C   UNL A   1      43.696  31.857  30.932  1.00  0.00     0.031 C 
ATOM     47  C   UNL A   1      41.383  27.562  29.717  1.00  0.00     0.029 A 
ATOM     48  N   UNL A   1      43.566  27.715  29.253  1.00  0.00    -0.354 N 
ATOM     49  C   UNL A   1      45.773  31.332  30.124  1.00  0.00     0.074 A 
ATOM     50  C   UNL A   1      44.932  32.313  30.773  1.00  0.00     0.031 C 
ATOM     51  C   UNL A   1      41.766  26.387  29.192  1.00  0.00     0.029 A 
ATOM     52  C   UNL A   1      43.177  26.469  28.825  1.00  0.00     0.049 A 
ATOM     53  H   UNL A   1      44.493  28.042  29.190  1.00  0.00     0.167 HD
ATOM     54  C   UNL A   1      47.090  31.505  29.858  1.00  0.00     0.031 A 
ATOM     55  C   UNL A   1      43.866  25.511  28.176  1.00  0.00     0.031 A 
ATOM     56  C   UNL A   1      47.920  30.523  29.209  1.00  0.00     0.049 A 
ATOM     57  C   UNL A   1      45.307  25.758  27.827  1.00  0.00     0.074 A 
ATOM     58  C   UNL A   1      49.269  30.597  28.910  1.00  0.00     0.029 A 
ATOM     59  N   UNL A   1      47.479  29.290  28.753  1.00  0.00    -0.354 N 
ATOM     60  N   UNL A   1      46.051  26.804  28.099  1.00  0.00    -0.248 NA
ATOM     61  C   UNL A   1      45.999  24.702  27.077  1.00  0.00     0.031 C 
ATOM     62  C   UNL A   1      49.632  29.430  28.229  1.00  0.00     0.029 A 
ATOM     63  C   UNL A   1      48.521  28.607  28.147  1.00  0.00     0.049 A 
ATOM     64  H   UNL A   1      46.559  28.950  28.846  1.00  0.00     0.167 HD
ATOM     65  C   UNL A   1      47.301  26.528  27.558  1.00  0.00     0.074 A 
ATOM     66  C   UNL A   1      47.220  25.209  26.965  1.00  0.00     0.031 C 
ATOM     67  C   UNL A   1      48.417  27.300  27.550  1.00  0.00     0.031 A 
BRANCH  54  68
ATOM     68  C   UNL A   1      47.709  32.825  30.232  1.00  0.00    -0.014 A 
ATOM     69  C   UNL A   1      47.714  33.910  29.338  1.00  0.00     0.010 A 
ATOM     70  C   UNL A   1      48.254  32.994  31.518  1.00  0.00     0.010 A 
ATOM     71  C   UNL A   1      48.281  35.131  29.712  1.00  0.00     0.020 A 
ATOM     72  C   UNL A   1      48.803  34.221  31.903  1.00  0.00     0.020 A 
ATOM     73  C   UNL A   1      48.827  35.278  30.992  1.00  0.00     0.054 A 
BRANCH  73  74
ATOM     74  S   UNL A   1      49.537  36.880  31.461  1.00  0.00     0.124 S 
ATOM     75  O   UNL A   1      50.957  36.672  31.190  1.00  0.00    -0.237 OA
ATOM     76  O   UNL A   1      48.856  37.810  30.563  1.00  0.00    -0.237 OA
ATOM     77  O   UNL A   1      49.186  37.015  32.873  1.00  0.00    -0.744 OA
ENDBRANCH  73  74
ENDBRANCH  54  68
BRANCH  55  78
ATOM     78  C   UNL A   1      43.183  24.254  27.767  1.00  0.00    -0.014 A 
ATOM     79  C   UNL A   1      42.634  24.120  26.481  1.00  0.00     0.010 A 
ATOM     80  C   UNL A   1      43.092  23.176  28.666  1.00  0.00     0.010 A 
ATOM     81  C   UNL A   1      41.997  22.934  26.105  1.00  0.00     0.020 A 
ATOM     82  C   UNL A   1      42.479  21.980  28.285  1.00  0.00     0.020 A 
ATOM     83  C   UNL A   1      41.926  21.871  27.009  1.00  0.00     0.054 A 
BRANCH  83  84
ATOM     84  S   UNL A   1      41.145  20.319  26.483  1.00  0.00     0.124 S 
ATOM     85  O   UNL A   1      41.171  19.535  27.714  1.00  0.00    -0.237 OA
ATOM     86  O   UNL A   1      39.823  20.761  26.043  1.00  0.00    -0.237 OA
ATOM     87  O   UNL A   1      42.019  19.841  25.415  1.00  0.00    -0.744 OA
ENDBRANCH  83  84
ENDBRANCH  55  78
BRANCH  67  88
ATOM     88  C   UNL A   1      49.640  26.731  26.885  1.00  0.00    -0.014 A 
ATOM     89  C   UNL A   1      49.913  26.994  25.531  1.00  0.00     0.010 A 
ATOM     90  C   UNL A   1      50.549  25.963  27.634  1.00  0.00     0.010 A 
ATOM     91  C   UNL A   1      51.062  26.477  24.930  1.00  0.00     0.020 A 
ATOM     92  C   UNL A   1      51.711  25.464  27.043  1.00  0.00     0.020 A 
ATOM     93  C   UNL A   1      51.954  25.713  25.690  1.00  0.00     0.054 A 
BRANCH  93  94
ATOM     94  S   UNL A   1      53.463  25.088  24.900  1.00  0.00     0.124 S 
ATOM     95  O   UNL A   1      53.331  25.605  23.541  1.00  0.00    -0.237 OA
ATOM     96  O   UNL A   1      54.522  25.695  25.703  1.00  0.00    -0.237 OA
ATOM     97  O   UNL A   1      53.346  23.638  25.030  1.00  0.00    -0.744 OA
ENDBRANCH  93  94
ENDBRANCH  67  88
ENDBRANCH  41  42
ENDBRANCH  34  36
ENDBRANCH  33  34
ENDBRANCH  32  33
ENDBRANCH  31  32
ENDBRANCH  30  31
ENDBRANCH  28  30
ENDBRANCH   1  28
TORSDOF 24
ENDMDL
MODEL 2
REMARK VINA RESULT:      -9.5      1.421      8.003
REMARK SMILES CCCCCCCNC(=O)Oc1cccc(-c2ccc([C@@H](C)C(=O)OCCOC(=O)c3ccc(-c4c5nc(c(-c6ccc(S(=O)(=O)[O-])cc6)c6ccc([nH]6)c(-c6ccc(S(=O)(=O)[O-])cc6)c6nc(c(-c7ccc(S(=O)(=O)[O-])cc7)c7ccc4[nH]7)C=C6)C=C5)cc3)cc2F)c1
REMARK SMILES IDX 21 1 22 2 20 3 17 4 18 5 92 6 19 7 91 8 93 9 16 10 12 11
REMARK SMILES IDX 13 12 94 13 14 14 15 15 11 16 9 17 8 18 10 20 7 21 6 22 5 23
REMARK SMILES IDX 4 24 3 25 2 26 1 27 23 28 24 29 25 30 26 31 27 32 28 33
REMARK SMILES IDX 29 34 30 35 31 36 32 37 90 38 33 39 89 40 34 41 35 42 36 43
REMARK SMILES IDX 83 44 37 45 88 46 82 47 84 48 38 49 87 50 81 51 80 52 39 54
REMARK SMILES IDX 69 55 50 56 68 57 51 58 54 59 67 60 85 61 52 62 53 63 66 65
REMARK SMILES IDX 86 66 55 67 40 68 41 69 49 70 42 71 48 72 43 73 44 74 45 75
REMARK SMILES IDX 46 76 47 77 70 78 71 79 79 80 72 81 78 82 73 83 74 84 75 85
REMARK SMILES IDX 76 86 77 87 56 88 57 89 65 90 58 91 64 92 59 93 60 94 61 95
REMARK SMILES IDX 62 96 63 97
REMARK H PARENT 8 19 84 53 54 64
REMARK Flexibility Score: inf
ROOT
ATOM      1  C   UNL A   1      35.202  31.222  28.617  1.00  0.00     0.126 C 
ATOM      2  C   UNL A   1      36.612  30.634  28.614  1.00  0.00     0.025 C 
ENDROOT
BRANCH   1   3
ATOM      3  C   UNL A   1      34.288  30.540  27.612  1.00  0.00    -0.031 A 
ATOM      4  C   UNL A   1      32.633  29.254  25.680  1.00  0.00     0.018 A 
ATOM      5  C   UNL A   1      32.240  30.455  26.294  1.00  0.00     0.012 A 
ATOM      6  C   UNL A   1      33.859  28.704  26.075  1.00  0.00     0.131 A 
ATOM      7  C   UNL A   1      33.055  31.091  27.238  1.00  0.00     0.005 A 
ATOM      8  C   UNL A   1      34.676  29.329  27.020  1.00  0.00     0.044 A 
ATOM      9  F   UNL A   1      34.302  27.565  25.517  1.00  0.00    -0.206 F 
BRANCH   4  10
ATOM     10  C   UNL A   1      31.795  28.634  24.640  1.00  0.00    -0.012 A 
ATOM     11  C   UNL A   1      31.262  26.803  23.139  1.00  0.00     0.133 A 
ATOM     12  C   UNL A   1      30.177  27.504  22.619  1.00  0.00     0.047 A 
ATOM     13  C   UNL A   1      32.077  27.357  24.129  1.00  0.00     0.056 A 
ATOM     14  C   UNL A   1      29.884  28.769  23.114  1.00  0.00     0.004 A 
ATOM     15  C   UNL A   1      30.687  29.327  24.114  1.00  0.00     0.009 A 
BRANCH  11  16
ATOM     16  O   UNL A   1      31.574  25.577  22.533  1.00  0.00    -0.410 OA
BRANCH  16  17
ATOM     17  C   UNL A   1      32.844  25.430  21.996  1.00  0.00     0.412 C 
ATOM     18  N   UNL A   1      33.548  24.403  22.563  1.00  0.00    -0.321 N 
ATOM     19  H   UNL A   1      34.449  24.235  22.203  1.00  0.00     0.167 HD
ATOM     20  O   UNL A   1      33.348  26.132  21.127  1.00  0.00    -0.224 OA
BRANCH  18  21
ATOM     21  C   UNL A   1      33.109  23.535  23.640  1.00  0.00     0.119 C 
BRANCH  21  22
ATOM     22  C   UNL A   1      33.247  22.055  23.288  1.00  0.00     0.021 C 
BRANCH  22  23
ATOM     23  C   UNL A   1      32.246  21.127  23.989  1.00  0.00     0.002 C 
BRANCH  23  24
ATOM     24  C   UNL A   1      32.410  19.632  23.695  1.00  0.00     0.000 C 
BRANCH  24  25
ATOM     25  C   UNL A   1      33.352  18.876  24.639  1.00  0.00    -0.000 C 
BRANCH  25  26
ATOM     26  C   UNL A   1      32.687  17.811  25.514  1.00  0.00    -0.003 C 
ATOM     27  C   UNL A   1      33.468  16.507  25.579  1.00  0.00     0.004 C 
ENDBRANCH  25  26
ENDBRANCH  24  25
ENDBRANCH  23  24
ENDBRANCH  22  23
ENDBRANCH  21  22
ENDBRANCH  18  21
ENDBRANCH  16  17
ENDBRANCH  11  16
ENDBRANCH   4  10
ENDBRANCH   1   3
BRANCH   1  28
ATOM     28  C   UNL A   1      35.276  32.744  28.532  1.00  0.00     0.313 C 
ATOM     29  O   UNL A   1      34.771  33.369  27.606  1.00  0.00    -0.252 OA
BRANCH  28  30
ATOM     30  O   UNL A   1      35.913  33.320  29.584  1.00  0.00    -0.462 OA
BRANCH  30  31
ATOM     31  C   UNL A   1      35.181  33.408  30.820  1.00  0.00     0.274 C 
BRANCH  31  32
ATOM     32  C   UNL A   1      36.041  32.943  31.997  1.00  0.00     0.275 C 
BRANCH  32  33
ATOM     33  O   UNL A   1      37.010  31.967  31.573  1.00  0.00    -0.458 OA
BRANCH  33  34
ATOM     34  C   UNL A   1      37.924  31.613  32.506  1.00  0.00     0.338 C 
ATOM     35  O   UNL A   1      37.778  31.571  33.714  1.00  0.00    -0.246 OA
BRANCH  34  36
ATOM     36  C   UNL A   1      39.143  31.155  31.825  1.00  0.00     0.060 A 
ATOM     37  C   UNL A   1      39.280  31.425  30.462  1.00  0.00     0.016 A 
ATOM     38  C   UNL A   1      40.115  30.427  32.508  1.00  0.00     0.016 A 
ATOM     39  C   UNL A   1      40.397  30.971  29.770  1.00  0.00     0.010 A 
ATOM     40  C   UNL A   1      41.248  29.988  31.816  1.00  0.00     0.010 A 
ATOM     41  C   UNL A   1      41.397  30.259  30.444  1.00  0.00    -0.014 A 
BRANCH  41  42
ATOM     42  C   UNL A   1      42.609  29.819  29.712  1.00  0.00     0.031 A 
ATOM     43  C   UNL A   1      42.666  28.453  29.090  1.00  0.00     0.074 A 
ATOM     44  C   UNL A   1      43.658  30.657  29.613  1.00  0.00     0.049 A 
ATOM     45  N   UNL A   1      43.670  27.861  28.497  1.00  0.00    -0.248 NA
ATOM     46  C   UNL A   1      41.434  27.650  29.139  1.00  0.00     0.031 C 
ATOM     47  C   UNL A   1      43.702  32.023  30.141  1.00  0.00     0.029 A 
ATOM     48  N   UNL A   1      44.892  30.483  29.038  1.00  0.00    -0.354 N 
ATOM     49  C   UNL A   1      43.203  26.608  28.123  1.00  0.00     0.074 A 
ATOM     50  C   UNL A   1      41.827  26.521  28.563  1.00  0.00     0.031 C 
ATOM     51  C   UNL A   1      44.900  32.563  29.864  1.00  0.00     0.029 A 
ATOM     52  C   UNL A   1      45.726  31.565  29.191  1.00  0.00     0.049 A 
ATOM     53  H   UNL A   1      45.155  29.662  28.563  1.00  0.00     0.167 HD
ATOM     54  C   UNL A   1      43.865  25.621  27.474  1.00  0.00     0.031 A 
ATOM     55  C   UNL A   1      47.021  31.725  28.860  1.00  0.00     0.031 A 
ATOM     56  C   UNL A   1      45.235  25.715  27.041  1.00  0.00     0.049 A 
ATOM     57  C   UNL A   1      47.754  30.587  28.207  1.00  0.00     0.074 A 
ATOM     58  C   UNL A   1      45.990  24.776  26.361  1.00  0.00     0.029 A 
ATOM     59  N   UNL A   1      46.058  26.811  27.251  1.00  0.00    -0.354 N 
ATOM     60  N   UNL A   1      47.298  29.407  27.858  1.00  0.00    -0.248 NA
ATOM     61  C   UNL A   1      49.177  30.797  27.911  1.00  0.00     0.031 C 
ATOM     62  C   UNL A   1      47.285  25.285  26.204  1.00  0.00     0.029 A 
ATOM     63  C   UNL A   1      47.322  26.560  26.742  1.00  0.00     0.049 A 
ATOM     64  H   UNL A   1      45.785  27.646  27.697  1.00  0.00     0.167 HD
ATOM     65  C   UNL A   1      48.377  28.737  27.295  1.00  0.00     0.074 A 
ATOM     66  C   UNL A   1      49.501  29.649  27.329  1.00  0.00     0.031 C 
ATOM     67  C   UNL A   1      48.433  27.477  26.798  1.00  0.00     0.031 A 
BRANCH  54  68
ATOM     68  C   UNL A   1      43.128  24.332  27.227  1.00  0.00    -0.014 A 
ATOM     69  C   UNL A   1      42.718  23.960  25.934  1.00  0.00     0.010 A 
ATOM     70  C   UNL A   1      42.883  23.458  28.302  1.00  0.00     0.010 A 
ATOM     71  C   UNL A   1      42.049  22.751  25.726  1.00  0.00     0.020 A 
ATOM     72  C   UNL A   1      42.232  22.238  28.094  1.00  0.00     0.020 A 
ATOM     73  C   UNL A   1      41.805  21.899  26.809  1.00  0.00     0.054 A 
BRANCH  73  74
ATOM     74  S   UNL A   1      40.954  20.325  26.509  1.00  0.00     0.124 S 
ATOM     75  O   UNL A   1      41.879  19.650  25.603  1.00  0.00    -0.237 OA
ATOM     76  O   UNL A   1      40.856  19.750  27.848  1.00  0.00    -0.237 OA
ATOM     77  O   UNL A   1      39.682  20.726  25.913  1.00  0.00    -0.744 OA
ENDBRANCH  73  74
ENDBRANCH  54  68
BRANCH  55  78
ATOM     78  C   UNL A   1      47.719  32.996  29.193  1.00  0.00    -0.014 A 
ATOM     79  C   UNL A   1      47.745  34.062  28.278  1.00  0.00     0.010 A 
ATOM     80  C   UNL A   1      48.351  33.148  30.441  1.00  0.00     0.010 A 
ATOM     81  C   UNL A   1      48.401  35.254  28.602  1.00  0.00     0.020 A 
ATOM     82  C   UNL A   1      48.985  34.347  30.777  1.00  0.00     0.020 A 
ATOM     83  C   UNL A   1      49.014  35.390  29.850  1.00  0.00     0.054 A 
BRANCH  83  84
ATOM     84  S   UNL A   1      49.811  36.964  30.273  1.00  0.00     0.124 S 
ATOM     85  O   UNL A   1      48.687  37.749  30.771  1.00  0.00    -0.237 OA
ATOM     86  O   UNL A   1      50.796  36.562  31.276  1.00  0.00    -0.237 OA
ATOM     87  O   UNL A   1      50.377  37.413  29.003  1.00  0.00    -0.744 OA
ENDBRANCH  83  84
ENDBRANCH  55  78
BRANCH  67  88
ATOM     88  C   UNL A   1      49.753  27.015  26.244  1.00  0.00    -0.014 A 
ATOM     89  C   UNL A   1      50.630  26.238  27.021  1.00  0.00     0.010 A 
ATOM     90  C   UNL A   1      50.100  27.325  24.917  1.00  0.00     0.010 A 
ATOM     91  C   UNL A   1      51.844  25.800  26.489  1.00  0.00     0.020 A 
ATOM     92  C   UNL A   1      51.302  26.868  24.374  1.00  0.00     0.020 A 
ATOM     93  C   UNL A   1      52.173  26.119  25.167  1.00  0.00     0.054 A 
BRANCH  93  94
ATOM     94  S   UNL A   1      53.735  25.500  24.482  1.00  0.00     0.124 S 
ATOM     95  O   UNL A   1      53.535  25.689  23.049  1.00  0.00    -0.237 OA
ATOM     96  O   UNL A   1      54.727  26.378  25.099  1.00  0.00    -0.237 OA
ATOM     97  O   UNL A   1      53.781  24.110  24.929  1.00  0.00    -0.744 OA
ENDBRANCH  93  94
ENDBRANCH  67  88
ENDBRANCH  41  42
ENDBRANCH  34  36
ENDBRANCH  33  34
ENDBRANCH  32  33
ENDBRANCH  31  32
ENDBRANCH  30  31
ENDBRANCH  28  30
ENDBRANCH   1  28
TORSDOF 24
ENDMDL
MODEL 3
REMARK VINA RESULT:      -8.9      8.798     15.447
REMARK SMILES CCCCCCCNC(=O)Oc1cccc(-c2ccc([C@@H](C)C(=O)OCCOC(=O)c3ccc(-c4c5nc(c(-c6ccc(S(=O)(=O)[O-])cc6)c6ccc([nH]6)c(-c6ccc(S(=O)(=O)[O-])cc6)c6nc(c(-c7ccc(S(=O)(=O)[O-])cc7)c7ccc4[nH]7)C=C6)C=C5)cc3)cc2F)c1
REMARK SMILES IDX 21 1 22 2 20 3 17 4 18 5 92 6 19 7 91 8 93 9 16 10 12 11
REMARK SMILES IDX 13 12 94 13 14 14 15 15 11 16 9 17 8 18 10 20 7 21 6 22 5 23
REMARK SMILES IDX 4 24 3 25 2 26 1 27 23 28 24 29 25 30 26 31 27 32 28 33
REMARK SMILES IDX 29 34 30 35 31 36 32 37 90 38 33 39 89 40 34 41 35 42 36 43
REMARK SMILES IDX 83 44 37 45 88 46 82 47 84 48 38 49 87 50 81 51 80 52 39 54
REMARK SMILES IDX 69 55 50 56 68 57 51 58 54 59 67 60 85 61 52 62 53 63 66 65
REMARK SMILES IDX 86 66 55 67 40 68 41 69 49 70 42 71 48 72 43 73 44 74 45 75
REMARK SMILES IDX 46 76 47 77 70 78 71 79 79 80 72 81 78 82 73 83 74 84 75 85
REMARK SMILES IDX 76 86 77 87 56 88 57 89 65 90 58 91 64 92 59 93 60 94 61 95
REMARK SMILES IDX 62 96 63 97
REMARK H PARENT 8 19 84 53 54 64
REMARK Flexibility Score: inf
ROOT
ATOM      1  C   UNL A   1      50.909  20.510  35.303  1.00  0.00     0.126 C 
ATOM      2  C   UNL A   1      51.996  19.558  34.808  1.00  0.00     0.025 C 
ENDROOT
BRANCH   1   3
ATOM      3  C   UNL A   1      50.366  20.110  36.666  1.00  0.00    -0.031 A 
ATOM      4  C   UNL A   1      49.356  19.288  39.201  1.00  0.00     0.018 A 
ATOM      5  C   UNL A   1      48.691  20.256  38.430  1.00  0.00     0.012 A 
ATOM      6  C   UNL A   1      50.546  18.763  38.682  1.00  0.00     0.131 A 
ATOM      7  C   UNL A   1      49.183  20.657  37.181  1.00  0.00     0.005 A 
ATOM      8  C   UNL A   1      51.047  19.160  37.441  1.00  0.00     0.044 A 
ATOM      9  F   UNL A   1      51.224  17.823  39.361  1.00  0.00    -0.206 F 
BRANCH   4  10
ATOM     10  C   UNL A   1      48.789  18.830  40.480  1.00  0.00    -0.012 A 
ATOM     11  C   UNL A   1      47.055  17.732  41.776  1.00  0.00     0.133 A 
ATOM     12  C   UNL A   1      47.728  18.004  42.965  1.00  0.00     0.047 A 
ATOM     13  C   UNL A   1      47.564  18.147  40.543  1.00  0.00     0.056 A 
ATOM     14  C   UNL A   1      48.942  18.680  42.920  1.00  0.00     0.004 A 
ATOM     15  C   UNL A   1      49.465  19.088  41.690  1.00  0.00     0.009 A 
BRANCH  11  16
ATOM     16  O   UNL A   1      45.787  17.142  41.885  1.00  0.00    -0.410 OA
BRANCH  16  17
ATOM     17  C   UNL A   1      44.682  17.952  41.683  1.00  0.00     0.412 C 
ATOM     18  N   UNL A   1      43.531  17.243  41.467  1.00  0.00    -0.321 N 
ATOM     19  H   UNL A   1      42.707  17.768  41.342  1.00  0.00     0.167 HD
ATOM     20  O   UNL A   1      44.677  19.178  41.659  1.00  0.00    -0.224 OA
BRANCH  18  21
ATOM     21  C   UNL A   1      43.397  15.800  41.401  1.00  0.00     0.119 C 
BRANCH  21  22
ATOM     22  C   UNL A   1      42.553  15.347  40.211  1.00  0.00     0.021 C 
BRANCH  22  23
ATOM     23  C   UNL A   1      41.691  14.103  40.464  1.00  0.00     0.002 C 
BRANCH  23  24
ATOM     24  C   UNL A   1      41.748  13.536  41.887  1.00  0.00     0.000 C 
BRANCH  24  25
ATOM     25  C   UNL A   1      41.889  12.013  41.981  1.00  0.00    -0.000 C 
BRANCH  25  26
ATOM     26  C   UNL A   1      42.787  11.506  43.113  1.00  0.00    -0.003 C 
ATOM     27  C   UNL A   1      42.282  10.225  43.759  1.00  0.00     0.004 C 
ENDBRANCH  25  26
ENDBRANCH  24  25
ENDBRANCH  23  24
ENDBRANCH  22  23
ENDBRANCH  21  22
ENDBRANCH  18  21
ENDBRANCH  16  17
ENDBRANCH  11  16
ENDBRANCH   4  10
ENDBRANCH   1   3
BRANCH   1  28
ATOM     28  C   UNL A   1      49.872  20.728  34.205  1.00  0.00     0.313 C 
ATOM     29  O   UNL A   1      49.833  21.759  33.542  1.00  0.00    -0.252 OA
BRANCH  28  30
ATOM     30  O   UNL A   1      49.041  19.670  34.020  1.00  0.00    -0.462 OA
BRANCH  30  31
ATOM     31  C   UNL A   1      47.663  19.968  33.727  1.00  0.00     0.274 C 
BRANCH  31  32
ATOM     32  C   UNL A   1      46.755  19.533  34.878  1.00  0.00     0.275 C 
BRANCH  32  33
ATOM     33  O   UNL A   1      45.556  20.327  34.917  1.00  0.00    -0.458 OA
BRANCH  33  34
ATOM     34  C   UNL A   1      45.554  21.334  35.821  1.00  0.00     0.338 C 
ATOM     35  O   UNL A   1      45.726  21.255  37.023  1.00  0.00    -0.246 OA
BRANCH  34  36
ATOM     36  C   UNL A   1      45.421  22.611  35.107  1.00  0.00     0.060 A 
ATOM     37  C   UNL A   1      44.521  22.684  34.043  1.00  0.00     0.016 A 
ATOM     38  C   UNL A   1      46.209  23.709  35.450  1.00  0.00     0.016 A 
ATOM     39  C   UNL A   1      44.398  23.861  33.313  1.00  0.00     0.010 A 
ATOM     40  C   UNL A   1      46.070  24.898  34.728  1.00  0.00     0.010 A 
ATOM     41  C   UNL A   1      45.163  24.982  33.657  1.00  0.00    -0.014 A 
BRANCH  41  42
ATOM     42  C   UNL A   1      44.993  26.250  32.906  1.00  0.00     0.031 A 
ATOM     43  C   UNL A   1      45.874  26.559  31.730  1.00  0.00     0.074 A 
ATOM     44  C   UNL A   1      44.041  27.120  33.292  1.00  0.00     0.049 A 
ATOM     45  N   UNL A   1      45.936  27.653  31.016  1.00  0.00    -0.248 NA
ATOM     46  C   UNL A   1      46.804  25.503  31.302  1.00  0.00     0.031 C 
ATOM     47  C   UNL A   1      43.097  26.908  34.394  1.00  0.00     0.029 A 
ATOM     48  N   UNL A   1      43.709  28.359  32.805  1.00  0.00    -0.354 N 
ATOM     49  C   UNL A   1      46.926  27.428  30.067  1.00  0.00     0.074 A 
ATOM     50  C   UNL A   1      47.444  26.097  30.303  1.00  0.00     0.031 C 
ATOM     51  C   UNL A   1      42.294  27.979  34.496  1.00  0.00     0.029 A 
ATOM     52  C   UNL A   1      42.701  28.974  33.508  1.00  0.00     0.049 A 
ATOM     53  H   UNL A   1      44.153  28.769  32.027  1.00  0.00     0.167 HD
ATOM     54  C   UNL A   1      47.363  28.260  29.092  1.00  0.00     0.031 A 
ATOM     55  C   UNL A   1      42.184  30.212  33.396  1.00  0.00     0.031 A 
ATOM     56  C   UNL A   1      46.843  29.584  28.865  1.00  0.00     0.049 A 
ATOM     57  C   UNL A   1      42.738  31.142  32.352  1.00  0.00     0.074 A 
ATOM     58  C   UNL A   1      47.208  30.498  27.892  1.00  0.00     0.029 A 
ATOM     59  N   UNL A   1      45.851  30.186  29.625  1.00  0.00    -0.354 N 
ATOM     60  N   UNL A   1      43.674  30.915  31.462  1.00  0.00    -0.248 NA
ATOM     61  C   UNL A   1      42.174  32.497  32.305  1.00  0.00     0.031 C 
ATOM     62  C   UNL A   1      46.472  31.670  28.095  1.00  0.00     0.029 A 
ATOM     63  C   UNL A   1      45.613  31.470  29.163  1.00  0.00     0.049 A 
ATOM     64  H   UNL A   1      45.385  29.762  30.382  1.00  0.00     0.167 HD
ATOM     65  C   UNL A   1      43.806  32.097  30.743  1.00  0.00     0.074 A 
ATOM     66  C   UNL A   1      42.839  33.028  31.287  1.00  0.00     0.031 C 
ATOM     67  C   UNL A   1      44.655  32.387  29.726  1.00  0.00     0.031 A 
BRANCH  54  68
ATOM     68  C   UNL A   1      48.490  27.779  28.218  1.00  0.00    -0.014 A 
ATOM     69  C   UNL A   1      49.830  28.072  28.525  1.00  0.00     0.010 A 
ATOM     70  C   UNL A   1      48.203  26.979  27.096  1.00  0.00     0.010 A 
ATOM     71  C   UNL A   1      50.861  27.602  27.708  1.00  0.00     0.020 A 
ATOM     72  C   UNL A   1      49.233  26.490  26.288  1.00  0.00     0.020 A 
ATOM     73  C   UNL A   1      50.556  26.817  26.590  1.00  0.00     0.054 A 
BRANCH  73  74
ATOM     74  S   UNL A   1      51.915  26.200  25.558  1.00  0.00     0.124 S 
ATOM     75  O   UNL A   1      53.034  27.023  26.009  1.00  0.00    -0.237 OA
ATOM     76  O   UNL A   1      51.985  24.788  25.928  1.00  0.00    -0.237 OA
ATOM     77  O   UNL A   1      51.461  26.460  24.194  1.00  0.00    -0.744 OA
ENDBRANCH  73  74
ENDBRANCH  54  68
BRANCH  55  78
ATOM     78  C   UNL A   1      41.120  30.659  34.334  1.00  0.00    -0.014 A 
ATOM     79  C   UNL A   1      41.446  31.354  35.511  1.00  0.00     0.010 A 
ATOM     80  C   UNL A   1      39.768  30.401  34.043  1.00  0.00     0.010 A 
ATOM     81  C   UNL A   1      40.438  31.773  36.385  1.00  0.00     0.020 A 
ATOM     82  C   UNL A   1      38.757  30.841  34.901  1.00  0.00     0.020 A 
ATOM     83  C   UNL A   1      39.101  31.516  36.073  1.00  0.00     0.054 A 
BRANCH  83  84
ATOM     84  S   UNL A   1      37.804  32.117  37.192  1.00  0.00     0.124 S 
ATOM     85  O   UNL A   1      38.548  33.024  38.059  1.00  0.00    -0.237 OA
ATOM     86  O   UNL A   1      36.861  32.751  36.273  1.00  0.00    -0.237 OA
ATOM     87  O   UNL A   1      37.313  30.898  37.831  1.00  0.00    -0.744 OA
ENDBRANCH  83  84
ENDBRANCH  55  78
BRANCH  67  88
ATOM     88  C   UNL A   1      44.568  33.765  29.132  1.00  0.00    -0.014 A 
ATOM     89  C   UNL A   1      43.660  34.049  28.096  1.00  0.00     0.010 A 
ATOM     90  C   UNL A   1      45.371  34.800  29.646  1.00  0.00     0.010 A 
ATOM     91  C   UNL A   1      43.576  35.338  27.566  1.00  0.00     0.020 A 
ATOM     92  C   UNL A   1      45.271  36.095  29.135  1.00  0.00     0.020 A 
ATOM     93  C   UNL A   1      44.383  36.354  28.088  1.00  0.00     0.054 A 
BRANCH  93  94
ATOM     94  S   UNL A   1      44.224  38.031  27.415  1.00  0.00     0.124 S 
ATOM     95  O   UNL A   1      45.455  38.167  26.643  1.00  0.00    -0.237 OA
ATOM     96  O   UNL A   1      42.995  37.947  26.628  1.00  0.00    -0.237 OA
ATOM     97  O   UNL A   1      44.136  38.874  28.605  1.00  0.00    -0.744 OA
ENDBRANCH  93  94
ENDBRANCH  67  88
ENDBRANCH  41  42
ENDBRANCH  34  36
ENDBRANCH  33  34
ENDBRANCH  32  33
ENDBRANCH  31  32
ENDBRANCH  30  31
ENDBRANCH  28  30
ENDBRANCH   1  28
TORSDOF 24
ENDMDL
