MODEL 1
REMARK VINA RESULT:      -9.2      0.000      0.000
REMARK SMILES O=C(Nc1c(F)cc(F)cc1F)N[C@H]1C=C[C@H](C(=O)OCCOC(=O)c2ccc(-c3c4nc(c(-c5ccc(S(=O)(=O)[O-])cc5)c5ccc([nH]5)c(-c5ccc(S(=O)(=O)[O-])cc5)c5nc(c(-c6ccc(S(=O)(=O)[O-])cc6)c6ccc3[nH]6)C=C5)C=C4)cc2)C1
REMARK SMILES IDX 22 1 21 2 20 3 18 4 19 5 17 6 14 7 15 8 86 9 16 10 13 11
REMARK SMILES IDX 1 12 2 13 3 14 4 17 5 18 11 19 6 20 7 21 10 22 12 23 8 24
REMARK SMILES IDX 9 25 23 26 24 27 25 28 26 29 27 30 85 31 28 32 84 33 29 34
REMARK SMILES IDX 30 35 31 36 78 37 32 38 83 39 77 40 79 41 33 42 82 43 76 44
REMARK SMILES IDX 75 45 34 47 64 48 45 49 63 50 46 51 49 52 62 53 80 54 47 55
REMARK SMILES IDX 48 56 61 58 81 59 50 60 35 61 36 62 44 63 37 64 43 65 38 66
REMARK SMILES IDX 39 67 40 68 41 69 42 70 65 71 66 72 74 73 67 74 73 75 68 76
REMARK SMILES IDX 69 77 70 78 71 79 72 80 51 81 52 82 60 83 53 84 59 85 54 86
REMARK SMILES IDX 55 87 56 88 57 89 58 90
REMARK H PARENT 3 15 13 16 79 46 49 57
REMARK Flexibility Score: inf
ROOT
ATOM      1  C   UNL A   1      38.764  20.720  25.295  1.00  0.00     0.275 C 
ENDROOT
BRANCH   1   2
ATOM      2  C   UNL A   1      39.711  19.635  25.806  1.00  0.00     0.274 C 
BRANCH   2   3
ATOM      3  O   UNL A   1      41.082  19.985  25.537  1.00  0.00    -0.462 OA
BRANCH   3   4
ATOM      4  C   UNL A   1      41.786  20.484  26.588  1.00  0.00     0.312 C 
ATOM      5  O   UNL A   1      42.184  19.809  27.531  1.00  0.00    -0.252 OA
BRANCH   4   6
ATOM      6  C   UNL A   1      41.951  22.002  26.506  1.00  0.00     0.124 C 
ATOM      7  C   UNL A   1      44.172  23.105  26.380  1.00  0.00     0.107 C 
ATOM      8  C   UNL A   1      43.645  23.038  27.774  1.00  0.00    -0.006 C 
ATOM      9  C   UNL A   1      43.032  22.512  25.534  1.00  0.00     0.048 C 
ATOM     10  C   UNL A   1      42.421  22.509  27.838  1.00  0.00    -0.014 C 
BRANCH   7  11
ATOM     11  N   UNL A   1      44.366  24.507  26.122  1.00  0.00    -0.332 N 
ATOM     12  O   UNL A   1      45.859  24.316  24.425  1.00  0.00    -0.248 OA
ATOM     13  C   UNL A   1      45.199  25.017  25.188  1.00  0.00     0.319 C 
ATOM     14  N   UNL A   1      45.193  26.371  25.017  1.00  0.00    -0.303 N 
ATOM     15  H   UNL A   1      45.719  26.675  24.242  1.00  0.00     0.172 HD
ATOM     16  H   UNL A   1      43.853  25.145  26.668  1.00  0.00     0.165 HD
BRANCH  14  17
ATOM     17  C   UNL A   1      44.579  27.423  25.735  1.00  0.00     0.115 A 
ATOM     18  C   UNL A   1      43.265  27.875  25.568  1.00  0.00     0.152 A 
ATOM     19  C   UNL A   1      45.362  28.073  26.696  1.00  0.00     0.152 A 
ATOM     20  F   UNL A   1      42.419  27.257  24.735  1.00  0.00    -0.204 F 
ATOM     21  C   UNL A   1      42.774  28.976  26.266  1.00  0.00     0.081 A 
ATOM     22  C   UNL A   1      44.895  29.181  27.397  1.00  0.00     0.081 A 
ATOM     23  F   UNL A   1      46.622  27.663  26.913  1.00  0.00    -0.204 F 
ATOM     24  C   UNL A   1      43.603  29.630  27.163  1.00  0.00     0.129 A 
ATOM     25  F   UNL A   1      43.151  30.710  27.812  1.00  0.00    -0.207 F 
ENDBRANCH  14  17
ENDBRANCH   7  11
ENDBRANCH   4   6
ENDBRANCH   3   4
ENDBRANCH   2   3
ENDBRANCH   1   2
BRANCH   1  26
ATOM     26  O   UNL A   1      38.608  21.759  26.279  1.00  0.00    -0.458 OA
BRANCH  26  27
ATOM     27  C   UNL A   1      38.286  22.980  25.794  1.00  0.00     0.338 C 
ATOM     28  O   UNL A   1      37.530  23.237  24.874  1.00  0.00    -0.246 OA
BRANCH  27  29
ATOM     29  C   UNL A   1      38.973  24.021  26.576  1.00  0.00     0.060 A 
ATOM     30  C   UNL A   1      38.681  24.149  27.931  1.00  0.00     0.016 A 
ATOM     31  C   UNL A   1      39.799  24.949  25.942  1.00  0.00     0.016 A 
ATOM     32  C   UNL A   1      39.142  25.255  28.642  1.00  0.00     0.010 A 
ATOM     33  C   UNL A   1      40.334  26.012  26.681  1.00  0.00     0.010 A 
ATOM     34  C   UNL A   1      39.983  26.197  28.030  1.00  0.00    -0.014 A 
BRANCH  34  35
ATOM     35  C   UNL A   1      40.465  27.381  28.797  1.00  0.00     0.031 A 
ATOM     36  C   UNL A   1      41.854  27.395  29.387  1.00  0.00     0.074 A 
ATOM     37  C   UNL A   1      39.673  28.463  28.945  1.00  0.00     0.049 A 
ATOM     38  N   UNL A   1      42.400  28.273  30.190  1.00  0.00    -0.248 NA
ATOM     39  C   UNL A   1      42.741  26.274  29.034  1.00  0.00     0.031 C 
ATOM     40  C   UNL A   1      38.323  28.611  28.394  1.00  0.00     0.029 A 
ATOM     41  N   UNL A   1      39.895  29.654  29.594  1.00  0.00    -0.354 N 
ATOM     42  C   UNL A   1      43.674  27.792  30.473  1.00  0.00     0.074 A 
ATOM     43  C   UNL A   1      43.820  26.542  29.758  1.00  0.00     0.031 C 
ATOM     44  C   UNL A   1      37.857  29.834  28.693  1.00  0.00     0.029 A 
ATOM     45  C   UNL A   1      38.839  30.530  29.517  1.00  0.00     0.049 A 
ATOM     46  H   UNL A   1      40.732  29.858  30.071  1.00  0.00     0.167 HD
ATOM     47  C   UNL A   1      44.634  28.339  31.257  1.00  0.00     0.031 A 
ATOM     48  C   UNL A   1      38.661  31.745  30.069  1.00  0.00     0.031 A 
ATOM     49  C   UNL A   1      44.507  29.598  31.943  1.00  0.00     0.049 A 
ATOM     50  C   UNL A   1      39.733  32.320  30.951  1.00  0.00     0.074 A 
ATOM     51  C   UNL A   1      45.420  30.219  32.780  1.00  0.00     0.029 A 
ATOM     52  N   UNL A   1      43.411  30.439  31.854  1.00  0.00    -0.354 N 
ATOM     53  N   UNL A   1      40.900  31.812  31.265  1.00  0.00    -0.248 NA
ATOM     54  C   UNL A   1      39.455  33.625  31.567  1.00  0.00     0.031 C 
ATOM     55  C   UNL A   1      44.866  31.429  33.213  1.00  0.00     0.029 A 
ATOM     56  C   UNL A   1      43.623  31.575  32.617  1.00  0.00     0.049 A 
ATOM     57  H   UNL A   1      42.600  30.258  31.326  1.00  0.00     0.167 HD
ATOM     58  C   UNL A   1      41.497  32.738  32.112  1.00  0.00     0.074 A 
ATOM     59  C   UNL A   1      40.575  33.848  32.242  1.00  0.00     0.031 C 
ATOM     60  C   UNL A   1      42.698  32.671  32.736  1.00  0.00     0.031 A 
BRANCH  47  61
ATOM     61  C   UNL A   1      45.909  27.562  31.441  1.00  0.00    -0.014 A 
ATOM     62  C   UNL A   1      47.011  27.760  30.593  1.00  0.00     0.010 A 
ATOM     63  C   UNL A   1      46.024  26.663  32.518  1.00  0.00     0.010 A 
ATOM     64  C   UNL A   1      48.200  27.055  30.802  1.00  0.00     0.020 A 
ATOM     65  C   UNL A   1      47.217  25.970  32.743  1.00  0.00     0.020 A 
ATOM     66  C   UNL A   1      48.294  26.161  31.874  1.00  0.00     0.054 A 
BRANCH  66  67
ATOM     67  S   UNL A   1      49.860  25.287  32.152  1.00  0.00     0.124 S 
ATOM     68  O   UNL A   1      50.090  24.663  30.852  1.00  0.00    -0.237 OA
ATOM     69  O   UNL A   1      50.778  26.368  32.502  1.00  0.00    -0.237 OA
ATOM     70  O   UNL A   1      49.551  24.362  33.240  1.00  0.00    -0.744 OA
ENDBRANCH  66  67
ENDBRANCH  47  61
BRANCH  48  71
ATOM     71  C   UNL A   1      37.391  32.487  29.846  1.00  0.00    -0.014 A 
ATOM     72  C   UNL A   1      36.283  32.274  30.686  1.00  0.00     0.010 A 
ATOM     73  C   UNL A   1      37.284  33.406  28.787  1.00  0.00     0.010 A 
ATOM     74  C   UNL A   1      35.083  32.954  30.456  1.00  0.00     0.020 A 
ATOM     75  C   UNL A   1      36.095  34.105  28.571  1.00  0.00     0.020 A 
ATOM     76  C   UNL A   1      34.995  33.863  29.397  1.00  0.00     0.054 A 
BRANCH  76  77
ATOM     77  S   UNL A   1      33.449  34.774  29.134  1.00  0.00     0.124 S 
ATOM     78  O   UNL A   1      33.933  36.041  28.598  1.00  0.00    -0.237 OA
ATOM     79  O   UNL A   1      32.727  33.922  28.192  1.00  0.00    -0.237 OA
ATOM     80  O   UNL A   1      32.866  34.839  30.473  1.00  0.00    -0.744 OA
ENDBRANCH  76  77
ENDBRANCH  48  71
BRANCH  60  81
ATOM     81  C   UNL A   1      43.090  33.839  33.594  1.00  0.00    -0.014 A 
ATOM     82  C   UNL A   1      43.790  34.930  33.050  1.00  0.00     0.010 A 
ATOM     83  C   UNL A   1      42.730  33.858  34.953  1.00  0.00     0.010 A 
ATOM     84  C   UNL A   1      44.151  36.010  33.860  1.00  0.00     0.020 A 
ATOM     85  C   UNL A   1      43.074  34.944  35.761  1.00  0.00     0.020 A 
ATOM     86  C   UNL A   1      43.795  36.007  35.213  1.00  0.00     0.054 A 
BRANCH  86  87
ATOM     87  S   UNL A   1      44.245  37.431  36.244  1.00  0.00     0.124 S 
ATOM     88  O   UNL A   1      45.606  37.094  36.648  1.00  0.00    -0.237 OA
ATOM     89  O   UNL A   1      44.124  38.554  35.318  1.00  0.00    -0.237 OA
ATOM     90  O   UNL A   1      43.251  37.408  37.314  1.00  0.00    -0.744 OA
ENDBRANCH  86  87
ENDBRANCH  60  81
ENDBRANCH  34  35
ENDBRANCH  27  29
ENDBRANCH  26  27
ENDBRANCH   1  26
TORSDOF 16
ENDMDL
MODEL 2
REMARK VINA RESULT:      -9.1      4.894      7.017
REMARK SMILES O=C(Nc1c(F)cc(F)cc1F)N[C@H]1C=C[C@H](C(=O)OCCOC(=O)c2ccc(-c3c4nc(c(-c5ccc(S(=O)(=O)[O-])cc5)c5ccc([nH]5)c(-c5ccc(S(=O)(=O)[O-])cc5)c5nc(c(-c6ccc(S(=O)(=O)[O-])cc6)c6ccc3[nH]6)C=C5)C=C4)cc2)C1
REMARK SMILES IDX 22 1 21 2 20 3 18 4 19 5 17 6 14 7 15 8 86 9 16 10 13 11
REMARK SMILES IDX 1 12 2 13 3 14 4 17 5 18 11 19 6 20 7 21 10 22 12 23 8 24
REMARK SMILES IDX 9 25 23 26 24 27 25 28 26 29 27 30 85 31 28 32 84 33 29 34
REMARK SMILES IDX 30 35 31 36 78 37 32 38 83 39 77 40 79 41 33 42 82 43 76 44
REMARK SMILES IDX 75 45 34 47 64 48 45 49 63 50 46 51 49 52 62 53 80 54 47 55
REMARK SMILES IDX 48 56 61 58 81 59 50 60 35 61 36 62 44 63 37 64 43 65 38 66
REMARK SMILES IDX 39 67 40 68 41 69 42 70 65 71 66 72 74 73 67 74 73 75 68 76
REMARK SMILES IDX 69 77 70 78 71 79 72 80 51 81 52 82 60 83 53 84 59 85 54 86
REMARK SMILES IDX 55 87 56 88 57 89 58 90
REMARK H PARENT 3 15 13 16 79 46 49 57
REMARK Flexibility Score: inf
ROOT
ATOM      1  C   UNL A   1      39.575  22.150  26.582  1.00  0.00     0.275 C 
ENDROOT
BRANCH   1   2
ATOM      2  C   UNL A   1      38.477  21.878  25.554  1.00  0.00     0.274 C 
BRANCH   2   3
ATOM      3  O   UNL A   1      37.181  22.194  26.096  1.00  0.00    -0.462 OA
BRANCH   3   4
ATOM      4  C   UNL A   1      36.113  21.761  25.374  1.00  0.00     0.312 C 
ATOM      5  O   UNL A   1      35.982  20.614  24.961  1.00  0.00    -0.252 OA
BRANCH   4   6
ATOM      6  C   UNL A   1      35.130  22.890  25.059  1.00  0.00     0.124 C 
ATOM      7  C   UNL A   1      32.774  22.876  25.842  1.00  0.00     0.107 C 
ATOM      8  C   UNL A   1      32.919  22.345  24.455  1.00  0.00    -0.006 C 
ATOM      9  C   UNL A   1      34.200  23.317  26.210  1.00  0.00     0.048 C 
ATOM     10  C   UNL A   1      34.173  22.416  24.004  1.00  0.00    -0.014 C 
BRANCH   7  11
ATOM     11  N   UNL A   1      31.874  23.992  25.722  1.00  0.00    -0.332 N 
ATOM     12  O   UNL A   1      30.334  23.327  27.249  1.00  0.00    -0.248 OA
ATOM     13  C   UNL A   1      30.719  24.136  26.409  1.00  0.00     0.319 C 
ATOM     14  N   UNL A   1      30.031  25.303  26.238  1.00  0.00    -0.303 N 
ATOM     15  H   UNL A   1      29.271  25.408  26.854  1.00  0.00     0.172 HD
ATOM     16  H   UNL A   1      32.118  24.707  25.091  1.00  0.00     0.165 HD
BRANCH  14  17
ATOM     17  C   UNL A   1      30.197  26.389  25.349  1.00  0.00     0.115 A 
ATOM     18  C   UNL A   1      29.528  26.566  24.132  1.00  0.00     0.152 A 
ATOM     19  C   UNL A   1      31.122  27.373  25.718  1.00  0.00     0.152 A 
ATOM     20  F   UNL A   1      28.565  25.721  23.741  1.00  0.00    -0.204 F 
ATOM     21  C   UNL A   1      29.820  27.629  23.283  1.00  0.00     0.081 A 
ATOM     22  C   UNL A   1      31.436  28.438  24.880  1.00  0.00     0.081 A 
ATOM     23  F   UNL A   1      31.774  27.265  26.887  1.00  0.00    -0.204 F 
ATOM     24  C   UNL A   1      30.787  28.547  23.659  1.00  0.00     0.129 A 
ATOM     25  F   UNL A   1      31.099  29.553  22.832  1.00  0.00    -0.207 F 
ENDBRANCH  14  17
ENDBRANCH   7  11
ENDBRANCH   4   6
ENDBRANCH   3   4
ENDBRANCH   2   3
ENDBRANCH   1   2
BRANCH   1  26
ATOM     26  O   UNL A   1      39.437  23.474  27.131  1.00  0.00    -0.458 OA
BRANCH  26  27
ATOM     27  C   UNL A   1      40.526  24.269  27.020  1.00  0.00     0.338 C 
ATOM     28  O   UNL A   1      41.503  24.095  26.312  1.00  0.00    -0.246 OA
BRANCH  27  29
ATOM     29  C   UNL A   1      40.367  25.450  27.884  1.00  0.00     0.060 A 
ATOM     30  C   UNL A   1      41.392  26.389  27.937  1.00  0.00     0.016 A 
ATOM     31  C   UNL A   1      39.270  25.556  28.738  1.00  0.00     0.016 A 
ATOM     32  C   UNL A   1      41.370  27.393  28.904  1.00  0.00     0.010 A 
ATOM     33  C   UNL A   1      39.206  26.619  29.649  1.00  0.00     0.010 A 
ATOM     34  C   UNL A   1      40.273  27.528  29.766  1.00  0.00    -0.014 A 
BRANCH  34  35
ATOM     35  C   UNL A   1      40.260  28.600  30.802  1.00  0.00     0.031 A 
ATOM     36  C   UNL A   1      41.254  28.578  31.937  1.00  0.00     0.074 A 
ATOM     37  C   UNL A   1      39.377  29.617  30.717  1.00  0.00     0.049 A 
ATOM     38  N   UNL A   1      41.314  29.345  32.996  1.00  0.00    -0.248 NA
ATOM     39  C   UNL A   1      42.314  27.558  31.876  1.00  0.00     0.031 C 
ATOM     40  C   UNL A   1      38.385  29.795  29.653  1.00  0.00     0.029 A 
ATOM     41  N   UNL A   1      39.180  30.703  31.534  1.00  0.00    -0.354 N 
ATOM     42  C   UNL A   1      42.386  28.875  33.747  1.00  0.00     0.074 A 
ATOM     43  C   UNL A   1      42.948  27.755  33.025  1.00  0.00     0.031 C 
ATOM     44  C   UNL A   1      37.716  30.940  29.862  1.00  0.00     0.029 A 
ATOM     45  C   UNL A   1      38.177  31.541  31.108  1.00  0.00     0.049 A 
ATOM     46  H   UNL A   1      39.708  30.866  32.349  1.00  0.00     0.167 HD
ATOM     47  C   UNL A   1      42.858  29.334  34.932  1.00  0.00     0.031 A 
ATOM     48  C   UNL A   1      37.659  32.651  31.668  1.00  0.00     0.031 A 
ATOM     49  C   UNL A   1      42.326  30.470  35.638  1.00  0.00     0.049 A 
ATOM     50  C   UNL A   1      38.188  33.127  32.991  1.00  0.00     0.074 A 
ATOM     51  C   UNL A   1      42.727  30.992  36.857  1.00  0.00     0.029 A 
ATOM     52  N   UNL A   1      41.295  31.273  35.179  1.00  0.00    -0.354 N 
ATOM     53  N   UNL A   1      39.153  32.622  33.721  1.00  0.00    -0.248 NA
ATOM     54  C   UNL A   1      37.544  34.312  33.574  1.00  0.00     0.031 C 
ATOM     55  C   UNL A   1      41.923  32.101  37.145  1.00  0.00     0.029 A 
ATOM     56  C   UNL A   1      41.046  32.287  36.088  1.00  0.00     0.049 A 
ATOM     57  H   UNL A   1      40.810  31.142  34.333  1.00  0.00     0.167 HD
ATOM     58  C   UNL A   1      39.235  33.431  34.847  1.00  0.00     0.074 A 
ATOM     59  C   UNL A   1      38.241  34.473  34.692  1.00  0.00     0.031 C 
ATOM     60  C   UNL A   1      40.054  33.316  35.920  1.00  0.00     0.031 A 
BRANCH  47  61
ATOM     61  C   UNL A   1      44.003  28.588  35.561  1.00  0.00    -0.014 A 
ATOM     62  C   UNL A   1      45.336  28.962  35.321  1.00  0.00     0.010 A 
ATOM     63  C   UNL A   1      43.736  27.532  36.453  1.00  0.00     0.010 A 
ATOM     64  C   UNL A   1      46.385  28.279  35.943  1.00  0.00     0.020 A 
ATOM     65  C   UNL A   1      44.781  26.859  37.092  1.00  0.00     0.020 A 
ATOM     66  C   UNL A   1      46.100  27.229  36.823  1.00  0.00     0.054 A 
BRANCH  66  67
ATOM     67  S   UNL A   1      47.475  26.382  37.651  1.00  0.00     0.124 S 
ATOM     68  O   UNL A   1      47.804  27.318  38.722  1.00  0.00    -0.237 OA
ATOM     69  O   UNL A   1      46.870  25.123  38.080  1.00  0.00    -0.237 OA
ATOM     70  O   UNL A   1      48.485  26.256  36.602  1.00  0.00    -0.744 OA
ENDBRANCH  66  67
ENDBRANCH  47  61
BRANCH  48  71
ATOM     71  C   UNL A   1      36.539  33.369  31.002  1.00  0.00    -0.014 A 
ATOM     72  C   UNL A   1      35.285  33.473  31.628  1.00  0.00     0.010 A 
ATOM     73  C   UNL A   1      36.723  33.947  29.733  1.00  0.00     0.010 A 
ATOM     74  C   UNL A   1      34.228  34.125  30.987  1.00  0.00     0.020 A 
ATOM     75  C   UNL A   1      35.677  34.621  29.101  1.00  0.00     0.020 A 
ATOM     76  C   UNL A   1      34.429  34.693  29.725  1.00  0.00     0.054 A 
BRANCH  76  77
ATOM     77  S   UNL A   1      33.066  35.577  28.921  1.00  0.00     0.124 S 
ATOM     78  O   UNL A   1      32.450  34.521  28.124  1.00  0.00    -0.237 OA
ATOM     79  O   UNL A   1      32.277  36.056  30.053  1.00  0.00    -0.237 OA
ATOM     80  O   UNL A   1      33.745  36.624  28.160  1.00  0.00    -0.744 OA
ENDBRANCH  76  77
ENDBRANCH  48  71
BRANCH  60  81
ATOM     81  C   UNL A   1      39.923  34.356  36.996  1.00  0.00    -0.014 A 
ATOM     82  C   UNL A   1      40.554  35.606  36.871  1.00  0.00     0.010 A 
ATOM     83  C   UNL A   1      39.137  34.090  38.131  1.00  0.00     0.010 A 
ATOM     84  C   UNL A   1      40.426  36.564  37.880  1.00  0.00     0.020 A 
ATOM     85  C   UNL A   1      38.992  35.052  39.133  1.00  0.00     0.020 A 
ATOM     86  C   UNL A   1      39.650  36.278  39.009  1.00  0.00     0.054 A 
BRANCH  86  87
ATOM     87  S   UNL A   1      39.469  37.543  40.296  1.00  0.00     0.124 S 
ATOM     88  O   UNL A   1      38.630  38.535  39.630  1.00  0.00    -0.237 OA
ATOM     89  O   UNL A   1      38.831  36.809  41.386  1.00  0.00    -0.237 OA
ATOM     90  O   UNL A   1      40.844  37.964  40.560  1.00  0.00    -0.744 OA
ENDBRANCH  86  87
ENDBRANCH  60  81
ENDBRANCH  34  35
ENDBRANCH  27  29
ENDBRANCH  26  27
ENDBRANCH   1  26
TORSDOF 16
ENDMDL
MODEL 3
REMARK VINA RESULT:      -9.0      4.510      9.347
REMARK SMILES O=C(Nc1c(F)cc(F)cc1F)N[C@H]1C=C[C@H](C(=O)OCCOC(=O)c2ccc(-c3c4nc(c(-c5ccc(S(=O)(=O)[O-])cc5)c5ccc([nH]5)c(-c5ccc(S(=O)(=O)[O-])cc5)c5nc(c(-c6ccc(S(=O)(=O)[O-])cc6)c6ccc3[nH]6)C=C5)C=C4)cc2)C1
REMARK SMILES IDX 22 1 21 2 20 3 18 4 19 5 17 6 14 7 15 8 86 9 16 10 13 11
REMARK SMILES IDX 1 12 2 13 3 14 4 17 5 18 11 19 6 20 7 21 10 22 12 23 8 24
REMARK SMILES IDX 9 25 23 26 24 27 25 28 26 29 27 30 85 31 28 32 84 33 29 34
REMARK SMILES IDX 30 35 31 36 78 37 32 38 83 39 77 40 79 41 33 42 82 43 76 44
REMARK SMILES IDX 75 45 34 47 64 48 45 49 63 50 46 51 49 52 62 53 80 54 47 55
REMARK SMILES IDX 48 56 61 58 81 59 50 60 35 61 36 62 44 63 37 64 43 65 38 66
REMARK SMILES IDX 39 67 40 68 41 69 42 70 65 71 66 72 74 73 67 74 73 75 68 76
REMARK SMILES IDX 69 77 70 78 71 79 72 80 51 81 52 82 60 83 53 84 59 85 54 86
REMARK SMILES IDX 55 87 56 88 57 89 58 90
REMARK H PARENT 3 15 13 16 79 46 49 57
REMARK Flexibility Score: inf
ROOT
ATOM      1  C   UNL A   1      32.125  30.199  26.936  1.00  0.00     0.275 C 
ENDROOT
BRANCH   1   2
ATOM      2  C   UNL A   1      31.538  30.009  25.539  1.00  0.00     0.274 C 
BRANCH   2   3
ATOM      3  O   UNL A   1      32.552  29.576  24.613  1.00  0.00    -0.462 OA
BRANCH   3   4
ATOM      4  C   UNL A   1      32.145  28.712  23.644  1.00  0.00     0.312 C 
ATOM      5  O   UNL A   1      31.397  29.017  22.721  1.00  0.00    -0.252 OA
BRANCH   4   6
ATOM      6  C   UNL A   1      32.655  27.291  23.884  1.00  0.00     0.124 C 
ATOM      7  C   UNL A   1      32.027  25.960  25.883  1.00  0.00     0.107 C 
ATOM      8  C   UNL A   1      33.327  26.670  26.055  1.00  0.00    -0.006 C 
ATOM      9  C   UNL A   1      31.625  26.287  24.436  1.00  0.00     0.048 C 
ATOM     10  C   UNL A   1      33.703  27.330  24.958  1.00  0.00    -0.014 C 
BRANCH   7  11
ATOM     11  N   UNL A   1      32.337  24.565  26.058  1.00  0.00    -0.332 N 
ATOM     12  O   UNL A   1      30.441  23.948  27.140  1.00  0.00    -0.248 OA
ATOM     13  C   UNL A   1      31.545  23.666  26.683  1.00  0.00     0.319 C 
ATOM     14  N   UNL A   1      31.955  22.364  26.679  1.00  0.00    -0.303 N 
ATOM     15  H   UNL A   1      31.284  21.736  27.034  1.00  0.00     0.172 HD
ATOM     16  H   UNL A   1      33.192  24.241  25.695  1.00  0.00     0.165 HD
BRANCH  14  17
ATOM     17  C   UNL A   1      33.155  21.740  26.268  1.00  0.00     0.115 A 
ATOM     18  C   UNL A   1      34.443  22.058  26.716  1.00  0.00     0.152 A 
ATOM     19  C   UNL A   1      33.043  20.716  25.319  1.00  0.00     0.152 A 
ATOM     20  F   UNL A   1      34.637  22.962  27.684  1.00  0.00    -0.204 F 
ATOM     21  C   UNL A   1      35.575  21.442  26.189  1.00  0.00     0.081 A 
ATOM     22  C   UNL A   1      34.162  20.095  24.772  1.00  0.00     0.081 A 
ATOM     23  F   UNL A   1      31.829  20.355  24.874  1.00  0.00    -0.204 F 
ATOM     24  C   UNL A   1      35.423  20.477  25.206  1.00  0.00     0.129 A 
ATOM     25  F   UNL A   1      36.508  19.906  24.669  1.00  0.00    -0.207 F 
ENDBRANCH  14  17
ENDBRANCH   7  11
ENDBRANCH   4   6
ENDBRANCH   3   4
ENDBRANCH   2   3
ENDBRANCH   1   2
BRANCH   1  26
ATOM     26  O   UNL A   1      33.561  30.287  26.874  1.00  0.00    -0.458 OA
BRANCH  26  27
ATOM     27  C   UNL A   1      34.113  31.332  27.532  1.00  0.00     0.338 C 
ATOM     28  O   UNL A   1      33.625  32.434  27.715  1.00  0.00    -0.246 OA
BRANCH  27  29
ATOM     29  C   UNL A   1      35.433  30.946  28.055  1.00  0.00     0.060 A 
ATOM     30  C   UNL A   1      35.608  29.661  28.561  1.00  0.00     0.016 A 
ATOM     31  C   UNL A   1      36.451  31.893  28.169  1.00  0.00     0.016 A 
ATOM     32  C   UNL A   1      36.769  29.339  29.262  1.00  0.00     0.010 A 
ATOM     33  C   UNL A   1      37.653  31.539  28.796  1.00  0.00     0.010 A 
ATOM     34  C   UNL A   1      37.812  30.270  29.380  1.00  0.00    -0.014 A 
BRANCH  34  35
ATOM     35  C   UNL A   1      39.047  29.919  30.137  1.00  0.00     0.031 A 
ATOM     36  C   UNL A   1      39.971  28.838  29.633  1.00  0.00     0.074 A 
ATOM     37  C   UNL A   1      39.364  30.586  31.266  1.00  0.00     0.049 A 
ATOM     38  N   UNL A   1      41.016  28.307  30.217  1.00  0.00    -0.248 NA
ATOM     39  C   UNL A   1      39.680  28.278  28.303  1.00  0.00     0.031 C 
ATOM     40  C   UNL A   1      38.590  31.684  31.852  1.00  0.00     0.029 A 
ATOM     41  N   UNL A   1      40.433  30.447  32.118  1.00  0.00    -0.354 N 
ATOM     42  C   UNL A   1      41.479  27.324  29.350  1.00  0.00     0.074 A 
ATOM     43  C   UNL A   1      40.602  27.329  28.199  1.00  0.00     0.031 C 
ATOM     44  C   UNL A   1      39.229  32.142  32.939  1.00  0.00     0.029 A 
ATOM     45  C   UNL A   1      40.417  31.329  33.173  1.00  0.00     0.049 A 
ATOM     46  H   UNL A   1      41.143  29.778  31.986  1.00  0.00     0.167 HD
ATOM     47  C   UNL A   1      42.538  26.491  29.498  1.00  0.00     0.031 A 
ATOM     48  C   UNL A   1      41.244  31.454  34.229  1.00  0.00     0.031 A 
ATOM     49  C   UNL A   1      43.435  26.505  30.624  1.00  0.00     0.049 A 
ATOM     50  C   UNL A   1      42.399  30.506  34.380  1.00  0.00     0.074 A 
ATOM     51  C   UNL A   1      44.521  25.681  30.870  1.00  0.00     0.029 A 
ATOM     52  N   UNL A   1      43.366  27.400  31.679  1.00  0.00    -0.354 N 
ATOM     53  N   UNL A   1      42.774  29.534  33.584  1.00  0.00    -0.248 NA
ATOM     54  C   UNL A   1      43.230  30.660  35.581  1.00  0.00     0.031 C 
ATOM     55  C   UNL A   1      45.098  26.066  32.086  1.00  0.00     0.029 A 
ATOM     56  C   UNL A   1      44.390  27.151  32.577  1.00  0.00     0.049 A 
ATOM     57  H   UNL A   1      42.689  28.108  31.776  1.00  0.00     0.167 HD
ATOM     58  C   UNL A   1      43.888  28.964  34.187  1.00  0.00     0.074 A 
ATOM     59  C   UNL A   1      44.143  29.714  35.400  1.00  0.00     0.031 C 
ATOM     60  C   UNL A   1      44.630  27.906  33.778  1.00  0.00     0.031 A 
BRANCH  47  61
ATOM     61  C   UNL A   1      42.775  25.467  28.421  1.00  0.00    -0.014 A 
ATOM     62  C   UNL A   1      43.649  25.725  27.352  1.00  0.00     0.010 A 
ATOM     63  C   UNL A   1      42.157  24.206  28.516  1.00  0.00     0.010 A 
ATOM     64  C   UNL A   1      43.884  24.747  26.381  1.00  0.00     0.020 A 
ATOM     65  C   UNL A   1      42.405  23.219  27.558  1.00  0.00     0.020 A 
ATOM     66  C   UNL A   1      43.257  23.501  26.488  1.00  0.00     0.054 A 
BRANCH  66  67
ATOM     67  S   UNL A   1      43.607  22.232  25.239  1.00  0.00     0.124 S 
ATOM     68  O   UNL A   1      42.595  21.224  25.541  1.00  0.00    -0.237 OA
ATOM     69  O   UNL A   1      43.420  22.954  23.982  1.00  0.00    -0.237 OA
ATOM     70  O   UNL A   1      44.985  21.837  25.524  1.00  0.00    -0.744 OA
ENDBRANCH  66  67
ENDBRANCH  47  61
BRANCH  48  71
ATOM     71  C   UNL A   1      40.982  32.493  35.261  1.00  0.00    -0.014 A 
ATOM     72  C   UNL A   1      40.131  32.222  36.347  1.00  0.00     0.010 A 
ATOM     73  C   UNL A   1      41.580  33.762  35.157  1.00  0.00     0.010 A 
ATOM     74  C   UNL A   1      39.867  33.210  37.300  1.00  0.00     0.020 A 
ATOM     75  C   UNL A   1      41.339  34.742  36.121  1.00  0.00     0.020 A 
ATOM     76  C   UNL A   1      40.471  34.466  37.180  1.00  0.00     0.054 A 
BRANCH  76  77
ATOM     77  S   UNL A   1      40.159  35.726  38.446  1.00  0.00     0.124 S 
ATOM     78  O   UNL A   1      39.115  35.097  39.248  1.00  0.00    -0.237 OA
ATOM     79  O   UNL A   1      41.460  35.863  39.095  1.00  0.00    -0.237 OA
ATOM     80  O   UNL A   1      39.737  36.889  37.666  1.00  0.00    -0.744 OA
ENDBRANCH  76  77
ENDBRANCH  48  71
BRANCH  60  81
ATOM     81  C   UNL A   1      45.798  27.515  34.638  1.00  0.00    -0.014 A 
ATOM     82  C   UNL A   1      45.657  26.547  35.648  1.00  0.00     0.010 A 
ATOM     83  C   UNL A   1      47.056  28.102  34.416  1.00  0.00     0.010 A 
ATOM     84  C   UNL A   1      46.750  26.194  36.443  1.00  0.00     0.020 A 
ATOM     85  C   UNL A   1      48.155  27.738  35.196  1.00  0.00     0.020 A 
ATOM     86  C   UNL A   1      47.992  26.796  36.216  1.00  0.00     0.054 A 
BRANCH  86  87
ATOM     87  S   UNL A   1      49.408  26.304  37.236  1.00  0.00     0.124 S 
ATOM     88  O   UNL A   1      49.929  25.157  36.500  1.00  0.00    -0.237 OA
ATOM     89  O   UNL A   1      50.251  27.498  37.220  1.00  0.00    -0.237 OA
ATOM     90  O   UNL A   1      48.808  25.995  38.532  1.00  0.00    -0.744 OA
ENDBRANCH  86  87
ENDBRANCH  60  81
ENDBRANCH  34  35
ENDBRANCH  27  29
ENDBRANCH  26  27
ENDBRANCH   1  26
TORSDOF 16
ENDMDL
