MODEL 1
REMARK VINA RESULT:     -11.9      0.000      0.000
REMARK SMILES C=CCn1nc(C(=O)OCCOC(=O)c2ccc(-c3c4nc(c(-c5ccc(S(=O)(=O)[O-])cc5)c5ccc([nH]5)c(-c5ccc(S(=O)(=O)[O-])cc5)c5nc(c(-c6ccc(S(=O)(=O)[O-])cc6)c6ccc3[nH]6)C=C5)C=C4)cc2)c2c1CC[C@@H]([NH+]1CCC(C(C)(C)O)CC1)C2
REMARK SMILES IDX 10 1 9 2 7 3 8 4 6 5 4 6 5 7 76 8 75 9 77 10 90 11 78 12
REMARK SMILES IDX 79 13 3 14 2 15 1 16 80 17 81 18 89 19 82 21 88 22 83 23
REMARK SMILES IDX 84 24 85 25 86 26 87 27 11 29 12 30 13 31 14 32 15 33 16 34
REMARK SMILES IDX 74 35 17 36 73 37 18 38 19 39 20 40 67 41 21 42 72 43 66 44
REMARK SMILES IDX 68 45 22 46 71 47 65 48 64 49 23 51 53 52 34 53 52 54 35 55
REMARK SMILES IDX 38 56 51 57 69 58 36 59 37 60 50 62 70 63 39 64 24 65 25 66
REMARK SMILES IDX 33 67 26 68 32 69 27 70 28 71 29 72 30 73 31 74 54 75 55 76
REMARK SMILES IDX 63 77 56 78 62 79 57 80 58 81 59 82 60 83 61 84 40 85 41 86
REMARK SMILES IDX 49 87 42 88 48 89 43 90 44 91 45 92 46 93 47 94
REMARK H PARENT 80 20 87 28 68 50 38 61
REMARK Flexibility Score: inf
ROOT
ATOM      1  C   UNL A   1      39.099  21.497  26.085  1.00  0.00     0.275 C 
ENDROOT
BRANCH   1   2
ATOM      2  O   UNL A   1      38.158  21.920  25.090  1.00  0.00    -0.457 OA
BRANCH   2   3
ATOM      3  C   UNL A   1      37.142  22.770  25.448  1.00  0.00     0.359 C 
ATOM      4  O   UNL A   1      37.324  23.864  25.979  1.00  0.00    -0.244 OA
BRANCH   3   5
ATOM      5  C   UNL A   1      35.830  22.199  25.100  1.00  0.00     0.174 A 
ATOM      6  N   UNL A   1      34.257  20.812  24.676  1.00  0.00    -0.265 N 
ATOM      7  N   UNL A   1      35.507  20.886  25.206  1.00  0.00    -0.165 NA
ATOM      8  C   UNL A   1      33.935  21.961  24.013  1.00  0.00     0.043 A 
ATOM      9  C   UNL A   1      34.732  22.925  24.575  1.00  0.00     0.014 A 
ATOM     10  C   UNL A   1      32.915  22.197  22.975  1.00  0.00     0.062 C 
ATOM     11  C   UNL A   1      34.481  24.387  24.434  1.00  0.00     0.105 C 
ATOM     12  C   UNL A   1      32.791  23.711  22.697  1.00  0.00     0.072 C 
ATOM     13  C   UNL A   1      33.051  24.679  23.887  1.00  0.00     0.189 C 
BRANCH   6  14
ATOM     14  C   UNL A   1      33.455  19.596  24.830  1.00  0.00     0.171 C 
BRANCH  14  15
ATOM     15  C   UNL A   1      34.182  18.340  24.404  1.00  0.00    -0.011 C 
ATOM     16  C   UNL A   1      33.700  17.416  23.558  1.00  0.00     0.006 C 
ENDBRANCH  14  15
ENDBRANCH   6  14
BRANCH  13  17
ATOM     17  N   UNL A   1      32.054  24.888  24.956  1.00  0.00    -0.332 N 
ATOM     18  C   UNL A   1      30.660  25.145  24.638  1.00  0.00     0.262 C 
ATOM     19  C   UNL A   1      32.456  25.714  26.084  1.00  0.00     0.262 C 
ATOM     20  H   UNL A   1      32.065  23.906  25.228  1.00  0.00     0.348 HD
ATOM     21  C   UNL A   1      30.330  26.605  24.327  1.00  0.00     0.068 C 
ATOM     22  C   UNL A   1      32.406  27.205  25.793  1.00  0.00     0.068 C 
ATOM     23  C   UNL A   1      31.130  27.705  25.070  1.00  0.00     0.031 C 
BRANCH  23  24
ATOM     24  C   UNL A   1      31.437  28.985  24.197  1.00  0.00     0.062 C 
ATOM     25  C   UNL A   1      32.693  28.860  23.327  1.00  0.00     0.042 C 
ATOM     26  C   UNL A   1      30.235  29.334  23.311  1.00  0.00     0.042 C 
BRANCH  24  27
ATOM     27  O   UNL A   1      31.644  30.125  25.039  1.00  0.00    -0.390 OA
ATOM     28  H   UNL A   1      32.131  30.806  24.549  1.00  0.00     0.211 HD
ENDBRANCH  24  27
ENDBRANCH  23  24
ENDBRANCH  13  17
ENDBRANCH   3   5
ENDBRANCH   2   3
ENDBRANCH   1   2
BRANCH   1  29
ATOM     29  C   UNL A   1      39.775  22.700  26.728  1.00  0.00     0.275 C 
BRANCH  29  30
ATOM     30  O   UNL A   1      41.088  22.328  27.119  1.00  0.00    -0.458 OA
BRANCH  30  31
ATOM     31  C   UNL A   1      42.062  22.494  26.196  1.00  0.00     0.338 C 
ATOM     32  O   UNL A   1      42.419  21.690  25.356  1.00  0.00    -0.246 OA
BRANCH  31  33
ATOM     33  C   UNL A   1      42.738  23.764  26.479  1.00  0.00     0.060 A 
ATOM     34  C   UNL A   1      43.437  23.835  27.686  1.00  0.00     0.016 A 
ATOM     35  C   UNL A   1      42.311  24.901  25.784  1.00  0.00     0.016 A 
ATOM     36  C   UNL A   1      43.425  25.035  28.354  1.00  0.00     0.010 A 
ATOM     37  C   UNL A   1      42.248  26.078  26.471  1.00  0.00     0.010 A 
ATOM     38  C   UNL A   1      42.716  26.093  27.782  1.00  0.00    -0.014 A 
BRANCH  38  39
ATOM     39  C   UNL A   1      42.481  27.274  28.570  1.00  0.00     0.031 A 
ATOM     40  C   UNL A   1      43.558  28.270  28.431  1.00  0.00     0.074 A 
ATOM     41  C   UNL A   1      41.318  27.460  29.218  1.00  0.00     0.049 A 
ATOM     42  N   UNL A   1      44.423  28.612  29.323  1.00  0.00    -0.248 NA
ATOM     43  C   UNL A   1      43.840  28.788  27.081  1.00  0.00     0.031 C 
ATOM     44  C   UNL A   1      40.091  26.659  29.149  1.00  0.00     0.029 A 
ATOM     45  N   UNL A   1      40.947  28.514  29.981  1.00  0.00    -0.354 N 
ATOM     46  C   UNL A   1      45.240  29.545  28.702  1.00  0.00     0.074 A 
ATOM     47  C   UNL A   1      44.987  29.431  27.289  1.00  0.00     0.031 C 
ATOM     48  C   UNL A   1      39.061  27.398  29.623  1.00  0.00     0.029 A 
ATOM     49  C   UNL A   1      39.576  28.665  30.120  1.00  0.00     0.049 A 
ATOM     50  H   UNL A   1      41.596  29.123  30.402  1.00  0.00     0.167 HD
ATOM     51  C   UNL A   1      45.867  30.525  29.405  1.00  0.00     0.031 A 
ATOM     52  C   UNL A   1      38.938  29.805  30.497  1.00  0.00     0.031 A 
ATOM     53  C   UNL A   1      45.821  30.271  30.822  1.00  0.00     0.049 A 
ATOM     54  C   UNL A   1      39.956  30.665  31.168  1.00  0.00     0.074 A 
ATOM     55  C   UNL A   1      46.298  29.258  31.630  1.00  0.00     0.029 A 
ATOM     56  N   UNL A   1      44.830  30.905  31.540  1.00  0.00    -0.354 N 
ATOM     57  N   UNL A   1      40.529  30.341  32.297  1.00  0.00    -0.248 NA
ATOM     58  C   UNL A   1      40.705  31.613  30.350  1.00  0.00     0.031 C 
ATOM     59  C   UNL A   1      45.266  29.035  32.586  1.00  0.00     0.029 A 
ATOM     60  C   UNL A   1      44.251  29.970  32.363  1.00  0.00     0.049 A 
ATOM     61  H   UNL A   1      44.582  31.855  31.475  1.00  0.00     0.167 HD
ATOM     62  C   UNL A   1      41.868  30.678  32.133  1.00  0.00     0.074 A 
ATOM     63  C   UNL A   1      41.897  31.545  30.954  1.00  0.00     0.031 C 
ATOM     64  C   UNL A   1      42.860  29.988  32.773  1.00  0.00     0.031 A 
BRANCH  51  65
ATOM     65  C   UNL A   1      46.166  31.885  28.835  1.00  0.00    -0.014 A 
ATOM     66  C   UNL A   1      45.093  32.735  28.517  1.00  0.00     0.010 A 
ATOM     67  C   UNL A   1      47.444  32.259  28.364  1.00  0.00     0.010 A 
ATOM     68  C   UNL A   1      45.280  33.865  27.712  1.00  0.00     0.020 A 
ATOM     69  C   UNL A   1      47.649  33.407  27.602  1.00  0.00     0.020 A 
ATOM     70  C   UNL A   1      46.558  34.184  27.249  1.00  0.00     0.054 A 
BRANCH  70  71
ATOM     71  S   UNL A   1      46.771  35.574  26.116  1.00  0.00     0.124 S 
ATOM     72  O   UNL A   1      48.111  36.040  26.462  1.00  0.00    -0.237 OA
ATOM     73  O   UNL A   1      46.640  34.932  24.811  1.00  0.00    -0.237 OA
ATOM     74  O   UNL A   1      45.681  36.479  26.473  1.00  0.00    -0.744 OA
ENDBRANCH  70  71
ENDBRANCH  51  65
BRANCH  52  75
ATOM     75  C   UNL A   1      37.652  30.325  29.952  1.00  0.00    -0.014 A 
ATOM     76  C   UNL A   1      36.633  30.800  30.800  1.00  0.00     0.010 A 
ATOM     77  C   UNL A   1      37.524  30.600  28.573  1.00  0.00     0.010 A 
ATOM     78  C   UNL A   1      35.572  31.578  30.296  1.00  0.00     0.020 A 
ATOM     79  C   UNL A   1      36.466  31.361  28.063  1.00  0.00     0.020 A 
ATOM     80  C   UNL A   1      35.510  31.873  28.931  1.00  0.00     0.054 A 
BRANCH  80  81
ATOM     81  S   UNL A   1      34.263  33.043  28.311  1.00  0.00     0.124 S 
ATOM     82  O   UNL A   1      33.311  32.162  27.644  1.00  0.00    -0.237 OA
ATOM     83  O   UNL A   1      33.786  33.679  29.536  1.00  0.00    -0.237 OA
ATOM     84  O   UNL A   1      35.026  33.918  27.421  1.00  0.00    -0.744 OA
ENDBRANCH  80  81
ENDBRANCH  52  75
BRANCH  64  85
ATOM     85  C   UNL A   1      42.467  28.977  33.830  1.00  0.00    -0.014 A 
ATOM     86  C   UNL A   1      42.217  27.617  33.554  1.00  0.00     0.010 A 
ATOM     87  C   UNL A   1      42.531  29.379  35.175  1.00  0.00     0.010 A 
ATOM     88  C   UNL A   1      42.009  26.695  34.593  1.00  0.00     0.020 A 
ATOM     89  C   UNL A   1      42.344  28.464  36.215  1.00  0.00     0.020 A 
ATOM     90  C   UNL A   1      42.073  27.127  35.920  1.00  0.00     0.054 A 
BRANCH  90  91
ATOM     91  S   UNL A   1      41.848  25.928  37.264  1.00  0.00     0.124 S 
ATOM     92  O   UNL A   1      42.122  24.656  36.602  1.00  0.00    -0.237 OA
ATOM     93  O   UNL A   1      42.840  26.351  38.250  1.00  0.00    -0.237 OA
ATOM     94  O   UNL A   1      40.459  26.123  37.676  1.00  0.00    -0.744 OA
ENDBRANCH  90  91
ENDBRANCH  64  85
ENDBRANCH  38  39
ENDBRANCH  31  33
ENDBRANCH  30  31
ENDBRANCH  29  30
ENDBRANCH   1  29
TORSDOF 19
ENDMDL
MODEL 2
REMARK VINA RESULT:     -11.2      2.735      8.687
REMARK SMILES C=CCn1nc(C(=O)OCCOC(=O)c2ccc(-c3c4nc(c(-c5ccc(S(=O)(=O)[O-])cc5)c5ccc([nH]5)c(-c5ccc(S(=O)(=O)[O-])cc5)c5nc(c(-c6ccc(S(=O)(=O)[O-])cc6)c6ccc3[nH]6)C=C5)C=C4)cc2)c2c1CC[C@@H]([NH+]1CCC(C(C)(C)O)CC1)C2
REMARK SMILES IDX 10 1 9 2 7 3 8 4 6 5 4 6 5 7 76 8 75 9 77 10 90 11 78 12
REMARK SMILES IDX 79 13 3 14 2 15 1 16 80 17 81 18 89 19 82 21 88 22 83 23
REMARK SMILES IDX 84 24 85 25 86 26 87 27 11 29 12 30 13 31 14 32 15 33 16 34
REMARK SMILES IDX 74 35 17 36 73 37 18 38 19 39 20 40 67 41 21 42 72 43 66 44
REMARK SMILES IDX 68 45 22 46 71 47 65 48 64 49 23 51 53 52 34 53 52 54 35 55
REMARK SMILES IDX 38 56 51 57 69 58 36 59 37 60 50 62 70 63 39 64 24 65 25 66
REMARK SMILES IDX 33 67 26 68 32 69 27 70 28 71 29 72 30 73 31 74 54 75 55 76
REMARK SMILES IDX 63 77 56 78 62 79 57 80 58 81 59 82 60 83 61 84 40 85 41 86
REMARK SMILES IDX 49 87 42 88 48 89 43 90 44 91 45 92 46 93 47 94
REMARK H PARENT 80 20 87 28 68 50 38 61
REMARK Flexibility Score: inf
ROOT
ATOM      1  C   UNL A   1      33.899  29.933  27.421  1.00  0.00     0.275 C 
ENDROOT
BRANCH   1   2
ATOM      2  O   UNL A   1      32.474  30.001  27.286  1.00  0.00    -0.457 OA
BRANCH   2   3
ATOM      3  C   UNL A   1      31.759  28.838  27.150  1.00  0.00     0.359 C 
ATOM      4  O   UNL A   1      31.414  28.135  28.098  1.00  0.00    -0.244 OA
BRANCH   3   5
ATOM      5  C   UNL A   1      31.459  28.567  25.734  1.00  0.00     0.174 A 
ATOM      6  N   UNL A   1      30.811  28.791  23.707  1.00  0.00    -0.265 N 
ATOM      7  N   UNL A   1      31.086  29.506  24.830  1.00  0.00    -0.165 NA
ATOM      8  C   UNL A   1      30.739  27.455  23.979  1.00  0.00     0.043 A 
ATOM      9  C   UNL A   1      31.484  27.289  25.119  1.00  0.00     0.014 A 
ATOM     10  C   UNL A   1      30.093  26.370  23.220  1.00  0.00     0.062 C 
ATOM     11  C   UNL A   1      31.993  25.970  25.587  1.00  0.00     0.105 C 
ATOM     12  C   UNL A   1      30.476  25.003  23.828  1.00  0.00     0.072 C 
ATOM     13  C   UNL A   1      31.884  24.880  24.478  1.00  0.00     0.189 C 
BRANCH   6  14
ATOM     14  C   UNL A   1      30.608  29.469  22.424  1.00  0.00     0.171 C 
BRANCH  14  15
ATOM     15  C   UNL A   1      29.372  30.339  22.396  1.00  0.00    -0.011 C 
ATOM     16  C   UNL A   1      28.109  29.893  22.487  1.00  0.00     0.006 C 
ENDBRANCH  14  15
ENDBRANCH   6  14
BRANCH  13  17
ATOM     17  N   UNL A   1      33.111  24.758  23.664  1.00  0.00    -0.332 N 
ATOM     18  C   UNL A   1      33.261  23.689  22.694  1.00  0.00     0.262 C 
ATOM     19  C   UNL A   1      34.379  24.982  24.342  1.00  0.00     0.262 C 
ATOM     20  H   UNL A   1      32.877  25.572  23.098  1.00  0.00     0.348 HD
ATOM     21  C   UNL A   1      33.756  22.362  23.269  1.00  0.00     0.068 C 
ATOM     22  C   UNL A   1      34.846  23.791  25.163  1.00  0.00     0.068 C 
ATOM     23  C   UNL A   1      34.739  22.412  24.466  1.00  0.00     0.031 C 
BRANCH  23  24
ATOM     24  C   UNL A   1      34.532  21.256  25.523  1.00  0.00     0.062 C 
ATOM     25  C   UNL A   1      34.418  21.747  26.970  1.00  0.00     0.042 C 
ATOM     26  C   UNL A   1      33.297  20.418  25.170  1.00  0.00     0.042 C 
BRANCH  24  27
ATOM     27  O   UNL A   1      35.640  20.349  25.494  1.00  0.00    -0.390 OA
ATOM     28  H   UNL A   1      35.733  19.981  24.601  1.00  0.00     0.211 HD
ENDBRANCH  24  27
ENDBRANCH  23  24
ENDBRANCH  13  17
ENDBRANCH   3   5
ENDBRANCH   2   3
ENDBRANCH   1   2
BRANCH   1  29
ATOM     29  C   UNL A   1      34.418  31.116  28.226  1.00  0.00     0.275 C 
BRANCH  29  30
ATOM     30  O   UNL A   1      33.903  32.312  27.660  1.00  0.00    -0.458 OA
BRANCH  30  31
ATOM     31  C   UNL A   1      33.683  33.337  28.513  1.00  0.00     0.338 C 
ATOM     32  O   UNL A   1      32.660  33.987  28.628  1.00  0.00    -0.246 OA
BRANCH  31  33
ATOM     33  C   UNL A   1      34.951  33.648  29.179  1.00  0.00     0.060 A 
ATOM     34  C   UNL A   1      35.977  34.127  28.361  1.00  0.00     0.016 A 
ATOM     35  C   UNL A   1      35.189  33.073  30.433  1.00  0.00     0.016 A 
ATOM     36  C   UNL A   1      37.259  33.737  28.660  1.00  0.00     0.010 A 
ATOM     37  C   UNL A   1      36.454  32.636  30.700  1.00  0.00     0.010 A 
ATOM     38  C   UNL A   1      37.444  32.891  29.756  1.00  0.00    -0.014 A 
BRANCH  38  39
ATOM     39  C   UNL A   1      38.730  32.273  29.943  1.00  0.00     0.031 A 
ATOM     40  C   UNL A   1      38.727  30.842  29.593  1.00  0.00     0.074 A 
ATOM     41  C   UNL A   1      39.816  33.003  30.255  1.00  0.00     0.049 A 
ATOM     42  N   UNL A   1      38.833  29.842  30.399  1.00  0.00    -0.248 NA
ATOM     43  C   UNL A   1      38.349  30.476  28.217  1.00  0.00     0.031 C 
ATOM     44  C   UNL A   1      39.954  34.462  30.314  1.00  0.00     0.029 A 
ATOM     45  N   UNL A   1      41.084  32.572  30.448  1.00  0.00    -0.354 N 
ATOM     46  C   UNL A   1      38.735  28.714  29.597  1.00  0.00     0.074 A 
ATOM     47  C   UNL A   1      38.208  29.158  28.333  1.00  0.00     0.031 C 
ATOM     48  C   UNL A   1      41.269  34.779  30.265  1.00  0.00     0.029 A 
ATOM     49  C   UNL A   1      42.051  33.551  30.281  1.00  0.00     0.049 A 
ATOM     50  H   UNL A   1      41.301  31.643  30.686  1.00  0.00     0.167 HD
ATOM     51  C   UNL A   1      39.341  27.545  29.935  1.00  0.00     0.031 A 
ATOM     52  C   UNL A   1      43.372  33.329  30.049  1.00  0.00     0.031 A 
ATOM     53  C   UNL A   1      39.792  27.558  31.302  1.00  0.00     0.049 A 
ATOM     54  C   UNL A   1      43.653  31.926  30.471  1.00  0.00     0.074 A 
ATOM     55  C   UNL A   1      39.154  27.685  32.520  1.00  0.00     0.029 A 
ATOM     56  N   UNL A   1      41.115  27.875  31.522  1.00  0.00    -0.354 N 
ATOM     57  N   UNL A   1      43.570  31.526  31.712  1.00  0.00    -0.248 NA
ATOM     58  C   UNL A   1      43.522  30.867  29.476  1.00  0.00     0.031 C 
ATOM     59  C   UNL A   1      40.010  28.518  33.296  1.00  0.00     0.029 A 
ATOM     60  C   UNL A   1      41.157  28.791  32.546  1.00  0.00     0.049 A 
ATOM     61  H   UNL A   1      41.889  27.512  31.035  1.00  0.00     0.167 HD
ATOM     62  C   UNL A   1      42.947  30.284  31.651  1.00  0.00     0.074 A 
ATOM     63  C   UNL A   1      43.030  29.889  30.245  1.00  0.00     0.031 C 
ATOM     64  C   UNL A   1      42.159  29.831  32.673  1.00  0.00     0.031 A 
BRANCH  51  65
ATOM     65  C   UNL A   1      39.863  26.565  28.919  1.00  0.00    -0.014 A 
ATOM     66  C   UNL A   1      39.081  25.441  28.599  1.00  0.00     0.010 A 
ATOM     67  C   UNL A   1      41.198  26.571  28.459  1.00  0.00     0.010 A 
ATOM     68  C   UNL A   1      39.629  24.352  27.913  1.00  0.00     0.020 A 
ATOM     69  C   UNL A   1      41.740  25.512  27.733  1.00  0.00     0.020 A 
ATOM     70  C   UNL A   1      40.961  24.391  27.496  1.00  0.00     0.054 A 
BRANCH  70  71
ATOM     71  S   UNL A   1      41.692  22.935  26.716  1.00  0.00     0.124 S 
ATOM     72  O   UNL A   1      42.902  23.491  26.119  1.00  0.00    -0.237 OA
ATOM     73  O   UNL A   1      41.896  22.044  27.855  1.00  0.00    -0.237 OA
ATOM     74  O   UNL A   1      40.667  22.502  25.769  1.00  0.00    -0.744 OA
ENDBRANCH  70  71
ENDBRANCH  51  65
BRANCH  52  75
ATOM     75  C   UNL A   1      44.256  34.105  29.132  1.00  0.00    -0.014 A 
ATOM     76  C   UNL A   1      45.359  34.833  29.617  1.00  0.00     0.010 A 
ATOM     77  C   UNL A   1      44.170  33.917  27.736  1.00  0.00     0.010 A 
ATOM     78  C   UNL A   1      46.367  35.291  28.746  1.00  0.00     0.020 A 
ATOM     79  C   UNL A   1      45.161  34.379  26.862  1.00  0.00     0.020 A 
ATOM     80  C   UNL A   1      46.272  35.039  27.375  1.00  0.00     0.054 A 
BRANCH  80  81
ATOM     81  S   UNL A   1      47.666  35.444  26.278  1.00  0.00     0.124 S 
ATOM     82  O   UNL A   1      47.452  36.862  26.011  1.00  0.00    -0.237 OA
ATOM     83  O   UNL A   1      48.825  35.122  27.105  1.00  0.00    -0.237 OA
ATOM     84  O   UNL A   1      47.466  34.561  25.129  1.00  0.00    -0.744 OA
ENDBRANCH  80  81
ENDBRANCH  52  75
BRANCH  64  85
ATOM     85  C   UNL A   1      42.139  30.616  33.969  1.00  0.00    -0.014 A 
ATOM     86  C   UNL A   1      41.476  31.852  34.122  1.00  0.00     0.010 A 
ATOM     87  C   UNL A   1      42.654  29.993  35.119  1.00  0.00     0.010 A 
ATOM     88  C   UNL A   1      41.360  32.457  35.384  1.00  0.00     0.020 A 
ATOM     89  C   UNL A   1      42.524  30.580  36.380  1.00  0.00     0.020 A 
ATOM     90  C   UNL A   1      41.888  31.816  36.506  1.00  0.00     0.054 A 
BRANCH  90  91
ATOM     91  S   UNL A   1      41.699  32.577  38.144  1.00  0.00     0.124 S 
ATOM     92  O   UNL A   1      42.416  31.646  39.010  1.00  0.00    -0.237 OA
ATOM     93  O   UNL A   1      42.325  33.886  37.971  1.00  0.00    -0.237 OA
ATOM     94  O   UNL A   1      40.251  32.617  38.344  1.00  0.00    -0.744 OA
ENDBRANCH  90  91
ENDBRANCH  64  85
ENDBRANCH  38  39
ENDBRANCH  31  33
ENDBRANCH  30  31
ENDBRANCH  29  30
ENDBRANCH   1  29
TORSDOF 19
ENDMDL
MODEL 3
REMARK VINA RESULT:     -11.1      3.092      7.834
REMARK SMILES C=CCn1nc(C(=O)OCCOC(=O)c2ccc(-c3c4nc(c(-c5ccc(S(=O)(=O)[O-])cc5)c5ccc([nH]5)c(-c5ccc(S(=O)(=O)[O-])cc5)c5nc(c(-c6ccc(S(=O)(=O)[O-])cc6)c6ccc3[nH]6)C=C5)C=C4)cc2)c2c1CC[C@@H]([NH+]1CCC(C(C)(C)O)CC1)C2
REMARK SMILES IDX 10 1 9 2 7 3 8 4 6 5 4 6 5 7 76 8 75 9 77 10 90 11 78 12
REMARK SMILES IDX 79 13 3 14 2 15 1 16 80 17 81 18 89 19 82 21 88 22 83 23
REMARK SMILES IDX 84 24 85 25 86 26 87 27 11 29 12 30 13 31 14 32 15 33 16 34
REMARK SMILES IDX 74 35 17 36 73 37 18 38 19 39 20 40 67 41 21 42 72 43 66 44
REMARK SMILES IDX 68 45 22 46 71 47 65 48 64 49 23 51 53 52 34 53 52 54 35 55
REMARK SMILES IDX 38 56 51 57 69 58 36 59 37 60 50 62 70 63 39 64 24 65 25 66
REMARK SMILES IDX 33 67 26 68 32 69 27 70 28 71 29 72 30 73 31 74 54 75 55 76
REMARK SMILES IDX 63 77 56 78 62 79 57 80 58 81 59 82 60 83 61 84 40 85 41 86
REMARK SMILES IDX 49 87 42 88 48 89 43 90 44 91 45 92 46 93 47 94
REMARK H PARENT 80 20 87 28 68 50 38 61
REMARK Flexibility Score: inf
ROOT
ATOM      1  C   UNL A   1      38.045  19.888  24.626  1.00  0.00     0.275 C 
ENDROOT
BRANCH   1   2
ATOM      2  O   UNL A   1      37.227  20.673  25.503  1.00  0.00    -0.457 OA
BRANCH   2   3
ATOM      3  C   UNL A   1      36.599  21.789  25.012  1.00  0.00     0.359 C 
ATOM      4  O   UNL A   1      37.176  22.850  24.779  1.00  0.00    -0.244 OA
BRANCH   3   5
ATOM      5  C   UNL A   1      35.164  21.535  24.797  1.00  0.00     0.174 A 
ATOM      6  N   UNL A   1      33.289  20.546  24.508  1.00  0.00    -0.265 N 
ATOM      7  N   UNL A   1      34.573  20.319  24.893  1.00  0.00    -0.165 NA
ATOM      8  C   UNL A   1      33.160  21.774  23.928  1.00  0.00     0.043 A 
ATOM      9  C   UNL A   1      34.203  22.510  24.428  1.00  0.00     0.014 A 
ATOM     10  C   UNL A   1      32.114  22.286  23.023  1.00  0.00     0.062 C 
ATOM     11  C   UNL A   1      34.267  23.997  24.369  1.00  0.00     0.105 C 
ATOM     12  C   UNL A   1      32.298  23.805  22.815  1.00  0.00     0.072 C 
ATOM     13  C   UNL A   1      32.887  24.622  24.000  1.00  0.00     0.189 C 
BRANCH   6  14
ATOM     14  C   UNL A   1      32.260  19.523  24.710  1.00  0.00     0.171 C 
BRANCH  14  15
ATOM     15  C   UNL A   1      32.446  18.304  23.835  1.00  0.00    -0.011 C 
ATOM     16  C   UNL A   1      32.376  18.296  22.495  1.00  0.00     0.006 C 
ENDBRANCH  14  15
ENDBRANCH   6  14
BRANCH  13  17
ATOM     17  N   UNL A   1      32.077  24.976  25.184  1.00  0.00    -0.332 N 
ATOM     18  C   UNL A   1      30.659  25.262  25.061  1.00  0.00     0.262 C 
ATOM     19  C   UNL A   1      32.676  25.888  26.147  1.00  0.00     0.262 C 
ATOM     20  H   UNL A   1      32.105  24.025  25.550  1.00  0.00     0.348 HD
ATOM     21  C   UNL A   1      30.324  26.697  24.657  1.00  0.00     0.068 C 
ATOM     22  C   UNL A   1      32.622  27.345  25.716  1.00  0.00     0.068 C 
ATOM     23  C   UNL A   1      31.262  27.828  25.152  1.00  0.00     0.031 C 
BRANCH  23  24
ATOM     24  C   UNL A   1      31.463  29.003  24.116  1.00  0.00     0.062 C 
ATOM     25  C   UNL A   1      32.357  28.640  22.926  1.00  0.00     0.042 C 
ATOM     26  C   UNL A   1      30.109  29.507  23.603  1.00  0.00     0.042 C 
BRANCH  24  27
ATOM     27  O   UNL A   1      32.081  30.129  24.752  1.00  0.00    -0.390 OA
ATOM     28  H   UNL A   1      32.964  30.269  24.376  1.00  0.00     0.211 HD
ENDBRANCH  24  27
ENDBRANCH  23  24
ENDBRANCH  13  17
ENDBRANCH   3   5
ENDBRANCH   2   3
ENDBRANCH   1   2
BRANCH   1  29
ATOM     29  C   UNL A   1      38.862  18.877  25.417  1.00  0.00     0.275 C 
BRANCH  29  30
ATOM     30  O   UNL A   1      39.646  19.575  26.373  1.00  0.00    -0.458 OA
BRANCH  30  31
ATOM     31  C   UNL A   1      40.870  19.982  25.969  1.00  0.00     0.338 C 
ATOM     32  O   UNL A   1      41.827  19.276  25.708  1.00  0.00    -0.246 OA
BRANCH  31  33
ATOM     33  C   UNL A   1      40.908  21.445  26.047  1.00  0.00     0.060 A 
ATOM     34  C   UNL A   1      42.090  22.055  25.623  1.00  0.00     0.016 A 
ATOM     35  C   UNL A   1      39.993  22.078  26.897  1.00  0.00     0.016 A 
ATOM     36  C   UNL A   1      42.506  23.172  26.305  1.00  0.00     0.010 A 
ATOM     37  C   UNL A   1      40.432  23.152  27.614  1.00  0.00     0.010 A 
ATOM     38  C   UNL A   1      41.722  23.614  27.372  1.00  0.00    -0.014 A 
BRANCH  38  39
ATOM     39  C   UNL A   1      42.255  24.621  28.251  1.00  0.00     0.031 A 
ATOM     40  C   UNL A   1      41.405  25.822  28.318  1.00  0.00     0.074 A 
ATOM     41  C   UNL A   1      43.332  24.377  29.019  1.00  0.00     0.049 A 
ATOM     42  N   UNL A   1      41.668  26.992  27.846  1.00  0.00    -0.248 NA
ATOM     43  C   UNL A   1      40.013  25.649  28.771  1.00  0.00     0.031 C 
ATOM     44  C   UNL A   1      44.039  23.111  29.232  1.00  0.00     0.029 A 
ATOM     45  N   UNL A   1      43.937  25.211  29.896  1.00  0.00    -0.354 N 
ATOM     46  C   UNL A   1      40.547  27.760  28.125  1.00  0.00     0.074 A 
ATOM     47  C   UNL A   1      39.497  26.837  28.467  1.00  0.00     0.031 C 
ATOM     48  C   UNL A   1      44.786  23.210  30.356  1.00  0.00     0.029 A 
ATOM     49  C   UNL A   1      44.690  24.570  30.868  1.00  0.00     0.049 A 
ATOM     50  H   UNL A   1      43.850  26.190  29.849  1.00  0.00     0.167 HD
ATOM     51  C   UNL A   1      40.632  29.104  28.313  1.00  0.00     0.031 A 
ATOM     52  C   UNL A   1      45.080  25.109  32.053  1.00  0.00     0.031 A 
ATOM     53  C   UNL A   1      41.909  29.618  27.891  1.00  0.00     0.049 A 
ATOM     54  C   UNL A   1      44.973  26.590  31.907  1.00  0.00     0.074 A 
ATOM     55  C   UNL A   1      42.576  29.652  26.682  1.00  0.00     0.029 A 
ATOM     56  N   UNL A   1      42.866  29.795  28.867  1.00  0.00    -0.354 N 
ATOM     57  N   UNL A   1      45.719  27.281  31.087  1.00  0.00    -0.248 NA
ATOM     58  C   UNL A   1      43.715  27.230  32.278  1.00  0.00     0.031 C 
ATOM     59  C   UNL A   1      43.935  29.376  27.006  1.00  0.00     0.029 A 
ATOM     60  C   UNL A   1      44.043  29.266  28.395  1.00  0.00     0.049 A 
ATOM     61  H   UNL A   1      42.732  30.224  29.742  1.00  0.00     0.167 HD
ATOM     62  C   UNL A   1      44.858  28.202  30.502  1.00  0.00     0.074 A 
ATOM     63  C   UNL A   1      43.661  28.188  31.344  1.00  0.00     0.031 C 
ATOM     64  C   UNL A   1      45.063  28.663  29.230  1.00  0.00     0.031 A 
BRANCH  51  65
ATOM     65  C   UNL A   1      39.717  29.866  29.233  1.00  0.00    -0.014 A 
ATOM     66  C   UNL A   1      38.545  30.434  28.702  1.00  0.00     0.010 A 
ATOM     67  C   UNL A   1      40.089  30.261  30.536  1.00  0.00     0.010 A 
ATOM     68  C   UNL A   1      37.823  31.398  29.414  1.00  0.00     0.020 A 
ATOM     69  C   UNL A   1      39.350  31.184  31.273  1.00  0.00     0.020 A 
ATOM     70  C   UNL A   1      38.241  31.776  30.691  1.00  0.00     0.054 A 
BRANCH  70  71
ATOM     71  S   UNL A   1      37.372  33.104  31.554  1.00  0.00     0.124 S 
ATOM     72  O   UNL A   1      36.884  33.914  30.443  1.00  0.00    -0.237 OA
ATOM     73  O   UNL A   1      36.353  32.372  32.302  1.00  0.00    -0.237 OA
ATOM     74  O   UNL A   1      38.413  33.722  32.371  1.00  0.00    -0.744 OA
ENDBRANCH  70  71
ENDBRANCH  51  65
BRANCH  52  75
ATOM     75  C   UNL A   1      45.134  24.414  33.371  1.00  0.00    -0.014 A 
ATOM     76  C   UNL A   1      44.296  23.320  33.660  1.00  0.00     0.010 A 
ATOM     77  C   UNL A   1      46.201  24.661  34.261  1.00  0.00     0.010 A 
ATOM     78  C   UNL A   1      44.560  22.471  34.752  1.00  0.00     0.020 A 
ATOM     79  C   UNL A   1      46.463  23.830  35.356  1.00  0.00     0.020 A 
ATOM     80  C   UNL A   1      45.658  22.719  35.580  1.00  0.00     0.054 A 
BRANCH  80  81
ATOM     81  S   UNL A   1      46.122  21.514  36.861  1.00  0.00     0.124 S 
ATOM     82  O   UNL A   1      47.580  21.549  36.811  1.00  0.00    -0.237 OA
ATOM     83  O   UNL A   1      45.516  22.078  38.063  1.00  0.00    -0.237 OA
ATOM     84  O   UNL A   1      45.516  20.267  36.394  1.00  0.00    -0.744 OA
ENDBRANCH  80  81
ENDBRANCH  52  75
BRANCH  64  85
ATOM     85  C   UNL A   1      46.364  28.311  28.539  1.00  0.00    -0.014 A 
ATOM     86  C   UNL A   1      46.557  27.128  27.795  1.00  0.00     0.010 A 
ATOM     87  C   UNL A   1      47.365  29.295  28.489  1.00  0.00     0.010 A 
ATOM     88  C   UNL A   1      47.729  26.927  27.048  1.00  0.00     0.020 A 
ATOM     89  C   UNL A   1      48.526  29.111  27.732  1.00  0.00     0.020 A 
ATOM     90  C   UNL A   1      48.708  27.922  27.023  1.00  0.00     0.054 A 
BRANCH  90  91
ATOM     91  S   UNL A   1      50.204  27.682  26.023  1.00  0.00     0.124 S 
ATOM     92  O   UNL A   1      49.916  26.436  25.317  1.00  0.00    -0.237 OA
ATOM     93  O   UNL A   1      50.238  28.883  25.190  1.00  0.00    -0.237 OA
ATOM     94  O   UNL A   1      51.276  27.597  27.013  1.00  0.00    -0.744 OA
ENDBRANCH  90  91
ENDBRANCH  64  85
ENDBRANCH  38  39
ENDBRANCH  31  33
ENDBRANCH  30  31
ENDBRANCH  29  30
ENDBRANCH   1  29
TORSDOF 19
ENDMDL
