MODEL 1
REMARK VINA RESULT:      -7.8      0.000      0.000
REMARK SMILES COc1ccc(/C=C2/SC(=S)N(NC(=O)c3ccc(C(C)(C)C)cc3)C2=O)c(C(=O)OCCOC(=O)c2ccc(-c3c4nc(c(-c5ccc(S(=O)(=O)[O-])cc5)c5ccc([nH]5)c(-c5ccc(S(=O)(=O)[O-])cc5)c5nc(c(-c6ccc(S(=O)(=O)[O-])cc6)c6ccc3[nH]6)C=C5)C=C4)cc2)c1OC
REMARK SMILES IDX 32 1 31 2 29 3 30 4 28 5 3 6 4 7 97 8 5 9 6 10 2 11 1 12
REMARK SMILES IDX 98 13 99 14 7 15 8 16 9 17 26 18 10 19 12 20 27 21 11 22
REMARK SMILES IDX 13 23 14 24 15 26 16 27 17 28 25 29 18 30 24 31 19 32 20 33
REMARK SMILES IDX 21 34 22 35 23 36 33 37 34 38 35 39 36 40 37 41 38 42 96 43
REMARK SMILES IDX 39 44 95 45 40 46 41 47 42 48 89 49 43 50 94 51 88 52 90 53
REMARK SMILES IDX 44 54 93 55 87 56 86 57 45 59 75 60 56 61 74 62 57 63 60 64
REMARK SMILES IDX 73 65 91 66 58 67 59 68 72 70 92 71 61 72 46 73 47 74 55 75
REMARK SMILES IDX 48 76 54 77 49 78 50 79 51 80 52 81 53 82 76 83 77 84 85 85
REMARK SMILES IDX 78 86 84 87 79 88 80 89 81 90 82 91 83 92 62 93 63 94 71 95
REMARK SMILES IDX 64 96 70 97 65 98 66 99 67 100 68 101 69 102
REMARK H PARENT 13 25 90 58 60 69
REMARK Flexibility Score: inf
ROOT
ATOM      1  C   UNL A   1      45.892  39.856  31.799  1.00  0.00     0.275 C 
ENDROOT
BRANCH   1   2
ATOM      2  O   UNL A   1      46.115  40.020  30.370  1.00  0.00    -0.458 OA
BRANCH   2   3
ATOM      3  C   UNL A   1      45.612  39.066  29.528  1.00  0.00     0.342 C 
ATOM      4  O   UNL A   1      45.231  37.952  29.849  1.00  0.00    -0.246 OA
BRANCH   3   5
ATOM      5  C   UNL A   1      45.588  39.550  28.126  1.00  0.00     0.113 A 
ATOM      6  C   UNL A   1      44.234  40.876  26.593  1.00  0.00     0.161 A 
ATOM      7  C   UNL A   1      45.379  41.098  25.822  1.00  0.00     0.051 A 
ATOM      8  C   UNL A   1      44.325  40.082  27.739  1.00  0.00     0.175 A 
ATOM      9  C   UNL A   1      46.627  40.537  26.172  1.00  0.00     0.013 A 
ATOM     10  C   UNL A   1      46.782  39.759  27.333  1.00  0.00    -0.006 A 
BRANCH   6  11
ATOM     11  O   UNL A   1      43.137  41.655  26.324  1.00  0.00    -0.493 OA
ATOM     12  C   UNL A   1      42.768  41.705  24.951  1.00  0.00     0.278 C 
ENDBRANCH   6  11
BRANCH   8  13
ATOM     13  O   UNL A   1      43.247  40.058  28.602  1.00  0.00    -0.492 OA
ATOM     14  C   UNL A   1      42.221  39.145  28.206  1.00  0.00     0.278 C 
ENDBRANCH   8  13
BRANCH  10  15
ATOM     15  C   UNL A   1      48.206  39.629  27.868  1.00  0.00     0.030 C 
ATOM     16  C   UNL A   1      49.375  38.869  27.613  1.00  0.00     0.082 C 
ATOM     17  S   UNL A   1      51.377  38.037  28.874  1.00  0.00    -0.052 SA
ATOM     18  C   UNL A   1      49.312  37.849  25.946  1.00  0.00     0.285 C 
ATOM     19  C   UNL A   1      51.797  36.510  27.199  1.00  0.00     0.168 C 
ATOM     20  N   UNL A   1      50.597  36.655  25.913  1.00  0.00    -0.198 N 
ATOM     21  O   UNL A   1      48.601  38.246  25.039  1.00  0.00    -0.266 OA
ATOM     22  S   UNL A   1      52.968  35.337  27.428  1.00  0.00    -0.050 S 
BRANCH  20  23
ATOM     23  N   UNL A   1      50.506  35.510  25.031  1.00  0.00    -0.255 N 
ATOM     24  C   UNL A   1      49.968  34.291  25.438  1.00  0.00     0.270 C 
ATOM     25  H   UNL A   1      50.837  35.596  24.108  1.00  0.00     0.192 HD
ATOM     26  O   UNL A   1      50.656  33.272  25.384  1.00  0.00    -0.267 OA
BRANCH  24  27
ATOM     27  C   UNL A   1      48.556  34.178  25.877  1.00  0.00     0.041 A 
ATOM     28  C   UNL A   1      47.685  35.236  25.617  1.00  0.00     0.014 A 
ATOM     29  C   UNL A   1      48.065  33.036  26.512  1.00  0.00     0.014 A 
ATOM     30  C   UNL A   1      46.307  35.072  25.804  1.00  0.00     0.005 A 
ATOM     31  C   UNL A   1      46.676  32.863  26.665  1.00  0.00     0.005 A 
ATOM     32  C   UNL A   1      45.766  33.841  26.222  1.00  0.00    -0.043 A 
BRANCH  32  33
ATOM     33  C   UNL A   1      44.264  33.529  26.064  1.00  0.00    -0.013 C 
ATOM     34  C   UNL A   1      43.939  32.084  26.457  1.00  0.00     0.016 C 
ATOM     35  C   UNL A   1      43.413  34.445  26.961  1.00  0.00     0.016 C 
ATOM     36  C   UNL A   1      43.768  33.763  24.614  1.00  0.00     0.016 C 
ENDBRANCH  32  33
ENDBRANCH  24  27
ENDBRANCH  20  23
ENDBRANCH  10  15
ENDBRANCH   3   5
ENDBRANCH   2   3
ENDBRANCH   1   2
BRANCH   1  37
ATOM     37  C   UNL A   1      47.109  39.341  32.587  1.00  0.00     0.275 C 
BRANCH  37  38
ATOM     38  O   UNL A   1      48.174  38.996  31.687  1.00  0.00    -0.458 OA
BRANCH  38  39
ATOM     39  C   UNL A   1      48.771  37.908  32.176  1.00  0.00     0.338 C 
ATOM     40  O   UNL A   1      49.588  37.906  33.101  1.00  0.00    -0.246 OA
BRANCH  39  41
ATOM     41  C   UNL A   1      48.617  36.638  31.507  1.00  0.00     0.060 A 
ATOM     42  C   UNL A   1      48.192  36.213  29.897  1.00  0.00     0.016 A 
ATOM     43  C   UNL A   1      47.990  35.633  32.777  1.00  0.00     0.016 A 
ATOM     44  C   UNL A   1      47.097  34.852  29.520  1.00  0.00     0.010 A 
ATOM     45  C   UNL A   1      46.791  34.045  32.340  1.00  0.00     0.010 A 
ATOM     46  C   UNL A   1      46.399  33.697  30.663  1.00  0.00    -0.014 A 
BRANCH  46  47
ATOM     47  C   UNL A   1      45.965  32.269  30.223  1.00  0.00     0.031 A 
ATOM     48  C   UNL A   1      46.884  31.126  29.730  1.00  0.00     0.074 A 
ATOM     49  C   UNL A   1      44.639  32.023  30.074  1.00  0.00     0.049 A 
ATOM     50  N   UNL A   1      46.536  29.990  29.149  1.00  0.00    -0.248 NA
ATOM     51  C   UNL A   1      48.343  31.290  29.770  1.00  0.00     0.031 C 
ATOM     52  C   UNL A   1      43.588  33.029  30.120  1.00  0.00     0.029 A 
ATOM     53  N   UNL A   1      43.911  30.867  29.902  1.00  0.00    -0.354 N 
ATOM     54  C   UNL A   1      47.706  29.396  28.662  1.00  0.00     0.074 A 
ATOM     55  C   UNL A   1      48.773  30.320  28.968  1.00  0.00     0.031 C 
ATOM     56  C   UNL A   1      42.410  32.464  30.363  1.00  0.00     0.029 A 
ATOM     57  C   UNL A   1      42.557  31.044  30.123  1.00  0.00     0.049 A 
ATOM     58  H   UNL A   1      44.312  30.004  29.650  1.00  0.00     0.167 HD
ATOM     59  C   UNL A   1      47.890  28.185  28.060  1.00  0.00     0.031 A 
ATOM     60  C   UNL A   1      41.500  30.214  30.055  1.00  0.00     0.031 A 
ATOM     61  C   UNL A   1      46.838  27.206  27.888  1.00  0.00     0.049 A 
ATOM     62  C   UNL A   1      41.738  28.838  29.542  1.00  0.00     0.074 A 
ATOM     63  C   UNL A   1      46.939  25.899  27.434  1.00  0.00     0.029 A 
ATOM     64  N   UNL A   1      45.498  27.411  28.193  1.00  0.00    -0.354 N 
ATOM     65  N   UNL A   1      42.868  28.307  29.142  1.00  0.00    -0.248 NA
ATOM     66  C   UNL A   1      40.568  27.967  29.420  1.00  0.00     0.031 C 
ATOM     67  C   UNL A   1      45.659  25.335  27.417  1.00  0.00     0.029 A 
ATOM     68  C   UNL A   1      44.768  26.261  27.930  1.00  0.00     0.049 A 
ATOM     69  H   UNL A   1      45.122  28.250  28.544  1.00  0.00     0.167 HD
ATOM     70  C   UNL A   1      42.544  27.032  28.715  1.00  0.00     0.074 A 
ATOM     71  C   UNL A   1      41.123  26.860  28.949  1.00  0.00     0.031 C 
ATOM     72  C   UNL A   1      43.355  26.100  28.163  1.00  0.00     0.031 A 
BRANCH  59  73
ATOM     73  C   UNL A   1      49.283  27.794  27.569  1.00  0.00    -0.014 A 
ATOM     74  C   UNL A   1      50.201  27.121  28.397  1.00  0.00     0.010 A 
ATOM     75  C   UNL A   1      49.645  28.006  26.220  1.00  0.00     0.010 A 
ATOM     76  C   UNL A   1      51.458  26.729  27.914  1.00  0.00     0.020 A 
ATOM     77  C   UNL A   1      50.886  27.580  25.719  1.00  0.00     0.020 A 
ATOM     78  C   UNL A   1      51.794  26.962  26.577  1.00  0.00     0.054 A 
BRANCH  78  79
ATOM     79  S   UNL A   1      53.423  26.418  25.981  1.00  0.00     0.124 S 
ATOM     80  O   UNL A   1      53.444  26.962  24.624  1.00  0.00    -0.237 OA
ATOM     81  O   UNL A   1      54.338  27.055  26.924  1.00  0.00    -0.237 OA
ATOM     82  O   UNL A   1      53.359  24.962  26.065  1.00  0.00    -0.744 OA
ENDBRANCH  78  79
ENDBRANCH  59  73
BRANCH  60  83
ATOM     83  C   UNL A   1      40.137  30.701  30.423  1.00  0.00    -0.014 A 
ATOM     84  C   UNL A   1      39.723  30.689  31.766  1.00  0.00     0.010 A 
ATOM     85  C   UNL A   1      39.281  31.265  29.456  1.00  0.00     0.010 A 
ATOM     86  C   UNL A   1      38.490  31.238  32.134  1.00  0.00     0.020 A 
ATOM     87  C   UNL A   1      38.078  31.869  29.826  1.00  0.00     0.020 A 
ATOM     88  C   UNL A   1      37.683  31.838  31.164  1.00  0.00     0.054 A 
BRANCH  88  89
ATOM     89  S   UNL A   1      36.126  32.615  31.675  1.00  0.00     0.124 S 
ATOM     90  O   UNL A   1      36.395  34.026  31.417  1.00  0.00    -0.237 OA
ATOM     91  O   UNL A   1      35.151  31.983  30.790  1.00  0.00    -0.237 OA
ATOM     92  O   UNL A   1      36.007  32.248  33.085  1.00  0.00    -0.744 OA
ENDBRANCH  88  89
ENDBRANCH  60  83
BRANCH  72  93
ATOM     93  C   UNL A   1      42.718  24.782  27.831  1.00  0.00    -0.014 A 
ATOM     94  C   UNL A   1      42.732  23.712  28.743  1.00  0.00     0.010 A 
ATOM     95  C   UNL A   1      42.104  24.617  26.577  1.00  0.00     0.010 A 
ATOM     96  C   UNL A   1      42.183  22.480  28.386  1.00  0.00     0.020 A 
ATOM     97  C   UNL A   1      41.520  23.398  26.233  1.00  0.00     0.020 A 
ATOM     98  C   UNL A   1      41.579  22.332  27.133  1.00  0.00     0.054 A 
BRANCH  98  99
ATOM     99  S   UNL A   1      40.847  20.732  26.706  1.00  0.00     0.124 S 
ATOM    100  O   UNL A   1      40.770  20.076  28.009  1.00  0.00    -0.237 OA
ATOM    101  O   UNL A   1      39.567  21.116  26.117  1.00  0.00    -0.237 OA
ATOM    102  O   UNL A   1      41.808  20.150  25.772  1.00  0.00    -0.744 OA
ENDBRANCH  98  99
ENDBRANCH  72  93
ENDBRANCH  46  47
ENDBRANCH  39  41
ENDBRANCH  38  39
ENDBRANCH  37  38
ENDBRANCH   1  37
TORSDOF 20
ENDMDL
MODEL 2
REMARK VINA RESULT:      -7.5      4.149      9.960
REMARK SMILES COc1ccc(/C=C2/SC(=S)N(NC(=O)c3ccc(C(C)(C)C)cc3)C2=O)c(C(=O)OCCOC(=O)c2ccc(-c3c4nc(c(-c5ccc(S(=O)(=O)[O-])cc5)c5ccc([nH]5)c(-c5ccc(S(=O)(=O)[O-])cc5)c5nc(c(-c6ccc(S(=O)(=O)[O-])cc6)c6ccc3[nH]6)C=C5)C=C4)cc2)c1OC
REMARK SMILES IDX 32 1 31 2 29 3 30 4 28 5 3 6 4 7 97 8 5 9 6 10 2 11 1 12
REMARK SMILES IDX 98 13 99 14 7 15 8 16 9 17 26 18 10 19 12 20 27 21 11 22
REMARK SMILES IDX 13 23 14 24 15 26 16 27 17 28 25 29 18 30 24 31 19 32 20 33
REMARK SMILES IDX 21 34 22 35 23 36 33 37 34 38 35 39 36 40 37 41 38 42 96 43
REMARK SMILES IDX 39 44 95 45 40 46 41 47 42 48 89 49 43 50 94 51 88 52 90 53
REMARK SMILES IDX 44 54 93 55 87 56 86 57 45 59 75 60 56 61 74 62 57 63 60 64
REMARK SMILES IDX 73 65 91 66 58 67 59 68 72 70 92 71 61 72 46 73 47 74 55 75
REMARK SMILES IDX 48 76 54 77 49 78 50 79 51 80 52 81 53 82 76 83 77 84 85 85
REMARK SMILES IDX 78 86 84 87 79 88 80 89 81 90 82 91 83 92 62 93 63 94 71 95
REMARK SMILES IDX 64 96 70 97 65 98 66 99 67 100 68 101 69 102
REMARK H PARENT 13 25 90 58 60 69
REMARK Flexibility Score: inf
ROOT
ATOM      1  C   UNL A   1      48.621  40.695  28.678  1.00  0.00     0.275 C 
ENDROOT
BRANCH   1   2
ATOM      2  O   UNL A   1      47.935  41.724  27.910  1.00  0.00    -0.458 OA
BRANCH   2   3
ATOM      3  C   UNL A   1      46.636  41.494  27.547  1.00  0.00     0.342 C 
ATOM      4  O   UNL A   1      46.246  40.627  26.782  1.00  0.00    -0.246 OA
BRANCH   3   5
ATOM      5  C   UNL A   1      45.719  42.459  28.202  1.00  0.00     0.113 A 
ATOM      6  C   UNL A   1      44.459  42.789  30.262  1.00  0.00     0.161 A 
ATOM      7  C   UNL A   1      44.454  44.162  30.004  1.00  0.00     0.051 A 
ATOM      8  C   UNL A   1      45.072  41.924  29.352  1.00  0.00     0.175 A 
ATOM      9  C   UNL A   1      45.052  44.698  28.842  1.00  0.00     0.013 A 
ATOM     10  C   UNL A   1      45.713  43.878  27.912  1.00  0.00    -0.006 A 
BRANCH   6  11
ATOM     11  O   UNL A   1      44.082  42.386  31.518  1.00  0.00    -0.493 OA
ATOM     12  C   UNL A   1      43.386  43.371  32.273  1.00  0.00     0.278 C 
ENDBRANCH   6  11
BRANCH   8  13
ATOM     13  O   UNL A   1      45.263  40.609  29.730  1.00  0.00    -0.492 OA
ATOM     14  C   UNL A   1      46.158  40.459  30.834  1.00  0.00     0.278 C 
ENDBRANCH   8  13
BRANCH  10  15
ATOM     15  C   UNL A   1      46.718  44.576  26.997  1.00  0.00     0.030 C 
ATOM     16  C   UNL A   1      47.001  44.686  25.614  1.00  0.00     0.082 C 
ATOM     17  S   UNL A   1      48.985  45.104  24.137  1.00  0.00    -0.052 SA
ATOM     18  C   UNL A   1      45.594  43.978  24.455  1.00  0.00     0.285 C 
ATOM     19  C   UNL A   1      47.816  44.279  22.331  1.00  0.00     0.168 C 
ATOM     20  N   UNL A   1      46.191  43.792  22.815  1.00  0.00    -0.198 N 
ATOM     21  O   UNL A   1      44.448  43.950  24.870  1.00  0.00    -0.266 OA
ATOM     22  S   UNL A   1      48.612  44.019  20.883  1.00  0.00    -0.050 S 
BRANCH  20  23
ATOM     23  N   UNL A   1      45.520  42.898  21.893  1.00  0.00    -0.255 N 
ATOM     24  C   UNL A   1      44.446  43.304  21.105  1.00  0.00     0.270 C 
ATOM     25  H   UNL A   1      45.834  41.968  21.822  1.00  0.00     0.192 HD
ATOM     26  O   UNL A   1      43.363  42.726  21.203  1.00  0.00    -0.267 OA
BRANCH  24  27
ATOM     27  C   UNL A   1      44.592  44.379  20.094  1.00  0.00     0.041 A 
ATOM     28  C   UNL A   1      44.206  44.122  18.778  1.00  0.00     0.014 A 
ATOM     29  C   UNL A   1      45.074  45.647  20.423  1.00  0.00     0.014 A 
ATOM     30  C   UNL A   1      44.110  45.172  17.857  1.00  0.00     0.005 A 
ATOM     31  C   UNL A   1      44.942  46.706  19.504  1.00  0.00     0.005 A 
ATOM     32  C   UNL A   1      44.366  46.504  18.236  1.00  0.00    -0.043 A 
BRANCH  32  33
ATOM     33  C   UNL A   1      43.903  47.689  17.365  1.00  0.00    -0.013 C 
ATOM     34  C   UNL A   1      42.692  47.320  16.501  1.00  0.00     0.016 C 
ATOM     35  C   UNL A   1      43.488  48.886  18.239  1.00  0.00     0.016 C 
ATOM     36  C   UNL A   1      45.029  48.205  16.433  1.00  0.00     0.016 C 
ENDBRANCH  32  33
ENDBRANCH  24  27
ENDBRANCH  20  23
ENDBRANCH  10  15
ENDBRANCH   3   5
ENDBRANCH   2   3
ENDBRANCH   1   2
BRANCH   1  37
ATOM     37  C   UNL A   1      49.026  39.449  27.871  1.00  0.00     0.275 C 
BRANCH  37  38
ATOM     38  O   UNL A   1      49.874  38.601  28.660  1.00  0.00    -0.458 OA
BRANCH  38  39
ATOM     39  C   UNL A   1      49.100  37.663  29.210  1.00  0.00     0.338 C 
ATOM     40  O   UNL A   1      48.609  37.727  30.340  1.00  0.00    -0.246 OA
BRANCH  39  41
ATOM     41  C   UNL A   1      48.926  36.392  28.550  1.00  0.00     0.060 A 
ATOM     42  C   UNL A   1      48.259  35.951  27.029  1.00  0.00     0.016 A 
ATOM     43  C   UNL A   1      48.607  35.329  29.886  1.00  0.00     0.016 A 
ATOM     44  C   UNL A   1      47.218  34.513  26.816  1.00  0.00     0.010 A 
ATOM     45  C   UNL A   1      47.473  33.657  29.628  1.00  0.00     0.010 A 
ATOM     46  C   UNL A   1      46.820  33.296  28.037  1.00  0.00    -0.014 A 
BRANCH  46  47
ATOM     47  C   UNL A   1      46.423  31.843  27.647  1.00  0.00     0.031 A 
ATOM     48  C   UNL A   1      45.003  31.229  27.664  1.00  0.00     0.074 A 
ATOM     49  C   UNL A   1      47.417  30.944  27.436  1.00  0.00     0.049 A 
ATOM     50  N   UNL A   1      44.661  29.957  27.550  1.00  0.00    -0.248 NA
ATOM     51  C   UNL A   1      43.840  32.080  27.950  1.00  0.00     0.031 C 
ATOM     52  C   UNL A   1      48.827  31.172  27.713  1.00  0.00     0.029 A 
ATOM     53  N   UNL A   1      47.439  29.676  26.900  1.00  0.00    -0.354 N 
ATOM     54  C   UNL A   1      43.302  29.861  27.871  1.00  0.00     0.074 A 
ATOM     55  C   UNL A   1      42.889  31.196  28.235  1.00  0.00     0.031 C 
ATOM     56  C   UNL A   1      49.583  30.314  27.036  1.00  0.00     0.029 A 
ATOM     57  C   UNL A   1      48.715  29.251  26.573  1.00  0.00     0.049 A 
ATOM     58  H   UNL A   1      46.633  29.129  26.761  1.00  0.00     0.167 HD
ATOM     59  C   UNL A   1      42.464  28.785  27.828  1.00  0.00     0.031 A 
ATOM     60  C   UNL A   1      49.196  28.107  26.053  1.00  0.00     0.031 A 
ATOM     61  C   UNL A   1      42.853  27.484  27.324  1.00  0.00     0.049 A 
ATOM     62  C   UNL A   1      48.239  26.984  25.861  1.00  0.00     0.074 A 
ATOM     63  C   UNL A   1      42.055  26.373  27.092  1.00  0.00     0.029 A 
ATOM     64  N   UNL A   1      44.140  27.128  26.941  1.00  0.00    -0.354 N 
ATOM     65  N   UNL A   1      46.957  26.957  26.131  1.00  0.00    -0.248 NA
ATOM     66  C   UNL A   1      48.790  25.728  25.348  1.00  0.00     0.031 C 
ATOM     67  C   UNL A   1      42.867  25.335  26.622  1.00  0.00     0.029 A 
ATOM     68  C   UNL A   1      44.157  25.818  26.486  1.00  0.00     0.049 A 
ATOM     69  H   UNL A   1      44.925  27.719  26.988  1.00  0.00     0.167 HD
ATOM     70  C   UNL A   1      46.543  25.674  25.822  1.00  0.00     0.074 A 
ATOM     71  C   UNL A   1      47.702  24.972  25.304  1.00  0.00     0.031 C 
ATOM     72  C   UNL A   1      45.314  25.128  25.975  1.00  0.00     0.031 A 
BRANCH  59  73
ATOM     73  C   UNL A   1      41.015  28.941  28.287  1.00  0.00    -0.014 A 
ATOM     74  C   UNL A   1      40.641  28.789  29.635  1.00  0.00     0.010 A 
ATOM     75  C   UNL A   1      40.021  29.355  27.371  1.00  0.00     0.010 A 
ATOM     76  C   UNL A   1      39.314  28.982  30.044  1.00  0.00     0.020 A 
ATOM     77  C   UNL A   1      38.699  29.589  27.781  1.00  0.00     0.020 A 
ATOM     78  C   UNL A   1      38.349  29.380  29.113  1.00  0.00     0.054 A 
BRANCH  78  79
ATOM     79  S   UNL A   1      36.644  29.645  29.685  1.00  0.00     0.124 S 
ATOM     80  O   UNL A   1      36.558  31.104  29.710  1.00  0.00    -0.237 OA
ATOM     81  O   UNL A   1      35.853  28.990  28.646  1.00  0.00    -0.237 OA
ATOM     82  O   UNL A   1      36.608  28.997  30.993  1.00  0.00    -0.744 OA
ENDBRANCH  78  79
ENDBRANCH  59  73
BRANCH  60  83
ATOM     83  C   UNL A   1      50.652  27.972  25.750  1.00  0.00    -0.014 A 
ATOM     84  C   UNL A   1      51.545  27.552  26.751  1.00  0.00     0.010 A 
ATOM     85  C   UNL A   1      51.143  28.169  24.444  1.00  0.00     0.010 A 
ATOM     86  C   UNL A   1      52.892  27.322  26.450  1.00  0.00     0.020 A 
ATOM     87  C   UNL A   1      52.472  27.882  24.126  1.00  0.00     0.020 A 
ATOM     88  C   UNL A   1      53.343  27.474  25.136  1.00  0.00     0.054 A 
BRANCH  88  89
ATOM     89  S   UNL A   1      55.074  27.094  24.753  1.00  0.00     0.124 S 
ATOM     90  O   UNL A   1      55.355  26.004  25.682  1.00  0.00    -0.237 OA
ATOM     91  O   UNL A   1      55.012  26.724  23.342  1.00  0.00    -0.237 OA
ATOM     92  O   UNL A   1      55.770  28.349  25.031  1.00  0.00    -0.744 OA
ENDBRANCH  88  89
ENDBRANCH  60  83
BRANCH  72  93
ATOM     93  C   UNL A   1      45.158  23.709  25.512  1.00  0.00    -0.014 A 
ATOM     94  C   UNL A   1      44.907  23.403  24.162  1.00  0.00     0.010 A 
ATOM     95  C   UNL A   1      45.257  22.669  26.453  1.00  0.00     0.010 A 
ATOM     96  C   UNL A   1      44.710  22.079  23.771  1.00  0.00     0.020 A 
ATOM     97  C   UNL A   1      45.098  21.341  26.056  1.00  0.00     0.020 A 
ATOM     98  C   UNL A   1      44.808  21.056  24.721  1.00  0.00     0.054 A 
BRANCH  98  99
ATOM     99  S   UNL A   1      44.578  19.344  24.180  1.00  0.00     0.124 S 
ATOM    100  O   UNL A   1      44.421  19.500  22.736  1.00  0.00    -0.237 OA
ATOM    101  O   UNL A   1      45.817  18.704  24.613  1.00  0.00    -0.237 OA
ATOM    102  O   UNL A   1      43.377  18.914  24.893  1.00  0.00    -0.744 OA
ENDBRANCH  98  99
ENDBRANCH  72  93
ENDBRANCH  46  47
ENDBRANCH  39  41
ENDBRANCH  38  39
ENDBRANCH  37  38
ENDBRANCH   1  37
TORSDOF 20
ENDMDL
MODEL 3
REMARK VINA RESULT:      -7.0      2.766      9.027
REMARK SMILES COc1ccc(/C=C2/SC(=S)N(NC(=O)c3ccc(C(C)(C)C)cc3)C2=O)c(C(=O)OCCOC(=O)c2ccc(-c3c4nc(c(-c5ccc(S(=O)(=O)[O-])cc5)c5ccc([nH]5)c(-c5ccc(S(=O)(=O)[O-])cc5)c5nc(c(-c6ccc(S(=O)(=O)[O-])cc6)c6ccc3[nH]6)C=C5)C=C4)cc2)c1OC
REMARK SMILES IDX 32 1 31 2 29 3 30 4 28 5 3 6 4 7 97 8 5 9 6 10 2 11 1 12
REMARK SMILES IDX 98 13 99 14 7 15 8 16 9 17 26 18 10 19 12 20 27 21 11 22
REMARK SMILES IDX 13 23 14 24 15 26 16 27 17 28 25 29 18 30 24 31 19 32 20 33
REMARK SMILES IDX 21 34 22 35 23 36 33 37 34 38 35 39 36 40 37 41 38 42 96 43
REMARK SMILES IDX 39 44 95 45 40 46 41 47 42 48 89 49 43 50 94 51 88 52 90 53
REMARK SMILES IDX 44 54 93 55 87 56 86 57 45 59 75 60 56 61 74 62 57 63 60 64
REMARK SMILES IDX 73 65 91 66 58 67 59 68 72 70 92 71 61 72 46 73 47 74 55 75
REMARK SMILES IDX 48 76 54 77 49 78 50 79 51 80 52 81 53 82 76 83 77 84 85 85
REMARK SMILES IDX 78 86 84 87 79 88 80 89 81 90 82 91 83 92 62 93 63 94 71 95
REMARK SMILES IDX 64 96 70 97 65 98 66 99 67 100 68 101 69 102
REMARK H PARENT 13 25 90 58 60 69
REMARK Flexibility Score: inf
ROOT
ATOM      1  C   UNL A   1      52.708  37.465  29.356  1.00  0.00     0.275 C 
ENDROOT
BRANCH   1   2
ATOM      2  O   UNL A   1      51.621  37.916  28.500  1.00  0.00    -0.458 OA
BRANCH   2   3
ATOM      3  C   UNL A   1      51.938  38.394  27.258  1.00  0.00     0.342 C 
ATOM      4  O   UNL A   1      52.792  39.229  27.004  1.00  0.00    -0.246 OA
BRANCH   3   5
ATOM      5  C   UNL A   1      51.091  37.769  26.213  1.00  0.00     0.113 A 
ATOM      6  C   UNL A   1      51.023  35.847  24.716  1.00  0.00     0.161 A 
ATOM      7  C   UNL A   1      49.633  35.987  24.647  1.00  0.00     0.051 A 
ATOM      8  C   UNL A   1      51.764  36.751  25.481  1.00  0.00     0.175 A 
ATOM      9  C   UNL A   1      48.961  37.023  25.332  1.00  0.00     0.013 A 
ATOM     10  C   UNL A   1      49.654  37.938  26.144  1.00  0.00    -0.006 A 
BRANCH   6  11
ATOM     11  O   UNL A   1      51.559  34.681  24.232  1.00  0.00    -0.493 OA
ATOM     12  C   UNL A   1      51.311  33.535  25.039  1.00  0.00     0.278 C 
ENDBRANCH   6  11
BRANCH   8  13
ATOM     13  O   UNL A   1      53.095  36.465  25.717  1.00  0.00    -0.492 OA
ATOM     14  C   UNL A   1      53.294  35.472  26.724  1.00  0.00     0.278 C 
ENDBRANCH   8  13
BRANCH  10  15
ATOM     15  C   UNL A   1      48.820  38.669  27.194  1.00  0.00     0.030 C 
ATOM     16  C   UNL A   1      47.475  38.726  27.635  1.00  0.00     0.082 C 
ATOM     17  S   UNL A   1      45.930  40.377  28.720  1.00  0.00    -0.052 SA
ATOM     18  C   UNL A   1      46.341  37.303  26.918  1.00  0.00     0.285 C 
ATOM     19  C   UNL A   1      44.118  39.112  28.068  1.00  0.00     0.168 C 
ATOM     20  N   UNL A   1      44.648  37.678  27.187  1.00  0.00    -0.198 N 
ATOM     21  O   UNL A   1      46.858  36.250  26.585  1.00  0.00    -0.266 OA
ATOM     22  S   UNL A   1      42.573  39.721  28.266  1.00  0.00    -0.050 S 
BRANCH  20  23
ATOM     23  N   UNL A   1      43.624  37.038  26.386  1.00  0.00    -0.255 N 
ATOM     24  C   UNL A   1      43.131  35.769  26.675  1.00  0.00     0.270 C 
ATOM     25  H   UNL A   1      43.264  37.519  25.606  1.00  0.00     0.192 HD
ATOM     26  O   UNL A   1      43.222  34.872  25.837  1.00  0.00    -0.267 OA
BRANCH  24  27
ATOM     27  C   UNL A   1      42.434  35.484  27.953  1.00  0.00     0.041 A 
ATOM     28  C   UNL A   1      41.048  35.635  28.011  1.00  0.00     0.014 A 
ATOM     29  C   UNL A   1      43.115  35.040  29.088  1.00  0.00     0.014 A 
ATOM     30  C   UNL A   1      40.335  35.157  29.117  1.00  0.00     0.005 A 
ATOM     31  C   UNL A   1      42.392  34.528  30.182  1.00  0.00     0.005 A 
ATOM     32  C   UNL A   1      40.985  34.489  30.174  1.00  0.00    -0.043 A 
BRANCH  32  33
ATOM     33  C   UNL A   1      40.198  33.633  31.186  1.00  0.00    -0.013 C 
ATOM     34  C   UNL A   1      38.806  33.267  30.660  1.00  0.00     0.016 C 
ATOM     35  C   UNL A   1      40.933  32.314  31.483  1.00  0.00     0.016 C 
ATOM     36  C   UNL A   1      40.030  34.351  32.550  1.00  0.00     0.016 C 
ENDBRANCH  32  33
ENDBRANCH  24  27
ENDBRANCH  20  23
ENDBRANCH  10  15
ENDBRANCH   3   5
ENDBRANCH   2   3
ENDBRANCH   1   2
BRANCH   1  37
ATOM     37  C   UNL A   1      52.279  36.557  30.521  1.00  0.00     0.275 C 
BRANCH  37  38
ATOM     38  O   UNL A   1      51.382  37.261  31.395  1.00  0.00    -0.458 OA
BRANCH  38  39
ATOM     39  C   UNL A   1      50.141  36.882  31.081  1.00  0.00     0.338 C 
ATOM     40  O   UNL A   1      49.112  37.421  31.498  1.00  0.00    -0.246 OA
BRANCH  39  41
ATOM     41  C   UNL A   1      49.924  35.663  30.341  1.00  0.00     0.060 A 
ATOM     42  C   UNL A   1      49.437  35.353  28.722  1.00  0.00     0.016 A 
ATOM     43  C   UNL A   1      49.302  34.600  31.567  1.00  0.00     0.016 A 
ATOM     44  C   UNL A   1      48.285  34.054  28.297  1.00  0.00     0.010 A 
ATOM     45  C   UNL A   1      48.038  33.081  31.071  1.00  0.00     0.010 A 
ATOM     46  C   UNL A   1      47.584  32.852  29.389  1.00  0.00    -0.014 A 
BRANCH  46  47
ATOM     47  C   UNL A   1      47.089  31.469  28.876  1.00  0.00     0.031 A 
ATOM     48  C   UNL A   1      45.665  30.879  29.016  1.00  0.00     0.074 A 
ATOM     49  C   UNL A   1      48.014  30.591  28.414  1.00  0.00     0.049 A 
ATOM     50  N   UNL A   1      45.269  29.638  28.790  1.00  0.00    -0.248 NA
ATOM     51  C   UNL A   1      44.582  31.702  29.570  1.00  0.00     0.031 C 
ATOM     52  C   UNL A   1      49.456  30.759  28.516  1.00  0.00     0.029 A 
ATOM     53  N   UNL A   1      47.920  29.404  27.722  1.00  0.00    -0.354 N 
ATOM     54  C   UNL A   1      43.965  29.521  29.285  1.00  0.00     0.074 A 
ATOM     55  C   UNL A   1      43.651  30.803  29.872  1.00  0.00     0.031 C 
ATOM     56  C   UNL A   1      50.081  29.986  27.634  1.00  0.00     0.029 A 
ATOM     57  C   UNL A   1      49.123  29.007  27.166  1.00  0.00     0.049 A 
ATOM     58  H   UNL A   1      47.084  28.892  27.631  1.00  0.00     0.167 HD
ATOM     59  C   UNL A   1      43.094  28.472  29.223  1.00  0.00     0.031 A 
ATOM     60  C   UNL A   1      49.489  27.934  26.442  1.00  0.00     0.031 A 
ATOM     61  C   UNL A   1      43.367  27.243  28.507  1.00  0.00     0.049 A 
ATOM     62  C   UNL A   1      48.479  26.860  26.245  1.00  0.00     0.074 A 
ATOM     63  C   UNL A   1      42.508  26.184  28.250  1.00  0.00     0.029 A 
ATOM     64  N   UNL A   1      44.575  26.922  27.904  1.00  0.00    -0.354 N 
ATOM     65  N   UNL A   1      47.246  26.817  26.688  1.00  0.00    -0.248 NA
ATOM     66  C   UNL A   1      48.911  25.674  25.503  1.00  0.00     0.031 C 
ATOM     67  C   UNL A   1      43.212  25.205  27.541  1.00  0.00     0.029 A 
ATOM     68  C   UNL A   1      44.486  25.683  27.287  1.00  0.00     0.049 A 
ATOM     69  H   UNL A   1      45.379  27.490  27.914  1.00  0.00     0.167 HD
ATOM     70  C   UNL A   1      46.751  25.592  26.279  1.00  0.00     0.074 A 
ATOM     71  C   UNL A   1      47.804  24.947  25.517  1.00  0.00     0.031 C 
ATOM     72  C   UNL A   1      45.537  25.049  26.533  1.00  0.00     0.031 A 
BRANCH  59  73
ATOM     73  C   UNL A   1      41.729  28.588  29.899  1.00  0.00    -0.014 A 
ATOM     74  C   UNL A   1      41.548  28.304  31.265  1.00  0.00     0.010 A 
ATOM     75  C   UNL A   1      40.622  29.095  29.180  1.00  0.00     0.010 A 
ATOM     76  C   UNL A   1      40.296  28.461  31.878  1.00  0.00     0.020 A 
ATOM     77  C   UNL A   1      39.377  29.293  29.797  1.00  0.00     0.020 A 
ATOM     78  C   UNL A   1      39.217  28.954  31.139  1.00  0.00     0.054 A 
BRANCH  78  79
ATOM     79  S   UNL A   1      37.616  29.168  31.973  1.00  0.00     0.124 S 
ATOM     80  O   UNL A   1      36.676  29.030  30.862  1.00  0.00    -0.237 OA
ATOM     81  O   UNL A   1      37.609  28.070  32.937  1.00  0.00    -0.237 OA
ATOM     82  O   UNL A   1      37.699  30.505  32.555  1.00  0.00    -0.744 OA
ENDBRANCH  78  79
ENDBRANCH  59  73
BRANCH  60  83
ATOM     83  C   UNL A   1      50.885  27.818  25.921  1.00  0.00    -0.014 A 
ATOM     84  C   UNL A   1      51.950  27.578  26.805  1.00  0.00     0.010 A 
ATOM     85  C   UNL A   1      51.148  27.852  24.537  1.00  0.00     0.010 A 
ATOM     86  C   UNL A   1      53.244  27.365  26.317  1.00  0.00     0.020 A 
ATOM     87  C   UNL A   1      52.425  27.579  24.042  1.00  0.00     0.020 A 
ATOM     88  C   UNL A   1      53.469  27.352  24.938  1.00  0.00     0.054 A 
BRANCH  88  89
ATOM     89  S   UNL A   1      55.138  26.994  24.325  1.00  0.00     0.124 S 
ATOM     90  O   UNL A   1      55.101  27.586  22.992  1.00  0.00    -0.237 OA
ATOM     91  O   UNL A   1      55.986  27.677  25.299  1.00  0.00    -0.237 OA
ATOM     92  O   UNL A   1      55.211  25.535  24.361  1.00  0.00    -0.744 OA
ENDBRANCH  88  89
ENDBRANCH  60  83
BRANCH  72  93
ATOM     93  C   UNL A   1      45.272  23.706  25.919  1.00  0.00    -0.014 A 
ATOM     94  C   UNL A   1      44.554  23.579  24.716  1.00  0.00     0.010 A 
ATOM     95  C   UNL A   1      45.746  22.552  26.568  1.00  0.00     0.010 A 
ATOM     96  C   UNL A   1      44.273  22.315  24.199  1.00  0.00     0.020 A 
ATOM     97  C   UNL A   1      45.500  21.288  26.032  1.00  0.00     0.020 A 
ATOM     98  C   UNL A   1      44.749  21.177  24.861  1.00  0.00     0.054 A 
BRANCH  98  99
ATOM     99  S   UNL A   1      44.396  19.550  24.151  1.00  0.00     0.124 S 
ATOM    100  O   UNL A   1      44.461  19.822  22.717  1.00  0.00    -0.237 OA
ATOM    101  O   UNL A   1      45.478  18.728  24.686  1.00  0.00    -0.237 OA
ATOM    102  O   UNL A   1      43.065  19.230  24.663  1.00  0.00    -0.744 OA
ENDBRANCH  98  99
ENDBRANCH  72  93
ENDBRANCH  46  47
ENDBRANCH  39  41
ENDBRANCH  38  39
ENDBRANCH  37  38
ENDBRANCH   1  37
TORSDOF 20
ENDMDL
