MODEL 1
REMARK VINA RESULT:     -10.6      0.000      0.000
REMARK SMILES C[C@@H]1OCC[C@@H]1C(=O)Nc1ccc(C(=O)OCCOC(=O)c2ccc(-c3c4nc(c(-c5ccc(S(=O)(=O)[O-])cc5)c5ccc([nH]5)c(-c5ccc(S(=O)(=O)[O-])cc5)c5nc(c(-c6ccc(S(=O)(=O)[O-])cc6)c6ccc3[nH]6)C=C5)C=C4)cc2)cc1F
REMARK SMILES IDX 18 1 17 2 16 3 14 4 15 5 13 6 10 7 11 8 83 9 12 10 82 11
REMARK SMILES IDX 84 12 9 13 7 14 8 15 6 17 1 18 2 19 3 20 4 21 5 22 19 23
REMARK SMILES IDX 20 24 21 25 22 26 23 27 81 28 24 29 80 30 25 31 26 32 27 33
REMARK SMILES IDX 74 34 28 35 79 36 73 37 75 38 29 39 78 40 72 41 71 42 30 44
REMARK SMILES IDX 60 45 41 46 59 47 42 48 45 49 58 50 76 51 43 52 44 53 57 55
REMARK SMILES IDX 77 56 46 57 31 58 32 59 40 60 33 61 39 62 34 63 35 64 36 65
REMARK SMILES IDX 37 66 38 67 61 68 62 69 70 70 63 71 69 72 64 73 65 74 66 75
REMARK SMILES IDX 67 76 68 77 47 78 48 79 56 80 49 81 55 82 50 83 51 84 52 85
REMARK SMILES IDX 53 86 54 87
REMARK H PARENT 9 16 75 43 45 54
REMARK Flexibility Score: inf
ROOT
ATOM      1  C   UNL A   1      32.472  28.627  27.048  1.00  0.00     0.275 C 
ENDROOT
BRANCH   1   2
ATOM      2  C   UNL A   1      32.235  28.891  25.563  1.00  0.00     0.275 C 
BRANCH   2   3
ATOM      3  O   UNL A   1      31.012  28.276  25.118  1.00  0.00    -0.458 OA
BRANCH   3   4
ATOM      4  C   UNL A   1      30.892  28.118  23.780  1.00  0.00     0.338 C 
ATOM      5  O   UNL A   1      30.599  28.967  22.951  1.00  0.00    -0.246 OA
BRANCH   4   6
ATOM      6  C   UNL A   1      31.099  26.708  23.435  1.00  0.00     0.063 A 
ATOM      7  C   UNL A   1      31.738  23.987  22.975  1.00  0.00     0.077 A 
ATOM      8  C   UNL A   1      30.488  24.359  23.486  1.00  0.00     0.030 A 
ATOM      9  C   UNL A   1      32.649  25.030  22.728  1.00  0.00     0.147 A 
ATOM     10  C   UNL A   1      30.176  25.703  23.726  1.00  0.00     0.018 A 
ATOM     11  C   UNL A   1      32.334  26.367  22.927  1.00  0.00     0.057 A 
ATOM     12  F   UNL A   1      33.907  24.851  22.330  1.00  0.00    -0.205 F 
BRANCH   7  13
ATOM     13  N   UNL A   1      31.905  22.589  22.799  1.00  0.00    -0.323 N 
ATOM     14  C   UNL A   1      32.317  21.554  23.591  1.00  0.00     0.230 C 
ATOM     15  O   UNL A   1      32.298  20.413  23.120  1.00  0.00    -0.274 OA
ATOM     16  H   UNL A   1      31.667  22.295  21.891  1.00  0.00     0.170 HD
BRANCH  14  17
ATOM     17  C   UNL A   1      32.803  21.810  24.981  1.00  0.00     0.110 C 
ATOM     18  C   UNL A   1      35.167  22.209  24.014  1.00  0.00     0.039 C 
ATOM     19  C   UNL A   1      34.109  22.608  25.043  1.00  0.00     0.127 C 
ATOM     20  O   UNL A   1      34.660  22.355  26.357  1.00  0.00    -0.378 OA
ATOM     21  C   UNL A   1      33.813  21.392  27.001  1.00  0.00     0.161 C 
ATOM     22  C   UNL A   1      33.121  20.639  25.881  1.00  0.00     0.044 C 
ENDBRANCH  14  17
ENDBRANCH   7  13
ENDBRANCH   4   6
ENDBRANCH   3   4
ENDBRANCH   2   3
ENDBRANCH   1   2
BRANCH   1  23
ATOM     23  O   UNL A   1      33.868  28.783  27.367  1.00  0.00    -0.458 OA
BRANCH  23  24
ATOM     24  C   UNL A   1      34.225  30.018  27.792  1.00  0.00     0.338 C 
ATOM     25  O   UNL A   1      33.510  30.997  27.907  1.00  0.00    -0.246 OA
BRANCH  24  26
ATOM     26  C   UNL A   1      35.632  30.020  28.227  1.00  0.00     0.060 A 
ATOM     27  C   UNL A   1      36.599  30.357  27.295  1.00  0.00     0.016 A 
ATOM     28  C   UNL A   1      36.014  29.480  29.449  1.00  0.00     0.016 A 
ATOM     29  C   UNL A   1      37.924  29.992  27.490  1.00  0.00     0.010 A 
ATOM     30  C   UNL A   1      37.377  29.279  29.716  1.00  0.00     0.010 A 
ATOM     31  C   UNL A   1      38.351  29.480  28.718  1.00  0.00    -0.014 A 
BRANCH  31  32
ATOM     32  C   UNL A   1      39.791  29.132  28.923  1.00  0.00     0.031 A 
ATOM     33  C   UNL A   1      40.742  30.138  29.523  1.00  0.00     0.074 A 
ATOM     34  C   UNL A   1      40.253  27.899  28.614  1.00  0.00     0.049 A 
ATOM     35  N   UNL A   1      42.050  30.105  29.583  1.00  0.00    -0.248 NA
ATOM     36  C   UNL A   1      40.152  31.350  30.116  1.00  0.00     0.031 C 
ATOM     37  C   UNL A   1      39.452  26.788  28.091  1.00  0.00     0.029 A 
ATOM     38  N   UNL A   1      41.515  27.362  28.717  1.00  0.00    -0.354 N 
ATOM     39  C   UNL A   1      42.439  31.322  30.136  1.00  0.00     0.074 A 
ATOM     40  C   UNL A   1      41.228  32.068  30.403  1.00  0.00     0.031 C 
ATOM     41  C   UNL A   1      40.215  25.691  27.997  1.00  0.00     0.029 A 
ATOM     42  C   UNL A   1      41.590  26.049  28.310  1.00  0.00     0.049 A 
ATOM     43  H   UNL A   1      42.291  27.868  29.049  1.00  0.00     0.167 HD
ATOM     44  C   UNL A   1      43.690  31.779  30.386  1.00  0.00     0.031 A 
ATOM     45  C   UNL A   1      42.646  25.230  28.139  1.00  0.00     0.031 A 
ATOM     46  C   UNL A   1      44.887  31.005  30.172  1.00  0.00     0.049 A 
ATOM     47  C   UNL A   1      44.025  25.767  28.382  1.00  0.00     0.074 A 
ATOM     48  C   UNL A   1      46.202  31.375  30.398  1.00  0.00     0.029 A 
ATOM     49  N   UNL A   1      44.914  29.700  29.705  1.00  0.00    -0.354 N 
ATOM     50  N   UNL A   1      44.380  26.955  28.812  1.00  0.00    -0.248 NA
ATOM     51  C   UNL A   1      45.147  24.866  28.091  1.00  0.00     0.031 C 
ATOM     52  C   UNL A   1      47.027  30.308  30.024  1.00  0.00     0.029 A 
ATOM     53  C   UNL A   1      46.223  29.254  29.621  1.00  0.00     0.049 A 
ATOM     54  H   UNL A   1      44.120  29.169  29.469  1.00  0.00     0.167 HD
ATOM     55  C   UNL A   1      45.768  26.943  28.845  1.00  0.00     0.074 A 
ATOM     56  C   UNL A   1      46.185  25.620  28.420  1.00  0.00     0.031 C 
ATOM     57  C   UNL A   1      46.621  27.939  29.187  1.00  0.00     0.031 A 
BRANCH  44  58
ATOM     58  C   UNL A   1      43.833  33.202  30.863  1.00  0.00    -0.014 A 
ATOM     59  C   UNL A   1      43.877  33.531  32.229  1.00  0.00     0.010 A 
ATOM     60  C   UNL A   1      43.951  34.232  29.910  1.00  0.00     0.010 A 
ATOM     61  C   UNL A   1      43.986  34.866  32.632  1.00  0.00     0.020 A 
ATOM     62  C   UNL A   1      44.091  35.565  30.308  1.00  0.00     0.020 A 
ATOM     63  C   UNL A   1      44.087  35.875  31.668  1.00  0.00     0.054 A 
BRANCH  63  64
ATOM     64  S   UNL A   1      44.232  37.599  32.217  1.00  0.00     0.124 S 
ATOM     65  O   UNL A   1      43.287  37.640  33.330  1.00  0.00    -0.237 OA
ATOM     66  O   UNL A   1      45.642  37.701  32.586  1.00  0.00    -0.237 OA
ATOM     67  O   UNL A   1      43.843  38.372  31.040  1.00  0.00    -0.744 OA
ENDBRANCH  63  64
ENDBRANCH  44  58
BRANCH  45  68
ATOM     68  C   UNL A   1      42.437  23.843  27.636  1.00  0.00    -0.014 A 
ATOM     69  C   UNL A   1      42.311  23.588  26.260  1.00  0.00     0.010 A 
ATOM     70  C   UNL A   1      42.399  22.760  28.537  1.00  0.00     0.010 A 
ATOM     71  C   UNL A   1      42.153  22.279  25.794  1.00  0.00     0.020 A 
ATOM     72  C   UNL A   1      42.277  21.449  28.074  1.00  0.00     0.020 A 
ATOM     73  C   UNL A   1      42.145  21.216  26.704  1.00  0.00     0.054 A 
BRANCH  73  74
ATOM     74  S   UNL A   1      42.018  19.520  26.073  1.00  0.00     0.124 S 
ATOM     75  O   UNL A   1      40.589  19.405  25.800  1.00  0.00    -0.237 OA
ATOM     76  O   UNL A   1      42.888  19.553  24.900  1.00  0.00    -0.237 OA
ATOM     77  O   UNL A   1      42.513  18.707  27.182  1.00  0.00    -0.744 OA
ENDBRANCH  73  74
ENDBRANCH  45  68
BRANCH  57  78
ATOM     78  C   UNL A   1      48.091  27.622  29.145  1.00  0.00    -0.014 A 
ATOM     79  C   UNL A   1      48.755  27.099  30.268  1.00  0.00     0.010 A 
ATOM     80  C   UNL A   1      48.810  27.829  27.954  1.00  0.00     0.010 A 
ATOM     81  C   UNL A   1      50.124  26.826  30.213  1.00  0.00     0.020 A 
ATOM     82  C   UNL A   1      50.171  27.531  27.886  1.00  0.00     0.020 A 
ATOM     83  C   UNL A   1      50.824  27.047  29.022  1.00  0.00     0.054 A 
BRANCH  83  84
ATOM     84  S   UNL A   1      52.594  26.660  28.967  1.00  0.00     0.124 S 
ATOM     85  O   UNL A   1      52.796  25.976  30.241  1.00  0.00    -0.237 OA
ATOM     86  O   UNL A   1      52.703  25.821  27.777  1.00  0.00    -0.237 OA
ATOM     87  O   UNL A   1      53.231  27.971  28.857  1.00  0.00    -0.744 OA
ENDBRANCH  83  84
ENDBRANCH  57  78
ENDBRANCH  31  32
ENDBRANCH  24  26
ENDBRANCH  23  24
ENDBRANCH   1  23
TORSDOF 16
ENDMDL
MODEL 2
REMARK VINA RESULT:     -10.6      2.157      2.998
REMARK SMILES C[C@@H]1OCC[C@@H]1C(=O)Nc1ccc(C(=O)OCCOC(=O)c2ccc(-c3c4nc(c(-c5ccc(S(=O)(=O)[O-])cc5)c5ccc([nH]5)c(-c5ccc(S(=O)(=O)[O-])cc5)c5nc(c(-c6ccc(S(=O)(=O)[O-])cc6)c6ccc3[nH]6)C=C5)C=C4)cc2)cc1F
REMARK SMILES IDX 18 1 17 2 16 3 14 4 15 5 13 6 10 7 11 8 83 9 12 10 82 11
REMARK SMILES IDX 84 12 9 13 7 14 8 15 6 17 1 18 2 19 3 20 4 21 5 22 19 23
REMARK SMILES IDX 20 24 21 25 22 26 23 27 81 28 24 29 80 30 25 31 26 32 27 33
REMARK SMILES IDX 74 34 28 35 79 36 73 37 75 38 29 39 78 40 72 41 71 42 30 44
REMARK SMILES IDX 60 45 41 46 59 47 42 48 45 49 58 50 76 51 43 52 44 53 57 55
REMARK SMILES IDX 77 56 46 57 31 58 32 59 40 60 33 61 39 62 34 63 35 64 36 65
REMARK SMILES IDX 37 66 38 67 61 68 62 69 70 70 63 71 69 72 64 73 65 74 66 75
REMARK SMILES IDX 67 76 68 77 47 78 48 79 56 80 49 81 55 82 50 83 51 84 52 85
REMARK SMILES IDX 53 86 54 87
REMARK H PARENT 9 16 75 43 45 54
REMARK Flexibility Score: inf
ROOT
ATOM      1  C   UNL A   1      34.245  31.609  27.973  1.00  0.00     0.275 C 
ENDROOT
BRANCH   1   2
ATOM      2  C   UNL A   1      32.960  30.966  27.458  1.00  0.00     0.275 C 
BRANCH   2   3
ATOM      3  O   UNL A   1      33.201  30.232  26.244  1.00  0.00    -0.458 OA
BRANCH   3   4
ATOM      4  C   UNL A   1      32.121  30.044  25.452  1.00  0.00     0.338 C 
ATOM      5  O   UNL A   1      31.067  30.663  25.467  1.00  0.00    -0.246 OA
BRANCH   4   6
ATOM      6  C   UNL A   1      32.356  28.895  24.572  1.00  0.00     0.063 A 
ATOM      7  C   UNL A   1      32.673  26.844  22.643  1.00  0.00     0.077 A 
ATOM      8  C   UNL A   1      33.784  27.436  23.258  1.00  0.00     0.030 A 
ATOM      9  C   UNL A   1      31.411  27.338  23.022  1.00  0.00     0.147 A 
ATOM     10  C   UNL A   1      33.629  28.457  24.203  1.00  0.00     0.018 A 
ATOM     11  C   UNL A   1      31.247  28.325  23.984  1.00  0.00     0.057 A 
ATOM     12  F   UNL A   1      30.259  26.957  22.473  1.00  0.00    -0.205 F 
BRANCH   7  13
ATOM     13  N   UNL A   1      32.995  25.833  21.702  1.00  0.00    -0.323 N 
ATOM     14  C   UNL A   1      32.956  24.466  21.695  1.00  0.00     0.230 C 
ATOM     15  O   UNL A   1      33.273  23.877  20.658  1.00  0.00    -0.274 OA
ATOM     16  H   UNL A   1      33.323  26.203  20.851  1.00  0.00     0.170 HD
BRANCH  14  17
ATOM     17  C   UNL A   1      32.565  23.714  22.926  1.00  0.00     0.110 C 
ATOM     18  C   UNL A   1      35.075  23.426  23.472  1.00  0.00     0.039 C 
ATOM     19  C   UNL A   1      33.660  23.666  23.996  1.00  0.00     0.127 C 
ATOM     20  O   UNL A   1      33.318  22.553  24.856  1.00  0.00    -0.378 OA
ATOM     21  C   UNL A   1      32.168  21.907  24.288  1.00  0.00     0.161 C 
ATOM     22  C   UNL A   1      32.189  22.255  22.813  1.00  0.00     0.044 C 
ENDBRANCH  14  17
ENDBRANCH   7  13
ENDBRANCH   4   6
ENDBRANCH   3   4
ENDBRANCH   2   3
ENDBRANCH   1   2
BRANCH   1  23
ATOM     23  O   UNL A   1      35.326  30.658  27.946  1.00  0.00    -0.458 OA
BRANCH  23  24
ATOM     24  C   UNL A   1      36.141  30.683  29.026  1.00  0.00     0.338 C 
ATOM     25  O   UNL A   1      35.909  31.171  30.118  1.00  0.00    -0.246 OA
BRANCH  24  26
ATOM     26  C   UNL A   1      37.369  29.916  28.757  1.00  0.00     0.060 A 
ATOM     27  C   UNL A   1      38.099  29.457  29.842  1.00  0.00     0.016 A 
ATOM     28  C   UNL A   1      37.917  29.848  27.482  1.00  0.00     0.016 A 
ATOM     29  C   UNL A   1      39.434  29.105  29.696  1.00  0.00     0.010 A 
ATOM     30  C   UNL A   1      39.207  29.320  27.315  1.00  0.00     0.010 A 
ATOM     31  C   UNL A   1      40.008  28.992  28.427  1.00  0.00    -0.014 A 
BRANCH  31  32
ATOM     32  C   UNL A   1      41.437  28.571  28.288  1.00  0.00     0.031 A 
ATOM     33  C   UNL A   1      42.550  29.565  28.511  1.00  0.00     0.074 A 
ATOM     34  C   UNL A   1      41.753  27.288  28.002  1.00  0.00     0.049 A 
ATOM     35  N   UNL A   1      43.825  29.453  28.234  1.00  0.00    -0.248 NA
ATOM     36  C   UNL A   1      42.184  30.862  29.105  1.00  0.00     0.031 C 
ATOM     37  C   UNL A   1      40.800  26.188  27.824  1.00  0.00     0.029 A 
ATOM     38  N   UNL A   1      42.976  26.682  27.831  1.00  0.00    -0.354 N 
ATOM     39  C   UNL A   1      44.393  30.688  28.536  1.00  0.00     0.074 A 
ATOM     40  C   UNL A   1      43.325  31.532  29.027  1.00  0.00     0.031 C 
ATOM     41  C   UNL A   1      41.468  25.040  27.653  1.00  0.00     0.029 A 
ATOM     42  C   UNL A   1      42.890  25.335  27.561  1.00  0.00     0.049 A 
ATOM     43  H   UNL A   1      43.831  27.165  27.896  1.00  0.00     0.167 HD
ATOM     44  C   UNL A   1      45.683  31.083  28.404  1.00  0.00     0.031 A 
ATOM     45  C   UNL A   1      43.831  24.437  27.210  1.00  0.00     0.031 A 
ATOM     46  C   UNL A   1      46.750  30.217  27.971  1.00  0.00     0.049 A 
ATOM     47  C   UNL A   1      45.245  24.904  27.030  1.00  0.00     0.074 A 
ATOM     48  C   UNL A   1      48.091  30.520  27.809  1.00  0.00     0.029 A 
ATOM     49  N   UNL A   1      46.602  28.876  27.654  1.00  0.00    -0.354 N 
ATOM     50  N   UNL A   1      45.746  26.100  27.225  1.00  0.00    -0.248 NA
ATOM     51  C   UNL A   1      46.214  23.908  26.555  1.00  0.00     0.031 C 
ATOM     52  C   UNL A   1      48.746  29.372  27.349  1.00  0.00     0.029 A 
ATOM     53  C   UNL A   1      47.824  28.340  27.282  1.00  0.00     0.049 A 
ATOM     54  H   UNL A   1      45.755  28.378  27.689  1.00  0.00     0.167 HD
ATOM     55  C   UNL A   1      47.092  26.001  26.899  1.00  0.00     0.074 A 
ATOM     56  C   UNL A   1      47.332  24.621  26.523  1.00  0.00     0.031 C 
ATOM     57  C   UNL A   1      48.044  26.967  26.902  1.00  0.00     0.031 A 
BRANCH  44  58
ATOM     58  C   UNL A   1      46.001  32.532  28.674  1.00  0.00    -0.014 A 
ATOM     59  C   UNL A   1      46.464  32.974  29.926  1.00  0.00     0.010 A 
ATOM     60  C   UNL A   1      45.853  33.469  27.633  1.00  0.00     0.010 A 
ATOM     61  C   UNL A   1      46.726  34.330  30.144  1.00  0.00     0.020 A 
ATOM     62  C   UNL A   1      46.142  34.821  27.839  1.00  0.00     0.020 A 
ATOM     63  C   UNL A   1      46.557  35.246  29.101  1.00  0.00     0.054 A 
BRANCH  63  64
ATOM     64  S   UNL A   1      46.908  37.000  29.409  1.00  0.00     0.124 S 
ATOM     65  O   UNL A   1      45.575  37.591  29.331  1.00  0.00    -0.237 OA
ATOM     66  O   UNL A   1      47.508  36.978  30.741  1.00  0.00    -0.237 OA
ATOM     67  O   UNL A   1      47.817  37.368  28.327  1.00  0.00    -0.744 OA
ENDBRANCH  63  64
ENDBRANCH  44  58
BRANCH  45  68
ATOM     68  C   UNL A   1      43.443  23.026  26.928  1.00  0.00    -0.014 A 
ATOM     69  C   UNL A   1      43.729  22.436  25.685  1.00  0.00     0.010 A 
ATOM     70  C   UNL A   1      42.815  22.251  27.923  1.00  0.00     0.010 A 
ATOM     71  C   UNL A   1      43.396  21.100  25.443  1.00  0.00     0.020 A 
ATOM     72  C   UNL A   1      42.513  20.906  27.697  1.00  0.00     0.020 A 
ATOM     73  C   UNL A   1      42.797  20.341  26.454  1.00  0.00     0.054 A 
BRANCH  73  74
ATOM     74  S   UNL A   1      42.445  18.588  26.145  1.00  0.00     0.124 S 
ATOM     75  O   UNL A   1      42.722  17.990  27.448  1.00  0.00    -0.237 OA
ATOM     76  O   UNL A   1      41.041  18.613  25.744  1.00  0.00    -0.237 OA
ATOM     77  O   UNL A   1      43.382  18.235  25.081  1.00  0.00    -0.744 OA
ENDBRANCH  73  74
ENDBRANCH  45  68
BRANCH  57  78
ATOM     78  C   UNL A   1      49.436  26.553  26.515  1.00  0.00    -0.014 A 
ATOM     79  C   UNL A   1      50.353  26.093  27.476  1.00  0.00     0.010 A 
ATOM     80  C   UNL A   1      49.824  26.603  25.164  1.00  0.00     0.010 A 
ATOM     81  C   UNL A   1      51.647  25.728  27.099  1.00  0.00     0.020 A 
ATOM     82  C   UNL A   1      51.107  26.213  24.778  1.00  0.00     0.020 A 
ATOM     83  C   UNL A   1      52.016  25.793  25.751  1.00  0.00     0.054 A 
BRANCH  83  84
ATOM     84  S   UNL A   1      53.693  25.289  25.281  1.00  0.00     0.124 S 
ATOM     85  O   UNL A   1      53.920  26.077  24.073  1.00  0.00    -0.237 OA
ATOM     86  O   UNL A   1      54.484  25.679  26.445  1.00  0.00    -0.237 OA
ATOM     87  O   UNL A   1      53.575  23.847  25.071  1.00  0.00    -0.744 OA
ENDBRANCH  83  84
ENDBRANCH  57  78
ENDBRANCH  31  32
ENDBRANCH  24  26
ENDBRANCH  23  24
ENDBRANCH   1  23
TORSDOF 16
ENDMDL
MODEL 3
REMARK VINA RESULT:     -10.5      5.213     10.071
REMARK SMILES C[C@@H]1OCC[C@@H]1C(=O)Nc1ccc(C(=O)OCCOC(=O)c2ccc(-c3c4nc(c(-c5ccc(S(=O)(=O)[O-])cc5)c5ccc([nH]5)c(-c5ccc(S(=O)(=O)[O-])cc5)c5nc(c(-c6ccc(S(=O)(=O)[O-])cc6)c6ccc3[nH]6)C=C5)C=C4)cc2)cc1F
REMARK SMILES IDX 18 1 17 2 16 3 14 4 15 5 13 6 10 7 11 8 83 9 12 10 82 11
REMARK SMILES IDX 84 12 9 13 7 14 8 15 6 17 1 18 2 19 3 20 4 21 5 22 19 23
REMARK SMILES IDX 20 24 21 25 22 26 23 27 81 28 24 29 80 30 25 31 26 32 27 33
REMARK SMILES IDX 74 34 28 35 79 36 73 37 75 38 29 39 78 40 72 41 71 42 30 44
REMARK SMILES IDX 60 45 41 46 59 47 42 48 45 49 58 50 76 51 43 52 44 53 57 55
REMARK SMILES IDX 77 56 46 57 31 58 32 59 40 60 33 61 39 62 34 63 35 64 36 65
REMARK SMILES IDX 37 66 38 67 61 68 62 69 70 70 63 71 69 72 64 73 65 74 66 75
REMARK SMILES IDX 67 76 68 77 47 78 48 79 56 80 49 81 55 82 50 83 51 84 52 85
REMARK SMILES IDX 53 86 54 87
REMARK H PARENT 9 16 75 43 45 54
REMARK Flexibility Score: inf
ROOT
ATOM      1  C   UNL A   1      41.142  22.741  26.460  1.00  0.00     0.275 C 
ENDROOT
BRANCH   1   2
ATOM      2  C   UNL A   1      40.162  21.607  26.168  1.00  0.00     0.275 C 
BRANCH   2   3
ATOM      3  O   UNL A   1      38.805  22.087  26.163  1.00  0.00    -0.458 OA
BRANCH   3   4
ATOM      4  C   UNL A   1      37.928  21.349  25.444  1.00  0.00     0.338 C 
ATOM      5  O   UNL A   1      38.131  20.277  24.892  1.00  0.00    -0.246 OA
BRANCH   4   6
ATOM      6  C   UNL A   1      36.654  22.068  25.343  1.00  0.00     0.063 A 
ATOM      7  C   UNL A   1      34.082  23.255  25.367  1.00  0.00     0.077 A 
ATOM      8  C   UNL A   1      35.220  23.988  25.727  1.00  0.00     0.030 A 
ATOM      9  C   UNL A   1      34.290  21.908  25.019  1.00  0.00     0.147 A 
ATOM     10  C   UNL A   1      36.490  23.399  25.727  1.00  0.00     0.018 A 
ATOM     11  C   UNL A   1      35.550  21.326  24.981  1.00  0.00     0.057 A 
ATOM     12  F   UNL A   1      33.315  21.045  24.741  1.00  0.00    -0.205 F 
BRANCH   7  13
ATOM     13  N   UNL A   1      32.870  23.989  25.428  1.00  0.00    -0.323 N 
ATOM     14  C   UNL A   1      32.120  24.699  24.532  1.00  0.00     0.230 C 
ATOM     15  O   UNL A   1      31.056  25.191  24.919  1.00  0.00    -0.274 OA
ATOM     16  H   UNL A   1      32.475  23.986  26.329  1.00  0.00     0.170 HD
BRANCH  14  17
ATOM     17  C   UNL A   1      32.597  24.891  23.129  1.00  0.00     0.110 C 
ATOM     18  C   UNL A   1      33.634  27.145  23.858  1.00  0.00     0.039 C 
ATOM     19  C   UNL A   1      33.756  25.885  23.001  1.00  0.00     0.127 C 
ATOM     20  O   UNL A   1      33.764  26.299  21.614  1.00  0.00    -0.378 OA
ATOM     21  C   UNL A   1      32.632  25.691  20.976  1.00  0.00     0.161 C 
ATOM     22  C   UNL A   1      31.636  25.412  22.086  1.00  0.00     0.044 C 
ENDBRANCH  14  17
ENDBRANCH   7  13
ENDBRANCH   4   6
ENDBRANCH   3   4
ENDBRANCH   2   3
ENDBRANCH   1   2
BRANCH   1  23
ATOM     23  O   UNL A   1      40.437  23.990  26.591  1.00  0.00    -0.458 OA
BRANCH  23  24
ATOM     24  C   UNL A   1      41.209  25.098  26.502  1.00  0.00     0.338 C 
ATOM     25  O   UNL A   1      42.086  25.326  25.689  1.00  0.00    -0.246 OA
BRANCH  24  26
ATOM     26  C   UNL A   1      40.775  26.102  27.487  1.00  0.00     0.060 A 
ATOM     27  C   UNL A   1      41.546  27.245  27.633  1.00  0.00     0.016 A 
ATOM     28  C   UNL A   1      39.772  25.828  28.410  1.00  0.00     0.016 A 
ATOM     29  C   UNL A   1      41.454  28.016  28.783  1.00  0.00     0.010 A 
ATOM     30  C   UNL A   1      39.562  26.713  29.480  1.00  0.00     0.010 A 
ATOM     31  C   UNL A   1      40.437  27.791  29.714  1.00  0.00    -0.014 A 
BRANCH  31  32
ATOM     32  C   UNL A   1      40.330  28.660  30.928  1.00  0.00     0.031 A 
ATOM     33  C   UNL A   1      39.277  29.739  31.003  1.00  0.00     0.074 A 
ATOM     34  C   UNL A   1      41.144  28.466  31.990  1.00  0.00     0.049 A 
ATOM     35  N   UNL A   1      39.160  30.720  31.863  1.00  0.00    -0.248 NA
ATOM     36  C   UNL A   1      38.228  29.728  29.970  1.00  0.00     0.031 C 
ATOM     37  C   UNL A   1      42.168  27.422  32.107  1.00  0.00     0.029 A 
ATOM     38  N   UNL A   1      41.225  29.128  33.192  1.00  0.00    -0.354 N 
ATOM     39  C   UNL A   1      38.086  31.489  31.423  1.00  0.00     0.074 A 
ATOM     40  C   UNL A   1      37.578  30.854  30.226  1.00  0.00     0.031 C 
ATOM     41  C   UNL A   1      42.712  27.463  33.330  1.00  0.00     0.029 A 
ATOM     42  C   UNL A   1      42.186  28.621  34.037  1.00  0.00     0.049 A 
ATOM     43  H   UNL A   1      40.651  29.892  33.426  1.00  0.00     0.167 HD
ATOM     44  C   UNL A   1      37.578  32.623  31.963  1.00  0.00     0.031 A 
ATOM     45  C   UNL A   1      42.652  29.065  35.221  1.00  0.00     0.031 A 
ATOM     46  C   UNL A   1      38.052  33.215  33.188  1.00  0.00     0.049 A 
ATOM     47  C   UNL A   1      42.105  30.344  35.780  1.00  0.00     0.074 A 
ATOM     48  C   UNL A   1      37.603  34.361  33.821  1.00  0.00     0.029 A 
ATOM     49  N   UNL A   1      39.066  32.695  33.978  1.00  0.00    -0.354 N 
ATOM     50  N   UNL A   1      41.156  31.111  35.300  1.00  0.00    -0.248 NA
ATOM     51  C   UNL A   1      42.712  30.834  37.024  1.00  0.00     0.031 C 
ATOM     52  C   UNL A   1      38.377  34.559  34.970  1.00  0.00     0.029 A 
ATOM     53  C   UNL A   1      39.268  33.504  35.084  1.00  0.00     0.049 A 
ATOM     54  H   UNL A   1      39.568  31.872  33.782  1.00  0.00     0.167 HD
ATOM     55  C   UNL A   1      41.049  32.175  36.185  1.00  0.00     0.074 A 
ATOM     56  C   UNL A   1      42.010  31.937  37.245  1.00  0.00     0.031 C 
ATOM     57  C   UNL A   1      40.235  33.257  36.124  1.00  0.00     0.031 A 
BRANCH  44  58
ATOM     58  C   UNL A   1      36.491  33.336  31.198  1.00  0.00    -0.014 A 
ATOM     59  C   UNL A   1      36.687  33.812  29.890  1.00  0.00     0.010 A 
ATOM     60  C   UNL A   1      35.232  33.509  31.805  1.00  0.00     0.010 A 
ATOM     61  C   UNL A   1      35.661  34.489  29.223  1.00  0.00     0.020 A 
ATOM     62  C   UNL A   1      34.194  34.159  31.130  1.00  0.00     0.020 A 
ATOM     63  C   UNL A   1      34.423  34.664  29.850  1.00  0.00     0.054 A 
BRANCH  63  64
ATOM     64  S   UNL A   1      33.107  35.543  28.960  1.00  0.00     0.124 S 
ATOM     65  O   UNL A   1      33.863  36.558  28.233  1.00  0.00    -0.237 OA
ATOM     66  O   UNL A   1      32.517  34.490  28.138  1.00  0.00    -0.237 OA
ATOM     67  O   UNL A   1      32.247  36.051  30.026  1.00  0.00    -0.744 OA
ENDBRANCH  63  64
ENDBRANCH  44  58
BRANCH  45  68
ATOM     68  C   UNL A   1      43.749  28.329  35.909  1.00  0.00    -0.014 A 
ATOM     69  C   UNL A   1      43.463  27.295  36.817  1.00  0.00     0.010 A 
ATOM     70  C   UNL A   1      45.096  28.638  35.630  1.00  0.00     0.010 A 
ATOM     71  C   UNL A   1      44.500  26.584  37.430  1.00  0.00     0.020 A 
ATOM     72  C   UNL A   1      46.133  27.907  36.213  1.00  0.00     0.020 A 
ATOM     73  C   UNL A   1      45.828  26.890  37.118  1.00  0.00     0.054 A 
BRANCH  73  74
ATOM     74  S   UNL A   1      47.156  25.903  37.864  1.00  0.00     0.124 S 
ATOM     75  O   UNL A   1      48.332  26.385  37.145  1.00  0.00    -0.237 OA
ATOM     76  O   UNL A   1      47.076  26.280  39.273  1.00  0.00    -0.237 OA
ATOM     77  O   UNL A   1      46.762  24.527  37.572  1.00  0.00    -0.744 OA
ENDBRANCH  73  74
ENDBRANCH  45  68
BRANCH  57  78
ATOM     78  C   UNL A   1      40.330  34.247  37.252  1.00  0.00    -0.014 A 
ATOM     79  C   UNL A   1      41.190  35.356  37.176  1.00  0.00     0.010 A 
ATOM     80  C   UNL A   1      39.528  34.075  38.394  1.00  0.00     0.010 A 
ATOM     81  C   UNL A   1      41.275  36.256  38.241  1.00  0.00     0.020 A 
ATOM     82  C   UNL A   1      39.589  34.987  39.449  1.00  0.00     0.020 A 
ATOM     83  C   UNL A   1      40.476  36.063  39.372  1.00  0.00     0.054 A 
BRANCH  83  84
ATOM     84  S   UNL A   1      40.585  37.258  40.731  1.00  0.00     0.124 S 
ATOM     85  O   UNL A   1      41.046  36.421  41.836  1.00  0.00    -0.237 OA
ATOM     86  O   UNL A   1      41.554  38.229  40.229  1.00  0.00    -0.237 OA
ATOM     87  O   UNL A   1      39.218  37.761  40.861  1.00  0.00    -0.744 OA
ENDBRANCH  83  84
ENDBRANCH  57  78
ENDBRANCH  31  32
ENDBRANCH  24  26
ENDBRANCH  23  24
ENDBRANCH   1  23
TORSDOF 16
ENDMDL
