MODEL 1
REMARK VINA RESULT:     -10.3      0.000      0.000
REMARK SMILES C[C@@H](C(=O)OCCOC(=O)c1ccc(-c2c3nc(c(-c4ccc(S(=O)(=O)[O-])cc4)c4ccc([nH]4)c(-c4ccc(S(=O)(=O)[O-])cc4)c4nc(c(-c5ccc(S(=O)(=O)[O-])cc5)c5ccc2[nH]5)C=C4)C=C3)cc1)c1ccc(Cc2ccco2)cc1F
REMARK SMILES IDX 6 1 5 2 3 3 4 4 2 5 1 6 71 7 72 8 82 9 73 10 81 11 83 12
REMARK SMILES IDX 74 13 75 14 76 15 77 16 80 17 78 18 79 19 7 20 8 21 9 22
REMARK SMILES IDX 10 23 11 24 12 25 70 26 13 27 69 28 14 29 15 30 16 31 63 32
REMARK SMILES IDX 17 33 68 34 62 35 64 36 18 37 67 38 61 39 60 40 19 42 49 43
REMARK SMILES IDX 30 44 48 45 31 46 34 47 47 48 65 49 32 50 33 51 46 53 66 54
REMARK SMILES IDX 35 55 20 56 21 57 29 58 22 59 28 60 23 61 24 62 25 63 26 64
REMARK SMILES IDX 27 65 50 66 51 67 59 68 52 69 58 70 53 71 54 72 55 73 56 74
REMARK SMILES IDX 57 75 36 76 37 77 45 78 38 79 44 80 39 81 40 82 41 83 42 84
REMARK SMILES IDX 43 85
REMARK H PARENT 64 41 34 52
REMARK Flexibility Score: inf
ROOT
ATOM      1  C   UNL A   1      32.783  27.876  25.819  1.00  0.00     0.274 C 
ENDROOT
BRANCH   1   2
ATOM      2  O   UNL A   1      32.380  26.506  25.604  1.00  0.00    -0.462 OA
BRANCH   2   3
ATOM      3  C   UNL A   1      32.869  25.894  24.486  1.00  0.00     0.313 C 
ATOM      4  O   UNL A   1      34.058  25.905  24.190  1.00  0.00    -0.252 OA
BRANCH   3   5
ATOM      5  C   UNL A   1      31.753  25.292  23.597  1.00  0.00     0.129 C 
ATOM      6  C   UNL A   1      32.346  24.629  22.345  1.00  0.00     0.025 C 
BRANCH   5   7
ATOM      7  C   UNL A   1      30.617  26.291  23.326  1.00  0.00     0.002 A 
ATOM      8  C   UNL A   1      29.325  26.018  23.815  1.00  0.00     0.008 A 
ATOM      9  C   UNL A   1      30.778  27.507  22.653  1.00  0.00     0.127 A 
ATOM     10  C   UNL A   1      28.286  26.959  23.734  1.00  0.00     0.005 A 
ATOM     11  C   UNL A   1      29.739  28.440  22.545  1.00  0.00     0.043 A 
ATOM     12  F   UNL A   1      31.960  27.857  22.128  1.00  0.00    -0.207 F 
ATOM     13  C   UNL A   1      28.479  28.196  23.112  1.00  0.00    -0.038 A 
BRANCH  13  14
ATOM     14  C   UNL A   1      27.477  29.338  23.166  1.00  0.00     0.111 C 
BRANCH  14  15
ATOM     15  C   UNL A   1      27.929  30.677  22.700  1.00  0.00     0.108 A 
ATOM     16  C   UNL A   1      27.895  31.329  21.483  1.00  0.00     0.046 A 
ATOM     17  O   UNL A   1      28.389  31.529  23.663  1.00  0.00    -0.469 OA
ATOM     18  C   UNL A   1      28.363  32.644  21.714  1.00  0.00     0.042 A 
ATOM     19  C   UNL A   1      28.632  32.720  23.059  1.00  0.00     0.195 A 
ENDBRANCH  14  15
ENDBRANCH  13  14
ENDBRANCH   5   7
ENDBRANCH   3   5
ENDBRANCH   2   3
ENDBRANCH   1   2
BRANCH   1  20
ATOM     20  C   UNL A   1      33.933  27.969  26.821  1.00  0.00     0.275 C 
BRANCH  20  21
ATOM     21  O   UNL A   1      33.637  28.954  27.825  1.00  0.00    -0.458 OA
BRANCH  21  22
ATOM     22  C   UNL A   1      34.282  30.134  27.706  1.00  0.00     0.338 C 
ATOM     23  O   UNL A   1      33.805  31.219  27.402  1.00  0.00    -0.246 OA
BRANCH  22  24
ATOM     24  C   UNL A   1      35.677  29.953  28.121  1.00  0.00     0.060 A 
ATOM     25  C   UNL A   1      36.666  30.190  27.172  1.00  0.00     0.016 A 
ATOM     26  C   UNL A   1      36.015  29.480  29.390  1.00  0.00     0.016 A 
ATOM     27  C   UNL A   1      37.998  29.939  27.475  1.00  0.00     0.010 A 
ATOM     28  C   UNL A   1      37.362  29.242  29.699  1.00  0.00     0.010 A 
ATOM     29  C   UNL A   1      38.363  29.454  28.735  1.00  0.00    -0.014 A 
BRANCH  29  30
ATOM     30  C   UNL A   1      39.784  29.098  28.978  1.00  0.00     0.031 A 
ATOM     31  C   UNL A   1      40.683  30.066  29.697  1.00  0.00     0.074 A 
ATOM     32  C   UNL A   1      40.247  27.875  28.653  1.00  0.00     0.049 A 
ATOM     33  N   UNL A   1      41.958  29.959  29.971  1.00  0.00    -0.248 NA
ATOM     34  C   UNL A   1      40.062  31.308  30.182  1.00  0.00     0.031 C 
ATOM     35  C   UNL A   1      39.456  26.803  28.047  1.00  0.00     0.029 A 
ATOM     36  N   UNL A   1      41.493  27.321  28.812  1.00  0.00    -0.354 N 
ATOM     37  C   UNL A   1      42.301  31.134  30.627  1.00  0.00     0.074 A 
ATOM     38  C   UNL A   1      41.099  31.935  30.721  1.00  0.00     0.031 C 
ATOM     39  C   UNL A   1      40.229  25.712  27.914  1.00  0.00     0.029 A 
ATOM     40  C   UNL A   1      41.580  26.021  28.375  1.00  0.00     0.049 A 
ATOM     41  H   UNL A   1      42.253  27.810  29.203  1.00  0.00     0.167 HD
ATOM     42  C   UNL A   1      43.512  31.520  31.097  1.00  0.00     0.031 A 
ATOM     43  C   UNL A   1      42.634  25.180  28.331  1.00  0.00     0.031 A 
ATOM     44  C   UNL A   1      44.710  30.730  31.008  1.00  0.00     0.049 A 
ATOM     45  C   UNL A   1      43.986  25.663  28.785  1.00  0.00     0.074 A 
ATOM     46  C   UNL A   1      45.993  31.062  31.412  1.00  0.00     0.029 A 
ATOM     47  N   UNL A   1      44.777  29.449  30.483  1.00  0.00    -0.354 N 
ATOM     48  N   UNL A   1      44.311  26.808  29.335  1.00  0.00    -0.248 NA
ATOM     49  C   UNL A   1      45.119  24.746  28.585  1.00  0.00     0.031 C 
ATOM     50  C   UNL A   1      46.842  29.997  31.093  1.00  0.00     0.029 A 
ATOM     51  C   UNL A   1      46.079  28.985  30.532  1.00  0.00     0.049 A 
ATOM     52  H   UNL A   1      44.010  28.945  30.127  1.00  0.00     0.167 HD
ATOM     53  C   UNL A   1      45.684  26.746  29.549  1.00  0.00     0.074 A 
ATOM     54  C   UNL A   1      46.124  25.446  29.093  1.00  0.00     0.031 C 
ATOM     55  C   UNL A   1      46.508  27.691  30.068  1.00  0.00     0.031 A 
BRANCH  42  56
ATOM     56  C   UNL A   1      43.611  32.899  31.686  1.00  0.00    -0.014 A 
ATOM     57  C   UNL A   1      43.801  34.032  30.876  1.00  0.00     0.010 A 
ATOM     58  C   UNL A   1      43.492  33.058  33.079  1.00  0.00     0.010 A 
ATOM     59  C   UNL A   1      43.906  35.300  31.455  1.00  0.00     0.020 A 
ATOM     60  C   UNL A   1      43.579  34.326  33.658  1.00  0.00     0.020 A 
ATOM     61  C   UNL A   1      43.804  35.437  32.844  1.00  0.00     0.054 A 
BRANCH  61  62
ATOM     62  S   UNL A   1      43.941  37.091  33.575  1.00  0.00     0.124 S 
ATOM     63  O   UNL A   1      42.634  37.248  34.208  1.00  0.00    -0.237 OA
ATOM     64  O   UNL A   1      45.069  36.947  34.493  1.00  0.00    -0.237 OA
ATOM     65  O   UNL A   1      44.185  37.959  32.426  1.00  0.00    -0.744 OA
ENDBRANCH  61  62
ENDBRANCH  42  56
BRANCH  43  66
ATOM     66  C   UNL A   1      42.470  23.803  27.791  1.00  0.00    -0.014 A 
ATOM     67  C   UNL A   1      42.195  22.728  28.654  1.00  0.00     0.010 A 
ATOM     68  C   UNL A   1      42.609  23.557  26.413  1.00  0.00     0.010 A 
ATOM     69  C   UNL A   1      42.070  21.430  28.149  1.00  0.00     0.020 A 
ATOM     70  C   UNL A   1      42.460  22.267  25.902  1.00  0.00     0.020 A 
ATOM     71  C   UNL A   1      42.204  21.208  26.776  1.00  0.00     0.054 A 
BRANCH  71  72
ATOM     72  S   UNL A   1      41.988  19.527  26.128  1.00  0.00     0.124 S 
ATOM     73  O   UNL A   1      40.550  19.482  25.882  1.00  0.00    -0.237 OA
ATOM     74  O   UNL A   1      42.835  19.533  24.938  1.00  0.00    -0.237 OA
ATOM     75  O   UNL A   1      42.466  18.681  27.219  1.00  0.00    -0.744 OA
ENDBRANCH  71  72
ENDBRANCH  43  66
BRANCH  55  76
ATOM     76  C   UNL A   1      47.969  27.352  30.177  1.00  0.00    -0.014 A 
ATOM     77  C   UNL A   1      48.870  27.710  29.159  1.00  0.00     0.010 A 
ATOM     78  C   UNL A   1      48.457  26.721  31.335  1.00  0.00     0.010 A 
ATOM     79  C   UNL A   1      50.232  27.423  29.287  1.00  0.00     0.020 A 
ATOM     80  C   UNL A   1      49.821  26.449  31.476  1.00  0.00     0.020 A 
ATOM     81  C   UNL A   1      50.698  26.792  30.445  1.00  0.00     0.054 A 
BRANCH  81  82
ATOM     82  S   UNL A   1      52.477  26.474  30.614  1.00  0.00     0.124 S 
ATOM     83  O   UNL A   1      52.494  25.297  31.478  1.00  0.00    -0.237 OA
ATOM     84  O   UNL A   1      52.899  26.247  29.233  1.00  0.00    -0.237 OA
ATOM     85  O   UNL A   1      52.991  27.701  31.220  1.00  0.00    -0.744 OA
ENDBRANCH  81  82
ENDBRANCH  55  76
ENDBRANCH  29  30
ENDBRANCH  22  24
ENDBRANCH  21  22
ENDBRANCH  20  21
ENDBRANCH   1  20
TORSDOF 17
ENDMDL
MODEL 2
REMARK VINA RESULT:     -10.2      3.133      8.935
REMARK SMILES C[C@@H](C(=O)OCCOC(=O)c1ccc(-c2c3nc(c(-c4ccc(S(=O)(=O)[O-])cc4)c4ccc([nH]4)c(-c4ccc(S(=O)(=O)[O-])cc4)c4nc(c(-c5ccc(S(=O)(=O)[O-])cc5)c5ccc2[nH]5)C=C4)C=C3)cc1)c1ccc(Cc2ccco2)cc1F
REMARK SMILES IDX 6 1 5 2 3 3 4 4 2 5 1 6 71 7 72 8 82 9 73 10 81 11 83 12
REMARK SMILES IDX 74 13 75 14 76 15 77 16 80 17 78 18 79 19 7 20 8 21 9 22
REMARK SMILES IDX 10 23 11 24 12 25 70 26 13 27 69 28 14 29 15 30 16 31 63 32
REMARK SMILES IDX 17 33 68 34 62 35 64 36 18 37 67 38 61 39 60 40 19 42 49 43
REMARK SMILES IDX 30 44 48 45 31 46 34 47 47 48 65 49 32 50 33 51 46 53 66 54
REMARK SMILES IDX 35 55 20 56 21 57 29 58 22 59 28 60 23 61 24 62 25 63 26 64
REMARK SMILES IDX 27 65 50 66 51 67 59 68 52 69 58 70 53 71 54 72 55 73 56 74
REMARK SMILES IDX 57 75 36 76 37 77 45 78 38 79 44 80 39 81 40 82 41 83 42 84
REMARK SMILES IDX 43 85
REMARK H PARENT 64 41 34 52
REMARK Flexibility Score: inf
ROOT
ATOM      1  C   UNL A   1      35.686  22.424  25.911  1.00  0.00     0.274 C 
ENDROOT
BRANCH   1   2
ATOM      2  O   UNL A   1      35.690  23.581  25.048  1.00  0.00    -0.462 OA
BRANCH   2   3
ATOM      3  C   UNL A   1      35.084  23.440  23.833  1.00  0.00     0.313 C 
ATOM      4  O   UNL A   1      35.712  23.365  22.783  1.00  0.00    -0.252 OA
BRANCH   3   5
ATOM      5  C   UNL A   1      33.539  23.495  23.924  1.00  0.00     0.129 C 
ATOM      6  C   UNL A   1      32.894  23.018  22.614  1.00  0.00     0.025 C 
BRANCH   5   7
ATOM      7  C   UNL A   1      33.031  24.850  24.442  1.00  0.00     0.002 A 
ATOM      8  C   UNL A   1      32.423  24.921  25.711  1.00  0.00     0.008 A 
ATOM      9  C   UNL A   1      33.170  26.061  23.755  1.00  0.00     0.127 A 
ATOM     10  C   UNL A   1      32.080  26.148  26.301  1.00  0.00     0.005 A 
ATOM     11  C   UNL A   1      32.806  27.285  24.328  1.00  0.00     0.043 A 
ATOM     12  F   UNL A   1      33.715  26.104  22.532  1.00  0.00    -0.207 F 
ATOM     13  C   UNL A   1      32.281  27.355  25.627  1.00  0.00    -0.038 A 
BRANCH  13  14
ATOM     14  C   UNL A   1      32.130  28.723  26.274  1.00  0.00     0.111 C 
BRANCH  14  15
ATOM     15  C   UNL A   1      33.332  29.320  26.916  1.00  0.00     0.108 A 
ATOM     16  C   UNL A   1      34.617  28.871  27.149  1.00  0.00     0.046 A 
ATOM     17  O   UNL A   1      33.234  30.634  27.278  1.00  0.00    -0.469 OA
ATOM     18  C   UNL A   1      35.338  29.963  27.686  1.00  0.00     0.042 A 
ATOM     19  C   UNL A   1      34.458  31.016  27.726  1.00  0.00     0.195 A 
ENDBRANCH  14  15
ENDBRANCH  13  14
ENDBRANCH   5   7
ENDBRANCH   3   5
ENDBRANCH   2   3
ENDBRANCH   1   2
BRANCH   1  20
ATOM     20  C   UNL A   1      36.918  21.551  25.681  1.00  0.00     0.275 C 
BRANCH  20  21
ATOM     21  O   UNL A   1      38.078  22.375  25.478  1.00  0.00    -0.458 OA
BRANCH  21  22
ATOM     22  C   UNL A   1      39.175  22.042  26.190  1.00  0.00     0.338 C 
ATOM     23  O   UNL A   1      39.725  20.950  26.248  1.00  0.00    -0.246 OA
BRANCH  22  24
ATOM     24  C   UNL A   1      39.710  23.250  26.826  1.00  0.00     0.060 A 
ATOM     25  C   UNL A   1      39.213  24.476  26.397  1.00  0.00     0.016 A 
ATOM     26  C   UNL A   1      40.739  23.196  27.767  1.00  0.00     0.016 A 
ATOM     27  C   UNL A   1      39.751  25.659  26.889  1.00  0.00     0.010 A 
ATOM     28  C   UNL A   1      41.270  24.392  28.274  1.00  0.00     0.010 A 
ATOM     29  C   UNL A   1      40.790  25.633  27.824  1.00  0.00    -0.014 A 
BRANCH  29  30
ATOM     30  C   UNL A   1      41.407  26.918  28.239  1.00  0.00     0.031 A 
ATOM     31  C   UNL A   1      42.878  27.143  28.026  1.00  0.00     0.074 A 
ATOM     32  C   UNL A   1      40.641  27.923  28.709  1.00  0.00     0.049 A 
ATOM     33  N   UNL A   1      43.610  28.177  28.354  1.00  0.00    -0.248 NA
ATOM     34  C   UNL A   1      43.618  26.071  27.342  1.00  0.00     0.031 C 
ATOM     35  C   UNL A   1      39.187  27.877  28.868  1.00  0.00     0.029 A 
ATOM     36  N   UNL A   1      40.981  29.190  29.116  1.00  0.00    -0.354 N 
ATOM     37  C   UNL A   1      44.903  27.866  27.951  1.00  0.00     0.074 A 
ATOM     38  C   UNL A   1      44.853  26.553  27.343  1.00  0.00     0.031 C 
ATOM     39  C   UNL A   1      38.758  29.071  29.310  1.00  0.00     0.029 A 
ATOM     40  C   UNL A   1      39.907  29.950  29.514  1.00  0.00     0.049 A 
ATOM     41  H   UNL A   1      41.908  29.522  29.121  1.00  0.00     0.167 HD
ATOM     42  C   UNL A   1      46.033  28.601  28.087  1.00  0.00     0.031 A 
ATOM     43  C   UNL A   1      39.857  31.203  30.009  1.00  0.00     0.031 A 
ATOM     44  C   UNL A   1      46.090  29.905  28.688  1.00  0.00     0.049 A 
ATOM     45  C   UNL A   1      41.137  31.966  30.224  1.00  0.00     0.074 A 
ATOM     46  C   UNL A   1      47.200  30.702  28.913  1.00  0.00     0.029 A 
ATOM     47  N   UNL A   1      44.992  30.609  29.156  1.00  0.00    -0.354 N 
ATOM     48  N   UNL A   1      42.363  31.627  29.908  1.00  0.00    -0.248 NA
ATOM     49  C   UNL A   1      41.025  33.272  30.892  1.00  0.00     0.031 C 
ATOM     50  C   UNL A   1      46.776  31.871  29.555  1.00  0.00     0.029 A 
ATOM     51  C   UNL A   1      45.399  31.820  29.689  1.00  0.00     0.049 A 
ATOM     52  H   UNL A   1      44.060  30.294  29.115  1.00  0.00     0.167 HD
ATOM     53  C   UNL A   1      43.167  32.679  30.334  1.00  0.00     0.074 A 
ATOM     54  C   UNL A   1      42.289  33.675  30.909  1.00  0.00     0.031 C 
ATOM     55  C   UNL A   1      44.516  32.802  30.265  1.00  0.00     0.031 A 
BRANCH  42  56
ATOM     56  C   UNL A   1      47.320  27.966  27.638  1.00  0.00    -0.014 A 
ATOM     57  C   UNL A   1      47.982  27.011  28.428  1.00  0.00     0.010 A 
ATOM     58  C   UNL A   1      47.862  28.327  26.391  1.00  0.00     0.010 A 
ATOM     59  C   UNL A   1      49.187  26.453  27.991  1.00  0.00     0.020 A 
ATOM     60  C   UNL A   1      49.056  27.758  25.945  1.00  0.00     0.020 A 
ATOM     61  C   UNL A   1      49.721  26.836  26.757  1.00  0.00     0.054 A 
BRANCH  61  62
ATOM     62  S   UNL A   1      51.284  26.098  26.207  1.00  0.00     0.124 S 
ATOM     63  O   UNL A   1      51.289  24.831  26.935  1.00  0.00    -0.237 OA
ATOM     64  O   UNL A   1      51.100  25.991  24.762  1.00  0.00    -0.237 OA
ATOM     65  O   UNL A   1      52.292  27.065  26.633  1.00  0.00    -0.744 OA
ENDBRANCH  61  62
ENDBRANCH  42  56
BRANCH  43  66
ATOM     66  C   UNL A   1      38.550  31.807  30.384  1.00  0.00    -0.014 A 
ATOM     67  C   UNL A   1      37.778  32.487  29.426  1.00  0.00     0.010 A 
ATOM     68  C   UNL A   1      38.079  31.722  31.707  1.00  0.00     0.010 A 
ATOM     69  C   UNL A   1      36.564  33.079  29.786  1.00  0.00     0.020 A 
ATOM     70  C   UNL A   1      36.856  32.290  32.065  1.00  0.00     0.020 A 
ATOM     71  C   UNL A   1      36.111  32.977  31.105  1.00  0.00     0.054 A 
BRANCH  71  72
ATOM     72  S   UNL A   1      34.509  33.705  31.547  1.00  0.00     0.124 S 
ATOM     73  O   UNL A   1      33.915  32.652  32.364  1.00  0.00    -0.237 OA
ATOM     74  O   UNL A   1      34.896  34.919  32.260  1.00  0.00    -0.237 OA
ATOM     75  O   UNL A   1      33.872  33.929  30.251  1.00  0.00    -0.744 OA
ENDBRANCH  71  72
ENDBRANCH  43  66
BRANCH  55  76
ATOM     76  C   UNL A   1      45.127  34.059  30.819  1.00  0.00    -0.014 A 
ATOM     77  C   UNL A   1      45.563  34.121  32.153  1.00  0.00     0.010 A 
ATOM     78  C   UNL A   1      45.320  35.171  29.980  1.00  0.00     0.010 A 
ATOM     79  C   UNL A   1      46.164  35.284  32.647  1.00  0.00     0.020 A 
ATOM     80  C   UNL A   1      45.938  36.328  30.465  1.00  0.00     0.020 A 
ATOM     81  C   UNL A   1      46.345  36.381  31.799  1.00  0.00     0.054 A 
BRANCH  81  82
ATOM     82  S   UNL A   1      47.172  37.861  32.446  1.00  0.00     0.124 S 
ATOM     83  O   UNL A   1      46.757  37.853  33.846  1.00  0.00    -0.237 OA
ATOM     84  O   UNL A   1      48.584  37.574  32.208  1.00  0.00    -0.237 OA
ATOM     85  O   UNL A   1      46.620  38.946  31.637  1.00  0.00    -0.744 OA
ENDBRANCH  81  82
ENDBRANCH  55  76
ENDBRANCH  29  30
ENDBRANCH  22  24
ENDBRANCH  21  22
ENDBRANCH  20  21
ENDBRANCH   1  20
TORSDOF 17
ENDMDL
MODEL 3
REMARK VINA RESULT:     -10.0      4.980      7.722
REMARK SMILES C[C@@H](C(=O)OCCOC(=O)c1ccc(-c2c3nc(c(-c4ccc(S(=O)(=O)[O-])cc4)c4ccc([nH]4)c(-c4ccc(S(=O)(=O)[O-])cc4)c4nc(c(-c5ccc(S(=O)(=O)[O-])cc5)c5ccc2[nH]5)C=C4)C=C3)cc1)c1ccc(Cc2ccco2)cc1F
REMARK SMILES IDX 6 1 5 2 3 3 4 4 2 5 1 6 71 7 72 8 82 9 73 10 81 11 83 12
REMARK SMILES IDX 74 13 75 14 76 15 77 16 80 17 78 18 79 19 7 20 8 21 9 22
REMARK SMILES IDX 10 23 11 24 12 25 70 26 13 27 69 28 14 29 15 30 16 31 63 32
REMARK SMILES IDX 17 33 68 34 62 35 64 36 18 37 67 38 61 39 60 40 19 42 49 43
REMARK SMILES IDX 30 44 48 45 31 46 34 47 47 48 65 49 32 50 33 51 46 53 66 54
REMARK SMILES IDX 35 55 20 56 21 57 29 58 22 59 28 60 23 61 24 62 25 63 26 64
REMARK SMILES IDX 27 65 50 66 51 67 59 68 52 69 58 70 53 71 54 72 55 73 56 74
REMARK SMILES IDX 57 75 36 76 37 77 45 78 38 79 44 80 39 81 40 82 41 83 42 84
REMARK SMILES IDX 43 85
REMARK H PARENT 64 41 34 52
REMARK Flexibility Score: inf
ROOT
ATOM      1  C   UNL A   1      35.532  32.767  31.565  1.00  0.00     0.274 C 
ENDROOT
BRANCH   1   2
ATOM      2  O   UNL A   1      36.219  34.034  31.489  1.00  0.00    -0.462 OA
BRANCH   2   3
ATOM      3  C   UNL A   1      37.378  34.145  32.202  1.00  0.00     0.313 C 
ATOM      4  O   UNL A   1      37.540  34.985  33.079  1.00  0.00    -0.252 OA
BRANCH   3   5
ATOM      5  C   UNL A   1      38.480  33.176  31.706  1.00  0.00     0.129 C 
ATOM      6  C   UNL A   1      39.006  32.308  32.859  1.00  0.00     0.025 C 
BRANCH   5   7
ATOM      7  C   UNL A   1      39.565  33.893  30.887  1.00  0.00     0.002 A 
ATOM      8  C   UNL A   1      40.865  34.011  31.415  1.00  0.00     0.008 A 
ATOM      9  C   UNL A   1      39.371  34.412  29.602  1.00  0.00     0.127 A 
ATOM     10  C   UNL A   1      41.933  34.515  30.654  1.00  0.00     0.005 A 
ATOM     11  C   UNL A   1      40.426  34.940  28.847  1.00  0.00     0.043 A 
ATOM     12  F   UNL A   1      38.169  34.372  29.014  1.00  0.00    -0.207 F 
ATOM     13  C   UNL A   1      41.736  34.974  29.349  1.00  0.00    -0.038 A 
BRANCH  13  14
ATOM     14  C   UNL A   1      42.866  35.337  28.398  1.00  0.00     0.111 C 
BRANCH  14  15
ATOM     15  C   UNL A   1      42.910  36.730  27.877  1.00  0.00     0.108 A 
ATOM     16  C   UNL A   1      42.093  37.833  28.021  1.00  0.00     0.046 A 
ATOM     17  O   UNL A   1      44.037  37.081  27.188  1.00  0.00    -0.469 OA
ATOM     18  C   UNL A   1      42.749  38.911  27.382  1.00  0.00     0.042 A 
ATOM     19  C   UNL A   1      43.936  38.406  26.910  1.00  0.00     0.195 A 
ENDBRANCH  14  15
ENDBRANCH  13  14
ENDBRANCH   5   7
ENDBRANCH   3   5
ENDBRANCH   2   3
ENDBRANCH   1   2
BRANCH   1  20
ATOM     20  C   UNL A   1      35.518  32.057  30.213  1.00  0.00     0.275 C 
BRANCH  20  21
ATOM     21  O   UNL A   1      35.833  30.664  30.381  1.00  0.00    -0.458 OA
BRANCH  21  22
ATOM     22  C   UNL A   1      36.052  29.965  29.248  1.00  0.00     0.338 C 
ATOM     23  O   UNL A   1      35.229  29.629  28.406  1.00  0.00    -0.246 OA
BRANCH  22  24
ATOM     24  C   UNL A   1      37.495  29.750  29.098  1.00  0.00     0.060 A 
ATOM     25  C   UNL A   1      38.015  29.758  27.807  1.00  0.00     0.016 A 
ATOM     26  C   UNL A   1      38.317  29.463  30.188  1.00  0.00     0.016 A 
ATOM     27  C   UNL A   1      39.355  29.462  27.593  1.00  0.00     0.010 A 
ATOM     28  C   UNL A   1      39.673  29.179  29.971  1.00  0.00     0.010 A 
ATOM     29  C   UNL A   1      40.198  29.159  28.668  1.00  0.00    -0.014 A 
BRANCH  29  30
ATOM     30  C   UNL A   1      41.595  28.743  28.382  1.00  0.00     0.031 A 
ATOM     31  C   UNL A   1      42.718  29.727  28.564  1.00  0.00     0.074 A 
ATOM     32  C   UNL A   1      41.874  27.464  28.064  1.00  0.00     0.049 A 
ATOM     33  N   UNL A   1      43.996  29.570  28.332  1.00  0.00    -0.248 NA
ATOM     34  C   UNL A   1      42.356  31.053  29.088  1.00  0.00     0.031 C 
ATOM     35  C   UNL A   1      40.893  26.383  27.957  1.00  0.00     0.029 A 
ATOM     36  N   UNL A   1      43.075  26.853  27.796  1.00  0.00    -0.354 N 
ATOM     37  C   UNL A   1      44.587  30.787  28.646  1.00  0.00     0.074 A 
ATOM     38  C   UNL A   1      43.530  31.668  29.096  1.00  0.00     0.031 C 
ATOM     39  C   UNL A   1      41.536  25.237  27.675  1.00  0.00     0.029 A 
ATOM     40  C   UNL A   1      42.964  25.509  27.531  1.00  0.00     0.049 A 
ATOM     41  H   UNL A   1      43.934  27.333  27.795  1.00  0.00     0.167 HD
ATOM     42  C   UNL A   1      45.891  31.146  28.554  1.00  0.00     0.031 A 
ATOM     43  C   UNL A   1      43.903  24.603  27.190  1.00  0.00     0.031 A 
ATOM     44  C   UNL A   1      46.945  30.276  28.109  1.00  0.00     0.049 A 
ATOM     45  C   UNL A   1      45.331  25.047  27.017  1.00  0.00     0.074 A 
ATOM     46  C   UNL A   1      48.288  30.569  27.937  1.00  0.00     0.029 A 
ATOM     47  N   UNL A   1      46.781  28.942  27.770  1.00  0.00    -0.354 N 
ATOM     48  N   UNL A   1      45.863  26.223  27.244  1.00  0.00    -0.248 NA
ATOM     49  C   UNL A   1      46.281  24.042  26.512  1.00  0.00     0.031 C 
ATOM     50  C   UNL A   1      48.927  29.422  27.453  1.00  0.00     0.029 A 
ATOM     51  C   UNL A   1      47.991  28.404  27.368  1.00  0.00     0.049 A 
ATOM     52  H   UNL A   1      45.929  28.451  27.808  1.00  0.00     0.167 HD
ATOM     53  C   UNL A   1      47.209  26.099  26.913  1.00  0.00     0.074 A 
ATOM     54  C   UNL A   1      47.415  24.730  26.494  1.00  0.00     0.031 C 
ATOM     55  C   UNL A   1      48.184  27.041  26.945  1.00  0.00     0.031 A 
BRANCH  42  56
ATOM     56  C   UNL A   1      46.233  32.574  28.875  1.00  0.00    -0.014 A 
ATOM     57  C   UNL A   1      46.249  33.566  27.881  1.00  0.00     0.010 A 
ATOM     58  C   UNL A   1      46.526  32.924  30.206  1.00  0.00     0.010 A 
ATOM     59  C   UNL A   1      46.589  34.882  28.208  1.00  0.00     0.020 A 
ATOM     60  C   UNL A   1      46.848  34.241  30.538  1.00  0.00     0.020 A 
ATOM     61  C   UNL A   1      46.895  35.209  29.533  1.00  0.00     0.054 A 
BRANCH  61  62
ATOM     62  S   UNL A   1      47.330  36.923  29.937  1.00  0.00     0.124 S 
ATOM     63  O   UNL A   1      47.781  36.799  31.321  1.00  0.00    -0.237 OA
ATOM     64  O   UNL A   1      48.375  37.230  28.962  1.00  0.00    -0.237 OA
ATOM     65  O   UNL A   1      46.078  37.651  29.752  1.00  0.00    -0.744 OA
ENDBRANCH  61  62
ENDBRANCH  42  56
BRANCH  43  66
ATOM     66  C   UNL A   1      43.520  23.187  26.939  1.00  0.00    -0.014 A 
ATOM     67  C   UNL A   1      43.848  22.566  25.721  1.00  0.00     0.010 A 
ATOM     68  C   UNL A   1      42.808  22.459  27.910  1.00  0.00     0.010 A 
ATOM     69  C   UNL A   1      43.462  21.245  25.475  1.00  0.00     0.020 A 
ATOM     70  C   UNL A   1      42.444  21.132  27.678  1.00  0.00     0.020 A 
ATOM     71  C   UNL A   1      42.762  20.536  26.455  1.00  0.00     0.054 A 
BRANCH  71  72
ATOM     72  S   UNL A   1      42.314  18.806  26.144  1.00  0.00     0.124 S 
ATOM     73  O   UNL A   1      42.553  18.194  27.447  1.00  0.00    -0.237 OA
ATOM     74  O   UNL A   1      40.914  18.907  25.737  1.00  0.00    -0.237 OA
ATOM     75  O   UNL A   1      43.234  18.406  25.082  1.00  0.00    -0.744 OA
ENDBRANCH  71  72
ENDBRANCH  43  66
BRANCH  55  76
ATOM     76  C   UNL A   1      49.565  26.624  26.520  1.00  0.00    -0.014 A 
ATOM     77  C   UNL A   1      50.380  25.858  27.370  1.00  0.00     0.010 A 
ATOM     78  C   UNL A   1      50.029  26.953  25.234  1.00  0.00     0.010 A 
ATOM     79  C   UNL A   1      51.649  25.445  26.950  1.00  0.00     0.020 A 
ATOM     80  C   UNL A   1      51.289  26.525  24.803  1.00  0.00     0.020 A 
ATOM     81  C   UNL A   1      52.095  25.783  25.669  1.00  0.00     0.054 A 
BRANCH  81  82
ATOM     82  S   UNL A   1      53.723  25.194  25.124  1.00  0.00     0.124 S 
ATOM     83  O   UNL A   1      53.742  25.607  23.723  1.00  0.00    -0.237 OA
ATOM     84  O   UNL A   1      54.640  25.915  26.004  1.00  0.00    -0.237 OA
ATOM     85  O   UNL A   1      53.661  23.751  25.349  1.00  0.00    -0.744 OA
ENDBRANCH  81  82
ENDBRANCH  55  76
ENDBRANCH  29  30
ENDBRANCH  22  24
ENDBRANCH  21  22
ENDBRANCH  20  21
ENDBRANCH   1  20
TORSDOF 17
ENDMDL
