MODEL 1
REMARK VINA RESULT:     -11.2      0.000      0.000
REMARK SMILES CN1c2ccccc2S[C@H]2C=CC(C(=O)OCCOC(=O)c3ccc(-c4c5nc(c(-c6ccc(S(=O)(=O)[O-])cc6)c6ccc([nH]6)c(-c6ccc(S(=O)(=O)[O-])cc6)c6nc(c(-c7ccc(S(=O)(=O)[O-])cc7)c7ccc4[nH]7)C=C6)C=C5)cc3)=C[C@@H]21
REMARK SMILES IDX 19 1 18 2 17 3 16 4 14 5 15 6 13 7 1 8 2 9 3 10 83 11 4 12
REMARK SMILES IDX 8 13 10 14 82 15 5 16 7 17 9 18 11 19 6 20 12 21 20 22 21 23
REMARK SMILES IDX 22 24 23 25 81 26 24 27 80 28 25 29 26 30 27 31 74 32 28 33
REMARK SMILES IDX 79 34 73 35 75 36 29 37 78 38 72 39 71 40 30 42 60 43 41 44
REMARK SMILES IDX 59 45 42 46 45 47 58 48 76 49 43 50 44 51 57 53 77 54 46 55
REMARK SMILES IDX 31 56 32 57 40 58 33 59 39 60 34 61 35 62 36 63 37 64 38 65
REMARK SMILES IDX 61 66 62 67 70 68 63 69 69 70 64 71 65 72 66 73 67 74 68 75
REMARK SMILES IDX 47 76 48 77 56 78 49 79 55 80 50 81 51 82 52 83 53 84 54 85
REMARK H PARENT 75 41 45 52
REMARK Flexibility Score: inf
ROOT
ATOM      1  O   UNL A   1      33.929  29.032  27.131  1.00  0.00    -0.458 OA
ENDROOT
BRANCH   1   2
ATOM      2  C   UNL A   1      33.123  29.191  25.949  1.00  0.00     0.275 C 
BRANCH   2   3
ATOM      3  C   UNL A   1      33.417  28.088  24.931  1.00  0.00     0.275 C 
BRANCH   3   4
ATOM      4  O   UNL A   1      34.177  27.004  25.507  1.00  0.00    -0.458 OA
BRANCH   4   5
ATOM      5  C   UNL A   1      33.474  25.861  25.700  1.00  0.00     0.337 C 
ATOM      6  O   UNL A   1      32.334  25.789  26.138  1.00  0.00    -0.246 OA
BRANCH   5   7
ATOM      7  C   UNL A   1      34.253  24.653  25.323  1.00  0.00     0.057 C 
ATOM      8  C   UNL A   1      31.765  21.434  25.186  1.00  0.00     0.144 C 
ATOM      9  N   UNL A   1      33.169  21.171  24.897  1.00  0.00    -0.366 N 
ATOM     10  C   UNL A   1      33.606  19.846  24.719  1.00  0.00     0.051 A 
ATOM     11  C   UNL A   1      34.153  22.243  24.624  1.00  0.00     0.123 C 
ATOM     12  C   UNL A   1      32.678  18.802  24.513  1.00  0.00     0.027 A 
ATOM     13  C   UNL A   1      34.979  19.475  24.758  1.00  0.00     0.031 A 
ATOM     14  C   UNL A   1      35.367  22.054  25.575  1.00  0.00     0.101 C 
ATOM     15  C   UNL A   1      33.572  23.626  24.781  1.00  0.00     0.015 C 
ATOM     16  C   UNL A   1      33.067  17.465  24.397  1.00  0.00     0.002 A 
ATOM     17  C   UNL A   1      35.361  18.126  24.637  1.00  0.00     0.017 A 
ATOM     18  S   UNL A   1      36.340  20.642  24.986  1.00  0.00    -0.114 SA
ATOM     19  C   UNL A   1      36.219  23.294  25.728  1.00  0.00    -0.009 C 
ATOM     20  C   UNL A   1      34.408  17.124  24.470  1.00  0.00     0.001 A 
ATOM     21  C   UNL A   1      35.663  24.514  25.628  1.00  0.00     0.012 C 
ENDBRANCH   5   7
ENDBRANCH   4   5
ENDBRANCH   3   4
ENDBRANCH   2   3
ENDBRANCH   1   2
BRANCH   1  22
ATOM     22  C   UNL A   1      34.385  30.175  27.683  1.00  0.00     0.338 C 
ATOM     23  O   UNL A   1      33.766  31.220  27.846  1.00  0.00    -0.246 OA
BRANCH  22  24
ATOM     24  C   UNL A   1      35.767  29.993  28.144  1.00  0.00     0.060 A 
ATOM     25  C   UNL A   1      36.044  29.555  29.437  1.00  0.00     0.016 A 
ATOM     26  C   UNL A   1      36.798  30.123  27.219  1.00  0.00     0.016 A 
ATOM     27  C   UNL A   1      37.365  29.253  29.790  1.00  0.00     0.010 A 
ATOM     28  C   UNL A   1      38.084  29.699  27.535  1.00  0.00     0.010 A 
ATOM     29  C   UNL A   1      38.399  29.280  28.832  1.00  0.00    -0.014 A 
BRANCH  29  30
ATOM     30  C   UNL A   1      39.796  28.868  29.153  1.00  0.00     0.031 A 
ATOM     31  C   UNL A   1      40.721  29.788  29.920  1.00  0.00     0.074 A 
ATOM     32  C   UNL A   1      40.271  27.693  28.690  1.00  0.00     0.049 A 
ATOM     33  N   UNL A   1      41.979  29.609  30.241  1.00  0.00    -0.248 NA
ATOM     34  C   UNL A   1      40.188  31.097  30.337  1.00  0.00     0.031 C 
ATOM     35  C   UNL A   1      39.530  26.753  27.845  1.00  0.00     0.029 A 
ATOM     36  N   UNL A   1      41.487  27.077  28.874  1.00  0.00    -0.354 N 
ATOM     37  C   UNL A   1      42.387  30.787  30.859  1.00  0.00     0.074 A 
ATOM     38  C   UNL A   1      41.271  31.701  30.804  1.00  0.00     0.031 C 
ATOM     39  C   UNL A   1      40.270  25.651  27.654  1.00  0.00     0.029 A 
ATOM     40  C   UNL A   1      41.557  25.818  28.323  1.00  0.00     0.049 A 
ATOM     41  H   UNL A   1      42.237  27.498  29.354  1.00  0.00     0.167 HD
ATOM     42  C   UNL A   1      43.568  31.070  31.459  1.00  0.00     0.031 A 
ATOM     43  C   UNL A   1      42.531  24.887  28.369  1.00  0.00     0.031 A 
ATOM     44  C   UNL A   1      44.647  30.129  31.590  1.00  0.00     0.049 A 
ATOM     45  C   UNL A   1      43.793  25.177  29.128  1.00  0.00     0.074 A 
ATOM     46  C   UNL A   1      45.843  30.287  32.268  1.00  0.00     0.029 A 
ATOM     47  N   UNL A   1      44.651  28.846  31.064  1.00  0.00    -0.354 N 
ATOM     48  N   UNL A   1      44.132  26.274  29.763  1.00  0.00    -0.248 NA
ATOM     49  C   UNL A   1      44.798  24.107  29.195  1.00  0.00     0.031 C 
ATOM     50  C   UNL A   1      46.585  29.114  32.124  1.00  0.00     0.029 A 
ATOM     51  C   UNL A   1      45.828  28.204  31.401  1.00  0.00     0.049 A 
ATOM     52  H   UNL A   1      43.923  28.451  30.530  1.00  0.00     0.167 HD
ATOM     53  C   UNL A   1      45.381  26.022  30.317  1.00  0.00     0.074 A 
ATOM     54  C   UNL A   1      45.732  24.663  29.959  1.00  0.00     0.031 C 
ATOM     55  C   UNL A   1      46.165  26.847  31.050  1.00  0.00     0.031 A 
BRANCH  42  56
ATOM     56  C   UNL A   1      43.744  32.430  32.088  1.00  0.00    -0.014 A 
ATOM     57  C   UNL A   1      44.357  33.469  31.364  1.00  0.00     0.010 A 
ATOM     58  C   UNL A   1      43.403  32.649  33.436  1.00  0.00     0.010 A 
ATOM     59  C   UNL A   1      44.641  34.694  31.979  1.00  0.00     0.020 A 
ATOM     60  C   UNL A   1      43.656  33.880  34.045  1.00  0.00     0.020 A 
ATOM     61  C   UNL A   1      44.295  34.888  33.318  1.00  0.00     0.054 A 
BRANCH  61  62
ATOM     62  S   UNL A   1      44.677  36.475  34.110  1.00  0.00     0.124 S 
ATOM     63  O   UNL A   1      45.290  36.054  35.365  1.00  0.00    -0.237 OA
ATOM     64  O   UNL A   1      45.575  37.108  33.147  1.00  0.00    -0.237 OA
ATOM     65  O   UNL A   1      43.368  37.114  34.236  1.00  0.00    -0.744 OA
ENDBRANCH  61  62
ENDBRANCH  42  56
BRANCH  43  66
ATOM     66  C   UNL A   1      42.286  23.554  27.749  1.00  0.00    -0.014 A 
ATOM     67  C   UNL A   1      41.674  22.519  28.478  1.00  0.00     0.010 A 
ATOM     68  C   UNL A   1      42.761  23.289  26.452  1.00  0.00     0.010 A 
ATOM     69  C   UNL A   1      41.589  21.231  27.942  1.00  0.00     0.020 A 
ATOM     70  C   UNL A   1      42.656  22.009  25.902  1.00  0.00     0.020 A 
ATOM     71  C   UNL A   1      42.097  20.980  26.664  1.00  0.00     0.054 A 
BRANCH  71  72
ATOM     72  S   UNL A   1      42.035  19.289  26.010  1.00  0.00     0.124 S 
ATOM     73  O   UNL A   1      42.579  18.518  27.124  1.00  0.00    -0.237 OA
ATOM     74  O   UNL A   1      40.611  19.097  25.747  1.00  0.00    -0.237 OA
ATOM     75  O   UNL A   1      42.881  19.351  24.821  1.00  0.00    -0.744 OA
ENDBRANCH  71  72
ENDBRANCH  43  66
BRANCH  55  76
ATOM     76  C   UNL A   1      47.491  26.329  31.538  1.00  0.00    -0.014 A 
ATOM     77  C   UNL A   1      48.598  26.323  30.670  1.00  0.00     0.010 A 
ATOM     78  C   UNL A   1      47.597  25.707  32.795  1.00  0.00     0.010 A 
ATOM     79  C   UNL A   1      49.777  25.668  31.031  1.00  0.00     0.020 A 
ATOM     80  C   UNL A   1      48.784  25.071  33.168  1.00  0.00     0.020 A 
ATOM     81  C   UNL A   1      49.856  25.032  32.273  1.00  0.00     0.054 A 
BRANCH  81  82
ATOM     82  S   UNL A   1      51.375  24.139  32.705  1.00  0.00     0.124 S 
ATOM     83  O   UNL A   1      51.448  24.340  34.150  1.00  0.00    -0.237 OA
ATOM     84  O   UNL A   1      51.081  22.775  32.274  1.00  0.00    -0.237 OA
ATOM     85  O   UNL A   1      52.406  24.821  31.926  1.00  0.00    -0.744 OA
ENDBRANCH  81  82
ENDBRANCH  55  76
ENDBRANCH  29  30
ENDBRANCH  22  24
ENDBRANCH   1  22
TORSDOF 14
ENDMDL
MODEL 2
REMARK VINA RESULT:     -11.0      1.157      2.122
REMARK SMILES CN1c2ccccc2S[C@H]2C=CC(C(=O)OCCOC(=O)c3ccc(-c4c5nc(c(-c6ccc(S(=O)(=O)[O-])cc6)c6ccc([nH]6)c(-c6ccc(S(=O)(=O)[O-])cc6)c6nc(c(-c7ccc(S(=O)(=O)[O-])cc7)c7ccc4[nH]7)C=C6)C=C5)cc3)=C[C@@H]21
REMARK SMILES IDX 19 1 18 2 17 3 16 4 14 5 15 6 13 7 1 8 2 9 3 10 83 11 4 12
REMARK SMILES IDX 8 13 10 14 82 15 5 16 7 17 9 18 11 19 6 20 12 21 20 22 21 23
REMARK SMILES IDX 22 24 23 25 81 26 24 27 80 28 25 29 26 30 27 31 74 32 28 33
REMARK SMILES IDX 79 34 73 35 75 36 29 37 78 38 72 39 71 40 30 42 60 43 41 44
REMARK SMILES IDX 59 45 42 46 45 47 58 48 76 49 43 50 44 51 57 53 77 54 46 55
REMARK SMILES IDX 31 56 32 57 40 58 33 59 39 60 34 61 35 62 36 63 37 64 38 65
REMARK SMILES IDX 61 66 62 67 70 68 63 69 69 70 64 71 65 72 66 73 67 74 68 75
REMARK SMILES IDX 47 76 48 77 56 78 49 79 55 80 50 81 51 82 52 83 53 84 54 85
REMARK H PARENT 75 41 45 52
REMARK Flexibility Score: inf
ROOT
ATOM      1  O   UNL A   1      33.430  29.894  27.464  1.00  0.00    -0.458 OA
ENDROOT
BRANCH   1   2
ATOM      2  C   UNL A   1      32.376  30.424  26.639  1.00  0.00     0.275 C 
BRANCH   2   3
ATOM      3  C   UNL A   1      31.748  29.327  25.778  1.00  0.00     0.275 C 
BRANCH   3   4
ATOM      4  O   UNL A   1      32.240  29.352  24.421  1.00  0.00    -0.458 OA
BRANCH   4   5
ATOM      5  C   UNL A   1      33.157  28.397  24.133  1.00  0.00     0.337 C 
ATOM      6  O   UNL A   1      34.347  28.590  23.920  1.00  0.00    -0.246 OA
BRANCH   5   7
ATOM      7  C   UNL A   1      32.558  27.037  24.092  1.00  0.00     0.057 C 
ATOM      8  C   UNL A   1      35.399  24.282  25.045  1.00  0.00     0.144 C 
ATOM      9  N   UNL A   1      34.078  23.755  24.722  1.00  0.00    -0.366 N 
ATOM     10  C   UNL A   1      33.887  22.365  24.631  1.00  0.00     0.051 A 
ATOM     11  C   UNL A   1      32.869  24.605  24.632  1.00  0.00     0.123 C 
ATOM     12  C   UNL A   1      34.854  21.470  25.137  1.00  0.00     0.027 A 
ATOM     13  C   UNL A   1      32.745  21.782  24.016  1.00  0.00     0.031 A 
ATOM     14  C   UNL A   1      32.186  24.349  23.261  1.00  0.00     0.101 C 
ATOM     15  C   UNL A   1      33.170  26.073  24.804  1.00  0.00     0.015 C 
ATOM     16  C   UNL A   1      34.733  20.083  25.009  1.00  0.00     0.002 A 
ATOM     17  C   UNL A   1      32.630  20.385  23.894  1.00  0.00     0.017 A 
ATOM     18  S   UNL A   1      31.371  22.729  23.322  1.00  0.00    -0.114 SA
ATOM     19  C   UNL A   1      31.226  25.441  22.845  1.00  0.00    -0.009 C 
ATOM     20  C   UNL A   1      33.626  19.540  24.377  1.00  0.00     0.001 A 
ATOM     21  C   UNL A   1      31.438  26.711  23.233  1.00  0.00     0.012 C 
ENDBRANCH   5   7
ENDBRANCH   4   5
ENDBRANCH   3   4
ENDBRANCH   2   3
ENDBRANCH   1   2
BRANCH   1  22
ATOM     22  C   UNL A   1      34.294  30.803  27.960  1.00  0.00     0.338 C 
ATOM     23  O   UNL A   1      34.056  31.967  28.262  1.00  0.00    -0.246 OA
BRANCH  22  24
ATOM     24  C   UNL A   1      35.610  30.186  28.162  1.00  0.00     0.060 A 
ATOM     25  C   UNL A   1      36.577  30.207  27.159  1.00  0.00     0.016 A 
ATOM     26  C   UNL A   1      35.933  29.708  29.428  1.00  0.00     0.016 A 
ATOM     27  C   UNL A   1      37.867  29.740  27.442  1.00  0.00     0.010 A 
ATOM     28  C   UNL A   1      37.245  29.369  29.738  1.00  0.00     0.010 A 
ATOM     29  C   UNL A   1      38.231  29.354  28.748  1.00  0.00    -0.014 A 
BRANCH  29  30
ATOM     30  C   UNL A   1      39.623  28.946  29.101  1.00  0.00     0.031 A 
ATOM     31  C   UNL A   1      40.528  29.871  29.884  1.00  0.00     0.074 A 
ATOM     32  C   UNL A   1      40.110  27.771  28.651  1.00  0.00     0.049 A 
ATOM     33  N   UNL A   1      41.779  29.696  30.233  1.00  0.00    -0.248 NA
ATOM     34  C   UNL A   1      39.983  31.180  30.285  1.00  0.00     0.031 C 
ATOM     35  C   UNL A   1      39.390  26.827  27.794  1.00  0.00     0.029 A 
ATOM     36  N   UNL A   1      41.323  27.159  28.865  1.00  0.00    -0.354 N 
ATOM     37  C   UNL A   1      42.172  30.878  30.856  1.00  0.00     0.074 A 
ATOM     38  C   UNL A   1      41.054  31.788  30.774  1.00  0.00     0.031 C 
ATOM     39  C   UNL A   1      40.137  25.726  27.623  1.00  0.00     0.029 A 
ATOM     40  C   UNL A   1      41.408  25.898  28.319  1.00  0.00     0.049 A 
ATOM     41  H   UNL A   1      42.061  27.583  29.359  1.00  0.00     0.167 HD
ATOM     42  C   UNL A   1      43.338  31.165  31.481  1.00  0.00     0.031 A 
ATOM     43  C   UNL A   1      42.384  24.969  28.389  1.00  0.00     0.031 A 
ATOM     44  C   UNL A   1      44.416  30.227  31.638  1.00  0.00     0.049 A 
ATOM     45  C   UNL A   1      43.628  25.266  29.175  1.00  0.00     0.074 A 
ATOM     46  C   UNL A   1      45.597  30.391  32.341  1.00  0.00     0.029 A 
ATOM     47  N   UNL A   1      44.435  28.942  31.117  1.00  0.00    -0.354 N 
ATOM     48  N   UNL A   1      43.950  26.365  29.813  1.00  0.00    -0.248 NA
ATOM     49  C   UNL A   1      44.634  24.198  29.267  1.00  0.00     0.031 C 
ATOM     50  C   UNL A   1      46.345  29.219  32.217  1.00  0.00     0.029 A 
ATOM     51  C   UNL A   1      45.606  28.304  31.482  1.00  0.00     0.049 A 
ATOM     52  H   UNL A   1      43.720  28.544  30.569  1.00  0.00     0.167 HD
ATOM     53  C   UNL A   1      45.188  26.118  30.395  1.00  0.00     0.074 A 
ATOM     54  C   UNL A   1      45.550  24.758  30.050  1.00  0.00     0.031 C 
ATOM     55  C   UNL A   1      45.954  26.948  31.142  1.00  0.00     0.031 A 
BRANCH  42  56
ATOM     56  C   UNL A   1      43.497  32.528  32.109  1.00  0.00    -0.014 A 
ATOM     57  C   UNL A   1      43.118  32.737  33.448  1.00  0.00     0.010 A 
ATOM     58  C   UNL A   1      43.918  33.629  31.341  1.00  0.00     0.010 A 
ATOM     59  C   UNL A   1      43.140  34.022  34.001  1.00  0.00     0.020 A 
ATOM     60  C   UNL A   1      43.971  34.909  31.898  1.00  0.00     0.020 A 
ATOM     61  C   UNL A   1      43.559  35.101  33.219  1.00  0.00     0.054 A 
BRANCH  61  62
ATOM     62  S   UNL A   1      43.575  36.765  33.941  1.00  0.00     0.124 S 
ATOM     63  O   UNL A   1      43.921  37.596  32.793  1.00  0.00    -0.237 OA
ATOM     64  O   UNL A   1      42.209  36.912  34.440  1.00  0.00    -0.237 OA
ATOM     65  O   UNL A   1      44.598  36.674  34.980  1.00  0.00    -0.744 OA
ENDBRANCH  61  62
ENDBRANCH  42  56
BRANCH  43  66
ATOM     66  C   UNL A   1      42.155  23.634  27.769  1.00  0.00    -0.014 A 
ATOM     67  C   UNL A   1      41.570  22.586  28.502  1.00  0.00     0.010 A 
ATOM     68  C   UNL A   1      42.621  23.381  26.466  1.00  0.00     0.010 A 
ATOM     69  C   UNL A   1      41.502  21.298  27.963  1.00  0.00     0.020 A 
ATOM     70  C   UNL A   1      42.531  22.100  25.914  1.00  0.00     0.020 A 
ATOM     71  C   UNL A   1      42.000  21.059  26.679  1.00  0.00     0.054 A 
BRANCH  71  72
ATOM     72  S   UNL A   1      41.961  19.369  26.021  1.00  0.00     0.124 S 
ATOM     73  O   UNL A   1      42.829  19.484  24.853  1.00  0.00    -0.237 OA
ATOM     74  O   UNL A   1      42.495  18.580  27.128  1.00  0.00    -0.237 OA
ATOM     75  O   UNL A   1      40.546  19.149  25.730  1.00  0.00    -0.744 OA
ENDBRANCH  71  72
ENDBRANCH  43  66
BRANCH  55  76
ATOM     76  C   UNL A   1      47.270  26.435  31.661  1.00  0.00    -0.014 A 
ATOM     77  C   UNL A   1      48.393  26.418  30.814  1.00  0.00     0.010 A 
ATOM     78  C   UNL A   1      47.352  25.826  32.925  1.00  0.00     0.010 A 
ATOM     79  C   UNL A   1      49.565  25.767  31.204  1.00  0.00     0.020 A 
ATOM     80  C   UNL A   1      48.531  25.194  33.328  1.00  0.00     0.020 A 
ATOM     81  C   UNL A   1      49.621  25.144  32.454  1.00  0.00     0.054 A 
BRANCH  81  82
ATOM     82  S   UNL A   1      51.131  24.256  32.924  1.00  0.00     0.124 S 
ATOM     83  O   UNL A   1      50.956  24.096  34.365  1.00  0.00    -0.237 OA
ATOM     84  O   UNL A   1      51.040  23.028  32.140  1.00  0.00    -0.237 OA
ATOM     85  O   UNL A   1      52.201  25.165  32.522  1.00  0.00    -0.744 OA
ENDBRANCH  81  82
ENDBRANCH  55  76
ENDBRANCH  29  30
ENDBRANCH  22  24
ENDBRANCH   1  22
TORSDOF 14
ENDMDL
MODEL 3
REMARK VINA RESULT:     -11.0      4.501      9.809
REMARK SMILES CN1c2ccccc2S[C@H]2C=CC(C(=O)OCCOC(=O)c3ccc(-c4c5nc(c(-c6ccc(S(=O)(=O)[O-])cc6)c6ccc([nH]6)c(-c6ccc(S(=O)(=O)[O-])cc6)c6nc(c(-c7ccc(S(=O)(=O)[O-])cc7)c7ccc4[nH]7)C=C6)C=C5)cc3)=C[C@@H]21
REMARK SMILES IDX 19 1 18 2 17 3 16 4 14 5 15 6 13 7 1 8 2 9 3 10 83 11 4 12
REMARK SMILES IDX 8 13 10 14 82 15 5 16 7 17 9 18 11 19 6 20 12 21 20 22 21 23
REMARK SMILES IDX 22 24 23 25 81 26 24 27 80 28 25 29 26 30 27 31 74 32 28 33
REMARK SMILES IDX 79 34 73 35 75 36 29 37 78 38 72 39 71 40 30 42 60 43 41 44
REMARK SMILES IDX 59 45 42 46 45 47 58 48 76 49 43 50 44 51 57 53 77 54 46 55
REMARK SMILES IDX 31 56 32 57 40 58 33 59 39 60 34 61 35 62 36 63 37 64 38 65
REMARK SMILES IDX 61 66 62 67 70 68 63 69 69 70 64 71 65 72 66 73 67 74 68 75
REMARK SMILES IDX 47 76 48 77 56 78 49 79 55 80 50 81 51 82 52 83 53 84 54 85
REMARK H PARENT 75 41 45 52
REMARK Flexibility Score: inf
ROOT
ATOM      1  O   UNL A   1      39.372  23.854  26.492  1.00  0.00    -0.458 OA
ENDROOT
BRANCH   1   2
ATOM      2  C   UNL A   1      39.626  22.438  26.529  1.00  0.00     0.275 C 
BRANCH   2   3
ATOM      3  C   UNL A   1      38.619  21.676  25.665  1.00  0.00     0.275 C 
BRANCH   3   4
ATOM      4  O   UNL A   1      37.257  22.064  25.947  1.00  0.00    -0.458 OA
BRANCH   4   5
ATOM      5  C   UNL A   1      36.320  21.169  25.551  1.00  0.00     0.337 C 
ATOM      6  O   UNL A   1      36.544  20.073  25.056  1.00  0.00    -0.246 OA
BRANCH   5   7
ATOM      7  C   UNL A   1      34.938  21.667  25.773  1.00  0.00     0.057 C 
ATOM      8  C   UNL A   1      34.105  24.592  23.067  1.00  0.00     0.144 C 
ATOM      9  N   UNL A   1      33.049  24.285  24.024  1.00  0.00    -0.366 N 
ATOM     10  C   UNL A   1      31.885  25.073  24.050  1.00  0.00     0.051 A 
ATOM     11  C   UNL A   1      33.062  23.079  24.882  1.00  0.00     0.123 C 
ATOM     12  C   UNL A   1      31.583  25.951  22.986  1.00  0.00     0.027 A 
ATOM     13  C   UNL A   1      30.967  25.057  25.137  1.00  0.00     0.031 A 
ATOM     14  C   UNL A   1      32.869  23.522  26.359  1.00  0.00     0.101 C 
ATOM     15  C   UNL A   1      34.325  22.269  24.736  1.00  0.00     0.015 C 
ATOM     16  C   UNL A   1      30.472  26.797  23.003  1.00  0.00     0.002 A 
ATOM     17  C   UNL A   1      29.848  25.910  25.144  1.00  0.00     0.017 A 
ATOM     18  S   UNL A   1      31.135  23.998  26.591  1.00  0.00    -0.114 SA
ATOM     19  C   UNL A   1      33.303  22.481  27.367  1.00  0.00    -0.009 C 
ATOM     20  C   UNL A   1      29.609  26.786  24.087  1.00  0.00     0.001 A 
ATOM     21  C   UNL A   1      34.301  21.630  27.074  1.00  0.00     0.012 C 
ENDBRANCH   5   7
ENDBRANCH   4   5
ENDBRANCH   3   4
ENDBRANCH   2   3
ENDBRANCH   1   2
BRANCH   1  22
ATOM     22  C   UNL A   1      40.464  24.643  26.556  1.00  0.00     0.338 C 
ATOM     23  O   UNL A   1      41.484  24.557  25.882  1.00  0.00    -0.246 OA
BRANCH  22  24
ATOM     24  C   UNL A   1      40.255  25.710  27.543  1.00  0.00     0.060 A 
ATOM     25  C   UNL A   1      39.351  25.554  28.591  1.00  0.00     0.016 A 
ATOM     26  C   UNL A   1      41.084  26.826  27.500  1.00  0.00     0.016 A 
ATOM     27  C   UNL A   1      39.289  26.532  29.593  1.00  0.00     0.010 A 
ATOM     28  C   UNL A   1      41.109  27.725  28.561  1.00  0.00     0.010 A 
ATOM     29  C   UNL A   1      40.197  27.610  29.614  1.00  0.00    -0.014 A 
BRANCH  29  30
ATOM     30  C   UNL A   1      40.220  28.612  30.719  1.00  0.00     0.031 A 
ATOM     31  C   UNL A   1      39.213  29.741  30.766  1.00  0.00     0.074 A 
ATOM     32  C   UNL A   1      41.196  28.561  31.649  1.00  0.00     0.049 A 
ATOM     33  N   UNL A   1      39.121  30.725  31.627  1.00  0.00    -0.248 NA
ATOM     34  C   UNL A   1      38.213  29.808  29.686  1.00  0.00     0.031 C 
ATOM     35  C   UNL A   1      42.298  27.595  31.669  1.00  0.00     0.029 A 
ATOM     36  N   UNL A   1      41.415  29.328  32.769  1.00  0.00    -0.354 N 
ATOM     37  C   UNL A   1      38.085  31.536  31.171  1.00  0.00     0.074 A 
ATOM     38  C   UNL A   1      37.628  30.974  29.922  1.00  0.00     0.031 C 
ATOM     39  C   UNL A   1      43.023  27.774  32.783  1.00  0.00     0.029 A 
ATOM     40  C   UNL A   1      42.470  28.894  33.539  1.00  0.00     0.049 A 
ATOM     41  H   UNL A   1      40.869  30.115  32.998  1.00  0.00     0.167 HD
ATOM     42  C   UNL A   1      37.533  32.624  31.758  1.00  0.00     0.031 A 
ATOM     43  C   UNL A   1      42.930  29.324  34.731  1.00  0.00     0.031 A 
ATOM     44  C   UNL A   1      37.931  33.131  33.043  1.00  0.00     0.049 A 
ATOM     45  C   UNL A   1      42.239  30.466  35.419  1.00  0.00     0.074 A 
ATOM     46  C   UNL A   1      37.365  34.166  33.768  1.00  0.00     0.029 A 
ATOM     47  N   UNL A   1      38.968  32.624  33.811  1.00  0.00    -0.354 N 
ATOM     48  N   UNL A   1      41.219  31.176  35.000  1.00  0.00    -0.248 NA
ATOM     49  C   UNL A   1      42.744  30.858  36.742  1.00  0.00     0.031 C 
ATOM     50  C   UNL A   1      38.081  34.307  34.958  1.00  0.00     0.029 A 
ATOM     51  C   UNL A   1      39.058  33.325  35.000  1.00  0.00     0.049 A 
ATOM     52  H   UNL A   1      39.552  31.876  33.549  1.00  0.00     0.167 HD
ATOM     53  C   UNL A   1      40.950  32.089  36.014  1.00  0.00     0.074 A 
ATOM     54  C   UNL A   1      41.902  31.830  37.074  1.00  0.00     0.031 C 
ATOM     55  C   UNL A   1      40.003  33.055  36.055  1.00  0.00     0.031 A 
BRANCH  42  56
ATOM     56  C   UNL A   1      36.386  33.311  31.058  1.00  0.00    -0.014 A 
ATOM     57  C   UNL A   1      36.585  33.915  29.803  1.00  0.00     0.010 A 
ATOM     58  C   UNL A   1      35.138  33.455  31.692  1.00  0.00     0.010 A 
ATOM     59  C   UNL A   1      35.566  34.664  29.204  1.00  0.00     0.020 A 
ATOM     60  C   UNL A   1      34.108  34.175  31.084  1.00  0.00     0.020 A 
ATOM     61  C   UNL A   1      34.336  34.795  29.853  1.00  0.00     0.054 A 
BRANCH  61  62
ATOM     62  S   UNL A   1      33.024  35.776  29.074  1.00  0.00     0.124 S 
ATOM     63  O   UNL A   1      32.371  34.793  28.217  1.00  0.00    -0.237 OA
ATOM     64  O   UNL A   1      32.242  36.236  30.220  1.00  0.00    -0.237 OA
ATOM     65  O   UNL A   1      33.758  36.828  28.374  1.00  0.00    -0.744 OA
ENDBRANCH  61  62
ENDBRANCH  42  56
BRANCH  43  66
ATOM     66  C   UNL A   1      44.050  28.587  35.381  1.00  0.00    -0.014 A 
ATOM     67  C   UNL A   1      45.388  28.933  35.124  1.00  0.00     0.010 A 
ATOM     68  C   UNL A   1      43.775  27.465  36.183  1.00  0.00     0.010 A 
ATOM     69  C   UNL A   1      46.431  28.142  35.615  1.00  0.00     0.020 A 
ATOM     70  C   UNL A   1      44.815  26.685  36.696  1.00  0.00     0.020 A 
ATOM     71  C   UNL A   1      46.136  27.011  36.383  1.00  0.00     0.054 A 
BRANCH  71  72
ATOM     72  S   UNL A   1      47.499  25.959  36.957  1.00  0.00     0.124 S 
ATOM     73  O   UNL A   1      48.647  26.573  36.296  1.00  0.00    -0.237 OA
ATOM     74  O   UNL A   1      47.443  26.125  38.408  1.00  0.00    -0.237 OA
ATOM     75  O   UNL A   1      47.133  24.632  36.472  1.00  0.00    -0.744 OA
ENDBRANCH  71  72
ENDBRANCH  43  66
BRANCH  55  76
ATOM     76  C   UNL A   1      39.917  33.922  37.280  1.00  0.00    -0.014 A 
ATOM     77  C   UNL A   1      39.221  33.461  38.413  1.00  0.00     0.010 A 
ATOM     78  C   UNL A   1      40.384  35.248  37.254  1.00  0.00     0.010 A 
ATOM     79  C   UNL A   1      38.959  34.319  39.482  1.00  0.00     0.020 A 
ATOM     80  C   UNL A   1      40.143  36.103  38.332  1.00  0.00     0.020 A 
ATOM     81  C   UNL A   1      39.408  35.641  39.427  1.00  0.00     0.054 A 
BRANCH  81  82
ATOM     82  S   UNL A   1      39.011  36.760  40.799  1.00  0.00     0.124 S 
ATOM     83  O   UNL A   1      38.024  35.988  41.548  1.00  0.00    -0.237 OA
ATOM     84  O   UNL A   1      40.304  36.935  41.456  1.00  0.00    -0.237 OA
ATOM     85  O   UNL A   1      38.496  37.952  40.129  1.00  0.00    -0.744 OA
ENDBRANCH  81  82
ENDBRANCH  55  76
ENDBRANCH  29  30
ENDBRANCH  22  24
ENDBRANCH   1  22
TORSDOF 14
ENDMDL
