MODEL 1
REMARK VINA RESULT:     -11.3      0.000      0.000
REMARK SMILES O=C(OCCOC(=O)c1cccc(CN2C(=O)S/C(=C/c3ccc(Cl)cc3)C2=O)c1)c1ccc(-c2c3nc(c(-c4ccc(S(=O)(=O)[O-])cc4)c4ccc([nH]4)c(-c4ccc(S(=O)(=O)[O-])cc4)c4nc(c(-c5ccc(S(=O)(=O)[O-])cc5)c5ccc2[nH]5)C=C4)C=C3)cc1
REMARK SMILES IDX 4 1 3 2 2 3 1 4 31 5 32 6 90 7 33 8 89 9 34 10 35 11 36 12
REMARK SMILES IDX 83 13 37 14 88 15 82 16 84 17 38 18 87 19 81 20 80 21 39 23
REMARK SMILES IDX 69 24 50 25 68 26 51 27 54 28 67 29 85 30 52 31 53 32 66 34
REMARK SMILES IDX 86 35 55 36 40 37 41 38 49 39 42 40 48 41 43 42 44 43 45 44
REMARK SMILES IDX 46 45 47 46 70 47 71 48 79 49 72 50 78 51 73 52 74 53 75 54
REMARK SMILES IDX 76 55 77 56 56 57 57 58 65 59 58 60 64 61 59 62 60 63 61 64
REMARK SMILES IDX 62 65 63 66 5 67 6 68 7 69 8 70 9 71 10 72 30 73 11 74 13 75
REMARK SMILES IDX 12 76 14 77 15 78 16 79 28 80 17 81 18 82 19 83 29 84 20 85
REMARK SMILES IDX 21 86 22 87 27 88 23 89 26 90 24 91 25 92
REMARK H PARENT 84 22 54 33
REMARK Flexibility Score: inf
ROOT
ATOM      1  C   UNL A   1      42.483  18.461  26.067  1.00  0.00     0.275 C 
ENDROOT
BRANCH   1   2
ATOM      2  O   UNL A   1      43.869  18.727  25.804  1.00  0.00    -0.458 OA
BRANCH   2   3
ATOM      3  C   UNL A   1      44.425  19.538  24.873  1.00  0.00     0.338 C 
ATOM      4  O   UNL A   1      44.990  19.015  23.912  1.00  0.00    -0.246 OA
BRANCH   3   5
ATOM      5  C   UNL A   1      44.526  21.030  25.018  1.00  0.00     0.060 A 
ATOM      6  C   UNL A   1      44.641  21.966  23.986  1.00  0.00     0.016 A 
ATOM      7  C   UNL A   1      44.468  21.521  26.333  1.00  0.00     0.016 A 
ATOM      8  C   UNL A   1      44.618  23.343  24.234  1.00  0.00     0.010 A 
ATOM      9  C   UNL A   1      44.431  22.893  26.589  1.00  0.00     0.010 A 
ATOM     10  C   UNL A   1      44.514  23.816  25.536  1.00  0.00    -0.014 A 
BRANCH  10  11
ATOM     11  C   UNL A   1      44.734  25.245  25.844  1.00  0.00     0.031 A 
ATOM     12  C   UNL A   1      46.156  25.698  25.971  1.00  0.00     0.074 A 
ATOM     13  C   UNL A   1      43.728  26.126  26.000  1.00  0.00     0.049 A 
ATOM     14  N   UNL A   1      46.622  26.838  26.392  1.00  0.00    -0.248 NA
ATOM     15  C   UNL A   1      47.186  24.742  25.525  1.00  0.00     0.031 C 
ATOM     16  C   UNL A   1      42.319  25.886  25.707  1.00  0.00     0.029 A 
ATOM     17  N   UNL A   1      43.738  27.394  26.531  1.00  0.00    -0.354 N 
ATOM     18  C   UNL A   1      47.995  26.756  26.216  1.00  0.00     0.074 A 
ATOM     19  C   UNL A   1      48.297  25.420  25.758  1.00  0.00     0.031 C 
ATOM     20  C   UNL A   1      41.584  26.896  26.214  1.00  0.00     0.029 A 
ATOM     21  C   UNL A   1      42.477  27.841  26.863  1.00  0.00     0.049 A 
ATOM     22  H   UNL A   1      44.556  27.926  26.661  1.00  0.00     0.167 HD
ATOM     23  C   UNL A   1      48.916  27.733  26.366  1.00  0.00     0.031 A 
ATOM     24  C   UNL A   1      42.102  28.857  27.664  1.00  0.00     0.031 A 
ATOM     25  C   UNL A   1      48.593  29.039  26.861  1.00  0.00     0.049 A 
ATOM     26  C   UNL A   1      43.161  29.818  28.124  1.00  0.00     0.074 A 
ATOM     27  C   UNL A   1      49.426  30.125  27.044  1.00  0.00     0.029 A 
ATOM     28  N   UNL A   1      47.326  29.422  27.282  1.00  0.00    -0.354 N 
ATOM     29  N   UNL A   1      44.456  29.756  27.927  1.00  0.00    -0.248 NA
ATOM     30  C   UNL A   1      42.709  31.023  28.830  1.00  0.00     0.031 C 
ATOM     31  C   UNL A   1      48.676  31.142  27.644  1.00  0.00     0.029 A 
ATOM     32  C   UNL A   1      47.360  30.714  27.765  1.00  0.00     0.049 A 
ATOM     33  H   UNL A   1      46.523  28.854  27.243  1.00  0.00     0.167 HD
ATOM     34  C   UNL A   1      44.962  30.964  28.384  1.00  0.00     0.074 A 
ATOM     35  C   UNL A   1      43.843  31.705  28.932  1.00  0.00     0.031 C 
ATOM     36  C   UNL A   1      46.229  31.437  28.293  1.00  0.00     0.031 A 
BRANCH  23  37
ATOM     37  C   UNL A   1      50.333  27.380  26.019  1.00  0.00    -0.014 A 
ATOM     38  C   UNL A   1      50.872  27.698  24.757  1.00  0.00     0.010 A 
ATOM     39  C   UNL A   1      51.110  26.651  26.934  1.00  0.00     0.010 A 
ATOM     40  C   UNL A   1      52.131  27.221  24.386  1.00  0.00     0.020 A 
ATOM     41  C   UNL A   1      52.383  26.202  26.579  1.00  0.00     0.020 A 
ATOM     42  C   UNL A   1      52.872  26.463  25.297  1.00  0.00     0.054 A 
BRANCH  42  43
ATOM     43  S   UNL A   1      54.481  25.810  24.775  1.00  0.00     0.124 S 
ATOM     44  O   UNL A   1      54.534  26.230  23.376  1.00  0.00    -0.237 OA
ATOM     45  O   UNL A   1      55.409  26.493  25.670  1.00  0.00    -0.237 OA
ATOM     46  O   UNL A   1      54.357  24.371  24.989  1.00  0.00    -0.744 OA
ENDBRANCH  42  43
ENDBRANCH  23  37
BRANCH  24  47
ATOM     47  C   UNL A   1      40.691  29.014  28.106  1.00  0.00    -0.014 A 
ATOM     48  C   UNL A   1      39.686  29.428  27.218  1.00  0.00     0.010 A 
ATOM     49  C   UNL A   1      40.363  28.808  29.461  1.00  0.00     0.010 A 
ATOM     50  C   UNL A   1      38.385  29.663  27.679  1.00  0.00     0.020 A 
ATOM     51  C   UNL A   1      39.062  29.036  29.923  1.00  0.00     0.020 A 
ATOM     52  C   UNL A   1      38.084  29.479  29.031  1.00  0.00     0.054 A 
BRANCH  52  53
ATOM     53  S   UNL A   1      36.406  29.850  29.616  1.00  0.00     0.124 S 
ATOM     54  O   UNL A   1      35.580  29.342  28.527  1.00  0.00    -0.237 OA
ATOM     55  O   UNL A   1      36.329  29.103  30.868  1.00  0.00    -0.237 OA
ATOM     56  O   UNL A   1      36.412  31.304  29.771  1.00  0.00    -0.744 OA
ENDBRANCH  52  53
ENDBRANCH  24  47
BRANCH  36  57
ATOM     57  C   UNL A   1      46.471  32.862  28.695  1.00  0.00    -0.014 A 
ATOM     58  C   UNL A   1      46.284  33.926  27.801  1.00  0.00     0.010 A 
ATOM     59  C   UNL A   1      46.766  33.133  30.046  1.00  0.00     0.010 A 
ATOM     60  C   UNL A   1      46.374  35.243  28.256  1.00  0.00     0.020 A 
ATOM     61  C   UNL A   1      46.825  34.445  30.509  1.00  0.00     0.020 A 
ATOM     62  C   UNL A   1      46.627  35.493  29.611  1.00  0.00     0.054 A 
BRANCH  62  63
ATOM     63  S   UNL A   1      46.606  37.207  30.199  1.00  0.00     0.124 S 
ATOM     64  O   UNL A   1      45.183  37.527  30.154  1.00  0.00    -0.237 OA
ATOM     65  O   UNL A   1      47.185  37.091  31.536  1.00  0.00    -0.237 OA
ATOM     66  O   UNL A   1      47.437  37.917  29.228  1.00  0.00    -0.744 OA
ENDBRANCH  62  63
ENDBRANCH  36  57
ENDBRANCH  10  11
ENDBRANCH   3   5
ENDBRANCH   2   3
ENDBRANCH   1   2
BRANCH   1  67
ATOM     67  C   UNL A   1      41.839  19.400  27.097  1.00  0.00     0.275 C 
BRANCH  67  68
ATOM     68  O   UNL A   1      40.975  20.391  26.513  1.00  0.00    -0.458 OA
BRANCH  68  69
ATOM     69  C   UNL A   1      40.710  21.467  27.303  1.00  0.00     0.338 C 
ATOM     70  O   UNL A   1      41.374  21.845  28.253  1.00  0.00    -0.246 OA
BRANCH  69  71
ATOM     71  C   UNL A   1      39.594  22.258  26.733  1.00  0.00     0.060 A 
ATOM     72  C   UNL A   1      39.401  23.543  27.253  1.00  0.00     0.016 A 
ATOM     73  C   UNL A   1      38.771  21.788  25.702  1.00  0.00     0.021 A 
ATOM     74  C   UNL A   1      38.428  24.380  26.710  1.00  0.00     0.001 A 
ATOM     75  C   UNL A   1      37.763  22.622  25.175  1.00  0.00    -0.027 A 
ATOM     76  C   UNL A   1      37.620  23.924  25.673  1.00  0.00     0.005 A 
BRANCH  75  77
ATOM     77  C   UNL A   1      36.852  22.158  24.061  1.00  0.00     0.165 C 
BRANCH  77  78
ATOM     78  N   UNL A   1      35.573  21.678  24.521  1.00  0.00    -0.264 N 
ATOM     79  C   UNL A   1      35.390  20.405  24.971  1.00  0.00     0.293 C 
ATOM     80  C   UNL A   1      34.519  22.551  24.640  1.00  0.00     0.268 C 
ATOM     81  O   UNL A   1      36.227  19.523  25.065  1.00  0.00    -0.261 OA
ATOM     82  S   UNL A   1      33.713  20.173  25.429  1.00  0.00    -0.022 SA
ATOM     83  C   UNL A   1      33.311  21.832  25.139  1.00  0.00     0.083 C 
ATOM     84  O   UNL A   1      34.583  23.741  24.361  1.00  0.00    -0.268 OA
ATOM     85  C   UNL A   1      32.090  22.334  25.369  1.00  0.00     0.029 C 
BRANCH  85  86
ATOM     86  C   UNL A   1      31.701  23.739  25.201  1.00  0.00    -0.024 A 
ATOM     87  C   UNL A   1      31.829  24.604  26.291  1.00  0.00     0.009 A 
ATOM     88  C   UNL A   1      31.248  24.251  23.980  1.00  0.00     0.009 A 
ATOM     89  C   UNL A   1      31.601  25.974  26.144  1.00  0.00     0.021 A 
ATOM     90  C   UNL A   1      31.028  25.622  23.827  1.00  0.00     0.021 A 
ATOM     91  C   UNL A   1      31.220  26.480  24.908  1.00  0.00     0.041 A 
ATOM     92  Cl  UNL A   1      30.988  28.173  24.701  1.00  0.00    -0.084 Cl
ENDBRANCH  85  86
ENDBRANCH  77  78
ENDBRANCH  75  77
ENDBRANCH  69  71
ENDBRANCH  68  69
ENDBRANCH  67  68
ENDBRANCH   1  67
TORSDOF 17
ENDMDL
MODEL 2
REMARK VINA RESULT:     -11.1      6.091     10.583
REMARK SMILES O=C(OCCOC(=O)c1cccc(CN2C(=O)S/C(=C/c3ccc(Cl)cc3)C2=O)c1)c1ccc(-c2c3nc(c(-c4ccc(S(=O)(=O)[O-])cc4)c4ccc([nH]4)c(-c4ccc(S(=O)(=O)[O-])cc4)c4nc(c(-c5ccc(S(=O)(=O)[O-])cc5)c5ccc2[nH]5)C=C4)C=C3)cc1
REMARK SMILES IDX 4 1 3 2 2 3 1 4 31 5 32 6 90 7 33 8 89 9 34 10 35 11 36 12
REMARK SMILES IDX 83 13 37 14 88 15 82 16 84 17 38 18 87 19 81 20 80 21 39 23
REMARK SMILES IDX 69 24 50 25 68 26 51 27 54 28 67 29 85 30 52 31 53 32 66 34
REMARK SMILES IDX 86 35 55 36 40 37 41 38 49 39 42 40 48 41 43 42 44 43 45 44
REMARK SMILES IDX 46 45 47 46 70 47 71 48 79 49 72 50 78 51 73 52 74 53 75 54
REMARK SMILES IDX 76 55 77 56 56 57 57 58 65 59 58 60 64 61 59 62 60 63 61 64
REMARK SMILES IDX 62 65 63 66 5 67 6 68 7 69 8 70 9 71 10 72 30 73 11 74 13 75
REMARK SMILES IDX 12 76 14 77 15 78 16 79 28 80 17 81 18 82 19 83 29 84 20 85
REMARK SMILES IDX 21 86 22 87 27 88 23 89 26 90 24 91 25 92
REMARK H PARENT 84 22 54 33
REMARK Flexibility Score: inf
ROOT
ATOM      1  C   UNL A   1      42.759  23.199  25.427  1.00  0.00     0.275 C 
ENDROOT
BRANCH   1   2
ATOM      2  O   UNL A   1      43.040  24.401  26.161  1.00  0.00    -0.458 OA
BRANCH   2   3
ATOM      3  C   UNL A   1      42.424  25.605  26.102  1.00  0.00     0.338 C 
ATOM      4  O   UNL A   1      42.146  26.060  24.993  1.00  0.00    -0.246 OA
BRANCH   3   5
ATOM      5  C   UNL A   1      42.197  26.487  27.297  1.00  0.00     0.060 A 
ATOM      6  C   UNL A   1      42.960  27.596  27.678  1.00  0.00     0.016 A 
ATOM      7  C   UNL A   1      41.080  26.169  28.088  1.00  0.00     0.016 A 
ATOM      8  C   UNL A   1      42.590  28.410  28.753  1.00  0.00     0.010 A 
ATOM      9  C   UNL A   1      40.695  26.984  29.153  1.00  0.00     0.010 A 
ATOM     10  C   UNL A   1      41.456  28.111  29.498  1.00  0.00    -0.014 A 
BRANCH  10  11
ATOM     11  C   UNL A   1      41.184  28.804  30.775  1.00  0.00     0.031 A 
ATOM     12  C   UNL A   1      40.150  29.888  30.749  1.00  0.00     0.074 A 
ATOM     13  C   UNL A   1      41.809  28.496  31.927  1.00  0.00     0.049 A 
ATOM     14  N   UNL A   1      39.841  30.754  31.671  1.00  0.00    -0.248 NA
ATOM     15  C   UNL A   1      39.333  29.978  29.526  1.00  0.00     0.031 C 
ATOM     16  C   UNL A   1      42.676  27.344  32.155  1.00  0.00     0.029 A 
ATOM     17  N   UNL A   1      41.870  29.188  33.113  1.00  0.00    -0.354 N 
ATOM     18  C   UNL A   1      38.762  31.458  31.160  1.00  0.00     0.074 A 
ATOM     19  C   UNL A   1      38.541  30.999  29.809  1.00  0.00     0.031 C 
ATOM     20  C   UNL A   1      43.311  27.496  33.333  1.00  0.00     0.029 A 
ATOM     21  C   UNL A   1      42.892  28.753  33.930  1.00  0.00     0.049 A 
ATOM     22  H   UNL A   1      41.252  29.916  33.353  1.00  0.00     0.167 HD
ATOM     23  C   UNL A   1      37.984  32.367  31.790  1.00  0.00     0.031 A 
ATOM     24  C   UNL A   1      43.463  29.350  34.993  1.00  0.00     0.031 A 
ATOM     25  C   UNL A   1      38.251  32.833  33.118  1.00  0.00     0.049 A 
ATOM     26  C   UNL A   1      42.796  30.573  35.556  1.00  0.00     0.074 A 
ATOM     27  C   UNL A   1      37.534  33.736  33.878  1.00  0.00     0.029 A 
ATOM     28  N   UNL A   1      39.350  32.447  33.875  1.00  0.00    -0.354 N 
ATOM     29  N   UNL A   1      41.754  31.218  35.089  1.00  0.00    -0.248 NA
ATOM     30  C   UNL A   1      43.317  31.094  36.825  1.00  0.00     0.031 C 
ATOM     31  C   UNL A   1      38.241  33.950  35.066  1.00  0.00     0.029 A 
ATOM     32  C   UNL A   1      39.356  33.124  35.077  1.00  0.00     0.049 A 
ATOM     33  H   UNL A   1      40.025  31.788  33.593  1.00  0.00     0.167 HD
ATOM     34  C   UNL A   1      41.425  32.150  36.063  1.00  0.00     0.074 A 
ATOM     35  C   UNL A   1      42.422  32.033  37.108  1.00  0.00     0.031 C 
ATOM     36  C   UNL A   1      40.353  32.979  36.110  1.00  0.00     0.031 A 
BRANCH  23  37
ATOM     37  C   UNL A   1      36.821  32.909  31.012  1.00  0.00    -0.014 A 
ATOM     38  C   UNL A   1      37.017  33.798  29.937  1.00  0.00     0.010 A 
ATOM     39  C   UNL A   1      35.512  32.589  31.407  1.00  0.00     0.010 A 
ATOM     40  C   UNL A   1      35.927  34.423  29.328  1.00  0.00     0.020 A 
ATOM     41  C   UNL A   1      34.418  33.185  30.778  1.00  0.00     0.020 A 
ATOM     42  C   UNL A   1      34.633  34.121  29.765  1.00  0.00     0.054 A 
BRANCH  42  43
ATOM     43  S   UNL A   1      33.237  34.984  28.995  1.00  0.00     0.124 S 
ATOM     44  O   UNL A   1      32.356  35.209  30.140  1.00  0.00    -0.237 OA
ATOM     45  O   UNL A   1      33.865  36.181  28.443  1.00  0.00    -0.237 OA
ATOM     46  O   UNL A   1      32.743  34.029  28.007  1.00  0.00    -0.744 OA
ENDBRANCH  42  43
ENDBRANCH  23  37
BRANCH  24  47
ATOM     47  C   UNL A   1      44.729  28.838  35.581  1.00  0.00    -0.014 A 
ATOM     48  C   UNL A   1      44.726  27.891  36.617  1.00  0.00     0.010 A 
ATOM     49  C   UNL A   1      45.960  29.361  35.137  1.00  0.00     0.010 A 
ATOM     50  C   UNL A   1      45.926  27.497  37.221  1.00  0.00     0.020 A 
ATOM     51  C   UNL A   1      47.162  28.965  35.734  1.00  0.00     0.020 A 
ATOM     52  C   UNL A   1      47.136  28.046  36.785  1.00  0.00     0.054 A 
BRANCH  52  53
ATOM     53  S   UNL A   1      48.672  27.566  37.625  1.00  0.00     0.124 S 
ATOM     54  O   UNL A   1      49.141  26.458  36.801  1.00  0.00    -0.237 OA
ATOM     55  O   UNL A   1      49.471  28.787  37.556  1.00  0.00    -0.237 OA
ATOM     56  O   UNL A   1      48.226  27.202  38.969  1.00  0.00    -0.744 OA
ENDBRANCH  52  53
ENDBRANCH  24  47
BRANCH  36  57
ATOM     57  C   UNL A   1      40.128  33.755  37.374  1.00  0.00    -0.014 A 
ATOM     58  C   UNL A   1      40.461  35.113  37.480  1.00  0.00     0.010 A 
ATOM     59  C   UNL A   1      39.441  33.124  38.431  1.00  0.00     0.010 A 
ATOM     60  C   UNL A   1      40.098  35.833  38.618  1.00  0.00     0.020 A 
ATOM     61  C   UNL A   1      39.049  33.848  39.554  1.00  0.00     0.020 A 
ATOM     62  C   UNL A   1      39.379  35.200  39.640  1.00  0.00     0.054 A 
BRANCH  62  63
ATOM     63  S   UNL A   1      38.805  36.190  41.045  1.00  0.00     0.124 S 
ATOM     64  O   UNL A   1      38.543  37.483  40.420  1.00  0.00    -0.237 OA
ATOM     65  O   UNL A   1      37.623  35.456  41.491  1.00  0.00    -0.237 OA
ATOM     66  O   UNL A   1      39.933  36.163  41.973  1.00  0.00    -0.744 OA
ENDBRANCH  62  63
ENDBRANCH  36  57
ENDBRANCH  10  11
ENDBRANCH   3   5
ENDBRANCH   2   3
ENDBRANCH   1   2
BRANCH   1  67
ATOM     67  C   UNL A   1      42.640  21.938  26.294  1.00  0.00     0.275 C 
BRANCH  67  68
ATOM     68  O   UNL A   1      41.439  21.894  27.087  1.00  0.00    -0.458 OA
BRANCH  68  69
ATOM     69  C   UNL A   1      40.421  21.165  26.558  1.00  0.00     0.338 C 
ATOM     70  O   UNL A   1      40.353  19.948  26.510  1.00  0.00    -0.246 OA
BRANCH  69  71
ATOM     71  C   UNL A   1      39.283  22.050  26.213  1.00  0.00     0.060 A 
ATOM     72  C   UNL A   1      39.195  23.264  26.905  1.00  0.00     0.016 A 
ATOM     73  C   UNL A   1      38.339  21.734  25.228  1.00  0.00     0.021 A 
ATOM     74  C   UNL A   1      38.204  24.187  26.578  1.00  0.00     0.001 A 
ATOM     75  C   UNL A   1      37.315  22.654  24.919  1.00  0.00    -0.027 A 
ATOM     76  C   UNL A   1      37.275  23.886  25.586  1.00  0.00     0.005 A 
BRANCH  75  77
ATOM     77  C   UNL A   1      36.276  22.357  23.863  1.00  0.00     0.165 C 
BRANCH  77  78
ATOM     78  N   UNL A   1      34.999  21.958  24.401  1.00  0.00    -0.264 N 
ATOM     79  C   UNL A   1      34.778  20.711  24.906  1.00  0.00     0.293 C 
ATOM     80  C   UNL A   1      33.996  22.886  24.539  1.00  0.00     0.268 C 
ATOM     81  O   UNL A   1      35.575  19.793  24.992  1.00  0.00    -0.261 OA
ATOM     82  S   UNL A   1      33.117  20.579  25.453  1.00  0.00    -0.022 SA
ATOM     83  C   UNL A   1      32.782  22.246  25.122  1.00  0.00     0.083 C 
ATOM     84  O   UNL A   1      34.103  24.060  24.213  1.00  0.00    -0.268 OA
ATOM     85  C   UNL A   1      31.599  22.816  25.393  1.00  0.00     0.029 C 
BRANCH  85  86
ATOM     86  C   UNL A   1      31.271  24.232  25.192  1.00  0.00    -0.024 A 
ATOM     87  C   UNL A   1      31.493  25.125  26.242  1.00  0.00     0.009 A 
ATOM     88  C   UNL A   1      30.783  24.724  23.975  1.00  0.00     0.009 A 
ATOM     89  C   UNL A   1      31.325  26.500  26.056  1.00  0.00     0.021 A 
ATOM     90  C   UNL A   1      30.622  26.098  23.783  1.00  0.00     0.021 A 
ATOM     91  C   UNL A   1      30.908  26.982  24.822  1.00  0.00     0.041 A 
ATOM     92  Cl  UNL A   1      30.748  28.676  24.564  1.00  0.00    -0.084 Cl
ENDBRANCH  85  86
ENDBRANCH  77  78
ENDBRANCH  75  77
ENDBRANCH  69  71
ENDBRANCH  68  69
ENDBRANCH  67  68
ENDBRANCH   1  67
TORSDOF 17
ENDMDL
MODEL 3
REMARK VINA RESULT:     -11.1      4.580     10.397
REMARK SMILES O=C(OCCOC(=O)c1cccc(CN2C(=O)S/C(=C/c3ccc(Cl)cc3)C2=O)c1)c1ccc(-c2c3nc(c(-c4ccc(S(=O)(=O)[O-])cc4)c4ccc([nH]4)c(-c4ccc(S(=O)(=O)[O-])cc4)c4nc(c(-c5ccc(S(=O)(=O)[O-])cc5)c5ccc2[nH]5)C=C4)C=C3)cc1
REMARK SMILES IDX 4 1 3 2 2 3 1 4 31 5 32 6 90 7 33 8 89 9 34 10 35 11 36 12
REMARK SMILES IDX 83 13 37 14 88 15 82 16 84 17 38 18 87 19 81 20 80 21 39 23
REMARK SMILES IDX 69 24 50 25 68 26 51 27 54 28 67 29 85 30 52 31 53 32 66 34
REMARK SMILES IDX 86 35 55 36 40 37 41 38 49 39 42 40 48 41 43 42 44 43 45 44
REMARK SMILES IDX 46 45 47 46 70 47 71 48 79 49 72 50 78 51 73 52 74 53 75 54
REMARK SMILES IDX 76 55 77 56 56 57 57 58 65 59 58 60 64 61 59 62 60 63 61 64
REMARK SMILES IDX 62 65 63 66 5 67 6 68 7 69 8 70 9 71 10 72 30 73 11 74 13 75
REMARK SMILES IDX 12 76 14 77 15 78 16 79 28 80 17 81 18 82 19 83 29 84 20 85
REMARK SMILES IDX 21 86 22 87 27 88 23 89 26 90 24 91 25 92
REMARK H PARENT 84 22 54 33
REMARK Flexibility Score: inf
ROOT
ATOM      1  C   UNL A   1      33.258  28.770  27.216  1.00  0.00     0.275 C 
ENDROOT
BRANCH   1   2
ATOM      2  O   UNL A   1      33.997  29.940  26.833  1.00  0.00    -0.458 OA
BRANCH   2   3
ATOM      3  C   UNL A   1      34.828  30.710  27.574  1.00  0.00     0.338 C 
ATOM      4  O   UNL A   1      34.627  31.924  27.597  1.00  0.00    -0.246 OA
BRANCH   3   5
ATOM      5  C   UNL A   1      36.069  30.193  28.245  1.00  0.00     0.060 A 
ATOM      6  C   UNL A   1      36.156  29.619  29.518  1.00  0.00     0.016 A 
ATOM      7  C   UNL A   1      37.251  30.274  27.490  1.00  0.00     0.016 A 
ATOM      8  C   UNL A   1      37.350  29.071  29.998  1.00  0.00     0.010 A 
ATOM      9  C   UNL A   1      38.443  29.717  27.955  1.00  0.00     0.010 A 
ATOM     10  C   UNL A   1      38.501  29.116  29.223  1.00  0.00    -0.014 A 
BRANCH  10  11
ATOM     11  C   UNL A   1      39.818  28.770  29.799  1.00  0.00     0.031 A 
ATOM     12  C   UNL A   1      40.409  29.747  30.768  1.00  0.00     0.074 A 
ATOM     13  C   UNL A   1      40.478  27.637  29.495  1.00  0.00     0.049 A 
ATOM     14  N   UNL A   1      41.604  29.774  31.284  1.00  0.00    -0.248 NA
ATOM     15  C   UNL A   1      39.512  30.816  31.244  1.00  0.00     0.031 C 
ATOM     16  C   UNL A   1      39.947  26.507  28.739  1.00  0.00     0.029 A 
ATOM     17  N   UNL A   1      41.788  27.288  29.724  1.00  0.00    -0.354 N 
ATOM     18  C   UNL A   1      41.587  30.830  32.182  1.00  0.00     0.074 A 
ATOM     19  C   UNL A   1      40.308  31.487  32.060  1.00  0.00     0.031 C 
ATOM     20  C   UNL A   1      40.958  25.673  28.424  1.00  0.00     0.029 A 
ATOM     21  C   UNL A   1      42.196  26.219  28.955  1.00  0.00     0.049 A 
ATOM     22  H   UNL A   1      42.372  27.750  30.368  1.00  0.00     0.167 HD
ATOM     23  C   UNL A   1      42.539  31.181  33.076  1.00  0.00     0.031 A 
ATOM     24  C   UNL A   1      43.437  25.788  28.663  1.00  0.00     0.031 A 
ATOM     25  C   UNL A   1      43.816  30.536  33.148  1.00  0.00     0.049 A 
ATOM     26  C   UNL A   1      44.587  26.382  29.425  1.00  0.00     0.074 A 
ATOM     27  C   UNL A   1      44.861  30.781  34.016  1.00  0.00     0.029 A 
ATOM     28  N   UNL A   1      44.230  29.528  32.287  1.00  0.00    -0.354 N 
ATOM     29  N   UNL A   1      44.563  27.359  30.300  1.00  0.00    -0.248 NA
ATOM     30  C   UNL A   1      45.905  25.765  29.235  1.00  0.00     0.031 C 
ATOM     31  C   UNL A   1      45.935  29.970  33.632  1.00  0.00     0.029 A 
ATOM     32  C   UNL A   1      45.531  29.167  32.574  1.00  0.00     0.049 A 
ATOM     33  H   UNL A   1      43.677  29.130  31.576  1.00  0.00     0.167 HD
ATOM     34  C   UNL A   1      45.838  27.400  30.847  1.00  0.00     0.074 A 
ATOM     35  C   UNL A   1      46.624  26.400  30.153  1.00  0.00     0.031 C 
ATOM     36  C   UNL A   1      46.290  28.156  31.878  1.00  0.00     0.031 A 
BRANCH  23  37
ATOM     37  C   UNL A   1      42.211  32.325  33.990  1.00  0.00    -0.014 A 
ATOM     38  C   UNL A   1      41.595  32.105  35.237  1.00  0.00     0.010 A 
ATOM     39  C   UNL A   1      42.450  33.643  33.566  1.00  0.00     0.010 A 
ATOM     40  C   UNL A   1      41.146  33.182  36.004  1.00  0.00     0.020 A 
ATOM     41  C   UNL A   1      42.034  34.723  34.347  1.00  0.00     0.020 A 
ATOM     42  C   UNL A   1      41.357  34.485  35.545  1.00  0.00     0.054 A 
BRANCH  42  43
ATOM     43  S   UNL A   1      40.720  35.866  36.532  1.00  0.00     0.124 S 
ATOM     44  O   UNL A   1      39.827  36.526  35.581  1.00  0.00    -0.237 OA
ATOM     45  O   UNL A   1      40.059  35.186  37.643  1.00  0.00    -0.237 OA
ATOM     46  O   UNL A   1      41.919  36.619  36.888  1.00  0.00    -0.744 OA
ENDBRANCH  42  43
ENDBRANCH  23  37
BRANCH  24  47
ATOM     47  C   UNL A   1      43.675  24.775  27.599  1.00  0.00    -0.014 A 
ATOM     48  C   UNL A   1      43.735  23.404  27.894  1.00  0.00     0.010 A 
ATOM     49  C   UNL A   1      43.909  25.201  26.277  1.00  0.00     0.010 A 
ATOM     50  C   UNL A   1      44.057  22.478  26.894  1.00  0.00     0.020 A 
ATOM     51  C   UNL A   1      44.224  24.278  25.274  1.00  0.00     0.020 A 
ATOM     52  C   UNL A   1      44.313  22.922  25.593  1.00  0.00     0.054 A 
BRANCH  52  53
ATOM     53  S   UNL A   1      44.789  21.709  24.328  1.00  0.00     0.124 S 
ATOM     54  O   UNL A   1      46.226  21.588  24.542  1.00  0.00    -0.237 OA
ATOM     55  O   UNL A   1      43.996  20.538  24.692  1.00  0.00    -0.237 OA
ATOM     56  O   UNL A   1      44.395  22.350  23.075  1.00  0.00    -0.744 OA
ENDBRANCH  52  53
ENDBRANCH  24  47
BRANCH  36  57
ATOM     57  C   UNL A   1      47.665  27.868  32.402  1.00  0.00    -0.014 A 
ATOM     58  C   UNL A   1      47.901  26.860  33.348  1.00  0.00     0.010 A 
ATOM     59  C   UNL A   1      48.756  28.547  31.824  1.00  0.00     0.010 A 
ATOM     60  C   UNL A   1      49.211  26.525  33.696  1.00  0.00     0.020 A 
ATOM     61  C   UNL A   1      50.063  28.193  32.146  1.00  0.00     0.020 A 
ATOM     62  C   UNL A   1      50.283  27.182  33.080  1.00  0.00     0.054 A 
BRANCH  62  63
ATOM     63  S   UNL A   1      51.970  26.635  33.452  1.00  0.00     0.124 S 
ATOM     64  O   UNL A   1      52.215  25.660  32.394  1.00  0.00    -0.237 OA
ATOM     65  O   UNL A   1      52.735  27.876  33.355  1.00  0.00    -0.237 OA
ATOM     66  O   UNL A   1      51.866  26.081  34.801  1.00  0.00    -0.744 OA
ENDBRANCH  62  63
ENDBRANCH  36  57
ENDBRANCH  10  11
ENDBRANCH   3   5
ENDBRANCH   2   3
ENDBRANCH   1   2
BRANCH   1  67
ATOM     67  C   UNL A   1      31.734  28.912  27.094  1.00  0.00     0.275 C 
BRANCH  67  68
ATOM     68  O   UNL A   1      31.182  28.241  25.947  1.00  0.00    -0.458 OA
BRANCH  68  69
ATOM     69  C   UNL A   1      31.204  28.957  24.790  1.00  0.00     0.338 C 
ATOM     70  O   UNL A   1      30.730  30.068  24.621  1.00  0.00    -0.246 OA
BRANCH  69  71
ATOM     71  C   UNL A   1      32.067  28.287  23.789  1.00  0.00     0.060 A 
ATOM     72  C   UNL A   1      33.073  29.063  23.203  1.00  0.00     0.016 A 
ATOM     73  C   UNL A   1      31.932  26.937  23.444  1.00  0.00     0.021 A 
ATOM     74  C   UNL A   1      33.980  28.484  22.317  1.00  0.00     0.001 A 
ATOM     75  C   UNL A   1      32.828  26.357  22.521  1.00  0.00    -0.027 A 
ATOM     76  C   UNL A   1      33.861  27.137  21.985  1.00  0.00     0.005 A 
BRANCH  75  77
ATOM     77  C   UNL A   1      32.721  24.904  22.120  1.00  0.00     0.165 C 
BRANCH  77  78
ATOM     78  N   UNL A   1      32.682  23.995  23.238  1.00  0.00    -0.264 N 
ATOM     79  C   UNL A   1      31.531  23.388  23.645  1.00  0.00     0.293 C 
ATOM     80  C   UNL A   1      33.851  23.614  23.850  1.00  0.00     0.268 C 
ATOM     81  O   UNL A   1      30.421  23.495  23.153  1.00  0.00    -0.261 OA
ATOM     82  S   UNL A   1      31.857  22.371  25.037  1.00  0.00    -0.022 SA
ATOM     83  C   UNL A   1      33.561  22.669  24.967  1.00  0.00     0.083 C 
ATOM     84  O   UNL A   1      34.958  24.013  23.515  1.00  0.00    -0.268 OA
ATOM     85  C   UNL A   1      34.434  22.091  25.805  1.00  0.00     0.029 C 
BRANCH  85  86
ATOM     86  C   UNL A   1      35.892  22.255  25.762  1.00  0.00    -0.024 A 
ATOM     87  C   UNL A   1      36.446  23.440  26.254  1.00  0.00     0.009 A 
ATOM     88  C   UNL A   1      36.746  21.254  25.286  1.00  0.00     0.009 A 
ATOM     89  C   UNL A   1      37.831  23.588  26.359  1.00  0.00     0.021 A 
ATOM     90  C   UNL A   1      38.131  21.395  25.399  1.00  0.00     0.021 A 
ATOM     91  C   UNL A   1      38.667  22.557  25.948  1.00  0.00     0.041 A 
ATOM     92  Cl  UNL A   1      40.373  22.706  26.123  1.00  0.00    -0.084 Cl
ENDBRANCH  85  86
ENDBRANCH  77  78
ENDBRANCH  75  77
ENDBRANCH  69  71
ENDBRANCH  68  69
ENDBRANCH  67  68
ENDBRANCH   1  67
TORSDOF 17
ENDMDL
