MODEL 1
REMARK VINA RESULT:     -11.4      0.000      0.000
REMARK SMILES C[C@@H](C(=O)OCCOC(=O)c1ccc(-c2c3nc(c(-c4ccc(S(=O)(=O)[O-])cc4)c4ccc([nH]4)c(-c4ccc(S(=O)(=O)[O-])cc4)c4nc(c(-c5ccc(S(=O)(=O)[O-])cc5)c5ccc2[nH]5)C=C4)C=C3)cc1)c1ccc(C[C@@H]2CCC[C@@H]2O)cc1Br
REMARK SMILES IDX 6 1 5 2 3 3 4 4 2 5 1 6 71 7 72 8 83 9 73 10 82 11 84 12
REMARK SMILES IDX 74 13 75 14 76 15 77 16 80 17 78 18 79 19 81 20 7 22 8 23
REMARK SMILES IDX 9 24 10 25 11 26 12 27 70 28 13 29 69 30 14 31 15 32 16 33
REMARK SMILES IDX 63 34 17 35 68 36 62 37 64 38 18 39 67 40 61 41 60 42 19 44
REMARK SMILES IDX 49 45 30 46 48 47 31 48 34 49 47 50 65 51 32 52 33 53 46 55
REMARK SMILES IDX 66 56 35 57 20 58 21 59 29 60 22 61 28 62 23 63 24 64 25 65
REMARK SMILES IDX 26 66 27 67 50 68 51 69 59 70 52 71 58 72 53 73 54 74 55 75
REMARK SMILES IDX 56 76 57 77 36 78 37 79 45 80 38 81 44 82 39 83 40 84 41 85
REMARK SMILES IDX 42 86 43 87
REMARK H PARENT 81 21 64 43 34 54
REMARK Flexibility Score: inf
ROOT
ATOM      1  C   UNL A   1      34.451  32.355  27.912  1.00  0.00     0.274 C 
ENDROOT
BRANCH   1   2
ATOM      2  O   UNL A   1      33.573  31.201  27.940  1.00  0.00    -0.462 OA
BRANCH   2   3
ATOM      3  C   UNL A   1      33.881  30.146  27.127  1.00  0.00     0.313 C 
ATOM      4  O   UNL A   1      34.885  29.462  27.291  1.00  0.00    -0.252 OA
BRANCH   3   5
ATOM      5  C   UNL A   1      32.860  29.941  25.968  1.00  0.00     0.127 C 
ATOM      6  C   UNL A   1      31.596  30.782  26.198  1.00  0.00     0.025 C 
BRANCH   5   7
ATOM      7  C   UNL A   1      32.537  28.457  25.671  1.00  0.00    -0.020 A 
ATOM      8  C   UNL A   1      31.800  27.679  26.597  1.00  0.00     0.006 A 
ATOM      9  C   UNL A   1      33.029  27.776  24.537  1.00  0.00     0.022 A 
ATOM     10  C   UNL A   1      31.719  26.287  26.503  1.00  0.00     0.004 A 
ATOM     11  C   UNL A   1      32.974  26.373  24.458  1.00  0.00     0.019 A 
ATOM     12  Br  UNL A   1      33.841  28.669  23.066  1.00  0.00    -0.050 Br
ATOM     13  C   UNL A   1      32.410  25.621  25.499  1.00  0.00    -0.047 A 
BRANCH  13  14
ATOM     14  C   UNL A   1      32.694  24.150  25.637  1.00  0.00     0.041 C 
BRANCH  14  15
ATOM     15  C   UNL A   1      34.076  23.543  25.186  1.00  0.00     0.022 C 
ATOM     16  C   UNL A   1      35.773  23.890  26.185  1.00  0.00     0.007 C 
ATOM     17  C   UNL A   1      34.569  23.119  23.282  1.00  0.00     0.117 C 
ATOM     18  C   UNL A   1      37.367  23.205  25.031  1.00  0.00     0.003 C 
ATOM     19  C   UNL A   1      36.612  22.938  23.141  1.00  0.00     0.032 C 
BRANCH  17  20
ATOM     20  O   UNL A   1      34.036  23.839  22.156  1.00  0.00    -0.393 OA
ATOM     21  H   UNL A   1      34.734  23.969  21.496  1.00  0.00     0.210 HD
ENDBRANCH  17  20
ENDBRANCH  14  15
ENDBRANCH  13  14
ENDBRANCH   5   7
ENDBRANCH   3   5
ENDBRANCH   2   3
ENDBRANCH   1   2
BRANCH   1  22
ATOM     22  C   UNL A   1      34.708  32.891  29.321  1.00  0.00     0.275 C 
BRANCH  22  23
ATOM     23  O   UNL A   1      34.703  31.798  30.239  1.00  0.00    -0.458 OA
BRANCH  23  24
ATOM     24  C   UNL A   1      35.589  31.912  31.251  1.00  0.00     0.338 C 
ATOM     25  O   UNL A   1      35.407  32.316  32.384  1.00  0.00    -0.246 OA
BRANCH  24  26
ATOM     26  C   UNL A   1      36.856  31.416  30.745  1.00  0.00     0.060 A 
ATOM     27  C   UNL A   1      38.039  32.068  30.974  1.00  0.00     0.016 A 
ATOM     28  C   UNL A   1      36.914  30.184  30.197  1.00  0.00     0.016 A 
ATOM     29  C   UNL A   1      39.285  31.618  30.444  1.00  0.00     0.010 A 
ATOM     30  C   UNL A   1      38.195  29.695  29.894  1.00  0.00     0.010 A 
ATOM     31  C   UNL A   1      39.627  30.373  29.751  1.00  0.00    -0.014 A 
BRANCH  31  32
ATOM     32  C   UNL A   1      41.413  29.587  28.902  1.00  0.00     0.031 A 
ATOM     33  C   UNL A   1      43.034  30.531  28.794  1.00  0.00     0.074 A 
ATOM     34  C   UNL A   1      41.805  28.434  28.058  1.00  0.00     0.049 A 
ATOM     35  N   UNL A   1      44.298  30.119  28.808  1.00  0.00    -0.248 NA
ATOM     36  C   UNL A   1      43.039  32.077  28.734  1.00  0.00     0.031 C 
ATOM     37  C   UNL A   1      40.881  27.429  27.389  1.00  0.00     0.029 A 
ATOM     38  N   UNL A   1      43.025  27.759  27.869  1.00  0.00    -0.354 N 
ATOM     39  C   UNL A   1      45.120  31.287  28.893  1.00  0.00     0.074 A 
ATOM     40  C   UNL A   1      44.279  32.434  28.939  1.00  0.00     0.031 C 
ATOM     41  C   UNL A   1      41.459  26.243  27.297  1.00  0.00     0.029 A 
ATOM     42  C   UNL A   1      42.867  26.402  27.522  1.00  0.00     0.049 A 
ATOM     43  H   UNL A   1      43.903  28.193  27.969  1.00  0.00     0.167 HD
ATOM     44  C   UNL A   1      46.459  31.515  28.843  1.00  0.00     0.031 A 
ATOM     45  C   UNL A   1      43.675  25.332  27.328  1.00  0.00     0.031 A 
ATOM     46  C   UNL A   1      47.395  30.541  28.400  1.00  0.00     0.049 A 
ATOM     47  C   UNL A   1      45.135  25.575  27.251  1.00  0.00     0.074 A 
ATOM     48  C   UNL A   1      48.740  30.702  28.130  1.00  0.00     0.029 A 
ATOM     49  N   UNL A   1      47.043  29.258  28.042  1.00  0.00    -0.354 N 
ATOM     50  N   UNL A   1      45.790  26.679  27.499  1.00  0.00    -0.248 NA
ATOM     51  C   UNL A   1      45.953  24.462  26.753  1.00  0.00     0.031 C 
ATOM     52  C   UNL A   1      49.187  29.529  27.521  1.00  0.00     0.029 A 
ATOM     53  C   UNL A   1      48.141  28.621  27.513  1.00  0.00     0.049 A 
ATOM     54  H   UNL A   1      46.149  28.861  28.148  1.00  0.00     0.167 HD
ATOM     55  C   UNL A   1      47.094  26.415  27.117  1.00  0.00     0.074 A 
ATOM     56  C   UNL A   1      47.149  25.029  26.701  1.00  0.00     0.031 C 
ATOM     57  C   UNL A   1      48.145  27.262  27.068  1.00  0.00     0.031 A 
BRANCH  44  58
ATOM     58  C   UNL A   1      46.962  32.935  29.111  1.00  0.00    -0.014 A 
ATOM     59  C   UNL A   1      46.987  33.894  28.077  1.00  0.00     0.010 A 
ATOM     60  C   UNL A   1      47.461  33.303  30.377  1.00  0.00     0.010 A 
ATOM     61  C   UNL A   1      47.509  35.176  28.299  1.00  0.00     0.020 A 
ATOM     62  C   UNL A   1      47.970  34.590  30.607  1.00  0.00     0.020 A 
ATOM     63  C   UNL A   1      47.998  35.517  29.564  1.00  0.00     0.054 A 
BRANCH  63  64
ATOM     64  S   UNL A   1      48.650  37.196  29.824  1.00  0.00     0.124 S 
ATOM     65  O   UNL A   1      47.427  37.988  29.916  1.00  0.00    -0.237 OA
ATOM     66  O   UNL A   1      49.403  37.055  31.068  1.00  0.00    -0.237 OA
ATOM     67  O   UNL A   1      49.460  37.443  28.633  1.00  0.00    -0.744 OA
ENDBRANCH  63  64
ENDBRANCH  44  58
BRANCH  45  68
ATOM     68  C   UNL A   1      43.102  23.956  27.046  1.00  0.00    -0.014 A 
ATOM     69  C   UNL A   1      42.838  23.533  25.728  1.00  0.00     0.010 A 
ATOM     70  C   UNL A   1      42.907  23.021  28.086  1.00  0.00     0.010 A 
ATOM     71  C   UNL A   1      42.455  22.208  25.458  1.00  0.00     0.020 A 
ATOM     72  C   UNL A   1      42.595  21.683  27.817  1.00  0.00     0.020 A 
ATOM     73  C   UNL A   1      42.364  21.283  26.502  1.00  0.00     0.054 A 
BRANCH  73  74
ATOM     74  S   UNL A   1      42.032  19.533  26.136  1.00  0.00     0.124 S 
ATOM     75  O   UNL A   1      42.333  18.894  27.411  1.00  0.00    -0.237 OA
ATOM     76  O   UNL A   1      40.622  19.542  25.750  1.00  0.00    -0.237 OA
ATOM     77  O   UNL A   1      42.962  19.233  25.049  1.00  0.00    -0.744 OA
ENDBRANCH  73  74
ENDBRANCH  45  68
BRANCH  57  78
ATOM     78  C   UNL A   1      49.425  26.714  26.548  1.00  0.00    -0.014 A 
ATOM     79  C   UNL A   1      49.819  26.943  25.220  1.00  0.00     0.010 A 
ATOM     80  C   UNL A   1      50.256  26.002  27.425  1.00  0.00     0.010 A 
ATOM     81  C   UNL A   1      51.025  26.421  24.761  1.00  0.00     0.020 A 
ATOM     82  C   UNL A   1      51.474  25.508  26.978  1.00  0.00     0.020 A 
ATOM     83  C   UNL A   1      51.841  25.705  25.644  1.00  0.00     0.054 A 
BRANCH  83  84
ATOM     84  S   UNL A   1      53.411  25.051  25.034  1.00  0.00     0.124 S 
ATOM     85  O   UNL A   1      53.352  25.406  23.618  1.00  0.00    -0.237 OA
ATOM     86  O   UNL A   1      54.393  25.785  25.828  1.00  0.00    -0.237 OA
ATOM     87  O   UNL A   1      53.325  23.622  25.323  1.00  0.00    -0.744 OA
ENDBRANCH  83  84
ENDBRANCH  57  78
ENDBRANCH  31  32
ENDBRANCH  24  26
ENDBRANCH  23  24
ENDBRANCH  22  23
ENDBRANCH   1  22
TORSDOF 18
ENDMDL
MODEL 2
REMARK VINA RESULT:     -11.1      2.979      9.231
REMARK SMILES C[C@@H](C(=O)OCCOC(=O)c1ccc(-c2c3nc(c(-c4ccc(S(=O)(=O)[O-])cc4)c4ccc([nH]4)c(-c4ccc(S(=O)(=O)[O-])cc4)c4nc(c(-c5ccc(S(=O)(=O)[O-])cc5)c5ccc2[nH]5)C=C4)C=C3)cc1)c1ccc(C[C@@H]2CCC[C@@H]2O)cc1Br
REMARK SMILES IDX 6 1 5 2 3 3 4 4 2 5 1 6 71 7 72 8 83 9 73 10 82 11 84 12
REMARK SMILES IDX 74 13 75 14 76 15 77 16 80 17 78 18 79 19 81 20 7 22 8 23
REMARK SMILES IDX 9 24 10 25 11 26 12 27 70 28 13 29 69 30 14 31 15 32 16 33
REMARK SMILES IDX 63 34 17 35 68 36 62 37 64 38 18 39 67 40 61 41 60 42 19 44
REMARK SMILES IDX 49 45 30 46 48 47 31 48 34 49 47 50 65 51 32 52 33 53 46 55
REMARK SMILES IDX 66 56 35 57 20 58 21 59 29 60 22 61 28 62 23 63 24 64 25 65
REMARK SMILES IDX 26 66 27 67 50 68 51 69 59 70 52 71 58 72 53 73 54 74 55 75
REMARK SMILES IDX 56 76 57 77 36 78 37 79 45 80 38 81 44 82 39 83 40 84 41 85
REMARK SMILES IDX 42 86 43 87
REMARK H PARENT 81 21 64 43 34 54
REMARK Flexibility Score: inf
ROOT
ATOM      1  C   UNL A   1      31.256  27.835  25.054  1.00  0.00     0.274 C 
ENDROOT
BRANCH   1   2
ATOM      2  O   UNL A   1      30.576  27.174  23.958  1.00  0.00    -0.462 OA
BRANCH   2   3
ATOM      3  C   UNL A   1      31.290  26.936  22.816  1.00  0.00     0.313 C 
ATOM      4  O   UNL A   1      30.805  27.072  21.698  1.00  0.00    -0.252 OA
BRANCH   3   5
ATOM      5  C   UNL A   1      32.742  26.440  23.088  1.00  0.00     0.127 C 
ATOM      6  C   UNL A   1      33.704  26.942  22.001  1.00  0.00     0.025 C 
BRANCH   5   7
ATOM      7  C   UNL A   1      32.851  24.913  23.315  1.00  0.00    -0.020 A 
ATOM      8  C   UNL A   1      32.522  24.004  22.279  1.00  0.00     0.006 A 
ATOM      9  C   UNL A   1      33.179  24.344  24.564  1.00  0.00     0.022 A 
ATOM     10  C   UNL A   1      32.345  22.638  22.515  1.00  0.00     0.004 A 
ATOM     11  C   UNL A   1      32.971  22.975  24.810  1.00  0.00     0.019 A 
ATOM     12  Br  UNL A   1      33.867  25.362  26.016  1.00  0.00    -0.050 Br
ATOM     13  C   UNL A   1      32.450  22.141  23.808  1.00  0.00    -0.047 A 
BRANCH  13  14
ATOM     14  C   UNL A   1      31.847  20.805  24.146  1.00  0.00     0.041 C 
BRANCH  14  15
ATOM     15  C   UNL A   1      32.751  19.528  24.332  1.00  0.00     0.022 C 
ATOM     16  C   UNL A   1      34.673  19.648  24.868  1.00  0.00     0.007 C 
ATOM     17  C   UNL A   1      32.508  17.803  23.327  1.00  0.00     0.117 C 
ATOM     18  C   UNL A   1      35.541  17.769  24.628  1.00  0.00     0.003 C 
ATOM     19  C   UNL A   1      34.237  16.699  23.459  1.00  0.00     0.032 C 
BRANCH  17  20
ATOM     20  O   UNL A   1      31.956  17.740  21.999  1.00  0.00    -0.393 OA
ATOM     21  H   UNL A   1      32.397  17.037  21.499  1.00  0.00     0.210 HD
ENDBRANCH  17  20
ENDBRANCH  14  15
ENDBRANCH  13  14
ENDBRANCH   5   7
ENDBRANCH   3   5
ENDBRANCH   2   3
ENDBRANCH   1   2
BRANCH   1  22
ATOM     22  C   UNL A   1      31.414  29.332  24.786  1.00  0.00     0.275 C 
BRANCH  22  23
ATOM     23  O   UNL A   1      32.702  29.749  25.237  1.00  0.00    -0.458 OA
BRANCH  23  24
ATOM     24  C   UNL A   1      32.717  30.279  26.480  1.00  0.00     0.338 C 
ATOM     25  O   UNL A   1      31.794  30.743  27.122  1.00  0.00    -0.246 OA
BRANCH  24  26
ATOM     26  C   UNL A   1      34.082  30.166  26.958  1.00  0.00     0.060 A 
ATOM     27  C   UNL A   1      34.648  31.105  27.780  1.00  0.00     0.016 A 
ATOM     28  C   UNL A   1      34.763  29.019  26.754  1.00  0.00     0.016 A 
ATOM     29  C   UNL A   1      36.003  31.032  28.220  1.00  0.00     0.010 A 
ATOM     30  C   UNL A   1      36.007  28.909  27.396  1.00  0.00     0.010 A 
ATOM     31  C   UNL A   1      36.988  29.956  28.084  1.00  0.00    -0.014 A 
BRANCH  31  32
ATOM     32  C   UNL A   1      39.020  29.719  28.668  1.00  0.00     0.031 A 
ATOM     33  C   UNL A   1      39.993  28.123  28.478  1.00  0.00     0.074 A 
ATOM     34  C   UNL A   1      40.014  30.454  29.485  1.00  0.00     0.049 A 
ATOM     35  N   UNL A   1      41.288  27.897  28.279  1.00  0.00    -0.248 NA
ATOM     36  C   UNL A   1      39.266  26.757  28.474  1.00  0.00     0.031 C 
ATOM     37  C   UNL A   1      39.771  31.692  30.332  1.00  0.00     0.029 A 
ATOM     38  N   UNL A   1      41.421  30.456  29.505  1.00  0.00    -0.354 N 
ATOM     39  C   UNL A   1      41.435  26.498  28.017  1.00  0.00     0.074 A 
ATOM     40  C   UNL A   1      40.150  25.888  28.059  1.00  0.00     0.031 C 
ATOM     41  C   UNL A   1      40.852  32.453  30.380  1.00  0.00     0.029 A 
ATOM     42  C   UNL A   1      41.974  31.682  29.926  1.00  0.00     0.049 A 
ATOM     43  H   UNL A   1      41.966  29.677  29.248  1.00  0.00     0.167 HD
ATOM     44  C   UNL A   1      42.497  25.668  27.844  1.00  0.00     0.031 A 
ATOM     45  C   UNL A   1      43.211  32.224  30.032  1.00  0.00     0.031 A 
ATOM     46  C   UNL A   1      43.831  26.037  28.171  1.00  0.00     0.049 A 
ATOM     47  C   UNL A   1      44.375  31.321  29.865  1.00  0.00     0.074 A 
ATOM     48  C   UNL A   1      44.957  25.238  28.215  1.00  0.00     0.029 A 
ATOM     49  N   UNL A   1      44.181  27.287  28.632  1.00  0.00    -0.354 N 
ATOM     50  N   UNL A   1      44.388  30.074  29.471  1.00  0.00    -0.248 NA
ATOM     51  C   UNL A   1      45.678  31.861  30.271  1.00  0.00     0.031 C 
ATOM     52  C   UNL A   1      45.980  25.991  28.793  1.00  0.00     0.029 A 
ATOM     53  C   UNL A   1      45.505  27.275  29.004  1.00  0.00     0.049 A 
ATOM     54  H   UNL A   1      43.579  28.064  28.686  1.00  0.00     0.167 HD
ATOM     55  C   UNL A   1      45.695  29.655  29.651  1.00  0.00     0.074 A 
ATOM     56  C   UNL A   1      46.455  30.800  30.109  1.00  0.00     0.031 C 
ATOM     57  C   UNL A   1      46.211  28.417  29.497  1.00  0.00     0.031 A 
BRANCH  44  58
ATOM     58  C   UNL A   1      42.225  24.217  27.441  1.00  0.00    -0.014 A 
ATOM     59  C   UNL A   1      41.830  23.267  28.407  1.00  0.00     0.010 A 
ATOM     60  C   UNL A   1      42.411  23.783  26.113  1.00  0.00     0.010 A 
ATOM     61  C   UNL A   1      41.644  21.922  28.057  1.00  0.00     0.020 A 
ATOM     62  C   UNL A   1      42.211  22.441  25.756  1.00  0.00     0.020 A 
ATOM     63  C   UNL A   1      41.836  21.516  26.733  1.00  0.00     0.054 A 
BRANCH  63  64
ATOM     64  S   UNL A   1      41.566  19.767  26.308  1.00  0.00     0.124 S 
ATOM     65  O   UNL A   1      40.123  19.725  26.087  1.00  0.00    -0.237 OA
ATOM     66  O   UNL A   1      42.390  19.600  25.114  1.00  0.00    -0.237 OA
ATOM     67  O   UNL A   1      42.033  19.046  27.491  1.00  0.00    -0.744 OA
ENDBRANCH  63  64
ENDBRANCH  44  58
BRANCH  45  68
ATOM     68  C   UNL A   1      43.404  33.667  30.458  1.00  0.00    -0.014 A 
ATOM     69  C   UNL A   1      43.477  34.021  31.819  1.00  0.00     0.010 A 
ATOM     70  C   UNL A   1      43.613  34.686  29.503  1.00  0.00     0.010 A 
ATOM     71  C   UNL A   1      43.810  35.331  32.208  1.00  0.00     0.020 A 
ATOM     72  C   UNL A   1      44.014  35.973  29.883  1.00  0.00     0.020 A 
ATOM     73  C   UNL A   1      44.104  36.291  31.236  1.00  0.00     0.054 A 
BRANCH  73  74
ATOM     74  S   UNL A   1      44.695  37.937  31.738  1.00  0.00     0.124 S 
ATOM     75  O   UNL A   1      44.795  37.794  33.186  1.00  0.00    -0.237 OA
ATOM     76  O   UNL A   1      45.964  38.059  31.026  1.00  0.00    -0.237 OA
ATOM     77  O   UNL A   1      43.640  38.832  31.267  1.00  0.00    -0.744 OA
ENDBRANCH  73  74
ENDBRANCH  45  68
BRANCH  57  78
ATOM     78  C   UNL A   1      47.650  28.243  29.828  1.00  0.00    -0.014 A 
ATOM     79  C   UNL A   1      48.643  28.468  28.861  1.00  0.00     0.010 A 
ATOM     80  C   UNL A   1      47.999  27.895  31.141  1.00  0.00     0.010 A 
ATOM     81  C   UNL A   1      49.982  28.302  29.200  1.00  0.00     0.020 A 
ATOM     82  C   UNL A   1      49.336  27.760  31.489  1.00  0.00     0.020 A 
ATOM     83  C   UNL A   1      50.317  27.946  30.512  1.00  0.00     0.054 A 
BRANCH  83  84
ATOM     84  S   UNL A   1      52.062  27.753  30.936  1.00  0.00     0.124 S 
ATOM     85  O   UNL A   1      52.216  26.301  30.913  1.00  0.00    -0.237 OA
ATOM     86  O   UNL A   1      52.735  28.476  29.860  1.00  0.00    -0.237 OA
ATOM     87  O   UNL A   1      52.167  28.371  32.256  1.00  0.00    -0.744 OA
ENDBRANCH  83  84
ENDBRANCH  57  78
ENDBRANCH  31  32
ENDBRANCH  24  26
ENDBRANCH  23  24
ENDBRANCH  22  23
ENDBRANCH   1  22
TORSDOF 18
ENDMDL
MODEL 3
REMARK VINA RESULT:     -10.8      3.814      4.701
REMARK SMILES C[C@@H](C(=O)OCCOC(=O)c1ccc(-c2c3nc(c(-c4ccc(S(=O)(=O)[O-])cc4)c4ccc([nH]4)c(-c4ccc(S(=O)(=O)[O-])cc4)c4nc(c(-c5ccc(S(=O)(=O)[O-])cc5)c5ccc2[nH]5)C=C4)C=C3)cc1)c1ccc(C[C@@H]2CCC[C@@H]2O)cc1Br
REMARK SMILES IDX 6 1 5 2 3 3 4 4 2 5 1 6 71 7 72 8 83 9 73 10 82 11 84 12
REMARK SMILES IDX 74 13 75 14 76 15 77 16 80 17 78 18 79 19 81 20 7 22 8 23
REMARK SMILES IDX 9 24 10 25 11 26 12 27 70 28 13 29 69 30 14 31 15 32 16 33
REMARK SMILES IDX 63 34 17 35 68 36 62 37 64 38 18 39 67 40 61 41 60 42 19 44
REMARK SMILES IDX 49 45 30 46 48 47 31 48 34 49 47 50 65 51 32 52 33 53 46 55
REMARK SMILES IDX 66 56 35 57 20 58 21 59 29 60 22 61 28 62 23 63 24 64 25 65
REMARK SMILES IDX 26 66 27 67 50 68 51 69 59 70 52 71 58 72 53 73 54 74 55 75
REMARK SMILES IDX 56 76 57 77 36 78 37 79 45 80 38 81 44 82 39 83 40 84 41 85
REMARK SMILES IDX 42 86 43 87
REMARK H PARENT 81 21 64 43 34 54
REMARK Flexibility Score: inf
ROOT
ATOM      1  C   UNL A   1      31.169  29.192  25.367  1.00  0.00     0.274 C 
ENDROOT
BRANCH   1   2
ATOM      2  O   UNL A   1      31.624  28.793  24.049  1.00  0.00    -0.462 OA
BRANCH   2   3
ATOM      3  C   UNL A   1      30.699  28.749  23.043  1.00  0.00     0.313 C 
ATOM      4  O   UNL A   1      30.548  29.672  22.249  1.00  0.00    -0.252 OA
BRANCH   3   5
ATOM      5  C   UNL A   1      29.846  27.445  23.044  1.00  0.00     0.127 C 
ATOM      6  C   UNL A   1      28.416  27.727  23.525  1.00  0.00     0.025 C 
BRANCH   5   7
ATOM      7  C   UNL A   1      30.504  26.267  23.802  1.00  0.00    -0.020 A 
ATOM      8  C   UNL A   1      30.027  25.872  25.076  1.00  0.00     0.006 A 
ATOM      9  C   UNL A   1      31.653  25.596  23.330  1.00  0.00     0.022 A 
ATOM     10  C   UNL A   1      30.747  25.008  25.907  1.00  0.00     0.004 A 
ATOM     11  C   UNL A   1      32.393  24.752  24.177  1.00  0.00     0.019 A 
ATOM     12  Br  UNL A   1      32.321  25.807  21.562  1.00  0.00    -0.050 Br
ATOM     13  C   UNL A   1      31.992  24.543  25.506  1.00  0.00    -0.047 A 
BRANCH  13  14
ATOM     14  C   UNL A   1      32.950  23.995  26.528  1.00  0.00     0.041 C 
BRANCH  14  15
ATOM     15  C   UNL A   1      33.827  22.723  26.222  1.00  0.00     0.022 C 
ATOM     16  C   UNL A   1      35.605  22.845  25.313  1.00  0.00     0.007 C 
ATOM     17  C   UNL A   1      33.089  20.886  25.866  1.00  0.00     0.117 C 
ATOM     18  C   UNL A   1      36.210  20.919  24.794  1.00  0.00     0.003 C 
ATOM     19  C   UNL A   1      34.532  19.748  24.946  1.00  0.00     0.032 C 
BRANCH  17  20
ATOM     20  O   UNL A   1      31.797  20.663  25.270  1.00  0.00    -0.393 OA
ATOM     21  H   UNL A   1      31.862  19.948  24.619  1.00  0.00     0.210 HD
ENDBRANCH  17  20
ENDBRANCH  14  15
ENDBRANCH  13  14
ENDBRANCH   5   7
ENDBRANCH   3   5
ENDBRANCH   2   3
ENDBRANCH   1   2
BRANCH   1  22
ATOM     22  C   UNL A   1      31.742  30.555  25.762  1.00  0.00     0.275 C 
BRANCH  22  23
ATOM     23  O   UNL A   1      33.118  30.396  26.102  1.00  0.00    -0.458 OA
BRANCH  23  24
ATOM     24  C   UNL A   1      33.554  31.225  27.075  1.00  0.00     0.338 C 
ATOM     25  O   UNL A   1      32.983  32.170  27.585  1.00  0.00    -0.246 OA
BRANCH  24  26
ATOM     26  C   UNL A   1      34.874  30.754  27.455  1.00  0.00     0.060 A 
ATOM     27  C   UNL A   1      35.811  31.582  28.015  1.00  0.00     0.016 A 
ATOM     28  C   UNL A   1      35.135  29.430  27.440  1.00  0.00     0.016 A 
ATOM     29  C   UNL A   1      37.127  31.145  28.350  1.00  0.00     0.010 A 
ATOM     30  C   UNL A   1      36.364  29.030  27.987  1.00  0.00     0.010 A 
ATOM     31  C   UNL A   1      37.706  29.799  28.362  1.00  0.00    -0.014 A 
BRANCH  31  32
ATOM     32  C   UNL A   1      39.630  29.013  28.816  1.00  0.00     0.031 A 
ATOM     33  C   UNL A   1      40.886  29.869  29.920  1.00  0.00     0.074 A 
ATOM     34  C   UNL A   1      40.519  27.942  28.308  1.00  0.00     0.049 A 
ATOM     35  N   UNL A   1      41.836  29.386  30.716  1.00  0.00    -0.248 NA
ATOM     36  C   UNL A   1      40.880  31.409  30.068  1.00  0.00     0.031 C 
ATOM     37  C   UNL A   1      40.302  27.073  27.080  1.00  0.00     0.029 A 
ATOM     38  N   UNL A   1      41.580  27.224  28.890  1.00  0.00    -0.354 N 
ATOM     39  C   UNL A   1      42.358  30.488  31.464  1.00  0.00     0.074 A 
ATOM     40  C   UNL A   1      41.661  31.669  31.083  1.00  0.00     0.031 C 
ATOM     41  C   UNL A   1      40.834  25.874  27.248  1.00  0.00     0.029 A 
ATOM     42  C   UNL A   1      41.735  25.926  28.364  1.00  0.00     0.049 A 
ATOM     43  H   UNL A   1      42.158  27.593  29.598  1.00  0.00     0.167 HD
ATOM     44  C   UNL A   1      43.387  30.644  32.338  1.00  0.00     0.031 A 
ATOM     45  C   UNL A   1      42.502  24.840  28.622  1.00  0.00     0.031 A 
ATOM     46  C   UNL A   1      44.413  29.675  32.509  1.00  0.00     0.049 A 
ATOM     47  C   UNL A   1      43.639  25.006  29.559  1.00  0.00     0.074 A 
ATOM     48  C   UNL A   1      45.594  29.788  33.217  1.00  0.00     0.029 A 
ATOM     49  N   UNL A   1      44.427  28.462  31.854  1.00  0.00    -0.354 N 
ATOM     50  N   UNL A   1      43.930  26.036  30.311  1.00  0.00    -0.248 NA
ATOM     51  C   UNL A   1      44.617  23.912  29.594  1.00  0.00     0.031 C 
ATOM     52  C   UNL A   1      46.369  28.667  32.917  1.00  0.00     0.029 A 
ATOM     53  C   UNL A   1      45.620  27.827  32.110  1.00  0.00     0.049 A 
ATOM     54  H   UNL A   1      43.700  28.107  31.294  1.00  0.00     0.167 HD
ATOM     55  C   UNL A   1      45.168  25.743  30.855  1.00  0.00     0.074 A 
ATOM     56  C   UNL A   1      45.529  24.412  30.414  1.00  0.00     0.031 C 
ATOM     57  C   UNL A   1      45.961  26.528  31.617  1.00  0.00     0.031 A 
BRANCH  44  58
ATOM     58  C   UNL A   1      43.541  31.994  33.042  1.00  0.00    -0.014 A 
ATOM     59  C   UNL A   1      42.946  32.217  34.301  1.00  0.00     0.010 A 
ATOM     60  C   UNL A   1      44.232  33.059  32.430  1.00  0.00     0.010 A 
ATOM     61  C   UNL A   1      43.027  33.472  34.921  1.00  0.00     0.020 A 
ATOM     62  C   UNL A   1      44.328  34.312  33.054  1.00  0.00     0.020 A 
ATOM     63  C   UNL A   1      43.718  34.514  34.294  1.00  0.00     0.054 A 
BRANCH  63  64
ATOM     64  S   UNL A   1      43.820  36.124  35.134  1.00  0.00     0.124 S 
ATOM     65  O   UNL A   1      43.947  35.730  36.535  1.00  0.00    -0.237 OA
ATOM     66  O   UNL A   1      45.015  36.718  34.539  1.00  0.00    -0.237 OA
ATOM     67  O   UNL A   1      42.562  36.779  34.786  1.00  0.00    -0.744 OA
ENDBRANCH  63  64
ENDBRANCH  44  58
BRANCH  45  68
ATOM     68  C   UNL A   1      42.304  23.539  27.867  1.00  0.00    -0.014 A 
ATOM     69  C   UNL A   1      43.029  23.262  26.692  1.00  0.00     0.010 A 
ATOM     70  C   UNL A   1      41.459  22.526  28.371  1.00  0.00     0.010 A 
ATOM     71  C   UNL A   1      42.959  21.998  26.081  1.00  0.00     0.020 A 
ATOM     72  C   UNL A   1      41.440  21.244  27.809  1.00  0.00     0.020 A 
ATOM     73  C   UNL A   1      42.187  20.987  26.661  1.00  0.00     0.054 A 
BRANCH  73  74
ATOM     74  S   UNL A   1      42.226  19.306  25.967  1.00  0.00     0.124 S 
ATOM     75  O   UNL A   1      40.836  19.109  25.571  1.00  0.00    -0.237 OA
ATOM     76  O   UNL A   1      43.185  19.428  24.871  1.00  0.00    -0.237 OA
ATOM     77  O   UNL A   1      42.681  18.488  27.090  1.00  0.00    -0.744 OA
ENDBRANCH  73  74
ENDBRANCH  45  68
BRANCH  57  78
ATOM     78  C   UNL A   1      47.281  25.970  32.009  1.00  0.00    -0.014 A 
ATOM     79  C   UNL A   1      47.458  25.349  33.256  1.00  0.00     0.010 A 
ATOM     80  C   UNL A   1      48.337  26.034  31.089  1.00  0.00     0.010 A 
ATOM     81  C   UNL A   1      48.704  24.832  33.595  1.00  0.00     0.020 A 
ATOM     82  C   UNL A   1      49.573  25.490  31.413  1.00  0.00     0.020 A 
ATOM     83  C   UNL A   1      49.752  24.909  32.671  1.00  0.00     0.054 A 
BRANCH  83  84
ATOM     84  S   UNL A   1      51.358  24.216  33.124  1.00  0.00     0.124 S 
ATOM     85  O   UNL A   1      51.377  22.978  32.350  1.00  0.00    -0.237 OA
ATOM     86  O   UNL A   1      52.289  25.251  32.682  1.00  0.00    -0.237 OA
ATOM     87  O   UNL A   1      51.264  24.046  34.572  1.00  0.00    -0.744 OA
ENDBRANCH  83  84
ENDBRANCH  57  78
ENDBRANCH  31  32
ENDBRANCH  24  26
ENDBRANCH  23  24
ENDBRANCH  22  23
ENDBRANCH   1  22
TORSDOF 18
ENDMDL
