MODEL 1
REMARK VINA RESULT:     -12.2      0.000      0.000
REMARK SMILES O=C(NC1(C(=O)OCCOC(=O)c2ccc(-c3c4nc(c(-c5ccc(S(=O)(=O)[O-])cc5)c5ccc([nH]5)c(-c5ccc(S(=O)(=O)[O-])cc5)c5nc(c(-c6ccc(S(=O)(=O)[O-])cc6)c6ccc3[nH]6)C=C5)C=C4)cc2)CC[NH2+]CC1)OCC1c2ccccc2-c2ccccc21
REMARK SMILES IDX 8 1 7 2 5 3 6 4 4 5 73 6 77 7 74 8 76 9 75 10 3 13 1 14 2 15
REMARK SMILES IDX 78 17 79 18 80 19 81 20 92 21 82 22 86 23 87 24 91 25 83 26
REMARK SMILES IDX 85 27 88 28 90 29 84 30 89 31 9 32 10 33 11 34 12 35 13 36
REMARK SMILES IDX 14 37 72 38 15 39 71 40 16 41 17 42 18 43 65 44 19 45 70 46
REMARK SMILES IDX 64 47 66 48 20 49 69 50 63 51 62 52 21 54 51 55 32 56 50 57
REMARK SMILES IDX 33 58 36 59 49 60 67 61 34 62 35 63 48 65 68 66 37 67 22 68
REMARK SMILES IDX 23 69 31 70 24 71 30 72 25 73 26 74 27 75 28 76 29 77 52 78
REMARK SMILES IDX 53 79 61 80 54 81 60 82 55 83 56 84 57 85 58 86 59 87 38 88
REMARK SMILES IDX 39 89 47 90 40 91 46 92 41 93 42 94 43 95 44 96 45 97
REMARK H PARENT 75 11 75 12 3 16 66 53 36 64
REMARK Flexibility Score: inf
ROOT
ATOM      1  C   UNL A   1      33.542  29.062  25.661  1.00  0.00     0.274 C 
ENDROOT
BRANCH   1   2
ATOM      2  O   UNL A   1      33.410  27.687  26.084  1.00  0.00    -0.460 OA
BRANCH   2   3
ATOM      3  C   UNL A   1      32.094  27.236  26.017  1.00  0.00     0.332 C 
ATOM      4  O   UNL A   1      31.331  27.293  26.977  1.00  0.00    -0.249 OA
BRANCH   3   5
ATOM      5  C   UNL A   1      31.685  26.555  24.654  1.00  0.00     0.151 C 
ATOM      6  C   UNL A   1      30.856  27.651  23.952  1.00  0.00     0.102 C 
ATOM      7  C   UNL A   1      32.916  26.208  23.758  1.00  0.00     0.102 C 
ATOM      8  C   UNL A   1      30.631  27.421  22.462  1.00  0.00     0.263 C 
ATOM      9  C   UNL A   1      32.523  25.965  22.303  1.00  0.00     0.263 C 
ATOM     10  N   UNL A   1      31.882  27.156  21.760  1.00  0.00    -0.346 N 
ATOM     11  H   UNL A   1      32.507  27.955  21.872  1.00  0.00     0.346 HD
ATOM     12  H   UNL A   1      31.683  27.004  20.771  1.00  0.00     0.346 HD
BRANCH   5  13
ATOM     13  N   UNL A   1      30.899  25.340  24.913  1.00  0.00    -0.305 N 
ATOM     14  O   UNL A   1      30.845  23.247  25.814  1.00  0.00    -0.225 OA
ATOM     15  C   UNL A   1      31.474  24.245  25.497  1.00  0.00     0.408 C 
ATOM     16  H   UNL A   1      29.948  25.313  24.661  1.00  0.00     0.168 HD
BRANCH  15  17
ATOM     17  O   UNL A   1      32.790  24.461  25.746  1.00  0.00    -0.449 OA
BRANCH  17  18
ATOM     18  C   UNL A   1      33.494  23.441  26.431  1.00  0.00     0.248 C 
BRANCH  18  19
ATOM     19  C   UNL A   1      34.101  22.377  25.497  1.00  0.00     0.088 C 
ATOM     20  C   UNL A   1      33.816  20.862  25.331  1.00  0.00    -0.029 A 
ATOM     21  C   UNL A   1      35.624  22.380  25.594  1.00  0.00    -0.029 A 
ATOM     22  C   UNL A   1      32.686  20.054  25.377  1.00  0.00     0.005 A 
ATOM     23  C   UNL A   1      35.022  20.238  24.929  1.00  0.00    -0.014 A 
ATOM     24  C   UNL A   1      36.118  21.161  25.103  1.00  0.00    -0.014 A 
ATOM     25  C   UNL A   1      36.483  23.347  26.096  1.00  0.00     0.005 A 
ATOM     26  C   UNL A   1      32.742  18.693  25.031  1.00  0.00     0.000 A 
ATOM     27  C   UNL A   1      35.080  18.899  24.541  1.00  0.00     0.009 A 
ATOM     28  C   UNL A   1      37.477  20.945  24.985  1.00  0.00     0.009 A 
ATOM     29  C   UNL A   1      37.852  23.106  26.037  1.00  0.00     0.000 A 
ATOM     30  C   UNL A   1      33.928  18.123  24.591  1.00  0.00     0.001 A 
ATOM     31  C   UNL A   1      38.346  21.932  25.452  1.00  0.00     0.001 A 
ENDBRANCH  18  19
ENDBRANCH  17  18
ENDBRANCH  15  17
ENDBRANCH   5  13
ENDBRANCH   3   5
ENDBRANCH   2   3
ENDBRANCH   1   2
BRANCH   1  32
ATOM     32  C   UNL A   1      33.045  30.193  26.564  1.00  0.00     0.275 C 
BRANCH  32  33
ATOM     33  O   UNL A   1      33.677  30.096  27.836  1.00  0.00    -0.458 OA
BRANCH  33  34
ATOM     34  C   UNL A   1      34.668  30.994  28.060  1.00  0.00     0.338 C 
ATOM     35  O   UNL A   1      34.535  32.192  28.236  1.00  0.00    -0.246 OA
BRANCH  34  36
ATOM     36  C   UNL A   1      35.906  30.218  28.295  1.00  0.00     0.060 A 
ATOM     37  C   UNL A   1      36.262  29.825  29.584  1.00  0.00     0.016 A 
ATOM     38  C   UNL A   1      36.808  30.050  27.249  1.00  0.00     0.016 A 
ATOM     39  C   UNL A   1      37.566  29.442  29.865  1.00  0.00     0.010 A 
ATOM     40  C   UNL A   1      38.084  29.551  27.521  1.00  0.00     0.010 A 
ATOM     41  C   UNL A   1      38.498  29.293  28.843  1.00  0.00    -0.014 A 
BRANCH  41  42
ATOM     42  C   UNL A   1      39.910  28.901  29.104  1.00  0.00     0.031 A 
ATOM     43  C   UNL A   1      40.899  29.978  29.457  1.00  0.00     0.074 A 
ATOM     44  C   UNL A   1      40.336  27.634  28.940  1.00  0.00     0.049 A 
ATOM     45  N   UNL A   1      42.177  30.044  29.201  1.00  0.00    -0.248 NA
ATOM     46  C   UNL A   1      40.357  31.166  30.142  1.00  0.00     0.031 C 
ATOM     47  C   UNL A   1      39.498  26.452  28.726  1.00  0.00     0.029 A 
ATOM     48  N   UNL A   1      41.619  27.141  28.872  1.00  0.00    -0.354 N 
ATOM     49  C   UNL A   1      42.572  31.321  29.589  1.00  0.00     0.074 A 
ATOM     50  C   UNL A   1      41.402  31.983  30.125  1.00  0.00     0.031 C 
ATOM     51  C   UNL A   1      40.279  25.381  28.533  1.00  0.00     0.029 A 
ATOM     52  C   UNL A   1      41.661  25.828  28.465  1.00  0.00     0.049 A 
ATOM     53  H   UNL A   1      42.420  27.671  29.091  1.00  0.00     0.167 HD
ATOM     54  C   UNL A   1      43.799  31.882  29.469  1.00  0.00     0.031 A 
ATOM     55  C   UNL A   1      42.669  25.088  27.969  1.00  0.00     0.031 A 
ATOM     56  C   UNL A   1      44.947  31.159  28.983  1.00  0.00     0.049 A 
ATOM     57  C   UNL A   1      44.011  25.728  27.789  1.00  0.00     0.074 A 
ATOM     58  C   UNL A   1      46.250  31.600  28.835  1.00  0.00     0.029 A 
ATOM     59  N   UNL A   1      44.929  29.826  28.591  1.00  0.00    -0.354 N 
ATOM     60  N   UNL A   1      44.368  26.968  28.031  1.00  0.00    -0.248 NA
ATOM     61  C   UNL A   1      45.079  24.876  27.258  1.00  0.00     0.031 C 
ATOM     62  C   UNL A   1      47.010  30.546  28.316  1.00  0.00     0.029 A 
ATOM     63  C   UNL A   1      46.196  29.430  28.197  1.00  0.00     0.049 A 
ATOM     64  H   UNL A   1      44.134  29.247  28.595  1.00  0.00     0.167 HD
ATOM     65  C   UNL A   1      45.714  27.041  27.700  1.00  0.00     0.074 A 
ATOM     66  C   UNL A   1      46.105  25.717  27.255  1.00  0.00     0.031 C 
ATOM     67  C   UNL A   1      46.552  28.105  27.757  1.00  0.00     0.031 A 
BRANCH  54  68
ATOM     68  C   UNL A   1      43.956  33.344  29.807  1.00  0.00    -0.014 A 
ATOM     69  C   UNL A   1      44.109  33.793  31.130  1.00  0.00     0.010 A 
ATOM     70  C   UNL A   1      44.006  34.287  28.761  1.00  0.00     0.010 A 
ATOM     71  C   UNL A   1      44.276  35.156  31.402  1.00  0.00     0.020 A 
ATOM     72  C   UNL A   1      44.203  35.646  29.026  1.00  0.00     0.020 A 
ATOM     73  C   UNL A   1      44.322  36.074  30.348  1.00  0.00     0.054 A 
BRANCH  73  74
ATOM     74  S   UNL A   1      44.574  37.831  30.729  1.00  0.00     0.124 S 
ATOM     75  O   UNL A   1      43.353  38.432  30.199  1.00  0.00    -0.237 OA
ATOM     76  O   UNL A   1      44.691  37.829  32.185  1.00  0.00    -0.237 OA
ATOM     77  O   UNL A   1      45.799  38.171  30.009  1.00  0.00    -0.744 OA
ENDBRANCH  73  74
ENDBRANCH  54  68
BRANCH  55  78
ATOM     78  C   UNL A   1      42.398  23.694  27.523  1.00  0.00    -0.014 A 
ATOM     79  C   UNL A   1      42.235  23.405  26.159  1.00  0.00     0.010 A 
ATOM     80  C   UNL A   1      42.390  22.635  28.454  1.00  0.00     0.010 A 
ATOM     81  C   UNL A   1      42.078  22.084  25.731  1.00  0.00     0.020 A 
ATOM     82  C   UNL A   1      42.267  21.311  28.027  1.00  0.00     0.020 A 
ATOM     83  C   UNL A   1      42.107  21.044  26.666  1.00  0.00     0.054 A 
BRANCH  83  84
ATOM     84  S   UNL A   1      42.001  19.333  26.073  1.00  0.00     0.124 S 
ATOM     85  O   UNL A   1      42.417  18.578  27.250  1.00  0.00    -0.237 OA
ATOM     86  O   UNL A   1      40.591  19.213  25.709  1.00  0.00    -0.237 OA
ATOM     87  O   UNL A   1      42.932  19.303  24.947  1.00  0.00    -0.744 OA
ENDBRANCH  83  84
ENDBRANCH  55  78
BRANCH  67  88
ATOM     88  C   UNL A   1      47.985  27.855  27.380  1.00  0.00    -0.014 A 
ATOM     89  C   UNL A   1      48.931  27.450  28.337  1.00  0.00     0.010 A 
ATOM     90  C   UNL A   1      48.380  28.012  26.039  1.00  0.00     0.010 A 
ATOM     91  C   UNL A   1      50.261  27.244  27.964  1.00  0.00     0.020 A 
ATOM     92  C   UNL A   1      49.701  27.778  25.658  1.00  0.00     0.020 A 
ATOM     93  C   UNL A   1      50.638  27.413  26.627  1.00  0.00     0.054 A 
BRANCH  93  94
ATOM     94  S   UNL A   1      52.364  27.115  26.164  1.00  0.00     0.124 S 
ATOM     95  O   UNL A   1      52.229  26.604  24.802  1.00  0.00    -0.237 OA
ATOM     96  O   UNL A   1      52.962  28.443  26.281  1.00  0.00    -0.237 OA
ATOM     97  O   UNL A   1      52.824  26.141  27.151  1.00  0.00    -0.744 OA
ENDBRANCH  93  94
ENDBRANCH  67  88
ENDBRANCH  41  42
ENDBRANCH  34  36
ENDBRANCH  33  34
ENDBRANCH  32  33
ENDBRANCH   1  32
TORSDOF 18
ENDMDL
MODEL 2
REMARK VINA RESULT:     -11.8      1.065      2.360
REMARK SMILES O=C(NC1(C(=O)OCCOC(=O)c2ccc(-c3c4nc(c(-c5ccc(S(=O)(=O)[O-])cc5)c5ccc([nH]5)c(-c5ccc(S(=O)(=O)[O-])cc5)c5nc(c(-c6ccc(S(=O)(=O)[O-])cc6)c6ccc3[nH]6)C=C5)C=C4)cc2)CC[NH2+]CC1)OCC1c2ccccc2-c2ccccc21
REMARK SMILES IDX 8 1 7 2 5 3 6 4 4 5 73 6 77 7 74 8 76 9 75 10 3 13 1 14 2 15
REMARK SMILES IDX 78 17 79 18 80 19 81 20 92 21 82 22 86 23 87 24 91 25 83 26
REMARK SMILES IDX 85 27 88 28 90 29 84 30 89 31 9 32 10 33 11 34 12 35 13 36
REMARK SMILES IDX 14 37 72 38 15 39 71 40 16 41 17 42 18 43 65 44 19 45 70 46
REMARK SMILES IDX 64 47 66 48 20 49 69 50 63 51 62 52 21 54 51 55 32 56 50 57
REMARK SMILES IDX 33 58 36 59 49 60 67 61 34 62 35 63 48 65 68 66 37 67 22 68
REMARK SMILES IDX 23 69 31 70 24 71 30 72 25 73 26 74 27 75 28 76 29 77 52 78
REMARK SMILES IDX 53 79 61 80 54 81 60 82 55 83 56 84 57 85 58 86 59 87 38 88
REMARK SMILES IDX 39 89 47 90 40 91 46 92 41 93 42 94 43 95 44 96 45 97
REMARK H PARENT 75 11 75 12 3 16 66 53 36 64
REMARK Flexibility Score: inf
ROOT
ATOM      1  C   UNL A   1      32.547  29.988  25.787  1.00  0.00     0.274 C 
ENDROOT
BRANCH   1   2
ATOM      2  O   UNL A   1      33.219  28.952  25.036  1.00  0.00    -0.460 OA
BRANCH   2   3
ATOM      3  C   UNL A   1      32.660  27.695  25.254  1.00  0.00     0.332 C 
ATOM      4  O   UNL A   1      33.001  26.979  26.191  1.00  0.00    -0.249 OA
BRANCH   3   5
ATOM      5  C   UNL A   1      31.636  27.215  24.154  1.00  0.00     0.151 C 
ATOM      6  C   UNL A   1      31.430  25.725  24.497  1.00  0.00     0.102 C 
ATOM      7  C   UNL A   1      30.259  27.946  24.251  1.00  0.00     0.102 C 
ATOM      8  C   UNL A   1      30.216  25.082  23.835  1.00  0.00     0.263 C 
ATOM      9  C   UNL A   1      29.155  27.201  23.504  1.00  0.00     0.263 C 
ATOM     10  N   UNL A   1      29.003  25.861  24.057  1.00  0.00    -0.346 N 
ATOM     11  H   UNL A   1      28.825  25.929  25.059  1.00  0.00     0.346 HD
ATOM     12  H   UNL A   1      28.221  25.398  23.593  1.00  0.00     0.346 HD
BRANCH   5  13
ATOM     13  N   UNL A   1      32.208  27.406  22.814  1.00  0.00    -0.305 N 
ATOM     14  O   UNL A   1      33.674  26.668  21.232  1.00  0.00    -0.225 OA
ATOM     15  C   UNL A   1      33.226  26.608  22.367  1.00  0.00     0.408 C 
ATOM     16  H   UNL A   1      31.856  28.117  22.232  1.00  0.00     0.168 HD
BRANCH  15  17
ATOM     17  O   UNL A   1      33.591  25.708  23.314  1.00  0.00    -0.449 OA
BRANCH  17  18
ATOM     18  C   UNL A   1      33.957  24.415  22.869  1.00  0.00     0.248 C 
BRANCH  18  19
ATOM     19  C   UNL A   1      34.395  23.473  24.006  1.00  0.00     0.088 C 
ATOM     20  C   UNL A   1      35.797  23.058  24.524  1.00  0.00    -0.029 A 
ATOM     21  C   UNL A   1      33.718  22.112  23.871  1.00  0.00    -0.029 A 
ATOM     22  C   UNL A   1      37.021  23.695  24.695  1.00  0.00     0.005 A 
ATOM     23  C   UNL A   1      35.698  21.737  25.026  1.00  0.00    -0.014 A 
ATOM     24  C   UNL A   1      34.438  21.164  24.615  1.00  0.00    -0.014 A 
ATOM     25  C   UNL A   1      32.600  21.743  23.136  1.00  0.00     0.005 A 
ATOM     26  C   UNL A   1      38.094  23.061  25.343  1.00  0.00     0.000 A 
ATOM     27  C   UNL A   1      36.742  21.114  25.709  1.00  0.00     0.009 A 
ATOM     28  C   UNL A   1      33.977  19.869  24.743  1.00  0.00     0.009 A 
ATOM     29  C   UNL A   1      32.170  20.422  23.213  1.00  0.00     0.000 A 
ATOM     30  C   UNL A   1      37.949  21.785  25.870  1.00  0.00     0.001 A 
ATOM     31  C   UNL A   1      32.830  19.502  24.039  1.00  0.00     0.001 A 
ENDBRANCH  18  19
ENDBRANCH  17  18
ENDBRANCH  15  17
ENDBRANCH   5  13
ENDBRANCH   3   5
ENDBRANCH   2   3
ENDBRANCH   1   2
BRANCH   1  32
ATOM     32  C   UNL A   1      33.010  30.330  27.204  1.00  0.00     0.275 C 
BRANCH  32  33
ATOM     33  O   UNL A   1      34.364  30.770  27.169  1.00  0.00    -0.458 OA
BRANCH  33  34
ATOM     34  C   UNL A   1      34.896  31.105  28.370  1.00  0.00     0.338 C 
ATOM     35  O   UNL A   1      34.363  31.773  29.237  1.00  0.00    -0.246 OA
BRANCH  34  36
ATOM     36  C   UNL A   1      36.133  30.309  28.529  1.00  0.00     0.060 A 
ATOM     37  C   UNL A   1      36.501  29.813  29.779  1.00  0.00     0.016 A 
ATOM     38  C   UNL A   1      37.025  30.222  27.464  1.00  0.00     0.016 A 
ATOM     39  C   UNL A   1      37.806  29.405  30.014  1.00  0.00     0.010 A 
ATOM     40  C   UNL A   1      38.301  29.699  27.682  1.00  0.00     0.010 A 
ATOM     41  C   UNL A   1      38.728  29.335  28.974  1.00  0.00    -0.014 A 
BRANCH  41  42
ATOM     42  C   UNL A   1      40.140  28.920  29.188  1.00  0.00     0.031 A 
ATOM     43  C   UNL A   1      41.156  29.979  29.518  1.00  0.00     0.074 A 
ATOM     44  C   UNL A   1      40.541  27.647  29.002  1.00  0.00     0.049 A 
ATOM     45  N   UNL A   1      42.427  30.026  29.222  1.00  0.00    -0.248 NA
ATOM     46  C   UNL A   1      40.655  31.170  30.226  1.00  0.00     0.031 C 
ATOM     47  C   UNL A   1      39.679  26.480  28.807  1.00  0.00     0.029 A 
ATOM     48  N   UNL A   1      41.814  27.135  28.891  1.00  0.00    -0.354 N 
ATOM     49  C   UNL A   1      42.854  31.295  29.606  1.00  0.00     0.074 A 
ATOM     50  C   UNL A   1      41.712  31.971  30.183  1.00  0.00     0.031 C 
ATOM     51  C   UNL A   1      40.436  25.399  28.583  1.00  0.00     0.029 A 
ATOM     52  C   UNL A   1      41.822  25.824  28.474  1.00  0.00     0.049 A 
ATOM     53  H   UNL A   1      42.629  27.651  29.089  1.00  0.00     0.167 HD
ATOM     54  C   UNL A   1      44.085  31.837  29.451  1.00  0.00     0.031 A 
ATOM     55  C   UNL A   1      42.802  25.073  27.942  1.00  0.00     0.031 A 
ATOM     56  C   UNL A   1      45.206  31.099  28.925  1.00  0.00     0.049 A 
ATOM     57  C   UNL A   1      44.148  25.693  27.725  1.00  0.00     0.074 A 
ATOM     58  C   UNL A   1      46.510  31.521  28.739  1.00  0.00     0.029 A 
ATOM     59  N   UNL A   1      45.155  29.770  28.525  1.00  0.00    -0.354 N 
ATOM     60  N   UNL A   1      44.532  26.925  27.963  1.00  0.00    -0.248 NA
ATOM     61  C   UNL A   1      45.185  24.828  27.156  1.00  0.00     0.031 C 
ATOM     62  C   UNL A   1      47.237  30.459  28.189  1.00  0.00     0.029 A 
ATOM     63  C   UNL A   1      46.402  29.357  28.089  1.00  0.00     0.049 A 
ATOM     64  H   UNL A   1      44.351  29.203  28.550  1.00  0.00     0.167 HD
ATOM     65  C   UNL A   1      45.868  26.980  27.591  1.00  0.00     0.074 A 
ATOM     66  C   UNL A   1      46.224  25.653  27.126  1.00  0.00     0.031 C 
ATOM     67  C   UNL A   1      46.723  28.031  27.629  1.00  0.00     0.031 A 
BRANCH  54  68
ATOM     68  C   UNL A   1      44.276  33.294  29.793  1.00  0.00    -0.014 A 
ATOM     69  C   UNL A   1      44.012  34.319  28.869  1.00  0.00     0.010 A 
ATOM     70  C   UNL A   1      44.680  33.645  31.097  1.00  0.00     0.010 A 
ATOM     71  C   UNL A   1      44.179  35.661  29.230  1.00  0.00     0.020 A 
ATOM     72  C   UNL A   1      44.818  34.985  31.472  1.00  0.00     0.020 A 
ATOM     73  C   UNL A   1      44.580  35.986  30.529  1.00  0.00     0.054 A 
BRANCH  73  74
ATOM     74  S   UNL A   1      44.754  37.736  30.979  1.00  0.00     0.124 S 
ATOM     75  O   UNL A   1      43.860  37.841  32.130  1.00  0.00    -0.237 OA
ATOM     76  O   UNL A   1      46.178  37.850  31.279  1.00  0.00    -0.237 OA
ATOM     77  O   UNL A   1      44.313  38.449  29.782  1.00  0.00    -0.744 OA
ENDBRANCH  73  74
ENDBRANCH  54  68
BRANCH  55  78
ATOM     78  C   UNL A   1      42.495  23.686  27.496  1.00  0.00    -0.014 A 
ATOM     79  C   UNL A   1      42.351  23.397  26.130  1.00  0.00     0.010 A 
ATOM     80  C   UNL A   1      42.434  22.632  28.430  1.00  0.00     0.010 A 
ATOM     81  C   UNL A   1      42.160  22.080  25.704  1.00  0.00     0.020 A 
ATOM     82  C   UNL A   1      42.278  21.311  28.005  1.00  0.00     0.020 A 
ATOM     83  C   UNL A   1      42.137  21.044  26.643  1.00  0.00     0.054 A 
BRANCH  83  84
ATOM     84  S   UNL A   1      41.988  19.334  26.054  1.00  0.00     0.124 S 
ATOM     85  O   UNL A   1      40.568  19.247  25.732  1.00  0.00    -0.237 OA
ATOM     86  O   UNL A   1      42.899  19.314  24.911  1.00  0.00    -0.237 OA
ATOM     87  O   UNL A   1      42.422  18.538  27.200  1.00  0.00    -0.744 OA
ENDBRANCH  83  84
ENDBRANCH  55  78
BRANCH  67  88
ATOM     88  C   UNL A   1      48.140  27.761  27.206  1.00  0.00    -0.014 A 
ATOM     89  C   UNL A   1      48.543  27.906  25.868  1.00  0.00     0.010 A 
ATOM     90  C   UNL A   1      49.084  27.373  28.175  1.00  0.00     0.010 A 
ATOM     91  C   UNL A   1      49.861  27.629  25.498  1.00  0.00     0.020 A 
ATOM     92  C   UNL A   1      50.408  27.124  27.814  1.00  0.00     0.020 A 
ATOM     93  C   UNL A   1      50.784  27.237  26.474  1.00  0.00     0.054 A 
BRANCH  93  94
ATOM     94  S   UNL A   1      52.494  26.908  25.974  1.00  0.00     0.124 S 
ATOM     95  O   UNL A   1      52.482  25.460  25.786  1.00  0.00    -0.237 OA
ATOM     96  O   UNL A   1      52.630  27.700  24.754  1.00  0.00    -0.237 OA
ATOM     97  O   UNL A   1      53.284  27.382  27.108  1.00  0.00    -0.744 OA
ENDBRANCH  93  94
ENDBRANCH  67  88
ENDBRANCH  41  42
ENDBRANCH  34  36
ENDBRANCH  33  34
ENDBRANCH  32  33
ENDBRANCH   1  32
TORSDOF 18
ENDMDL
MODEL 3
REMARK VINA RESULT:     -11.8      4.752     10.650
REMARK SMILES O=C(NC1(C(=O)OCCOC(=O)c2ccc(-c3c4nc(c(-c5ccc(S(=O)(=O)[O-])cc5)c5ccc([nH]5)c(-c5ccc(S(=O)(=O)[O-])cc5)c5nc(c(-c6ccc(S(=O)(=O)[O-])cc6)c6ccc3[nH]6)C=C5)C=C4)cc2)CC[NH2+]CC1)OCC1c2ccccc2-c2ccccc21
REMARK SMILES IDX 8 1 7 2 5 3 6 4 4 5 73 6 77 7 74 8 76 9 75 10 3 13 1 14 2 15
REMARK SMILES IDX 78 17 79 18 80 19 81 20 92 21 82 22 86 23 87 24 91 25 83 26
REMARK SMILES IDX 85 27 88 28 90 29 84 30 89 31 9 32 10 33 11 34 12 35 13 36
REMARK SMILES IDX 14 37 72 38 15 39 71 40 16 41 17 42 18 43 65 44 19 45 70 46
REMARK SMILES IDX 64 47 66 48 20 49 69 50 63 51 62 52 21 54 51 55 32 56 50 57
REMARK SMILES IDX 33 58 36 59 49 60 67 61 34 62 35 63 48 65 68 66 37 67 22 68
REMARK SMILES IDX 23 69 31 70 24 71 30 72 25 73 26 74 27 75 28 76 29 77 52 78
REMARK SMILES IDX 53 79 61 80 54 81 60 82 55 83 56 84 57 85 58 86 59 87 38 88
REMARK SMILES IDX 39 89 47 90 40 91 46 92 41 93 42 94 43 95 44 96 45 97
REMARK H PARENT 75 11 75 12 3 16 66 53 36 64
REMARK Flexibility Score: inf
ROOT
ATOM      1  C   UNL A   1      36.720  21.623  24.943  1.00  0.00     0.274 C 
ENDROOT
BRANCH   1   2
ATOM      2  O   UNL A   1      35.859  22.783  24.999  1.00  0.00    -0.460 OA
BRANCH   2   3
ATOM      3  C   UNL A   1      35.108  22.942  23.837  1.00  0.00     0.332 C 
ATOM      4  O   UNL A   1      35.604  23.335  22.784  1.00  0.00    -0.249 OA
BRANCH   3   5
ATOM      5  C   UNL A   1      33.561  22.680  23.995  1.00  0.00     0.151 C 
ATOM      6  C   UNL A   1      33.462  21.141  23.947  1.00  0.00     0.102 C 
ATOM      7  C   UNL A   1      33.001  23.174  25.366  1.00  0.00     0.102 C 
ATOM      8  C   UNL A   1      32.135  20.574  24.438  1.00  0.00     0.263 C 
ATOM      9  C   UNL A   1      31.649  22.549  25.699  1.00  0.00     0.263 C 
ATOM     10  N   UNL A   1      31.777  21.098  25.752  1.00  0.00    -0.346 N 
ATOM     11  H   UNL A   1      32.503  20.848  26.424  1.00  0.00     0.346 HD
ATOM     12  H   UNL A   1      30.883  20.696  26.037  1.00  0.00     0.346 HD
BRANCH   5  13
ATOM     13  N   UNL A   1      32.826  23.322  22.896  1.00  0.00    -0.305 N 
ATOM     14  O   UNL A   1      32.086  25.264  21.961  1.00  0.00    -0.225 OA
ATOM     15  C   UNL A   1      32.612  24.673  22.892  1.00  0.00     0.408 C 
ATOM     16  H   UNL A   1      32.482  22.773  22.155  1.00  0.00     0.168 HD
BRANCH  15  17
ATOM     17  O   UNL A   1      33.134  25.252  24.001  1.00  0.00    -0.449 OA
BRANCH  17  18
ATOM     18  C   UNL A   1      33.454  26.629  23.922  1.00  0.00     0.248 C 
BRANCH  18  19
ATOM     19  C   UNL A   1      32.338  27.553  24.446  1.00  0.00     0.088 C 
ATOM     20  C   UNL A   1      31.303  28.444  23.711  1.00  0.00    -0.029 A 
ATOM     21  C   UNL A   1      32.888  28.532  25.477  1.00  0.00    -0.029 A 
ATOM     22  C   UNL A   1      30.553  28.339  22.545  1.00  0.00     0.005 A 
ATOM     23  C   UNL A   1      31.027  29.558  24.541  1.00  0.00    -0.014 A 
ATOM     24  C   UNL A   1      32.001  29.613  25.606  1.00  0.00    -0.014 A 
ATOM     25  C   UNL A   1      34.070  28.491  26.204  1.00  0.00     0.005 A 
ATOM     26  C   UNL A   1      29.566  29.285  22.221  1.00  0.00     0.000 A 
ATOM     27  C   UNL A   1      30.020  30.478  24.251  1.00  0.00     0.009 A 
ATOM     28  C   UNL A   1      32.214  30.595  26.552  1.00  0.00     0.009 A 
ATOM     29  C   UNL A   1      34.318  29.513  27.115  1.00  0.00     0.000 A 
ATOM     30  C   UNL A   1      29.283  30.337  23.081  1.00  0.00     0.001 A 
ATOM     31  C   UNL A   1      33.382  30.536  27.314  1.00  0.00     0.001 A 
ENDBRANCH  18  19
ENDBRANCH  17  18
ENDBRANCH  15  17
ENDBRANCH   5  13
ENDBRANCH   3   5
ENDBRANCH   2   3
ENDBRANCH   1   2
BRANCH   1  32
ATOM     32  C   UNL A   1      38.171  21.723  25.415  1.00  0.00     0.275 C 
BRANCH  32  33
ATOM     33  O   UNL A   1      38.372  22.968  26.076  1.00  0.00    -0.458 OA
BRANCH  33  34
ATOM     34  C   UNL A   1      39.647  23.222  26.460  1.00  0.00     0.338 C 
ATOM     35  O   UNL A   1      40.632  22.561  26.183  1.00  0.00    -0.246 OA
BRANCH  34  36
ATOM     36  C   UNL A   1      39.653  24.572  27.064  1.00  0.00     0.060 A 
ATOM     37  C   UNL A   1      40.409  25.599  26.500  1.00  0.00     0.016 A 
ATOM     38  C   UNL A   1      39.053  24.761  28.306  1.00  0.00     0.016 A 
ATOM     39  C   UNL A   1      40.722  26.728  27.242  1.00  0.00     0.010 A 
ATOM     40  C   UNL A   1      39.276  25.954  28.998  1.00  0.00     0.010 A 
ATOM     41  C   UNL A   1      40.159  26.931  28.499  1.00  0.00    -0.014 A 
BRANCH  41  42
ATOM     42  C   UNL A   1      40.482  28.120  29.333  1.00  0.00     0.031 A 
ATOM     43  C   UNL A   1      41.621  28.023  30.310  1.00  0.00     0.074 A 
ATOM     44  C   UNL A   1      39.726  29.235  29.301  1.00  0.00     0.049 A 
ATOM     45  N   UNL A   1      41.772  28.610  31.466  1.00  0.00    -0.248 NA
ATOM     46  C   UNL A   1      42.707  27.091  29.959  1.00  0.00     0.031 C 
ATOM     47  C   UNL A   1      38.672  29.547  28.333  1.00  0.00     0.029 A 
ATOM     48  N   UNL A   1      39.702  30.305  30.166  1.00  0.00    -0.354 N 
ATOM     49  C   UNL A   1      42.909  28.039  32.031  1.00  0.00     0.074 A 
ATOM     50  C   UNL A   1      43.422  27.081  31.076  1.00  0.00     0.031 C 
ATOM     51  C   UNL A   1      38.094  30.710  28.663  1.00  0.00     0.029 A 
ATOM     52  C   UNL A   1      38.637  31.145  29.940  1.00  0.00     0.049 A 
ATOM     53  H   UNL A   1      40.375  30.453  30.870  1.00  0.00     0.167 HD
ATOM     54  C   UNL A   1      43.439  28.284  33.253  1.00  0.00     0.031 A 
ATOM     55  C   UNL A   1      38.070  32.082  30.720  1.00  0.00     0.031 A 
ATOM     56  C   UNL A   1      42.924  29.293  34.144  1.00  0.00     0.049 A 
ATOM     57  C   UNL A   1      38.628  32.313  32.090  1.00  0.00     0.074 A 
ATOM     58  C   UNL A   1      43.382  29.658  35.397  1.00  0.00     0.029 A 
ATOM     59  N   UNL A   1      41.845  30.119  33.856  1.00  0.00    -0.354 N 
ATOM     60  N   UNL A   1      39.620  31.694  32.687  1.00  0.00    -0.248 NA
ATOM     61  C   UNL A   1      37.984  33.354  32.895  1.00  0.00     0.031 C 
ATOM     62  C   UNL A   1      42.555  30.677  35.883  1.00  0.00     0.029 A 
ATOM     63  C   UNL A   1      41.619  30.989  34.909  1.00  0.00     0.049 A 
ATOM     64  H   UNL A   1      41.318  30.092  33.025  1.00  0.00     0.167 HD
ATOM     65  C   UNL A   1      39.733  32.287  33.937  1.00  0.00     0.074 A 
ATOM     66  C   UNL A   1      38.718  33.322  34.000  1.00  0.00     0.031 C 
ATOM     67  C   UNL A   1      40.598  32.005  34.942  1.00  0.00     0.031 A 
BRANCH  54  68
ATOM     68  C   UNL A   1      44.585  27.423  33.724  1.00  0.00    -0.014 A 
ATOM     69  C   UNL A   1      44.378  26.200  34.387  1.00  0.00     0.010 A 
ATOM     70  C   UNL A   1      45.906  27.826  33.444  1.00  0.00     0.010 A 
ATOM     71  C   UNL A   1      45.466  25.417  34.788  1.00  0.00     0.020 A 
ATOM     72  C   UNL A   1      46.995  27.032  33.816  1.00  0.00     0.020 A 
ATOM     73  C   UNL A   1      46.768  25.838  34.500  1.00  0.00     0.054 A 
BRANCH  73  74
ATOM     74  S   UNL A   1      48.159  24.784  35.002  1.00  0.00     0.124 S 
ATOM     75  O   UNL A   1      48.860  25.644  35.952  1.00  0.00    -0.237 OA
ATOM     76  O   UNL A   1      47.488  23.624  35.582  1.00  0.00    -0.237 OA
ATOM     77  O   UNL A   1      48.870  24.527  33.752  1.00  0.00    -0.744 OA
ENDBRANCH  73  74
ENDBRANCH  54  68
BRANCH  55  78
ATOM     78  C   UNL A   1      36.851  32.789  30.239  1.00  0.00    -0.014 A 
ATOM     79  C   UNL A   1      35.597  32.497  30.796  1.00  0.00     0.010 A 
ATOM     80  C   UNL A   1      36.953  33.821  29.284  1.00  0.00     0.010 A 
ATOM     81  C   UNL A   1      34.468  33.228  30.416  1.00  0.00     0.020 A 
ATOM     82  C   UNL A   1      35.834  34.576  28.926  1.00  0.00     0.020 A 
ATOM     83  C   UNL A   1      34.595  34.271  29.493  1.00  0.00     0.054 A 
BRANCH  83  84
ATOM     84  S   UNL A   1      33.133  35.267  29.092  1.00  0.00     0.124 S 
ATOM     85  O   UNL A   1      32.406  35.258  30.357  1.00  0.00    -0.237 OA
ATOM     86  O   UNL A   1      33.721  36.549  28.709  1.00  0.00    -0.237 OA
ATOM     87  O   UNL A   1      32.504  34.528  28.000  1.00  0.00    -0.744 OA
ENDBRANCH  83  84
ENDBRANCH  55  78
BRANCH  67  88
ATOM     88  C   UNL A   1      40.510  32.869  36.168  1.00  0.00    -0.014 A 
ATOM     89  C   UNL A   1      41.302  34.022  36.306  1.00  0.00     0.010 A 
ATOM     90  C   UNL A   1      39.604  32.525  37.188  1.00  0.00     0.010 A 
ATOM     91  C   UNL A   1      41.215  34.797  37.465  1.00  0.00     0.020 A 
ATOM     92  C   UNL A   1      39.495  33.313  38.334  1.00  0.00     0.020 A 
ATOM     93  C   UNL A   1      40.314  34.435  38.473  1.00  0.00     0.054 A 
BRANCH  93  94
ATOM     94  S   UNL A   1      40.203  35.470  39.956  1.00  0.00     0.124 S 
ATOM     95  O   UNL A   1      38.905  36.114  39.779  1.00  0.00    -0.237 OA
ATOM     96  O   UNL A   1      40.279  34.491  41.037  1.00  0.00    -0.237 OA
ATOM     97  O   UNL A   1      41.359  36.358  39.845  1.00  0.00    -0.744 OA
ENDBRANCH  93  94
ENDBRANCH  67  88
ENDBRANCH  41  42
ENDBRANCH  34  36
ENDBRANCH  33  34
ENDBRANCH  32  33
ENDBRANCH   1  32
TORSDOF 18
ENDMDL
