MODEL 1
REMARK VINA RESULT:     -11.0      0.000      0.000
REMARK SMILES C[C@H](C(=O)OCCOC(=O)c1ccc(-c2c3nc(c(-c4ccc(S(=O)(=O)[O-])cc4)c4ccc([nH]4)c(-c4ccc(S(=O)(=O)[O-])cc4)c4nc(c(-c5ccc(S(=O)(=O)[O-])cc5)c5ccc2[nH]5)C=C4)C=C3)cc1)c1ccc2c(c1)OCCO2
REMARK SMILES IDX 7 1 6 2 5 3 3 4 4 5 2 6 1 7 71 8 72 9 76 10 73 11 75 12
REMARK SMILES IDX 74 13 77 14 80 15 78 16 79 17 8 18 9 19 10 20 11 21 12 22
REMARK SMILES IDX 70 23 13 24 69 25 14 26 15 27 16 28 63 29 17 30 68 31 62 32
REMARK SMILES IDX 64 33 18 34 67 35 61 36 60 37 19 39 49 40 30 41 48 42 31 43
REMARK SMILES IDX 34 44 47 45 65 46 32 47 33 48 46 50 66 51 35 52 20 53 21 54
REMARK SMILES IDX 29 55 22 56 28 57 23 58 24 59 25 60 26 61 27 62 50 63 51 64
REMARK SMILES IDX 59 65 52 66 58 67 53 68 54 69 55 70 56 71 57 72 36 73 37 74
REMARK SMILES IDX 45 75 38 76 44 77 39 78 40 79 41 80 42 81 43 82
REMARK H PARENT 64 38 34 49
REMARK Flexibility Score: inf
ROOT
ATOM      1  C   UNL A   1      32.332  30.166  27.133  1.00  0.00     0.275 C 
ENDROOT
BRANCH   1   2
ATOM      2  C   UNL A   1      31.752  29.523  25.871  1.00  0.00     0.274 C 
BRANCH   2   3
ATOM      3  O   UNL A   1      32.315  28.218  25.642  1.00  0.00    -0.462 OA
BRANCH   3   4
ATOM      4  C   UNL A   1      31.408  27.204  25.701  1.00  0.00     0.313 C 
ATOM      5  O   UNL A   1      30.866  26.865  26.751  1.00  0.00    -0.252 OA
BRANCH   4   6
ATOM      6  C   UNL A   1      31.105  26.541  24.338  1.00  0.00     0.126 C 
ATOM      7  C   UNL A   1      30.881  25.029  24.516  1.00  0.00     0.025 C 
BRANCH   6   8
ATOM      8  C   UNL A   1      29.949  27.225  23.604  1.00  0.00    -0.030 A 
ATOM      9  C   UNL A   1      28.606  26.898  23.867  1.00  0.00     0.009 A 
ATOM     10  C   UNL A   1      30.201  28.285  22.721  1.00  0.00     0.055 A 
ATOM     11  C   UNL A   1      27.580  27.773  23.506  1.00  0.00     0.051 A 
ATOM     12  C   UNL A   1      29.211  29.212  22.465  1.00  0.00     0.161 A 
ATOM     13  C   UNL A   1      27.916  28.983  22.917  1.00  0.00     0.161 A 
ATOM     14  O   UNL A   1      29.627  30.394  21.921  1.00  0.00    -0.486 OA
ATOM     15  O   UNL A   1      26.999  30.003  22.943  1.00  0.00    -0.486 OA
ATOM     16  C   UNL A   1      28.793  31.500  22.279  1.00  0.00     0.271 C 
ATOM     17  C   UNL A   1      27.738  31.171  23.334  1.00  0.00     0.271 C 
ENDBRANCH   6   8
ENDBRANCH   4   6
ENDBRANCH   3   4
ENDBRANCH   2   3
ENDBRANCH   1   2
BRANCH   1  18
ATOM     18  O   UNL A   1      33.681  29.720  27.375  1.00  0.00    -0.458 OA
BRANCH  18  19
ATOM     19  C   UNL A   1      34.464  30.573  28.080  1.00  0.00     0.338 C 
ATOM     20  O   UNL A   1      34.129  31.654  28.537  1.00  0.00    -0.246 OA
BRANCH  19  21
ATOM     21  C   UNL A   1      35.822  30.021  28.281  1.00  0.00     0.060 A 
ATOM     22  C   UNL A   1      36.244  29.553  29.525  1.00  0.00     0.016 A 
ATOM     23  C   UNL A   1      36.742  30.108  27.237  1.00  0.00     0.016 A 
ATOM     24  C   UNL A   1      37.591  29.289  29.764  1.00  0.00     0.010 A 
ATOM     25  C   UNL A   1      38.069  29.717  27.443  1.00  0.00     0.010 A 
ATOM     26  C   UNL A   1      38.519  29.333  28.719  1.00  0.00    -0.014 A 
BRANCH  26  27
ATOM     27  C   UNL A   1      39.950  28.981  28.940  1.00  0.00     0.031 A 
ATOM     28  C   UNL A   1      40.916  30.024  29.441  1.00  0.00     0.074 A 
ATOM     29  C   UNL A   1      40.402  27.740  28.658  1.00  0.00     0.049 A 
ATOM     30  N   UNL A   1      42.225  30.010  29.433  1.00  0.00    -0.248 NA
ATOM     31  C   UNL A   1      40.333  31.251  30.008  1.00  0.00     0.031 C 
ATOM     32  C   UNL A   1      39.580  26.609  28.219  1.00  0.00     0.029 A 
ATOM     33  N   UNL A   1      41.676  27.226  28.691  1.00  0.00    -0.354 N 
ATOM     34  C   UNL A   1      42.622  31.251  29.919  1.00  0.00     0.074 A 
ATOM     35  C   UNL A   1      41.414  31.989  30.227  1.00  0.00     0.031 C 
ATOM     36  C   UNL A   1      40.362  25.531  28.056  1.00  0.00     0.029 A 
ATOM     37  C   UNL A   1      41.749  25.918  28.273  1.00  0.00     0.049 A 
ATOM     38  H   UNL A   1      42.459  27.743  28.985  1.00  0.00     0.167 HD
ATOM     39  C   UNL A   1      43.876  31.735  30.076  1.00  0.00     0.031 A 
ATOM     40  C   UNL A   1      42.811  25.128  28.028  1.00  0.00     0.031 A 
ATOM     41  C   UNL A   1      45.072  30.977  29.813  1.00  0.00     0.049 A 
ATOM     42  C   UNL A   1      44.192  25.690  28.183  1.00  0.00     0.074 A 
ATOM     43  C   UNL A   1      46.392  31.372  29.953  1.00  0.00     0.029 A 
ATOM     44  N   UNL A   1      45.094  29.662  29.377  1.00  0.00    -0.354 N 
ATOM     45  N   UNL A   1      44.552  26.893  28.564  1.00  0.00    -0.248 NA
ATOM     46  C   UNL A   1      45.312  24.798  27.852  1.00  0.00     0.031 C 
ATOM     47  C   UNL A   1      47.211  30.304  29.570  1.00  0.00     0.029 A 
ATOM     48  C   UNL A   1      46.402  29.231  29.233  1.00  0.00     0.049 A 
ATOM     49  H   UNL A   1      44.296  29.113  29.196  1.00  0.00     0.167 HD
ATOM     50  C   UNL A   1      45.940  26.900  28.524  1.00  0.00     0.074 A 
ATOM     51  C   UNL A   1      46.355  25.577  28.102  1.00  0.00     0.031 C 
ATOM     52  C   UNL A   1      46.795  27.913  28.808  1.00  0.00     0.031 A 
BRANCH  39  53
ATOM     53  C   UNL A   1      44.024  33.170  30.507  1.00  0.00    -0.014 A 
ATOM     54  C   UNL A   1      44.029  33.536  31.864  1.00  0.00     0.010 A 
ATOM     55  C   UNL A   1      44.199  34.166  29.528  1.00  0.00     0.010 A 
ATOM     56  C   UNL A   1      44.169  34.879  32.232  1.00  0.00     0.020 A 
ATOM     57  C   UNL A   1      44.362  35.505  29.892  1.00  0.00     0.020 A 
ATOM     58  C   UNL A   1      44.328  35.855  31.243  1.00  0.00     0.054 A 
BRANCH  58  59
ATOM     59  S   UNL A   1      44.526  37.588  31.744  1.00  0.00     0.124 S 
ATOM     60  O   UNL A   1      45.980  37.732  31.754  1.00  0.00    -0.237 OA
ATOM     61  O   UNL A   1      43.832  38.314  30.685  1.00  0.00    -0.237 OA
ATOM     62  O   UNL A   1      43.886  37.645  33.056  1.00  0.00    -0.744 OA
ENDBRANCH  58  59
ENDBRANCH  39  53
BRANCH  40  63
ATOM     63  C   UNL A   1      42.597  23.737  27.543  1.00  0.00    -0.014 A 
ATOM     64  C   UNL A   1      42.625  23.450  26.169  1.00  0.00     0.010 A 
ATOM     65  C   UNL A   1      42.406  22.686  28.461  1.00  0.00     0.010 A 
ATOM     66  C   UNL A   1      42.464  22.136  25.718  1.00  0.00     0.020 A 
ATOM     67  C   UNL A   1      42.273  21.370  28.016  1.00  0.00     0.020 A 
ATOM     68  C   UNL A   1      42.294  21.104  26.645  1.00  0.00     0.054 A 
BRANCH  68  69
ATOM     69  S   UNL A   1      42.164  19.394  26.048  1.00  0.00     0.124 S 
ATOM     70  O   UNL A   1      42.649  18.635  27.196  1.00  0.00    -0.237 OA
ATOM     71  O   UNL A   1      40.738  19.264  25.759  1.00  0.00    -0.237 OA
ATOM     72  O   UNL A   1      43.032  19.380  24.872  1.00  0.00    -0.744 OA
ENDBRANCH  68  69
ENDBRANCH  40  63
BRANCH  52  73
ATOM     73  C   UNL A   1      48.263  27.616  28.699  1.00  0.00    -0.014 A 
ATOM     74  C   UNL A   1      49.001  27.194  29.819  1.00  0.00     0.010 A 
ATOM     75  C   UNL A   1      48.904  27.730  27.453  1.00  0.00     0.010 A 
ATOM     76  C   UNL A   1      50.365  26.918  29.699  1.00  0.00     0.020 A 
ATOM     77  C   UNL A   1      50.262  27.437  27.325  1.00  0.00     0.020 A 
ATOM     78  C   UNL A   1      50.988  27.046  28.453  1.00  0.00     0.054 A 
BRANCH  78  79
ATOM     79  S   UNL A   1      52.753  26.651  28.311  1.00  0.00     0.124 S 
ATOM     80  O   UNL A   1      53.062  26.160  29.650  1.00  0.00    -0.237 OA
ATOM     81  O   UNL A   1      52.775  25.646  27.250  1.00  0.00    -0.237 OA
ATOM     82  O   UNL A   1      53.365  27.930  27.958  1.00  0.00    -0.744 OA
ENDBRANCH  78  79
ENDBRANCH  52  73
ENDBRANCH  26  27
ENDBRANCH  19  21
ENDBRANCH  18  19
ENDBRANCH   1  18
TORSDOF 15
ENDMDL
MODEL 2
REMARK VINA RESULT:     -10.5      4.179      9.155
REMARK SMILES C[C@H](C(=O)OCCOC(=O)c1ccc(-c2c3nc(c(-c4ccc(S(=O)(=O)[O-])cc4)c4ccc([nH]4)c(-c4ccc(S(=O)(=O)[O-])cc4)c4nc(c(-c5ccc(S(=O)(=O)[O-])cc5)c5ccc2[nH]5)C=C4)C=C3)cc1)c1ccc2c(c1)OCCO2
REMARK SMILES IDX 7 1 6 2 5 3 3 4 4 5 2 6 1 7 71 8 72 9 76 10 73 11 75 12
REMARK SMILES IDX 74 13 77 14 80 15 78 16 79 17 8 18 9 19 10 20 11 21 12 22
REMARK SMILES IDX 70 23 13 24 69 25 14 26 15 27 16 28 63 29 17 30 68 31 62 32
REMARK SMILES IDX 64 33 18 34 67 35 61 36 60 37 19 39 49 40 30 41 48 42 31 43
REMARK SMILES IDX 34 44 47 45 65 46 32 47 33 48 46 50 66 51 35 52 20 53 21 54
REMARK SMILES IDX 29 55 22 56 28 57 23 58 24 59 25 60 26 61 27 62 50 63 51 64
REMARK SMILES IDX 59 65 52 66 58 67 53 68 54 69 55 70 56 71 57 72 36 73 37 74
REMARK SMILES IDX 45 75 38 76 44 77 39 78 40 79 41 80 42 81 43 82
REMARK H PARENT 64 38 34 49
REMARK Flexibility Score: inf
ROOT
ATOM      1  C   UNL A   1      32.265  30.134  27.080  1.00  0.00     0.275 C 
ENDROOT
BRANCH   1   2
ATOM      2  C   UNL A   1      31.808  28.674  27.045  1.00  0.00     0.274 C 
BRANCH   2   3
ATOM      3  O   UNL A   1      31.439  28.272  25.713  1.00  0.00    -0.462 OA
BRANCH   3   4
ATOM      4  C   UNL A   1      31.067  26.966  25.610  1.00  0.00     0.313 C 
ATOM      5  O   UNL A   1      30.919  26.243  26.592  1.00  0.00    -0.252 OA
BRANCH   4   6
ATOM      6  C   UNL A   1      30.824  26.487  24.160  1.00  0.00     0.126 C 
ATOM      7  C   UNL A   1      30.589  24.966  24.132  1.00  0.00     0.025 C 
BRANCH   6   8
ATOM      8  C   UNL A   1      29.706  27.269  23.469  1.00  0.00    -0.030 A 
ATOM      9  C   UNL A   1      28.351  27.069  23.792  1.00  0.00     0.009 A 
ATOM     10  C   UNL A   1      30.015  28.296  22.566  1.00  0.00     0.055 A 
ATOM     11  C   UNL A   1      27.394  28.031  23.467  1.00  0.00     0.051 A 
ATOM     12  C   UNL A   1      29.103  29.309  22.344  1.00  0.00     0.161 A 
ATOM     13  C   UNL A   1      27.814  29.202  22.853  1.00  0.00     0.161 A 
ATOM     14  O   UNL A   1      29.601  30.445  21.771  1.00  0.00    -0.486 OA
ATOM     15  O   UNL A   1      26.996  30.303  22.909  1.00  0.00    -0.486 OA
ATOM     16  C   UNL A   1      28.888  31.624  22.154  1.00  0.00     0.271 C 
ATOM     17  C   UNL A   1      27.855  31.400  23.255  1.00  0.00     0.271 C 
ENDBRANCH   6   8
ENDBRANCH   4   6
ENDBRANCH   3   4
ENDBRANCH   2   3
ENDBRANCH   1   2
BRANCH   1  18
ATOM     18  O   UNL A   1      33.696  30.238  26.940  1.00  0.00    -0.458 OA
BRANCH  18  19
ATOM     19  C   UNL A   1      34.280  31.256  27.618  1.00  0.00     0.338 C 
ATOM     20  O   UNL A   1      33.804  32.363  27.815  1.00  0.00    -0.246 OA
BRANCH  19  21
ATOM     21  C   UNL A   1      35.602  30.861  28.154  1.00  0.00     0.060 A 
ATOM     22  C   UNL A   1      35.798  29.633  28.784  1.00  0.00     0.016 A 
ATOM     23  C   UNL A   1      36.632  31.801  28.156  1.00  0.00     0.016 A 
ATOM     24  C   UNL A   1      36.960  29.386  29.511  1.00  0.00     0.010 A 
ATOM     25  C   UNL A   1      37.849  31.499  28.775  1.00  0.00     0.010 A 
ATOM     26  C   UNL A   1      38.019  30.300  29.490  1.00  0.00    -0.014 A 
BRANCH  26  27
ATOM     27  C   UNL A   1      39.297  30.020  30.201  1.00  0.00     0.031 A 
ATOM     28  C   UNL A   1      40.221  28.941  29.697  1.00  0.00     0.074 A 
ATOM     29  C   UNL A   1      39.622  30.699  31.321  1.00  0.00     0.049 A 
ATOM     30  N   UNL A   1      41.220  28.355  30.308  1.00  0.00    -0.248 NA
ATOM     31  C   UNL A   1      39.978  28.442  28.333  1.00  0.00     0.031 C 
ATOM     32  C   UNL A   1      38.859  31.808  31.901  1.00  0.00     0.029 A 
ATOM     33  N   UNL A   1      40.683  30.547  32.182  1.00  0.00    -0.354 N 
ATOM     34  C   UNL A   1      41.673  27.370  29.438  1.00  0.00     0.074 A 
ATOM     35  C   UNL A   1      40.851  27.446  28.249  1.00  0.00     0.031 C 
ATOM     36  C   UNL A   1      39.490  32.254  32.998  1.00  0.00     0.029 A 
ATOM     37  C   UNL A   1      40.640  31.399  33.260  1.00  0.00     0.049 A 
ATOM     38  H   UNL A   1      41.402  29.891  32.040  1.00  0.00     0.167 HD
ATOM     39  C   UNL A   1      42.672  26.474  29.623  1.00  0.00     0.031 A 
ATOM     40  C   UNL A   1      41.398  31.455  34.371  1.00  0.00     0.031 A 
ATOM     41  C   UNL A   1      43.517  26.437  30.788  1.00  0.00     0.049 A 
ATOM     42  C   UNL A   1      42.482  30.439  34.569  1.00  0.00     0.074 A 
ATOM     43  C   UNL A   1      44.565  25.576  31.066  1.00  0.00     0.029 A 
ATOM     44  N   UNL A   1      43.424  27.312  31.859  1.00  0.00    -0.354 N 
ATOM     45  N   UNL A   1      42.845  29.460  33.775  1.00  0.00    -0.248 NA
ATOM     46  C   UNL A   1      43.243  30.518  35.823  1.00  0.00     0.031 C 
ATOM     47  C   UNL A   1      45.085  25.911  32.321  1.00  0.00     0.029 A 
ATOM     48  C   UNL A   1      44.389  27.007  32.804  1.00  0.00     0.049 A 
ATOM     49  H   UNL A   1      42.768  28.043  31.937  1.00  0.00     0.167 HD
ATOM     50  C   UNL A   1      43.882  28.810  34.431  1.00  0.00     0.074 A 
ATOM     51  C   UNL A   1      44.101  29.517  35.677  1.00  0.00     0.031 C 
ATOM     52  C   UNL A   1      44.588  27.720  34.039  1.00  0.00     0.031 A 
BRANCH  39  53
ATOM     53  C   UNL A   1      42.876  25.425  28.562  1.00  0.00    -0.014 A 
ATOM     54  C   UNL A   1      42.247  24.171  28.635  1.00  0.00     0.010 A 
ATOM     55  C   UNL A   1      43.688  25.722  27.451  1.00  0.00     0.010 A 
ATOM     56  C   UNL A   1      42.456  23.217  27.632  1.00  0.00     0.020 A 
ATOM     57  C   UNL A   1      43.881  24.782  26.436  1.00  0.00     0.020 A 
ATOM     58  C   UNL A   1      43.278  23.526  26.543  1.00  0.00     0.054 A 
BRANCH  58  59
ATOM     59  S   UNL A   1      43.520  22.281  25.245  1.00  0.00     0.124 S 
ATOM     60  O   UNL A   1      44.815  21.714  25.613  1.00  0.00    -0.237 OA
ATOM     61  O   UNL A   1      42.373  21.396  25.425  1.00  0.00    -0.237 OA
ATOM     62  O   UNL A   1      43.512  23.062  24.010  1.00  0.00    -0.744 OA
ENDBRANCH  58  59
ENDBRANCH  39  53
BRANCH  40  63
ATOM     63  C   UNL A   1      41.105  32.478  35.411  1.00  0.00    -0.014 A 
ATOM     64  C   UNL A   1      41.660  33.765  35.321  1.00  0.00     0.010 A 
ATOM     65  C   UNL A   1      40.233  32.180  36.476  1.00  0.00     0.010 A 
ATOM     66  C   UNL A   1      41.351  34.737  36.277  1.00  0.00     0.020 A 
ATOM     67  C   UNL A   1      39.900  33.156  37.417  1.00  0.00     0.020 A 
ATOM     68  C   UNL A   1      40.469  34.427  37.317  1.00  0.00     0.054 A 
BRANCH  68  69
ATOM     69  S   UNL A   1      40.018  35.722  38.506  1.00  0.00     0.124 S 
ATOM     70  O   UNL A   1      38.815  35.166  39.117  1.00  0.00    -0.237 OA
ATOM     71  O   UNL A   1      41.194  35.789  39.369  1.00  0.00    -0.237 OA
ATOM     72  O   UNL A   1      39.809  36.898  37.663  1.00  0.00    -0.744 OA
ENDBRANCH  68  69
ENDBRANCH  40  63
BRANCH  52  73
ATOM     73  C   UNL A   1      45.680  27.250  34.956  1.00  0.00    -0.014 A 
ATOM     74  C   UNL A   1      46.977  27.786  34.871  1.00  0.00     0.010 A 
ATOM     75  C   UNL A   1      45.396  26.283  35.937  1.00  0.00     0.010 A 
ATOM     76  C   UNL A   1      47.981  27.340  35.734  1.00  0.00     0.020 A 
ATOM     77  C   UNL A   1      46.391  25.850  36.814  1.00  0.00     0.020 A 
ATOM     78  C   UNL A   1      47.682  26.370  36.698  1.00  0.00     0.054 A 
BRANCH  78  79
ATOM     79  S   UNL A   1      48.990  25.829  37.832  1.00  0.00     0.124 S 
ATOM     80  O   UNL A   1      49.735  27.066  38.047  1.00  0.00    -0.237 OA
ATOM     81  O   UNL A   1      48.237  25.338  38.985  1.00  0.00    -0.237 OA
ATOM     82  O   UNL A   1      49.697  24.798  37.075  1.00  0.00    -0.744 OA
ENDBRANCH  78  79
ENDBRANCH  52  73
ENDBRANCH  26  27
ENDBRANCH  19  21
ENDBRANCH  18  19
ENDBRANCH   1  18
TORSDOF 15
ENDMDL
MODEL 3
REMARK VINA RESULT:     -10.4      1.163      2.652
REMARK SMILES C[C@H](C(=O)OCCOC(=O)c1ccc(-c2c3nc(c(-c4ccc(S(=O)(=O)[O-])cc4)c4ccc([nH]4)c(-c4ccc(S(=O)(=O)[O-])cc4)c4nc(c(-c5ccc(S(=O)(=O)[O-])cc5)c5ccc2[nH]5)C=C4)C=C3)cc1)c1ccc2c(c1)OCCO2
REMARK SMILES IDX 7 1 6 2 5 3 3 4 4 5 2 6 1 7 71 8 72 9 76 10 73 11 75 12
REMARK SMILES IDX 74 13 77 14 80 15 78 16 79 17 8 18 9 19 10 20 11 21 12 22
REMARK SMILES IDX 70 23 13 24 69 25 14 26 15 27 16 28 63 29 17 30 68 31 62 32
REMARK SMILES IDX 64 33 18 34 67 35 61 36 60 37 19 39 49 40 30 41 48 42 31 43
REMARK SMILES IDX 34 44 47 45 65 46 32 47 33 48 46 50 66 51 35 52 20 53 21 54
REMARK SMILES IDX 29 55 22 56 28 57 23 58 24 59 25 60 26 61 27 62 50 63 51 64
REMARK SMILES IDX 59 65 52 66 58 67 53 68 54 69 55 70 56 71 57 72 36 73 37 74
REMARK SMILES IDX 45 75 38 76 44 77 39 78 40 79 41 80 42 81 43 82
REMARK H PARENT 64 38 34 49
REMARK Flexibility Score: inf
ROOT
ATOM      1  C   UNL A   1      32.634  30.274  27.267  1.00  0.00     0.275 C 
ENDROOT
BRANCH   1   2
ATOM      2  C   UNL A   1      32.082  30.156  25.844  1.00  0.00     0.274 C 
BRANCH   2   3
ATOM      3  O   UNL A   1      32.897  29.287  25.037  1.00  0.00    -0.462 OA
BRANCH   3   4
ATOM      4  C   UNL A   1      32.291  28.859  23.894  1.00  0.00     0.313 C 
ATOM      5  O   UNL A   1      32.885  28.783  22.821  1.00  0.00    -0.252 OA
BRANCH   4   6
ATOM      6  C   UNL A   1      30.808  28.458  24.073  1.00  0.00     0.126 C 
ATOM      7  C   UNL A   1      29.943  29.110  22.979  1.00  0.00     0.025 C 
BRANCH   6   8
ATOM      8  C   UNL A   1      30.622  26.941  24.147  1.00  0.00    -0.030 A 
ATOM      9  C   UNL A   1      30.770  26.120  23.014  1.00  0.00     0.009 A 
ATOM     10  C   UNL A   1      30.405  26.315  25.382  1.00  0.00     0.055 A 
ATOM     11  C   UNL A   1      30.992  24.749  23.156  1.00  0.00     0.051 A 
ATOM     12  C   UNL A   1      30.741  24.986  25.543  1.00  0.00     0.161 A 
ATOM     13  C   UNL A   1      31.097  24.224  24.436  1.00  0.00     0.161 A 
ATOM     14  O   UNL A   1      30.865  24.553  26.834  1.00  0.00    -0.486 OA
ATOM     15  O   UNL A   1      31.716  23.010  24.599  1.00  0.00    -0.486 OA
ATOM     16  C   UNL A   1      31.804  23.485  26.978  1.00  0.00     0.271 C 
ATOM     17  C   UNL A   1      32.605  23.180  25.714  1.00  0.00     0.271 C 
ENDBRANCH   6   8
ENDBRANCH   4   6
ENDBRANCH   3   4
ENDBRANCH   2   3
ENDBRANCH   1   2
BRANCH   1  18
ATOM     18  O   UNL A   1      34.042  29.966  27.310  1.00  0.00    -0.458 OA
BRANCH  18  19
ATOM     19  C   UNL A   1      34.764  30.649  28.232  1.00  0.00     0.338 C 
ATOM     20  O   UNL A   1      34.382  31.603  28.890  1.00  0.00    -0.246 OA
BRANCH  19  21
ATOM     21  C   UNL A   1      36.117  30.072  28.394  1.00  0.00     0.060 A 
ATOM     22  C   UNL A   1      36.580  29.631  29.633  1.00  0.00     0.016 A 
ATOM     23  C   UNL A   1      36.995  30.109  27.311  1.00  0.00     0.016 A 
ATOM     24  C   UNL A   1      37.930  29.344  29.825  1.00  0.00     0.010 A 
ATOM     25  C   UNL A   1      38.321  29.693  27.475  1.00  0.00     0.010 A 
ATOM     26  C   UNL A   1      38.815  29.336  28.743  1.00  0.00    -0.014 A 
BRANCH  26  27
ATOM     27  C   UNL A   1      40.246  28.959  28.916  1.00  0.00     0.031 A 
ATOM     28  C   UNL A   1      41.247  29.985  29.380  1.00  0.00     0.074 A 
ATOM     29  C   UNL A   1      40.665  27.710  28.624  1.00  0.00     0.049 A 
ATOM     30  N   UNL A   1      42.554  29.948  29.327  1.00  0.00    -0.248 NA
ATOM     31  C   UNL A   1      40.707  31.225  29.962  1.00  0.00     0.031 C 
ATOM     32  C   UNL A   1      39.808  26.592  28.217  1.00  0.00     0.029 A 
ATOM     33  N   UNL A   1      41.930  27.172  28.614  1.00  0.00    -0.354 N 
ATOM     34  C   UNL A   1      42.990  31.182  29.795  1.00  0.00     0.074 A 
ATOM     35  C   UNL A   1      41.808  31.944  30.141  1.00  0.00     0.031 C 
ATOM     36  C   UNL A   1      40.564  25.500  28.031  1.00  0.00     0.029 A 
ATOM     37  C   UNL A   1      41.964  25.862  28.199  1.00  0.00     0.049 A 
ATOM     38  H   UNL A   1      42.732  27.676  28.880  1.00  0.00     0.167 HD
ATOM     39  C   UNL A   1      44.258  31.644  29.908  1.00  0.00     0.031 A 
ATOM     40  C   UNL A   1      43.003  25.051  27.920  1.00  0.00     0.031 A 
ATOM     41  C   UNL A   1      45.430  30.864  29.607  1.00  0.00     0.049 A 
ATOM     42  C   UNL A   1      44.399  25.589  28.027  1.00  0.00     0.074 A 
ATOM     43  C   UNL A   1      46.761  31.235  29.700  1.00  0.00     0.029 A 
ATOM     44  N   UNL A   1      45.413  29.547  29.175  1.00  0.00    -0.354 N 
ATOM     45  N   UNL A   1      44.793  26.786  28.390  1.00  0.00    -0.248 NA
ATOM     46  C   UNL A   1      45.490  24.675  27.661  1.00  0.00     0.031 C 
ATOM     47  C   UNL A   1      47.547  30.151  29.293  1.00  0.00     0.029 A 
ATOM     48  C   UNL A   1      46.708  29.092  28.988  1.00  0.00     0.049 A 
ATOM     49  H   UNL A   1      44.600  29.012  29.023  1.00  0.00     0.167 HD
ATOM     50  C   UNL A   1      46.179  26.767  28.304  1.00  0.00     0.074 A 
ATOM     51  C   UNL A   1      46.556  25.436  27.873  1.00  0.00     0.031 C 
ATOM     52  C   UNL A   1      47.061  27.765  28.554  1.00  0.00     0.031 A 
BRANCH  39  53
ATOM     53  C   UNL A   1      44.447  33.077  30.328  1.00  0.00    -0.014 A 
ATOM     54  C   UNL A   1      44.392  34.132  29.401  1.00  0.00     0.010 A 
ATOM     55  C   UNL A   1      44.646  33.372  31.691  1.00  0.00     0.010 A 
ATOM     56  C   UNL A   1      44.570  35.454  29.825  1.00  0.00     0.020 A 
ATOM     57  C   UNL A   1      44.801  34.692  32.121  1.00  0.00     0.020 A 
ATOM     58  C   UNL A   1      44.780  35.724  31.181  1.00  0.00     0.054 A 
BRANCH  58  59
ATOM     59  S   UNL A   1      44.991  37.448  31.710  1.00  0.00     0.124 S 
ATOM     60  O   UNL A   1      45.283  38.115  30.444  1.00  0.00    -0.237 OA
ATOM     61  O   UNL A   1      43.694  37.766  32.302  1.00  0.00    -0.237 OA
ATOM     62  O   UNL A   1      46.104  37.387  32.654  1.00  0.00    -0.744 OA
ENDBRANCH  58  59
ENDBRANCH  39  53
BRANCH  40  63
ATOM     63  C   UNL A   1      42.748  23.664  27.449  1.00  0.00    -0.014 A 
ATOM     64  C   UNL A   1      42.798  23.356  26.080  1.00  0.00     0.010 A 
ATOM     65  C   UNL A   1      42.493  22.634  28.375  1.00  0.00     0.010 A 
ATOM     66  C   UNL A   1      42.598  22.044  25.642  1.00  0.00     0.020 A 
ATOM     67  C   UNL A   1      42.320  21.317  27.943  1.00  0.00     0.020 A 
ATOM     68  C   UNL A   1      42.365  21.032  26.577  1.00  0.00     0.054 A 
BRANCH  68  69
ATOM     69  S   UNL A   1      42.184  19.321  25.999  1.00  0.00     0.124 S 
ATOM     70  O   UNL A   1      42.631  18.559  27.161  1.00  0.00    -0.237 OA
ATOM     71  O   UNL A   1      40.757  19.234  25.696  1.00  0.00    -0.237 OA
ATOM     72  O   UNL A   1      43.063  19.262  24.833  1.00  0.00    -0.744 OA
ENDBRANCH  68  69
ENDBRANCH  40  63
BRANCH  52  73
ATOM     73  C   UNL A   1      48.519  27.442  28.396  1.00  0.00    -0.014 A 
ATOM     74  C   UNL A   1      49.191  27.700  27.189  1.00  0.00     0.010 A 
ATOM     75  C   UNL A   1      49.232  26.902  29.481  1.00  0.00     0.010 A 
ATOM     76  C   UNL A   1      50.549  27.396  27.060  1.00  0.00     0.020 A 
ATOM     77  C   UNL A   1      50.593  26.616  29.363  1.00  0.00     0.020 A 
ATOM     78  C   UNL A   1      51.240  26.851  28.147  1.00  0.00     0.054 A 
BRANCH  78  79
ATOM     79  S   UNL A   1      53.010  26.495  27.971  1.00  0.00     0.124 S 
ATOM     80  O   UNL A   1      52.996  25.296  27.140  1.00  0.00    -0.237 OA
ATOM     81  O   UNL A   1      53.521  27.703  27.327  1.00  0.00    -0.237 OA
ATOM     82  O   UNL A   1      53.459  26.295  29.347  1.00  0.00    -0.744 OA
ENDBRANCH  78  79
ENDBRANCH  52  73
ENDBRANCH  26  27
ENDBRANCH  19  21
ENDBRANCH  18  19
ENDBRANCH   1  18
TORSDOF 15
ENDMDL
