MODEL 1
REMARK VINA RESULT:      -8.9      0.000      0.000
REMARK SMILES CSc1ccc(C[C@H]([NH3+])C(=O)OCCOC(=O)c2ccc(-c3c4nc(c(-c5ccc(S(=O)(=O)[O-])cc5)c5ccc([nH]5)c(-c5ccc(S(=O)(=O)[O-])cc5)c5nc(c(-c6ccc(S(=O)(=O)[O-])cc6)c6ccc3[nH]6)C=C5)C=C4)cc2)cc1
REMARK SMILES IDX 13 1 12 2 10 3 11 4 8 5 7 6 6 7 3 8 4 9 79 10 5 11 78 12
REMARK SMILES IDX 2 13 1 14 9 15 14 19 15 20 16 21 17 22 18 23 19 24 77 25
REMARK SMILES IDX 20 26 76 27 21 28 22 29 23 30 70 31 24 32 75 33 69 34 71 35
REMARK SMILES IDX 25 36 74 37 68 38 67 39 26 41 56 42 37 43 55 44 38 45 41 46
REMARK SMILES IDX 54 47 72 48 39 49 40 50 53 52 73 53 42 54 27 55 28 56 36 57
REMARK SMILES IDX 29 58 35 59 30 60 31 61 32 62 33 63 34 64 57 65 58 66 66 67
REMARK SMILES IDX 59 68 65 69 60 70 61 71 62 72 63 73 64 74 43 75 44 76 52 77
REMARK SMILES IDX 45 78 51 79 46 80 47 81 48 82 49 83 50 84
REMARK H PARENT 9 16 9 17 9 18 71 40 41 51
REMARK Flexibility Score: inf
ROOT
ATOM      1  C   UNL A   1      33.327  34.468  28.264  1.00  0.00     0.274 C 
ENDROOT
BRANCH   1   2
ATOM      2  O   UNL A   1      32.853  34.418  29.621  1.00  0.00    -0.458 OA
BRANCH   2   3
ATOM      3  C   UNL A   1      33.286  35.422  30.439  1.00  0.00     0.365 C 
ATOM      4  O   UNL A   1      33.116  36.610  30.189  1.00  0.00    -0.245 OA
BRANCH   3   5
ATOM      5  C   UNL A   1      33.948  34.908  31.740  1.00  0.00     0.296 C 
BRANCH   5   6
ATOM      6  C   UNL A   1      34.737  33.611  31.490  1.00  0.00     0.113 C 
BRANCH   6   7
ATOM      7  C   UNL A   1      36.180  33.822  31.063  1.00  0.00    -0.041 A 
ATOM      8  C   UNL A   1      38.862  34.260  30.232  1.00  0.00     0.007 A 
ATOM      9  C   UNL A   1      38.442  34.594  31.522  1.00  0.00     0.015 A 
ATOM     10  C   UNL A   1      37.926  33.701  29.360  1.00  0.00     0.015 A 
ATOM     11  C   UNL A   1      37.119  34.394  31.927  1.00  0.00     0.005 A 
ATOM     12  C   UNL A   1      36.603  33.477  29.772  1.00  0.00     0.005 A 
BRANCH   8  13
ATOM     13  S   UNL A   1      40.563  34.636  29.835  1.00  0.00    -0.130 SA
ATOM     14  C   UNL A   1      41.460  33.138  30.305  1.00  0.00     0.091 C 
ENDBRANCH   8  13
ENDBRANCH   6   7
ENDBRANCH   5   6
BRANCH   5  15
ATOM     15  N   UNL A   1      32.939  34.714  32.821  1.00  0.00    -0.346 N 
ATOM     16  H   UNL A   1      33.282  35.135  33.685  1.00  0.00     0.345 HD
ATOM     17  H   UNL A   1      32.786  33.716  32.967  1.00  0.00     0.345 HD
ATOM     18  H   UNL A   1      32.061  35.156  32.550  1.00  0.00     0.345 HD
ENDBRANCH   5  15
ENDBRANCH   3   5
ENDBRANCH   2   3
ENDBRANCH   1   2
BRANCH   1  19
ATOM     19  C   UNL A   1      33.294  33.090  27.590  1.00  0.00     0.275 C 
BRANCH  19  20
ATOM     20  O   UNL A   1      33.941  32.066  28.371  1.00  0.00    -0.458 OA
BRANCH  20  21
ATOM     21  C   UNL A   1      34.233  30.928  27.697  1.00  0.00     0.338 C 
ATOM     22  O   UNL A   1      33.610  30.455  26.758  1.00  0.00    -0.246 OA
BRANCH  21  23
ATOM     23  C   UNL A   1      35.515  30.362  28.158  1.00  0.00     0.060 A 
ATOM     24  C   UNL A   1      35.539  29.756  29.416  1.00  0.00     0.016 A 
ATOM     25  C   UNL A   1      36.696  30.509  27.426  1.00  0.00     0.016 A 
ATOM     26  C   UNL A   1      36.740  29.327  29.970  1.00  0.00     0.010 A 
ATOM     27  C   UNL A   1      37.907  30.074  27.983  1.00  0.00     0.010 A 
ATOM     28  C   UNL A   1      37.936  29.504  29.270  1.00  0.00    -0.014 A 
BRANCH  28  29
ATOM     29  C   UNL A   1      39.217  29.167  29.936  1.00  0.00     0.031 A 
ATOM     30  C   UNL A   1      39.621  29.896  31.187  1.00  0.00     0.074 A 
ATOM     31  C   UNL A   1      39.980  28.164  29.460  1.00  0.00     0.049 A 
ATOM     32  N   UNL A   1      40.705  29.766  31.907  1.00  0.00    -0.248 NA
ATOM     33  C   UNL A   1      38.676  30.902  31.699  1.00  0.00     0.031 C 
ATOM     34  C   UNL A   1      39.662  27.338  28.294  1.00  0.00     0.029 A 
ATOM     35  N   UNL A   1      41.175  27.662  29.910  1.00  0.00    -0.354 N 
ATOM     36  C   UNL A   1      40.585  30.682  32.944  1.00  0.00     0.074 A 
ATOM     37  C   UNL A   1      39.328  31.374  32.752  1.00  0.00     0.031 C 
ATOM     38  C   UNL A   1      40.633  26.427  28.127  1.00  0.00     0.029 A 
ATOM     39  C   UNL A   1      41.661  26.631  29.144  1.00  0.00     0.049 A 
ATOM     40  H   UNL A   1      41.640  28.009  30.706  1.00  0.00     0.167 HD
ATOM     41  C   UNL A   1      41.442  30.924  33.965  1.00  0.00     0.031 A 
ATOM     42  C   UNL A   1      42.814  25.940  29.239  1.00  0.00     0.031 A 
ATOM     43  C   UNL A   1      42.690  30.235  34.154  1.00  0.00     0.049 A 
ATOM     44  C   UNL A   1      43.778  26.269  30.347  1.00  0.00     0.074 A 
ATOM     45  C   UNL A   1      43.634  30.417  35.149  1.00  0.00     0.029 A 
ATOM     46  N   UNL A   1      43.168  29.225  33.330  1.00  0.00    -0.354 N 
ATOM     47  N   UNL A   1      43.660  27.157  31.306  1.00  0.00    -0.248 NA
ATOM     48  C   UNL A   1      45.031  25.502  30.385  1.00  0.00     0.031 C 
ATOM     49  C   UNL A   1      44.701  29.544  34.906  1.00  0.00     0.029 A 
ATOM     50  C   UNL A   1      44.398  28.784  33.787  1.00  0.00     0.049 A 
ATOM     51  H   UNL A   1      42.700  28.875  32.538  1.00  0.00     0.167 HD
ATOM     52  C   UNL A   1      44.811  27.037  32.075  1.00  0.00     0.074 A 
ATOM     53  C   UNL A   1      45.608  25.985  31.477  1.00  0.00     0.031 C 
ATOM     54  C   UNL A   1      45.176  27.734  33.180  1.00  0.00     0.031 A 
BRANCH  41  55
ATOM     55  C   UNL A   1      41.071  32.014  34.934  1.00  0.00    -0.014 A 
ATOM     56  C   UNL A   1      41.344  33.365  34.654  1.00  0.00     0.010 A 
ATOM     57  C   UNL A   1      40.418  31.682  36.135  1.00  0.00     0.010 A 
ATOM     58  C   UNL A   1      41.010  34.360  35.578  1.00  0.00     0.020 A 
ATOM     59  C   UNL A   1      40.062  32.675  37.051  1.00  0.00     0.020 A 
ATOM     60  C   UNL A   1      40.377  34.007  36.774  1.00  0.00     0.054 A 
BRANCH  60  61
ATOM     61  S   UNL A   1      39.947  35.316  37.954  1.00  0.00     0.124 S 
ATOM     62  O   UNL A   1      39.859  36.486  37.084  1.00  0.00    -0.237 OA
ATOM     63  O   UNL A   1      38.680  34.848  38.508  1.00  0.00    -0.237 OA
ATOM     64  O   UNL A   1      41.070  35.321  38.890  1.00  0.00    -0.744 OA
ENDBRANCH  60  61
ENDBRANCH  41  55
BRANCH  42  65
ATOM     65  C   UNL A   1      43.131  24.886  28.239  1.00  0.00    -0.014 A 
ATOM     66  C   UNL A   1      42.657  23.573  28.403  1.00  0.00     0.010 A 
ATOM     67  C   UNL A   1      43.912  25.197  27.110  1.00  0.00     0.010 A 
ATOM     68  C   UNL A   1      42.970  22.586  27.463  1.00  0.00     0.020 A 
ATOM     69  C   UNL A   1      44.206  24.218  26.156  1.00  0.00     0.020 A 
ATOM     70  C   UNL A   1      43.744  22.915  26.347  1.00  0.00     0.054 A 
BRANCH  70  71
ATOM     71  S   UNL A   1      44.106  21.631  25.116  1.00  0.00     0.124 S 
ATOM     72  O   UNL A   1      45.466  21.243  25.474  1.00  0.00    -0.237 OA
ATOM     73  O   UNL A   1      43.072  20.633  25.381  1.00  0.00    -0.237 OA
ATOM     74  O   UNL A   1      43.970  22.334  23.842  1.00  0.00    -0.744 OA
ENDBRANCH  70  71
ENDBRANCH  42  65
BRANCH  54  75
ATOM     75  C   UNL A   1      46.475  27.355  33.836  1.00  0.00    -0.014 A 
ATOM     76  C   UNL A   1      46.530  26.349  34.817  1.00  0.00     0.010 A 
ATOM     77  C   UNL A   1      47.665  27.987  33.431  1.00  0.00     0.010 A 
ATOM     78  C   UNL A   1      47.750  26.006  35.406  1.00  0.00     0.020 A 
ATOM     79  C   UNL A   1      48.889  27.630  34.002  1.00  0.00     0.020 A 
ATOM     80  C   UNL A   1      48.921  26.652  34.999  1.00  0.00     0.054 A 
BRANCH  80  81
ATOM     81  S   UNL A   1      50.499  26.167  35.751  1.00  0.00     0.124 S 
ATOM     82  O   UNL A   1      51.429  26.329  34.636  1.00  0.00    -0.237 OA
ATOM     83  O   UNL A   1      50.649  27.129  36.839  1.00  0.00    -0.237 OA
ATOM     84  O   UNL A   1      50.270  24.787  36.176  1.00  0.00    -0.744 OA
ENDBRANCH  80  81
ENDBRANCH  54  75
ENDBRANCH  28  29
ENDBRANCH  21  23
ENDBRANCH  20  21
ENDBRANCH  19  20
ENDBRANCH   1  19
TORSDOF 18
ENDMDL
MODEL 2
REMARK VINA RESULT:      -8.8      2.608      3.276
REMARK SMILES CSc1ccc(C[C@H]([NH3+])C(=O)OCCOC(=O)c2ccc(-c3c4nc(c(-c5ccc(S(=O)(=O)[O-])cc5)c5ccc([nH]5)c(-c5ccc(S(=O)(=O)[O-])cc5)c5nc(c(-c6ccc(S(=O)(=O)[O-])cc6)c6ccc3[nH]6)C=C5)C=C4)cc2)cc1
REMARK SMILES IDX 13 1 12 2 10 3 11 4 8 5 7 6 6 7 3 8 4 9 79 10 5 11 78 12
REMARK SMILES IDX 2 13 1 14 9 15 14 19 15 20 16 21 17 22 18 23 19 24 77 25
REMARK SMILES IDX 20 26 76 27 21 28 22 29 23 30 70 31 24 32 75 33 69 34 71 35
REMARK SMILES IDX 25 36 74 37 68 38 67 39 26 41 56 42 37 43 55 44 38 45 41 46
REMARK SMILES IDX 54 47 72 48 39 49 40 50 53 52 73 53 42 54 27 55 28 56 36 57
REMARK SMILES IDX 29 58 35 59 30 60 31 61 32 62 33 63 34 64 57 65 58 66 66 67
REMARK SMILES IDX 59 68 65 69 60 70 61 71 62 72 63 73 64 74 43 75 44 76 52 77
REMARK SMILES IDX 45 78 51 79 46 80 47 81 48 82 49 83 50 84
REMARK H PARENT 9 16 9 17 9 18 71 40 41 51
REMARK Flexibility Score: inf
ROOT
ATOM      1  C   UNL A   1      33.531  34.277  28.346  1.00  0.00     0.274 C 
ENDROOT
BRANCH   1   2
ATOM      2  O   UNL A   1      33.164  34.452  29.725  1.00  0.00    -0.458 OA
BRANCH   2   3
ATOM      3  C   UNL A   1      33.029  35.744  30.145  1.00  0.00     0.365 C 
ATOM      4  O   UNL A   1      32.277  36.548  29.606  1.00  0.00    -0.245 OA
BRANCH   3   5
ATOM      5  C   UNL A   1      33.865  36.068  31.406  1.00  0.00     0.296 C 
BRANCH   5   6
ATOM      6  C   UNL A   1      33.491  35.142  32.577  1.00  0.00     0.113 C 
BRANCH   6   7
ATOM      7  C   UNL A   1      34.627  34.266  33.078  1.00  0.00    -0.041 A 
ATOM      8  C   UNL A   1      36.717  32.605  34.051  1.00  0.00     0.007 A 
ATOM      9  C   UNL A   1      36.152  32.391  32.792  1.00  0.00     0.015 A 
ATOM     10  C   UNL A   1      36.228  33.662  34.821  1.00  0.00     0.015 A 
ATOM     11  C   UNL A   1      35.112  33.198  32.319  1.00  0.00     0.005 A 
ATOM     12  C   UNL A   1      35.201  34.489  34.338  1.00  0.00     0.005 A 
BRANCH   8  13
ATOM     13  S   UNL A   1      37.989  31.453  34.550  1.00  0.00    -0.130 SA
ATOM     14  C   UNL A   1      37.922  30.159  33.289  1.00  0.00     0.091 C 
ENDBRANCH   8  13
ENDBRANCH   6   7
ENDBRANCH   5   6
BRANCH   5  15
ATOM     15  N   UNL A   1      33.725  37.500  31.797  1.00  0.00    -0.346 N 
ATOM     16  H   UNL A   1      32.787  37.660  32.167  1.00  0.00     0.345 HD
ATOM     17  H   UNL A   1      33.872  38.091  30.979  1.00  0.00     0.345 HD
ATOM     18  H   UNL A   1      34.417  37.727  32.511  1.00  0.00     0.345 HD
ENDBRANCH   5  15
ENDBRANCH   3   5
ENDBRANCH   2   3
ENDBRANCH   1   2
BRANCH   1  19
ATOM     19  C   UNL A   1      33.418  32.814  27.899  1.00  0.00     0.275 C 
BRANCH  19  20
ATOM     20  O   UNL A   1      34.377  31.952  28.544  1.00  0.00    -0.458 OA
BRANCH  20  21
ATOM     21  C   UNL A   1      34.390  30.673  28.100  1.00  0.00     0.338 C 
ATOM     22  O   UNL A   1      33.472  30.080  27.555  1.00  0.00    -0.246 OA
BRANCH  21  23
ATOM     23  C   UNL A   1      35.735  30.085  28.240  1.00  0.00     0.060 A 
ATOM     24  C   UNL A   1      36.099  29.594  29.497  1.00  0.00     0.016 A 
ATOM     25  C   UNL A   1      36.665  30.103  27.198  1.00  0.00     0.016 A 
ATOM     26  C   UNL A   1      37.396  29.154  29.735  1.00  0.00     0.010 A 
ATOM     27  C   UNL A   1      37.972  29.658  27.436  1.00  0.00     0.010 A 
ATOM     28  C   UNL A   1      38.350  29.205  28.714  1.00  0.00    -0.014 A 
BRANCH  28  29
ATOM     29  C   UNL A   1      39.758  28.862  29.027  1.00  0.00     0.031 A 
ATOM     30  C   UNL A   1      40.626  29.860  29.741  1.00  0.00     0.074 A 
ATOM     31  C   UNL A   1      40.234  27.637  28.734  1.00  0.00     0.049 A 
ATOM     32  N   UNL A   1      41.884  29.764  30.088  1.00  0.00    -0.248 NA
ATOM     33  C   UNL A   1      39.994  31.134  30.122  1.00  0.00     0.031 C 
ATOM     34  C   UNL A   1      39.469  26.560  28.104  1.00  0.00     0.029 A 
ATOM     35  N   UNL A   1      41.475  27.090  28.943  1.00  0.00    -0.354 N 
ATOM     36  C   UNL A   1      42.200  30.966  30.708  1.00  0.00     0.074 A 
ATOM     37  C   UNL A   1      41.005  31.784  30.677  1.00  0.00     0.031 C 
ATOM     38  C   UNL A   1      40.256  25.478  27.985  1.00  0.00     0.029 A 
ATOM     39  C   UNL A   1      41.588  25.798  28.490  1.00  0.00     0.049 A 
ATOM     40  H   UNL A   1      42.214  27.576  29.375  1.00  0.00     0.167 HD
ATOM     41  C   UNL A   1      43.377  31.354  31.255  1.00  0.00     0.031 A 
ATOM     42  C   UNL A   1      42.651  24.970  28.467  1.00  0.00     0.031 A 
ATOM     43  C   UNL A   1      44.562  30.540  31.285  1.00  0.00     0.049 A 
ATOM     44  C   UNL A   1      43.965  25.446  29.026  1.00  0.00     0.074 A 
ATOM     45  C   UNL A   1      45.808  30.847  31.804  1.00  0.00     0.029 A 
ATOM     46  N   UNL A   1      44.649  29.252  30.776  1.00  0.00    -0.354 N 
ATOM     47  N   UNL A   1      44.253  26.597  29.587  1.00  0.00    -0.248 NA
ATOM     48  C   UNL A   1      45.096  24.511  28.950  1.00  0.00     0.031 C 
ATOM     49  C   UNL A   1      46.659  29.760  31.576  1.00  0.00     0.029 A 
ATOM     50  C   UNL A   1      45.929  28.756  30.958  1.00  0.00     0.049 A 
ATOM     51  H   UNL A   1      43.909  28.763  30.350  1.00  0.00     0.167 HD
ATOM     52  C   UNL A   1      45.591  26.514  29.953  1.00  0.00     0.074 A 
ATOM     53  C   UNL A   1      46.053  25.197  29.560  1.00  0.00     0.031 C 
ATOM     54  C   UNL A   1      46.370  27.443  30.562  1.00  0.00     0.031 A 
BRANCH  41  55
ATOM     55  C   UNL A   1      43.447  32.743  31.831  1.00  0.00    -0.014 A 
ATOM     56  C   UNL A   1      43.847  33.839  31.046  1.00  0.00     0.010 A 
ATOM     57  C   UNL A   1      43.086  32.957  33.173  1.00  0.00     0.010 A 
ATOM     58  C   UNL A   1      43.925  35.118  31.605  1.00  0.00     0.020 A 
ATOM     59  C   UNL A   1      43.141  34.238  33.730  1.00  0.00     0.020 A 
ATOM     60  C   UNL A   1      43.578  35.307  32.947  1.00  0.00     0.054 A 
BRANCH  60  61
ATOM     61  S   UNL A   1      43.681  36.977  33.649  1.00  0.00     0.124 S 
ATOM     62  O   UNL A   1      43.745  37.804  32.447  1.00  0.00    -0.237 OA
ATOM     63  O   UNL A   1      42.444  37.081  34.418  1.00  0.00    -0.237 OA
ATOM     64  O   UNL A   1      44.905  36.942  34.447  1.00  0.00    -0.744 OA
ENDBRANCH  60  61
ENDBRANCH  41  55
BRANCH  42  65
ATOM     65  C   UNL A   1      42.523  23.615  27.869  1.00  0.00    -0.014 A 
ATOM     66  C   UNL A   1      42.757  23.407  26.499  1.00  0.00     0.010 A 
ATOM     67  C   UNL A   1      42.166  22.518  28.677  1.00  0.00     0.010 A 
ATOM     68  C   UNL A   1      42.622  22.131  25.943  1.00  0.00     0.020 A 
ATOM     69  C   UNL A   1      42.054  21.237  28.130  1.00  0.00     0.020 A 
ATOM     70  C   UNL A   1      42.270  21.055  26.763  1.00  0.00     0.054 A 
BRANCH  70  71
ATOM     71  S   UNL A   1      42.141  19.398  26.033  1.00  0.00     0.124 S 
ATOM     72  O   UNL A   1      42.656  18.554  27.106  1.00  0.00    -0.237 OA
ATOM     73  O   UNL A   1      40.710  19.277  25.765  1.00  0.00    -0.237 OA
ATOM     74  O   UNL A   1      42.984  19.483  24.843  1.00  0.00    -0.744 OA
ENDBRANCH  70  71
ENDBRANCH  42  65
BRANCH  54  75
ATOM     75  C   UNL A   1      47.788  27.055  30.876  1.00  0.00    -0.014 A 
ATOM     76  C   UNL A   1      48.119  26.411  32.081  1.00  0.00     0.010 A 
ATOM     77  C   UNL A   1      48.798  27.301  29.928  1.00  0.00     0.010 A 
ATOM     78  C   UNL A   1      49.443  26.050  32.347  1.00  0.00     0.020 A 
ATOM     79  C   UNL A   1      50.119  26.922  30.182  1.00  0.00     0.020 A 
ATOM     80  C   UNL A   1      50.435  26.312  31.398  1.00  0.00     0.054 A 
BRANCH  80  81
ATOM     81  S   UNL A   1      52.141  25.804  31.748  1.00  0.00     0.124 S 
ATOM     82  O   UNL A   1      52.796  26.036  30.463  1.00  0.00    -0.237 OA
ATOM     83  O   UNL A   1      52.534  26.708  32.826  1.00  0.00    -0.237 OA
ATOM     84  O   UNL A   1      52.011  24.401  32.137  1.00  0.00    -0.744 OA
ENDBRANCH  80  81
ENDBRANCH  54  75
ENDBRANCH  28  29
ENDBRANCH  21  23
ENDBRANCH  20  21
ENDBRANCH  19  20
ENDBRANCH   1  19
TORSDOF 18
ENDMDL
MODEL 3
REMARK VINA RESULT:      -8.5      0.460      8.531
REMARK SMILES CSc1ccc(C[C@H]([NH3+])C(=O)OCCOC(=O)c2ccc(-c3c4nc(c(-c5ccc(S(=O)(=O)[O-])cc5)c5ccc([nH]5)c(-c5ccc(S(=O)(=O)[O-])cc5)c5nc(c(-c6ccc(S(=O)(=O)[O-])cc6)c6ccc3[nH]6)C=C5)C=C4)cc2)cc1
REMARK SMILES IDX 13 1 12 2 10 3 11 4 8 5 7 6 6 7 3 8 4 9 79 10 5 11 78 12
REMARK SMILES IDX 2 13 1 14 9 15 14 19 15 20 16 21 17 22 18 23 19 24 77 25
REMARK SMILES IDX 20 26 76 27 21 28 22 29 23 30 70 31 24 32 75 33 69 34 71 35
REMARK SMILES IDX 25 36 74 37 68 38 67 39 26 41 56 42 37 43 55 44 38 45 41 46
REMARK SMILES IDX 54 47 72 48 39 49 40 50 53 52 73 53 42 54 27 55 28 56 36 57
REMARK SMILES IDX 29 58 35 59 30 60 31 61 32 62 33 63 34 64 57 65 58 66 66 67
REMARK SMILES IDX 59 68 65 69 60 70 61 71 62 72 63 73 64 74 43 75 44 76 52 77
REMARK SMILES IDX 45 78 51 79 46 80 47 81 48 82 49 83 50 84
REMARK H PARENT 9 16 9 17 9 18 71 40 41 51
REMARK Flexibility Score: inf
ROOT
ATOM      1  C   UNL A   1      33.244  34.224  28.166  1.00  0.00     0.274 C 
ENDROOT
BRANCH   1   2
ATOM      2  O   UNL A   1      32.783  34.318  29.526  1.00  0.00    -0.458 OA
BRANCH   2   3
ATOM      3  C   UNL A   1      33.294  35.354  30.255  1.00  0.00     0.365 C 
ATOM      4  O   UNL A   1      33.161  36.529  29.934  1.00  0.00    -0.245 OA
BRANCH   3   5
ATOM      5  C   UNL A   1      33.993  34.897  31.558  1.00  0.00     0.296 C 
BRANCH   5   6
ATOM      6  C   UNL A   1      34.789  33.598  31.339  1.00  0.00     0.113 C 
BRANCH   6   7
ATOM      7  C   UNL A   1      36.242  33.808  30.948  1.00  0.00    -0.041 A 
ATOM      8  C   UNL A   1      38.944  34.238  30.180  1.00  0.00     0.007 A 
ATOM      9  C   UNL A   1      38.474  34.651  31.429  1.00  0.00     0.015 A 
ATOM     10  C   UNL A   1      38.049  33.604  29.317  1.00  0.00     0.015 A 
ATOM     11  C   UNL A   1      37.141  34.454  31.802  1.00  0.00     0.005 A 
ATOM     12  C   UNL A   1      36.715  33.383  29.698  1.00  0.00     0.005 A 
BRANCH   8  13
ATOM     13  S   UNL A   1      40.651  34.618  29.816  1.00  0.00    -0.130 SA
ATOM     14  C   UNL A   1      41.547  33.135  30.336  1.00  0.00     0.091 C 
ENDBRANCH   8  13
ENDBRANCH   6   7
ENDBRANCH   5   6
BRANCH   5  15
ATOM     15  N   UNL A   1      33.013  34.736  32.671  1.00  0.00    -0.346 N 
ATOM     16  H   UNL A   1      33.418  35.096  33.535  1.00  0.00     0.345 HD
ATOM     17  H   UNL A   1      32.790  33.747  32.786  1.00  0.00     0.345 HD
ATOM     18  H   UNL A   1      32.161  35.253  32.452  1.00  0.00     0.345 HD
ENDBRANCH   5  15
ENDBRANCH   3   5
ENDBRANCH   2   3
ENDBRANCH   1   2
BRANCH   1  19
ATOM     19  C   UNL A   1      33.147  32.793  27.623  1.00  0.00     0.275 C 
BRANCH  19  20
ATOM     20  O   UNL A   1      34.435  32.167  27.454  1.00  0.00    -0.458 OA
BRANCH  20  21
ATOM     21  C   UNL A   1      34.422  30.813  27.471  1.00  0.00     0.338 C 
ATOM     22  O   UNL A   1      33.566  30.085  26.992  1.00  0.00    -0.246 OA
BRANCH  21  23
ATOM     23  C   UNL A   1      35.674  30.286  28.045  1.00  0.00     0.060 A 
ATOM     24  C   UNL A   1      35.611  29.715  29.319  1.00  0.00     0.016 A 
ATOM     25  C   UNL A   1      36.906  30.436  27.403  1.00  0.00     0.016 A 
ATOM     26  C   UNL A   1      36.773  29.326  29.976  1.00  0.00     0.010 A 
ATOM     27  C   UNL A   1      38.077  30.042  28.065  1.00  0.00     0.010 A 
ATOM     28  C   UNL A   1      38.017  29.508  29.365  1.00  0.00    -0.014 A 
BRANCH  28  29
ATOM     29  C   UNL A   1      39.248  29.214  30.137  1.00  0.00     0.031 A 
ATOM     30  C   UNL A   1      40.203  28.164  29.644  1.00  0.00     0.074 A 
ATOM     31  C   UNL A   1      39.542  29.935  31.237  1.00  0.00     0.049 A 
ATOM     32  N   UNL A   1      41.320  27.744  30.181  1.00  0.00    -0.248 NA
ATOM     33  C   UNL A   1      39.860  27.501  28.376  1.00  0.00     0.031 C 
ATOM     34  C   UNL A   1      38.728  31.025  31.776  1.00  0.00     0.029 A 
ATOM     35  N   UNL A   1      40.614  29.863  32.089  1.00  0.00    -0.354 N 
ATOM     36  C   UNL A   1      41.803  26.758  29.330  1.00  0.00     0.074 A 
ATOM     37  C   UNL A   1      40.850  26.630  28.248  1.00  0.00     0.031 C 
ATOM     38  C   UNL A   1      39.336  31.526  32.864  1.00  0.00     0.029 A 
ATOM     39  C   UNL A   1      40.556  30.767  33.122  1.00  0.00     0.049 A 
ATOM     40  H   UNL A   1      41.354  29.224  31.973  1.00  0.00     0.167 HD
ATOM     41  C   UNL A   1      42.938  26.026  29.439  1.00  0.00     0.031 A 
ATOM     42  C   UNL A   1      41.383  30.950  34.170  1.00  0.00     0.031 A 
ATOM     43  C   UNL A   1      43.884  26.155  30.515  1.00  0.00     0.049 A 
ATOM     44  C   UNL A   1      42.606  30.083  34.301  1.00  0.00     0.074 A 
ATOM     45  C   UNL A   1      45.057  25.451  30.722  1.00  0.00     0.029 A 
ATOM     46  N   UNL A   1      43.767  27.053  31.566  1.00  0.00    -0.354 N 
ATOM     47  N   UNL A   1      43.035  29.137  33.500  1.00  0.00    -0.248 NA
ATOM     48  C   UNL A   1      43.457  30.310  35.478  1.00  0.00     0.031 C 
ATOM     49  C   UNL A   1      45.631  25.896  31.918  1.00  0.00     0.029 A 
ATOM     50  C   UNL A   1      44.839  26.912  32.430  1.00  0.00     0.049 A 
ATOM     51  H   UNL A   1      43.030  27.696  31.679  1.00  0.00     0.167 HD
ATOM     52  C   UNL A   1      44.218  28.674  34.062  1.00  0.00     0.074 A 
ATOM     53  C   UNL A   1      44.443  29.450  35.266  1.00  0.00     0.031 C 
ATOM     54  C   UNL A   1      45.047  27.695  33.622  1.00  0.00     0.031 A 
BRANCH  41  55
ATOM     55  C   UNL A   1      43.194  24.988  28.380  1.00  0.00    -0.014 A 
ATOM     56  C   UNL A   1      43.922  25.296  27.216  1.00  0.00     0.010 A 
ATOM     57  C   UNL A   1      42.717  23.677  28.563  1.00  0.00     0.010 A 
ATOM     58  C   UNL A   1      44.130  24.322  26.235  1.00  0.00     0.020 A 
ATOM     59  C   UNL A   1      42.943  22.695  27.595  1.00  0.00     0.020 A 
ATOM     60  C   UNL A   1      43.633  23.029  26.428  1.00  0.00     0.054 A 
BRANCH  60  61
ATOM     61  S   UNL A   1      43.921  21.780  25.144  1.00  0.00     0.124 S 
ATOM     62  O   UNL A   1      43.730  22.558  23.922  1.00  0.00    -0.237 OA
ATOM     63  O   UNL A   1      45.293  21.355  25.409  1.00  0.00    -0.237 OA
ATOM     64  O   UNL A   1      42.897  20.771  25.405  1.00  0.00    -0.744 OA
ENDBRANCH  60  61
ENDBRANCH  41  55
BRANCH  42  65
ATOM     65  C   UNL A   1      41.065  31.982  35.193  1.00  0.00    -0.014 A 
ATOM     66  C   UNL A   1      40.220  31.686  36.276  1.00  0.00     0.010 A 
ATOM     67  C   UNL A   1      41.616  33.273  35.087  1.00  0.00     0.010 A 
ATOM     68  C   UNL A   1      39.918  32.666  37.226  1.00  0.00     0.020 A 
ATOM     69  C   UNL A   1      41.336  34.248  36.048  1.00  0.00     0.020 A 
ATOM     70  C   UNL A   1      40.477  33.941  37.105  1.00  0.00     0.054 A 
BRANCH  70  71
ATOM     71  S   UNL A   1      40.108  35.189  38.370  1.00  0.00     0.124 S 
ATOM     72  O   UNL A   1      39.080  34.522  39.162  1.00  0.00    -0.237 OA
ATOM     73  O   UNL A   1      41.399  35.367  39.031  1.00  0.00    -0.237 OA
ATOM     74  O   UNL A   1      39.652  36.339  37.592  1.00  0.00    -0.744 OA
ENDBRANCH  70  71
ENDBRANCH  42  65
BRANCH  54  75
ATOM     75  C   UNL A   1      46.292  27.434  34.424  1.00  0.00    -0.014 A 
ATOM     76  C   UNL A   1      46.296  26.517  35.489  1.00  0.00     0.010 A 
ATOM     77  C   UNL A   1      47.489  28.088  34.075  1.00  0.00     0.010 A 
ATOM     78  C   UNL A   1      47.468  26.283  36.214  1.00  0.00     0.020 A 
ATOM     79  C   UNL A   1      48.667  27.840  34.784  1.00  0.00     0.020 A 
ATOM     80  C   UNL A   1      48.645  26.950  35.860  1.00  0.00     0.054 A 
BRANCH  80  81
ATOM     81  S   UNL A   1      50.163  26.606  36.792  1.00  0.00     0.124 S 
ATOM     82  O   UNL A   1      50.279  25.157  36.657  1.00  0.00    -0.237 OA
ATOM     83  O   UNL A   1      51.168  27.386  36.073  1.00  0.00    -0.237 OA
ATOM     84  O   UNL A   1      49.858  27.085  38.138  1.00  0.00    -0.744 OA
ENDBRANCH  80  81
ENDBRANCH  54  75
ENDBRANCH  28  29
ENDBRANCH  21  23
ENDBRANCH  20  21
ENDBRANCH  19  20
ENDBRANCH   1  19
TORSDOF 18
ENDMDL
