MODEL 1
REMARK VINA RESULT:      -9.9      0.000      0.000
REMARK SMILES CCC[C@@]1(C(=O)OCCOC(=O)c2ccc(-c3c4nc(c(-c5ccc(S(=O)(=O)[O-])cc5)c5ccc([nH]5)c(-c5ccc(S(=O)(=O)[O-])cc5)c5nc(c(-c6ccc(S(=O)(=O)[O-])cc6)c6ccc3[nH]6)C=C5)C=C4)cc2)CCCN(C(=O)CCn2cncn2)C1
REMARK SMILES IDX 8 1 7 2 5 3 6 4 4 5 73 6 86 7 74 8 76 9 75 10 3 11 2 12 1 13
REMARK SMILES IDX 77 14 78 15 79 16 80 17 81 18 82 19 85 20 83 21 84 22 9 23
REMARK SMILES IDX 10 24 11 25 12 26 13 27 14 28 72 29 15 30 71 31 16 32 17 33
REMARK SMILES IDX 18 34 65 35 19 36 70 37 64 38 66 39 20 40 69 41 63 42 62 43
REMARK SMILES IDX 21 45 51 46 32 47 50 48 33 49 36 50 49 51 67 52 34 53 35 54
REMARK SMILES IDX 48 56 68 57 37 58 22 59 23 60 31 61 24 62 30 63 25 64 26 65
REMARK SMILES IDX 27 66 28 67 29 68 52 69 53 70 61 71 54 72 60 73 55 74 56 75
REMARK SMILES IDX 57 76 58 77 59 78 38 79 39 80 47 81 40 82 46 83 41 84 42 85
REMARK SMILES IDX 43 86 44 87 45 88
REMARK H PARENT 66 44 36 55
REMARK Flexibility Score: inf
ROOT
ATOM      1  C   UNL A   1      35.930  22.083  25.329  1.00  0.00     0.274 C 
ENDROOT
BRANCH   1   2
ATOM      2  O   UNL A   1      34.569  22.306  24.923  1.00  0.00    -0.462 OA
BRANCH   2   3
ATOM      3  C   UNL A   1      33.561  21.959  25.775  1.00  0.00     0.314 C 
ATOM      4  O   UNL A   1      33.625  22.033  26.994  1.00  0.00    -0.252 OA
BRANCH   3   5
ATOM      5  C   UNL A   1      32.368  21.398  24.957  1.00  0.00     0.086 C 
ATOM      6  C   UNL A   1      32.518  21.741  23.444  1.00  0.00     0.022 C 
ATOM      7  C   UNL A   1      31.124  22.073  25.579  1.00  0.00     0.138 C 
ATOM      8  C   UNL A   1      32.167  23.177  23.054  1.00  0.00     0.023 C 
ATOM      9  N   UNL A   1      31.075  23.486  25.171  1.00  0.00    -0.341 N 
ATOM     10  C   UNL A   1      30.893  23.648  23.739  1.00  0.00     0.119 C 
BRANCH   5  11
ATOM     11  C   UNL A   1      32.425  19.850  25.096  1.00  0.00     0.020 C 
BRANCH  11  12
ATOM     12  C   UNL A   1      32.875  18.898  23.986  1.00  0.00    -0.002 C 
ATOM     13  C   UNL A   1      34.011  17.938  24.257  1.00  0.00     0.004 C 
ENDBRANCH  11  12
ENDBRANCH   5  11
BRANCH   9  14
ATOM     14  C   UNL A   1      31.552  24.475  26.023  1.00  0.00     0.224 C 
ATOM     15  O   UNL A   1      31.296  24.469  27.231  1.00  0.00    -0.275 OA
BRANCH  14  16
ATOM     16  C   UNL A   1      32.437  25.586  25.479  1.00  0.00     0.124 C 
BRANCH  16  17
ATOM     17  C   UNL A   1      31.744  26.953  25.486  1.00  0.00     0.156 C 
BRANCH  17  18
ATOM     18  N   UNL A   1      32.412  28.023  26.205  1.00  0.00    -0.252 N 
ATOM     19  C   UNL A   1      33.757  28.226  26.305  1.00  0.00     0.219 A 
ATOM     20  N   UNL A   1      31.740  28.981  26.873  1.00  0.00    -0.160 NA
ATOM     21  N   UNL A   1      33.987  29.341  26.959  1.00  0.00    -0.224 NA
ATOM     22  C   UNL A   1      32.735  29.782  27.264  1.00  0.00     0.246 A 
ENDBRANCH  17  18
ENDBRANCH  16  17
ENDBRANCH  14  16
ENDBRANCH   9  14
ENDBRANCH   3   5
ENDBRANCH   2   3
ENDBRANCH   1   2
BRANCH   1  23
ATOM     23  C   UNL A   1      36.814  22.872  24.361  1.00  0.00     0.275 C 
BRANCH  23  24
ATOM     24  O   UNL A   1      37.623  23.756  25.163  1.00  0.00    -0.458 OA
BRANCH  24  25
ATOM     25  C   UNL A   1      38.652  23.199  25.846  1.00  0.00     0.338 C 
ATOM     26  O   UNL A   1      39.091  22.070  25.734  1.00  0.00    -0.246 OA
BRANCH  25  27
ATOM     27  C   UNL A   1      39.274  24.247  26.687  1.00  0.00     0.060 A 
ATOM     28  C   UNL A   1      39.016  24.242  28.055  1.00  0.00     0.016 A 
ATOM     29  C   UNL A   1      39.959  25.321  26.127  1.00  0.00     0.016 A 
ATOM     30  C   UNL A   1      39.290  25.370  28.824  1.00  0.00     0.010 A 
ATOM     31  C   UNL A   1      40.397  26.373  26.952  1.00  0.00     0.010 A 
ATOM     32  C   UNL A   1      40.027  26.446  28.310  1.00  0.00    -0.014 A 
BRANCH  32  33
ATOM     33  C   UNL A   1      40.358  27.638  29.168  1.00  0.00     0.031 A 
ATOM     34  C   UNL A   1      41.677  27.705  29.912  1.00  0.00     0.074 A 
ATOM     35  C   UNL A   1      39.522  28.696  29.285  1.00  0.00     0.049 A 
ATOM     36  N   UNL A   1      42.015  28.460  30.928  1.00  0.00    -0.248 NA
ATOM     37  C   UNL A   1      42.743  26.790  29.474  1.00  0.00     0.031 C 
ATOM     38  C   UNL A   1      38.239  28.865  28.598  1.00  0.00     0.029 A 
ATOM     39  N   UNL A   1      39.642  29.859  30.015  1.00  0.00    -0.354 N 
ATOM     40  C   UNL A   1      43.280  28.031  31.321  1.00  0.00     0.074 A 
ATOM     41  C   UNL A   1      43.661  26.970  30.415  1.00  0.00     0.031 C 
ATOM     42  C   UNL A   1      37.752  30.088  28.846  1.00  0.00     0.029 A 
ATOM     43  C   UNL A   1      38.590  30.731  29.849  1.00  0.00     0.049 A 
ATOM     44  H   UNL A   1      40.410  30.049  30.601  1.00  0.00     0.167 HD
ATOM     45  C   UNL A   1      44.043  28.470  32.352  1.00  0.00     0.031 A 
ATOM     46  C   UNL A   1      38.270  31.881  30.477  1.00  0.00     0.031 A 
ATOM     47  C   UNL A   1      43.708  29.593  33.188  1.00  0.00     0.049 A 
ATOM     48  C   UNL A   1      39.115  32.346  31.627  1.00  0.00     0.074 A 
ATOM     49  C   UNL A   1      44.408  30.105  34.268  1.00  0.00     0.029 A 
ATOM     50  N   UNL A   1      42.601  30.409  33.011  1.00  0.00    -0.354 N 
ATOM     51  N   UNL A   1      40.222  31.825  32.097  1.00  0.00    -0.248 NA
ATOM     52  C   UNL A   1      38.638  33.525  32.363  1.00  0.00     0.031 C 
ATOM     53  C   UNL A   1      43.710  31.215  34.760  1.00  0.00     0.029 A 
ATOM     54  C   UNL A   1      42.600  31.419  33.958  1.00  0.00     0.049 A 
ATOM     55  H   UNL A   1      41.916  30.287  32.315  1.00  0.00     0.167 HD
ATOM     56  C   UNL A   1      40.569  32.608  33.192  1.00  0.00     0.074 A 
ATOM     57  C   UNL A   1      39.576  33.658  33.292  1.00  0.00     0.031 C 
ATOM     58  C   UNL A   1      41.608  32.458  34.049  1.00  0.00     0.031 A 
BRANCH  45  59
ATOM     59  C   UNL A   1      45.293  27.695  32.680  1.00  0.00    -0.014 A 
ATOM     60  C   UNL A   1      46.558  28.080  32.208  1.00  0.00     0.010 A 
ATOM     61  C   UNL A   1      45.193  26.571  33.526  1.00  0.00     0.010 A 
ATOM     62  C   UNL A   1      47.694  27.333  32.541  1.00  0.00     0.020 A 
ATOM     63  C   UNL A   1      46.327  25.839  33.883  1.00  0.00     0.020 A 
ATOM     64  C   UNL A   1      47.570  26.215  33.372  1.00  0.00     0.054 A 
BRANCH  64  65
ATOM     65  S   UNL A   1      49.059  25.270  33.802  1.00  0.00     0.124 S 
ATOM     66  O   UNL A   1      49.676  26.126  34.811  1.00  0.00    -0.237 OA
ATOM     67  O   UNL A   1      48.509  24.011  34.297  1.00  0.00    -0.237 OA
ATOM     68  O   UNL A   1      49.786  25.174  32.538  1.00  0.00    -0.744 OA
ENDBRANCH  64  65
ENDBRANCH  45  59
BRANCH  46  69
ATOM     69  C   UNL A   1      37.024  32.613  30.107  1.00  0.00    -0.014 A 
ATOM     70  C   UNL A   1      35.820  32.372  30.792  1.00  0.00     0.010 A 
ATOM     71  C   UNL A   1      37.041  33.566  29.071  1.00  0.00     0.010 A 
ATOM     72  C   UNL A   1      34.658  33.071  30.446  1.00  0.00     0.020 A 
ATOM     73  C   UNL A   1      35.893  34.292  28.749  1.00  0.00     0.020 A 
ATOM     74  C   UNL A   1      34.704  34.031  29.432  1.00  0.00     0.054 A 
BRANCH  74  75
ATOM     75  S   UNL A   1      33.209  34.983  29.043  1.00  0.00     0.124 S 
ATOM     76  O   UNL A   1      33.770  36.245  28.570  1.00  0.00    -0.237 OA
ATOM     77  O   UNL A   1      32.559  34.158  28.028  1.00  0.00    -0.237 OA
ATOM     78  O   UNL A   1      32.507  35.047  30.323  1.00  0.00    -0.744 OA
ENDBRANCH  74  75
ENDBRANCH  46  69
BRANCH  58  79
ATOM     79  C   UNL A   1      41.739  33.471  35.151  1.00  0.00    -0.014 A 
ATOM     80  C   UNL A   1      42.423  34.682  34.943  1.00  0.00     0.010 A 
ATOM     81  C   UNL A   1      41.141  33.222  36.398  1.00  0.00     0.010 A 
ATOM     82  C   UNL A   1      42.531  35.616  35.977  1.00  0.00     0.020 A 
ATOM     83  C   UNL A   1      41.229  34.163  37.427  1.00  0.00     0.020 A 
ATOM     84  C   UNL A   1      41.936  35.348  37.214  1.00  0.00     0.054 A 
BRANCH  84  85
ATOM     85  S   UNL A   1      42.058  36.591  38.531  1.00  0.00     0.124 S 
ATOM     86  O   UNL A   1      42.413  35.773  39.688  1.00  0.00    -0.237 OA
ATOM     87  O   UNL A   1      43.111  37.477  38.041  1.00  0.00    -0.237 OA
ATOM     88  O   UNL A   1      40.723  37.183  38.572  1.00  0.00    -0.744 OA
ENDBRANCH  84  85
ENDBRANCH  58  79
ENDBRANCH  32  33
ENDBRANCH  25  27
ENDBRANCH  24  25
ENDBRANCH  23  24
ENDBRANCH   1  23
TORSDOF 20
ENDMDL
MODEL 2
REMARK VINA RESULT:      -9.8      2.027      4.065
REMARK SMILES CCC[C@@]1(C(=O)OCCOC(=O)c2ccc(-c3c4nc(c(-c5ccc(S(=O)(=O)[O-])cc5)c5ccc([nH]5)c(-c5ccc(S(=O)(=O)[O-])cc5)c5nc(c(-c6ccc(S(=O)(=O)[O-])cc6)c6ccc3[nH]6)C=C5)C=C4)cc2)CCCN(C(=O)CCn2cncn2)C1
REMARK SMILES IDX 8 1 7 2 5 3 6 4 4 5 73 6 86 7 74 8 76 9 75 10 3 11 2 12 1 13
REMARK SMILES IDX 77 14 78 15 79 16 80 17 81 18 82 19 85 20 83 21 84 22 9 23
REMARK SMILES IDX 10 24 11 25 12 26 13 27 14 28 72 29 15 30 71 31 16 32 17 33
REMARK SMILES IDX 18 34 65 35 19 36 70 37 64 38 66 39 20 40 69 41 63 42 62 43
REMARK SMILES IDX 21 45 51 46 32 47 50 48 33 49 36 50 49 51 67 52 34 53 35 54
REMARK SMILES IDX 48 56 68 57 37 58 22 59 23 60 31 61 24 62 30 63 25 64 26 65
REMARK SMILES IDX 27 66 28 67 29 68 52 69 53 70 61 71 54 72 60 73 55 74 56 75
REMARK SMILES IDX 57 76 58 77 59 78 38 79 39 80 47 81 40 82 46 83 41 84 42 85
REMARK SMILES IDX 43 86 44 87 45 88
REMARK H PARENT 66 44 36 55
REMARK Flexibility Score: inf
ROOT
ATOM      1  C   UNL A   1      36.013  23.307  25.997  1.00  0.00     0.274 C 
ENDROOT
BRANCH   1   2
ATOM      2  O   UNL A   1      35.149  24.251  25.340  1.00  0.00    -0.462 OA
BRANCH   2   3
ATOM      3  C   UNL A   1      33.842  24.328  25.725  1.00  0.00     0.314 C 
ATOM      4  O   UNL A   1      33.252  23.464  26.357  1.00  0.00    -0.252 OA
BRANCH   3   5
ATOM      5  C   UNL A   1      33.224  25.640  25.176  1.00  0.00     0.086 C 
ATOM      6  C   UNL A   1      31.680  25.662  25.386  1.00  0.00     0.022 C 
ATOM      7  C   UNL A   1      33.600  25.645  23.677  1.00  0.00     0.138 C 
ATOM      8  C   UNL A   1      30.868  24.818  24.404  1.00  0.00     0.023 C 
ATOM      9  N   UNL A   1      32.780  24.655  22.961  1.00  0.00    -0.341 N 
ATOM     10  C   UNL A   1      31.366  24.984  22.977  1.00  0.00     0.119 C 
BRANCH   5  11
ATOM     11  C   UNL A   1      33.829  26.800  26.018  1.00  0.00     0.020 C 
BRANCH  11  12
ATOM     12  C   UNL A   1      33.312  28.240  26.002  1.00  0.00    -0.002 C 
ATOM     13  C   UNL A   1      32.568  28.767  27.208  1.00  0.00     0.004 C 
ENDBRANCH  11  12
ENDBRANCH   5  11
BRANCH   9  14
ATOM     14  C   UNL A   1      33.294  23.394  22.683  1.00  0.00     0.224 C 
ATOM     15  O   UNL A   1      34.486  23.226  22.408  1.00  0.00    -0.275 OA
BRANCH  14  16
ATOM     16  C   UNL A   1      32.389  22.173  22.741  1.00  0.00     0.124 C 
BRANCH  16  17
ATOM     17  C   UNL A   1      32.606  21.331  24.003  1.00  0.00     0.156 C 
BRANCH  17  18
ATOM     18  N   UNL A   1      32.775  19.902  23.815  1.00  0.00    -0.252 N 
ATOM     19  C   UNL A   1      33.393  19.032  24.666  1.00  0.00     0.219 A 
ATOM     20  N   UNL A   1      32.305  19.249  22.734  1.00  0.00    -0.160 NA
ATOM     21  N   UNL A   1      33.274  17.808  24.207  1.00  0.00    -0.224 NA
ATOM     22  C   UNL A   1      32.584  17.981  23.045  1.00  0.00     0.246 A 
ENDBRANCH  17  18
ENDBRANCH  16  17
ENDBRANCH  14  16
ENDBRANCH   9  14
ENDBRANCH   3   5
ENDBRANCH   2   3
ENDBRANCH   1   2
BRANCH   1  23
ATOM     23  C   UNL A   1      37.402  23.473  25.375  1.00  0.00     0.275 C 
BRANCH  23  24
ATOM     24  O   UNL A   1      38.079  24.492  26.137  1.00  0.00    -0.458 OA
BRANCH  24  25
ATOM     25  C   UNL A   1      39.311  24.188  26.612  1.00  0.00     0.338 C 
ATOM     26  O   UNL A   1      40.063  23.315  26.218  1.00  0.00    -0.246 OA
BRANCH  25  27
ATOM     27  C   UNL A   1      39.680  25.198  27.630  1.00  0.00     0.060 A 
ATOM     28  C   UNL A   1      39.026  25.171  28.859  1.00  0.00     0.016 A 
ATOM     29  C   UNL A   1      40.526  26.261  27.331  1.00  0.00     0.016 A 
ATOM     30  C   UNL A   1      39.086  26.274  29.708  1.00  0.00     0.010 A 
ATOM     31  C   UNL A   1      40.723  27.281  28.280  1.00  0.00     0.010 A 
ATOM     32  C   UNL A   1      39.968  27.336  29.469  1.00  0.00    -0.014 A 
BRANCH  32  33
ATOM     33  C   UNL A   1      40.056  28.499  30.422  1.00  0.00     0.031 A 
ATOM     34  C   UNL A   1      41.165  28.562  31.453  1.00  0.00     0.074 A 
ATOM     35  C   UNL A   1      39.185  29.534  30.378  1.00  0.00     0.049 A 
ATOM     36  N   UNL A   1      41.236  29.281  32.546  1.00  0.00    -0.248 NA
ATOM     37  C   UNL A   1      42.330  27.687  31.243  1.00  0.00     0.031 C 
ATOM     38  C   UNL A   1      38.091  29.705  29.418  1.00  0.00     0.029 A 
ATOM     39  N   UNL A   1      39.100  30.668  31.156  1.00  0.00    -0.354 N 
ATOM     40  C   UNL A   1      42.389  28.862  33.206  1.00  0.00     0.074 A 
ATOM     41  C   UNL A   1      42.999  27.847  32.377  1.00  0.00     0.031 C 
ATOM     42  C   UNL A   1      37.525  30.907  29.590  1.00  0.00     0.029 A 
ATOM     43  C   UNL A   1      38.089  31.525  30.781  1.00  0.00     0.049 A 
ATOM     44  H   UNL A   1      39.705  30.849  31.911  1.00  0.00     0.167 HD
ATOM     45  C   UNL A   1      42.879  29.274  34.401  1.00  0.00     0.031 A 
ATOM     46  C   UNL A   1      37.600  32.642  31.358  1.00  0.00     0.031 A 
ATOM     47  C   UNL A   1      42.327  30.355  35.176  1.00  0.00     0.049 A 
ATOM     48  C   UNL A   1      38.142  33.076  32.688  1.00  0.00     0.074 A 
ATOM     49  C   UNL A   1      42.744  30.836  36.406  1.00  0.00     0.029 A 
ATOM     50  N   UNL A   1      41.268  31.155  34.775  1.00  0.00    -0.354 N 
ATOM     51  N   UNL A   1      39.125  32.559  33.384  1.00  0.00    -0.248 NA
ATOM     52  C   UNL A   1      37.474  34.214  33.335  1.00  0.00     0.031 C 
ATOM     53  C   UNL A   1      41.919  31.911  36.761  1.00  0.00     0.029 A 
ATOM     54  C   UNL A   1      41.019  32.125  35.730  1.00  0.00     0.049 A 
ATOM     55  H   UNL A   1      40.767  31.048  33.935  1.00  0.00     0.167 HD
ATOM     56  C   UNL A   1      39.186  33.303  34.557  1.00  0.00     0.074 A 
ATOM     57  C   UNL A   1      38.167  34.328  34.460  1.00  0.00     0.031 C 
ATOM     58  C   UNL A   1      40.003  33.139  35.625  1.00  0.00     0.031 A 
BRANCH  45  59
ATOM     59  C   UNL A   1      44.042  28.511  34.983  1.00  0.00    -0.014 A 
ATOM     60  C   UNL A   1      43.863  27.386  35.804  1.00  0.00     0.010 A 
ATOM     61  C   UNL A   1      45.352  28.915  34.654  1.00  0.00     0.010 A 
ATOM     62  C   UNL A   1      44.971  26.705  36.320  1.00  0.00     0.020 A 
ATOM     63  C   UNL A   1      46.460  28.222  35.144  1.00  0.00     0.020 A 
ATOM     64  C   UNL A   1      46.262  27.130  35.991  1.00  0.00     0.054 A 
BRANCH  64  65
ATOM     65  S   UNL A   1      47.684  26.222  36.660  1.00  0.00     0.124 S 
ATOM     66  O   UNL A   1      47.302  24.836  36.402  1.00  0.00    -0.237 OA
ATOM     67  O   UNL A   1      48.795  26.727  35.857  1.00  0.00    -0.237 OA
ATOM     68  O   UNL A   1      47.712  26.608  38.068  1.00  0.00    -0.744 OA
ENDBRANCH  64  65
ENDBRANCH  45  59
BRANCH  46  69
ATOM     69  C   UNL A   1      36.452  33.363  30.735  1.00  0.00    -0.014 A 
ATOM     70  C   UNL A   1      35.224  33.477  31.410  1.00  0.00     0.010 A 
ATOM     71  C   UNL A   1      36.589  33.950  29.462  1.00  0.00     0.010 A 
ATOM     72  C   UNL A   1      34.156  34.165  30.824  1.00  0.00     0.020 A 
ATOM     73  C   UNL A   1      35.537  34.668  28.891  1.00  0.00     0.020 A 
ATOM     74  C   UNL A   1      34.322  34.762  29.570  1.00  0.00     0.054 A 
BRANCH  74  75
ATOM     75  S   UNL A   1      32.954  35.714  28.853  1.00  0.00     0.124 S 
ATOM     76  O   UNL A   1      32.323  34.725  27.984  1.00  0.00    -0.237 OA
ATOM     77  O   UNL A   1      32.184  36.105  30.032  1.00  0.00    -0.237 OA
ATOM     78  O   UNL A   1      33.629  36.813  28.169  1.00  0.00    -0.744 OA
ENDBRANCH  74  75
ENDBRANCH  46  69
BRANCH  58  79
ATOM     79  C   UNL A   1      39.846  34.109  36.763  1.00  0.00    -0.014 A 
ATOM     80  C   UNL A   1      40.407  35.397  36.699  1.00  0.00     0.010 A 
ATOM     81  C   UNL A   1      39.099  33.737  37.894  1.00  0.00     0.010 A 
ATOM     82  C   UNL A   1      40.248  36.288  37.762  1.00  0.00     0.020 A 
ATOM     83  C   UNL A   1      38.919  34.634  38.950  1.00  0.00     0.020 A 
ATOM     84  C   UNL A   1      39.507  35.899  38.883  1.00  0.00     0.054 A 
BRANCH  84  85
ATOM     85  S   UNL A   1      39.282  37.086  40.238  1.00  0.00     0.124 S 
ATOM     86  O   UNL A   1      38.385  36.359  41.133  1.00  0.00    -0.237 OA
ATOM     87  O   UNL A   1      40.645  37.274  40.731  1.00  0.00    -0.237 OA
ATOM     88  O   UNL A   1      38.697  38.252  39.581  1.00  0.00    -0.744 OA
ENDBRANCH  84  85
ENDBRANCH  58  79
ENDBRANCH  32  33
ENDBRANCH  25  27
ENDBRANCH  24  25
ENDBRANCH  23  24
ENDBRANCH   1  23
TORSDOF 20
ENDMDL
MODEL 3
REMARK VINA RESULT:      -9.7      1.724      3.888
REMARK SMILES CCC[C@@]1(C(=O)OCCOC(=O)c2ccc(-c3c4nc(c(-c5ccc(S(=O)(=O)[O-])cc5)c5ccc([nH]5)c(-c5ccc(S(=O)(=O)[O-])cc5)c5nc(c(-c6ccc(S(=O)(=O)[O-])cc6)c6ccc3[nH]6)C=C5)C=C4)cc2)CCCN(C(=O)CCn2cncn2)C1
REMARK SMILES IDX 8 1 7 2 5 3 6 4 4 5 73 6 86 7 74 8 76 9 75 10 3 11 2 12 1 13
REMARK SMILES IDX 77 14 78 15 79 16 80 17 81 18 82 19 85 20 83 21 84 22 9 23
REMARK SMILES IDX 10 24 11 25 12 26 13 27 14 28 72 29 15 30 71 31 16 32 17 33
REMARK SMILES IDX 18 34 65 35 19 36 70 37 64 38 66 39 20 40 69 41 63 42 62 43
REMARK SMILES IDX 21 45 51 46 32 47 50 48 33 49 36 50 49 51 67 52 34 53 35 54
REMARK SMILES IDX 48 56 68 57 37 58 22 59 23 60 31 61 24 62 30 63 25 64 26 65
REMARK SMILES IDX 27 66 28 67 29 68 52 69 53 70 61 71 54 72 60 73 55 74 56 75
REMARK SMILES IDX 57 76 58 77 59 78 38 79 39 80 47 81 40 82 46 83 41 84 42 85
REMARK SMILES IDX 43 86 44 87 45 88
REMARK H PARENT 66 44 36 55
REMARK Flexibility Score: inf
ROOT
ATOM      1  C   UNL A   1      36.781  21.400  25.401  1.00  0.00     0.274 C 
ENDROOT
BRANCH   1   2
ATOM      2  O   UNL A   1      35.566  22.083  25.045  1.00  0.00    -0.462 OA
BRANCH   2   3
ATOM      3  C   UNL A   1      34.665  22.379  26.026  1.00  0.00     0.314 C 
ATOM      4  O   UNL A   1      34.660  21.876  27.141  1.00  0.00    -0.252 OA
BRANCH   3   5
ATOM      5  C   UNL A   1      33.624  23.390  25.476  1.00  0.00     0.086 C 
ATOM      6  C   UNL A   1      32.622  23.822  26.588  1.00  0.00     0.022 C 
ATOM      7  C   UNL A   1      32.919  22.630  24.330  1.00  0.00     0.138 C 
ATOM      8  C   UNL A   1      31.527  22.809  26.920  1.00  0.00     0.023 C 
ATOM      9  N   UNL A   1      32.017  21.614  24.896  1.00  0.00    -0.341 N 
ATOM     10  C   UNL A   1      30.930  22.196  25.663  1.00  0.00     0.119 C 
BRANCH   5  11
ATOM     11  C   UNL A   1      34.421  24.654  25.044  1.00  0.00     0.020 C 
BRANCH  11  12
ATOM     12  C   UNL A   1      34.039  25.556  23.869  1.00  0.00    -0.002 C 
ATOM     13  C   UNL A   1      33.673  26.998  24.138  1.00  0.00     0.004 C 
ENDBRANCH  11  12
ENDBRANCH   5  11
BRANCH   9  14
ATOM     14  C   UNL A   1      32.430  20.291  24.992  1.00  0.00     0.224 C 
ATOM     15  O   UNL A   1      32.299  19.645  26.036  1.00  0.00    -0.275 OA
BRANCH  14  16
ATOM     16  C   UNL A   1      33.037  19.593  23.784  1.00  0.00     0.124 C 
BRANCH  16  17
ATOM     17  C   UNL A   1      32.614  18.124  23.673  1.00  0.00     0.156 C 
BRANCH  17  18
ATOM     18  N   UNL A   1      33.464  17.146  24.329  1.00  0.00    -0.252 N 
ATOM     19  C   UNL A   1      33.072  15.962  24.881  1.00  0.00     0.219 A 
ATOM     20  N   UNL A   1      34.795  17.308  24.456  1.00  0.00    -0.160 NA
ATOM     21  N   UNL A   1      34.126  15.302  25.303  1.00  0.00    -0.224 NA
ATOM     22  C   UNL A   1      35.155  16.143  25.001  1.00  0.00     0.246 A 
ENDBRANCH  17  18
ENDBRANCH  16  17
ENDBRANCH  14  16
ENDBRANCH   9  14
ENDBRANCH   3   5
ENDBRANCH   2   3
ENDBRANCH   1   2
BRANCH   1  23
ATOM     23  C   UNL A   1      37.917  22.415  25.253  1.00  0.00     0.275 C 
BRANCH  23  24
ATOM     24  O   UNL A   1      38.730  22.306  26.438  1.00  0.00    -0.458 OA
BRANCH  24  25
ATOM     25  C   UNL A   1      39.986  22.809  26.372  1.00  0.00     0.338 C 
ATOM     26  O   UNL A   1      40.941  22.343  25.779  1.00  0.00    -0.246 OA
BRANCH  25  27
ATOM     27  C   UNL A   1      39.994  24.130  27.041  1.00  0.00     0.060 A 
ATOM     28  C   UNL A   1      41.046  25.002  26.776  1.00  0.00     0.016 A 
ATOM     29  C   UNL A   1      39.083  24.445  28.045  1.00  0.00     0.016 A 
ATOM     30  C   UNL A   1      41.281  26.091  27.613  1.00  0.00     0.010 A 
ATOM     31  C   UNL A   1      39.227  25.647  28.762  1.00  0.00     0.010 A 
ATOM     32  C   UNL A   1      40.358  26.472  28.596  1.00  0.00    -0.014 A 
BRANCH  32  33
ATOM     33  C   UNL A   1      40.603  27.680  29.461  1.00  0.00     0.031 A 
ATOM     34  C   UNL A   1      41.872  27.791  30.283  1.00  0.00     0.074 A 
ATOM     35  C   UNL A   1      39.732  28.715  29.515  1.00  0.00     0.049 A 
ATOM     36  N   UNL A   1      42.125  28.563  31.310  1.00  0.00    -0.248 NA
ATOM     37  C   UNL A   1      42.987  26.902  29.920  1.00  0.00     0.031 C 
ATOM     38  C   UNL A   1      38.489  28.842  28.750  1.00  0.00     0.029 A 
ATOM     39  N   UNL A   1      39.775  29.887  30.239  1.00  0.00    -0.354 N 
ATOM     40  C   UNL A   1      43.376  28.174  31.783  1.00  0.00     0.074 A 
ATOM     41  C   UNL A   1      43.840  27.116  30.913  1.00  0.00     0.031 C 
ATOM     42  C   UNL A   1      37.955  30.053  28.955  1.00  0.00     0.029 A 
ATOM     43  C   UNL A   1      38.711  30.728  30.000  1.00  0.00     0.049 A 
ATOM     44  H   UNL A   1      40.501  30.104  30.870  1.00  0.00     0.167 HD
ATOM     45  C   UNL A   1      44.061  28.643  32.855  1.00  0.00     0.031 A 
ATOM     46  C   UNL A   1      38.323  31.874  30.596  1.00  0.00     0.031 A 
ATOM     47  C   UNL A   1      43.645  29.763  33.657  1.00  0.00     0.049 A 
ATOM     48  C   UNL A   1      39.082  32.372  31.791  1.00  0.00     0.074 A 
ATOM     49  C   UNL A   1      44.264  30.304  34.772  1.00  0.00     0.029 A 
ATOM     50  N   UNL A   1      42.529  30.546  33.405  1.00  0.00    -0.354 N 
ATOM     51  N   UNL A   1      40.173  31.887  32.333  1.00  0.00    -0.248 NA
ATOM     52  C   UNL A   1      38.529  33.544  32.484  1.00  0.00     0.031 C 
ATOM     53  C   UNL A   1      43.507  31.398  35.209  1.00  0.00     0.029 A 
ATOM     54  C   UNL A   1      42.442  31.564  34.339  1.00  0.00     0.049 A 
ATOM     55  H   UNL A   1      41.892  30.399  32.669  1.00  0.00     0.167 HD
ATOM     56  C   UNL A   1      40.429  32.688  33.439  1.00  0.00     0.074 A 
ATOM     57  C   UNL A   1      39.404  33.711  33.467  1.00  0.00     0.031 C 
ATOM     58  C   UNL A   1      41.418  32.575  34.358  1.00  0.00     0.031 A 
BRANCH  45  59
ATOM     59  C   UNL A   1      45.310  27.906  33.266  1.00  0.00    -0.014 A 
ATOM     60  C   UNL A   1      45.274  26.793  34.122  1.00  0.00     0.010 A 
ATOM     61  C   UNL A   1      46.549  28.321  32.737  1.00  0.00     0.010 A 
ATOM     62  C   UNL A   1      46.459  26.136  34.475  1.00  0.00     0.020 A 
ATOM     63  C   UNL A   1      47.730  27.651  33.065  1.00  0.00     0.020 A 
ATOM     64  C   UNL A   1      47.679  26.572  33.949  1.00  0.00     0.054 A 
BRANCH  64  65
ATOM     65  S   UNL A   1      49.199  25.694  34.409  1.00  0.00     0.124 S 
ATOM     66  O   UNL A   1      48.853  25.165  35.726  1.00  0.00    -0.237 OA
ATOM     67  O   UNL A   1      49.330  24.699  33.347  1.00  0.00    -0.237 OA
ATOM     68  O   UNL A   1      50.218  26.741  34.406  1.00  0.00    -0.744 OA
ENDBRANCH  64  65
ENDBRANCH  45  59
BRANCH  46  69
ATOM     69  C   UNL A   1      37.082  32.567  30.143  1.00  0.00    -0.014 A 
ATOM     70  C   UNL A   1      35.830  32.227  30.687  1.00  0.00     0.010 A 
ATOM     71  C   UNL A   1      37.150  33.582  29.170  1.00  0.00     0.010 A 
ATOM     72  C   UNL A   1      34.672  32.890  30.266  1.00  0.00     0.020 A 
ATOM     73  C   UNL A   1      36.002  34.271  28.775  1.00  0.00     0.020 A 
ATOM     74  C   UNL A   1      34.767  33.912  29.317  1.00  0.00     0.054 A 
BRANCH  74  75
ATOM     75  S   UNL A   1      33.269  34.814  28.833  1.00  0.00     0.124 S 
ATOM     76  O   UNL A   1      32.574  34.950  30.110  1.00  0.00    -0.237 OA
ATOM     77  O   UNL A   1      33.807  36.050  28.270  1.00  0.00    -0.237 OA
ATOM     78  O   UNL A   1      32.635  33.924  27.864  1.00  0.00    -0.744 OA
ENDBRANCH  74  75
ENDBRANCH  46  69
BRANCH  58  79
ATOM     79  C   UNL A   1      41.454  33.601  35.456  1.00  0.00    -0.014 A 
ATOM     80  C   UNL A   1      42.086  34.843  35.267  1.00  0.00     0.010 A 
ATOM     81  C   UNL A   1      40.817  33.331  36.680  1.00  0.00     0.010 A 
ATOM     82  C   UNL A   1      42.105  35.787  36.295  1.00  0.00     0.020 A 
ATOM     83  C   UNL A   1      40.815  34.282  37.703  1.00  0.00     0.020 A 
ATOM     84  C   UNL A   1      41.472  35.499  37.509  1.00  0.00     0.054 A 
BRANCH  84  85
ATOM     85  S   UNL A   1      41.479  36.755  38.819  1.00  0.00     0.124 S 
ATOM     86  O   UNL A   1      41.688  35.945  40.016  1.00  0.00    -0.237 OA
ATOM     87  O   UNL A   1      42.598  37.613  38.437  1.00  0.00    -0.237 OA
ATOM     88  O   UNL A   1      40.160  37.376  38.708  1.00  0.00    -0.744 OA
ENDBRANCH  84  85
ENDBRANCH  58  79
ENDBRANCH  32  33
ENDBRANCH  25  27
ENDBRANCH  24  25
ENDBRANCH  23  24
ENDBRANCH   1  23
TORSDOF 20
ENDMDL
