MODEL 1
REMARK VINA RESULT:     -11.2      0.000      0.000
REMARK SMILES CC[C@@H]1CCC[C@@](C[C@@H]2CSc3ccccc32)(C(=O)OCCOC(=O)c2ccc(-c3c4nc(c(-c5ccc(S(=O)(=O)[O-])cc5)c5ccc([nH]5)c(-c5ccc(S(=O)(=O)[O-])cc5)c5nc(c(-c6ccc(S(=O)(=O)[O-])cc6)c6ccc3[nH]6)C=C5)C=C4)cc2)C1
REMARK SMILES IDX 22 1 21 2 20 3 18 4 19 5 7 6 3 7 4 8 86 9 5 10 6 11 2 12
REMARK SMILES IDX 1 13 8 14 9 15 10 16 17 17 11 18 12 19 16 20 13 21 15 22
REMARK SMILES IDX 14 23 23 24 24 25 25 26 26 27 27 28 85 29 28 30 84 31 29 32
REMARK SMILES IDX 30 33 31 34 78 35 32 36 83 37 77 38 79 39 33 40 82 41 76 42
REMARK SMILES IDX 75 43 34 45 64 46 45 47 63 48 46 49 49 50 62 51 80 52 47 53
REMARK SMILES IDX 48 54 61 56 81 57 50 58 35 59 36 60 44 61 37 62 43 63 38 64
REMARK SMILES IDX 39 65 40 66 41 67 42 68 65 69 66 70 74 71 67 72 73 73 68 74
REMARK SMILES IDX 69 75 70 76 71 77 72 78 51 79 52 80 60 81 53 82 59 83 54 84
REMARK SMILES IDX 55 85 56 86 57 87 58 88
REMARK H PARENT 79 44 49 55
REMARK Flexibility Score: inf
ROOT
ATOM      1  C   UNL A   1      37.529  21.303  25.102  1.00  0.00     0.275 C 
ENDROOT
BRANCH   1   2
ATOM      2  C   UNL A   1      36.803  22.085  24.016  1.00  0.00     0.274 C 
BRANCH   2   3
ATOM      3  O   UNL A   1      35.388  22.171  24.308  1.00  0.00    -0.462 OA
BRANCH   3   4
ATOM      4  C   UNL A   1      34.727  23.290  23.911  1.00  0.00     0.312 C 
ATOM      5  O   UNL A   1      34.706  23.697  22.754  1.00  0.00    -0.252 OA
BRANCH   4   6
ATOM      6  C   UNL A   1      34.117  24.085  25.084  1.00  0.00     0.069 C 
ATOM      7  C   UNL A   1      32.155  22.467  25.750  1.00  0.00    -0.010 C 
ATOM      8  C   UNL A   1      32.816  22.240  27.110  1.00  0.00     0.003 C 
ATOM      9  C   UNL A   1      32.573  23.815  25.144  1.00  0.00     0.022 C 
ATOM     10  C   UNL A   1      34.325  22.369  27.007  1.00  0.00     0.001 C 
ATOM     11  C   UNL A   1      34.729  23.736  26.456  1.00  0.00     0.019 C 
BRANCH   7  12
ATOM     12  C   UNL A   1      30.628  22.277  25.886  1.00  0.00     0.000 C 
ATOM     13  C   UNL A   1      29.972  23.021  27.040  1.00  0.00     0.004 C 
ENDBRANCH   7  12
BRANCH   6  14
ATOM     14  C   UNL A   1      34.255  25.610  24.707  1.00  0.00     0.028 C 
BRANCH  14  15
ATOM     15  C   UNL A   1      33.066  26.488  24.242  1.00  0.00     0.032 C 
ATOM     16  C   UNL A   1      33.231  27.204  22.888  1.00  0.00     0.083 C 
ATOM     17  C   UNL A   1      32.608  27.501  25.257  1.00  0.00    -0.030 A 
ATOM     18  S   UNL A   1      33.220  29.001  23.171  1.00  0.00    -0.125 SA
ATOM     19  C   UNL A   1      32.710  28.830  24.849  1.00  0.00     0.011 A 
ATOM     20  C   UNL A   1      32.189  27.195  26.551  1.00  0.00     0.005 A 
ATOM     21  C   UNL A   1      32.483  29.869  25.739  1.00  0.00     0.015 A 
ATOM     22  C   UNL A   1      31.950  28.234  27.450  1.00  0.00     0.000 A 
ATOM     23  C   UNL A   1      32.113  29.565  27.051  1.00  0.00     0.001 A 
ENDBRANCH  14  15
ENDBRANCH   6  14
ENDBRANCH   4   6
ENDBRANCH   3   4
ENDBRANCH   2   3
ENDBRANCH   1   2
BRANCH   1  24
ATOM     24  O   UNL A   1      38.122  22.263  25.983  1.00  0.00    -0.458 OA
BRANCH  24  25
ATOM     25  C   UNL A   1      39.381  22.010  26.400  1.00  0.00     0.338 C 
ATOM     26  O   UNL A   1      40.016  20.982  26.274  1.00  0.00    -0.246 OA
BRANCH  25  27
ATOM     27  C   UNL A   1      39.897  23.252  27.004  1.00  0.00     0.060 A 
ATOM     28  C   UNL A   1      40.892  23.209  27.974  1.00  0.00     0.016 A 
ATOM     29  C   UNL A   1      39.441  24.479  26.525  1.00  0.00     0.016 A 
ATOM     30  C   UNL A   1      41.415  24.410  28.468  1.00  0.00     0.010 A 
ATOM     31  C   UNL A   1      40.053  25.660  26.930  1.00  0.00     0.010 A 
ATOM     32  C   UNL A   1      41.036  25.653  27.919  1.00  0.00    -0.014 A 
BRANCH  32  33
ATOM     33  C   UNL A   1      41.694  26.922  28.344  1.00  0.00     0.031 A 
ATOM     34  C   UNL A   1      43.164  27.180  28.106  1.00  0.00     0.074 A 
ATOM     35  C   UNL A   1      40.966  27.846  29.007  1.00  0.00     0.049 A 
ATOM     36  N   UNL A   1      43.850  28.273  28.333  1.00  0.00    -0.248 NA
ATOM     37  C   UNL A   1      43.984  26.067  27.600  1.00  0.00     0.031 C 
ATOM     38  C   UNL A   1      39.580  27.670  29.452  1.00  0.00     0.029 A 
ATOM     39  N   UNL A   1      41.274  29.128  29.394  1.00  0.00    -0.354 N 
ATOM     40  C   UNL A   1      45.172  27.967  28.029  1.00  0.00     0.074 A 
ATOM     41  C   UNL A   1      45.209  26.568  27.676  1.00  0.00     0.031 C 
ATOM     42  C   UNL A   1      39.127  28.830  29.950  1.00  0.00     0.029 A 
ATOM     43  C   UNL A   1      40.193  29.824  29.887  1.00  0.00     0.049 A 
ATOM     44  H   UNL A   1      42.179  29.511  29.327  1.00  0.00     0.167 HD
ATOM     45  C   UNL A   1      46.251  28.785  27.993  1.00  0.00     0.031 A 
ATOM     46  C   UNL A   1      40.052  31.127  30.202  1.00  0.00     0.031 A 
ATOM     47  C   UNL A   1      46.192  30.195  28.267  1.00  0.00     0.049 A 
ATOM     48  C   UNL A   1      41.211  32.060  30.003  1.00  0.00     0.074 A 
ATOM     49  C   UNL A   1      47.200  31.136  28.147  1.00  0.00     0.029 A 
ATOM     50  N   UNL A   1      45.059  30.873  28.687  1.00  0.00    -0.354 N 
ATOM     51  N   UNL A   1      42.428  31.778  29.602  1.00  0.00    -0.248 NA
ATOM     52  C   UNL A   1      40.978  33.485  30.269  1.00  0.00     0.031 C 
ATOM     53  C   UNL A   1      46.683  32.379  28.520  1.00  0.00     0.029 A 
ATOM     54  C   UNL A   1      45.341  32.220  28.826  1.00  0.00     0.049 A 
ATOM     55  H   UNL A   1      44.183  30.457  28.861  1.00  0.00     0.167 HD
ATOM     56  C   UNL A   1      43.100  32.993  29.551  1.00  0.00     0.074 A 
ATOM     57  C   UNL A   1      42.153  34.014  29.946  1.00  0.00     0.031 C 
ATOM     58  C   UNL A   1      44.389  33.232  29.209  1.00  0.00     0.031 A 
BRANCH  45  59
ATOM     59  C   UNL A   1      47.577  28.199  27.575  1.00  0.00    -0.014 A 
ATOM     60  C   UNL A   1      47.875  28.017  26.212  1.00  0.00     0.010 A 
ATOM     61  C   UNL A   1      48.496  27.743  28.539  1.00  0.00     0.010 A 
ATOM     62  C   UNL A   1      49.060  27.385  25.820  1.00  0.00     0.020 A 
ATOM     63  C   UNL A   1      49.697  27.141  28.151  1.00  0.00     0.020 A 
ATOM     64  C   UNL A   1      49.961  26.948  26.795  1.00  0.00     0.054 A 
BRANCH  64  65
ATOM     65  S   UNL A   1      51.505  26.144  26.279  1.00  0.00     0.124 S 
ATOM     66  O   UNL A   1      51.314  24.778  26.755  1.00  0.00    -0.237 OA
ATOM     67  O   UNL A   1      51.493  26.317  24.829  1.00  0.00    -0.237 OA
ATOM     68  O   UNL A   1      52.534  26.913  26.977  1.00  0.00    -0.744 OA
ENDBRANCH  64  65
ENDBRANCH  45  59
BRANCH  46  69
ATOM     69  C   UNL A   1      38.708  31.623  30.602  1.00  0.00    -0.014 A 
ATOM     70  C   UNL A   1      37.755  31.987  29.636  1.00  0.00     0.010 A 
ATOM     71  C   UNL A   1      38.426  31.847  31.963  1.00  0.00     0.010 A 
ATOM     72  C   UNL A   1      36.562  32.610  30.018  1.00  0.00     0.020 A 
ATOM     73  C   UNL A   1      37.225  32.450  32.350  1.00  0.00     0.020 A 
ATOM     74  C   UNL A   1      36.314  32.854  31.372  1.00  0.00     0.054 A 
BRANCH  74  75
ATOM     75  S   UNL A   1      34.794  33.726  31.843  1.00  0.00     0.124 S 
ATOM     76  O   UNL A   1      33.963  32.631  32.336  1.00  0.00    -0.237 OA
ATOM     77  O   UNL A   1      35.264  34.667  32.855  1.00  0.00    -0.237 OA
ATOM     78  O   UNL A   1      34.349  34.333  30.592  1.00  0.00    -0.744 OA
ENDBRANCH  74  75
ENDBRANCH  46  69
BRANCH  58  79
ATOM     79  C   UNL A   1      44.882  34.651  29.230  1.00  0.00    -0.014 A 
ATOM     80  C   UNL A   1      45.360  35.203  30.433  1.00  0.00     0.010 A 
ATOM     81  C   UNL A   1      44.725  35.481  28.107  1.00  0.00     0.010 A 
ATOM     82  C   UNL A   1      45.639  36.568  30.525  1.00  0.00     0.020 A 
ATOM     83  C   UNL A   1      45.024  36.844  28.189  1.00  0.00     0.020 A 
ATOM     84  C   UNL A   1      45.452  37.383  29.405  1.00  0.00     0.054 A 
BRANCH  84  85
ATOM     85  S   UNL A   1      45.766  39.163  29.554  1.00  0.00     0.124 S 
ATOM     86  O   UNL A   1      47.218  39.209  29.690  1.00  0.00    -0.237 OA
ATOM     87  O   UNL A   1      45.234  39.692  28.300  1.00  0.00    -0.237 OA
ATOM     88  O   UNL A   1      45.013  39.543  30.748  1.00  0.00    -0.744 OA
ENDBRANCH  84  85
ENDBRANCH  58  79
ENDBRANCH  32  33
ENDBRANCH  25  27
ENDBRANCH  24  25
ENDBRANCH   1  24
TORSDOF 17
ENDMDL
MODEL 2
REMARK VINA RESULT:     -10.9      2.177      3.076
REMARK SMILES CC[C@@H]1CCC[C@@](C[C@@H]2CSc3ccccc32)(C(=O)OCCOC(=O)c2ccc(-c3c4nc(c(-c5ccc(S(=O)(=O)[O-])cc5)c5ccc([nH]5)c(-c5ccc(S(=O)(=O)[O-])cc5)c5nc(c(-c6ccc(S(=O)(=O)[O-])cc6)c6ccc3[nH]6)C=C5)C=C4)cc2)C1
REMARK SMILES IDX 22 1 21 2 20 3 18 4 19 5 7 6 3 7 4 8 86 9 5 10 6 11 2 12
REMARK SMILES IDX 1 13 8 14 9 15 10 16 17 17 11 18 12 19 16 20 13 21 15 22
REMARK SMILES IDX 14 23 23 24 24 25 25 26 26 27 27 28 85 29 28 30 84 31 29 32
REMARK SMILES IDX 30 33 31 34 78 35 32 36 83 37 77 38 79 39 33 40 82 41 76 42
REMARK SMILES IDX 75 43 34 45 64 46 45 47 63 48 46 49 49 50 62 51 80 52 47 53
REMARK SMILES IDX 48 54 61 56 81 57 50 58 35 59 36 60 44 61 37 62 43 63 38 64
REMARK SMILES IDX 39 65 40 66 41 67 42 68 65 69 66 70 74 71 67 72 73 73 68 74
REMARK SMILES IDX 69 75 70 76 71 77 72 78 51 79 52 80 60 81 53 82 59 83 54 84
REMARK SMILES IDX 55 85 56 86 57 87 58 88
REMARK H PARENT 79 44 49 55
REMARK Flexibility Score: inf
ROOT
ATOM      1  C   UNL A   1      39.466  21.728  26.378  1.00  0.00     0.275 C 
ENDROOT
BRANCH   1   2
ATOM      2  C   UNL A   1      38.323  21.437  25.416  1.00  0.00     0.274 C 
BRANCH   2   3
ATOM      3  O   UNL A   1      37.312  22.470  25.499  1.00  0.00    -0.462 OA
BRANCH   3   4
ATOM      4  C   UNL A   1      36.508  22.656  24.419  1.00  0.00     0.312 C 
ATOM      5  O   UNL A   1      36.893  22.569  23.257  1.00  0.00    -0.252 OA
BRANCH   4   6
ATOM      6  C   UNL A   1      35.088  23.130  24.790  1.00  0.00     0.069 C 
ATOM      7  C   UNL A   1      33.847  20.813  24.861  1.00  0.00    -0.010 C 
ATOM      8  C   UNL A   1      33.591  21.006  26.356  1.00  0.00     0.003 C 
ATOM      9  C   UNL A   1      34.035  22.161  24.148  1.00  0.00     0.022 C 
ATOM     10  C   UNL A   1      34.694  21.833  26.992  1.00  0.00     0.001 C 
ATOM     11  C   UNL A   1      34.832  23.193  26.311  1.00  0.00     0.019 C 
BRANCH   7  12
ATOM     12  C   UNL A   1      32.733  19.926  24.263  1.00  0.00     0.000 C 
ATOM     13  C   UNL A   1      32.183  20.378  22.918  1.00  0.00     0.004 C 
ENDBRANCH   7  12
BRANCH   6  14
ATOM     14  C   UNL A   1      34.875  24.512  24.061  1.00  0.00     0.028 C 
BRANCH  14  15
ATOM     15  C   UNL A   1      33.498  25.213  23.942  1.00  0.00     0.032 C 
ATOM     16  C   UNL A   1      32.946  25.399  22.516  1.00  0.00     0.083 C 
ATOM     17  C   UNL A   1      33.411  26.535  24.656  1.00  0.00    -0.030 A 
ATOM     18  S   UNL A   1      32.824  27.179  22.163  1.00  0.00    -0.125 SA
ATOM     19  C   UNL A   1      33.143  27.630  23.836  1.00  0.00     0.011 A 
ATOM     20  C   UNL A   1      33.658  26.722  26.015  1.00  0.00     0.005 A 
ATOM     21  C   UNL A   1      33.200  28.925  24.331  1.00  0.00     0.015 A 
ATOM     22  C   UNL A   1      33.709  28.019  26.524  1.00  0.00     0.000 A 
ATOM     23  C   UNL A   1      33.499  29.117  25.682  1.00  0.00     0.001 A 
ENDBRANCH  14  15
ENDBRANCH   6  14
ENDBRANCH   4   6
ENDBRANCH   3   4
ENDBRANCH   2   3
ENDBRANCH   1   2
BRANCH   1  24
ATOM     24  O   UNL A   1      40.094  20.475  26.671  1.00  0.00    -0.458 OA
BRANCH  24  25
ATOM     25  C   UNL A   1      41.321  20.272  26.146  1.00  0.00     0.338 C 
ATOM     26  O   UNL A   1      41.713  19.307  25.519  1.00  0.00    -0.246 OA
BRANCH  25  27
ATOM     27  C   UNL A   1      42.118  21.482  26.418  1.00  0.00     0.060 A 
ATOM     28  C   UNL A   1      42.366  22.410  25.413  1.00  0.00     0.016 A 
ATOM     29  C   UNL A   1      42.545  21.732  27.721  1.00  0.00     0.016 A 
ATOM     30  C   UNL A   1      43.058  23.586  25.727  1.00  0.00     0.010 A 
ATOM     31  C   UNL A   1      43.119  22.956  28.047  1.00  0.00     0.010 A 
ATOM     32  C   UNL A   1      43.405  23.897  27.058  1.00  0.00    -0.014 A 
BRANCH  32  33
ATOM     33  C   UNL A   1      44.014  25.211  27.415  1.00  0.00     0.031 A 
ATOM     34  C   UNL A   1      45.474  25.509  27.166  1.00  0.00     0.074 A 
ATOM     35  C   UNL A   1      43.250  26.141  28.027  1.00  0.00     0.049 A 
ATOM     36  N   UNL A   1      46.119  26.638  27.335  1.00  0.00    -0.248 NA
ATOM     37  C   UNL A   1      46.337  24.402  26.722  1.00  0.00     0.031 C 
ATOM     38  C   UNL A   1      41.870  25.939  28.477  1.00  0.00     0.029 A 
ATOM     39  N   UNL A   1      43.510  27.453  28.344  1.00  0.00    -0.354 N 
ATOM     40  C   UNL A   1      47.453  26.364  27.051  1.00  0.00     0.074 A 
ATOM     41  C   UNL A   1      47.542  24.951  26.774  1.00  0.00     0.031 C 
ATOM     42  C   UNL A   1      41.372  27.106  28.911  1.00  0.00     0.029 A 
ATOM     43  C   UNL A   1      42.402  28.134  28.797  1.00  0.00     0.049 A 
ATOM     44  H   UNL A   1      44.400  27.865  28.259  1.00  0.00     0.167 HD
ATOM     45  C   UNL A   1      48.501  27.219  26.973  1.00  0.00     0.031 A 
ATOM     46  C   UNL A   1      42.212  29.446  29.042  1.00  0.00     0.031 A 
ATOM     47  C   UNL A   1      48.389  28.639  27.171  1.00  0.00     0.049 A 
ATOM     48  C   UNL A   1      43.337  30.409  28.795  1.00  0.00     0.074 A 
ATOM     49  C   UNL A   1      49.363  29.608  27.003  1.00  0.00     0.029 A 
ATOM     50  N   UNL A   1      47.231  29.295  27.552  1.00  0.00    -0.354 N 
ATOM     51  N   UNL A   1      44.564  30.151  28.412  1.00  0.00    -0.248 NA
ATOM     52  C   UNL A   1      43.050  31.837  28.984  1.00  0.00     0.031 C 
ATOM     53  C   UNL A   1      48.799  30.849  27.307  1.00  0.00     0.029 A 
ATOM     54  C   UNL A   1      47.463  30.658  27.619  1.00  0.00     0.049 A 
ATOM     55  H   UNL A   1      46.370  28.858  27.747  1.00  0.00     0.167 HD
ATOM     56  C   UNL A   1      45.192  31.385  28.297  1.00  0.00     0.074 A 
ATOM     57  C   UNL A   1      44.207  32.391  28.635  1.00  0.00     0.031 C 
ATOM     58  C   UNL A   1      46.473  31.653  27.945  1.00  0.00     0.031 A 
BRANCH  45  59
ATOM     59  C   UNL A   1      49.849  26.661  26.589  1.00  0.00    -0.014 A 
ATOM     60  C   UNL A   1      50.220  26.568  25.235  1.00  0.00     0.010 A 
ATOM     61  C   UNL A   1      50.716  26.141  27.569  1.00  0.00     0.010 A 
ATOM     62  C   UNL A   1      51.427  25.963  24.867  1.00  0.00     0.020 A 
ATOM     63  C   UNL A   1      51.938  25.565  27.208  1.00  0.00     0.020 A 
ATOM     64  C   UNL A   1      52.275  25.462  25.858  1.00  0.00     0.054 A 
BRANCH  64  65
ATOM     65  S   UNL A   1      53.847  24.692  25.375  1.00  0.00     0.124 S 
ATOM     66  O   UNL A   1      54.632  24.802  26.600  1.00  0.00    -0.237 OA
ATOM     67  O   UNL A   1      53.444  23.339  25.000  1.00  0.00    -0.237 OA
ATOM     68  O   UNL A   1      54.301  25.524  24.263  1.00  0.00    -0.744 OA
ENDBRANCH  64  65
ENDBRANCH  45  59
BRANCH  46  69
ATOM     69  C   UNL A   1      40.849  29.913  29.413  1.00  0.00    -0.014 A 
ATOM     70  C   UNL A   1      40.509  30.156  30.754  1.00  0.00     0.010 A 
ATOM     71  C   UNL A   1      39.850  29.999  28.425  1.00  0.00     0.010 A 
ATOM     72  C   UNL A   1      39.184  30.430  31.109  1.00  0.00     0.020 A 
ATOM     73  C   UNL A   1      38.529  30.293  28.774  1.00  0.00     0.020 A 
ATOM     74  C   UNL A   1      38.199  30.477  30.118  1.00  0.00     0.054 A 
BRANCH  74  75
ATOM     75  S   UNL A   1      36.476  30.763  30.606  1.00  0.00     0.124 S 
ATOM     76  O   UNL A   1      36.269  29.713  31.600  1.00  0.00    -0.237 OA
ATOM     77  O   UNL A   1      36.512  32.127  31.127  1.00  0.00    -0.237 OA
ATOM     78  O   UNL A   1      35.736  30.597  29.358  1.00  0.00    -0.744 OA
ENDBRANCH  74  75
ENDBRANCH  46  69
BRANCH  58  79
ATOM     79  C   UNL A   1      46.913  33.089  27.891  1.00  0.00    -0.014 A 
ATOM     80  C   UNL A   1      46.845  33.791  26.674  1.00  0.00     0.010 A 
ATOM     81  C   UNL A   1      47.537  33.689  28.998  1.00  0.00     0.010 A 
ATOM     82  C   UNL A   1      47.426  35.055  26.552  1.00  0.00     0.020 A 
ATOM     83  C   UNL A   1      48.101  34.963  28.886  1.00  0.00     0.020 A 
ATOM     84  C   UNL A   1      48.066  35.625  27.656  1.00  0.00     0.054 A 
BRANCH  84  85
ATOM     85  S   UNL A   1      48.863  37.243  27.468  1.00  0.00     0.124 S 
ATOM     86  O   UNL A   1      50.233  36.961  27.885  1.00  0.00    -0.237 OA
ATOM     87  O   UNL A   1      48.684  37.530  26.047  1.00  0.00    -0.237 OA
ATOM     88  O   UNL A   1      48.100  38.105  28.368  1.00  0.00    -0.744 OA
ENDBRANCH  84  85
ENDBRANCH  58  79
ENDBRANCH  32  33
ENDBRANCH  25  27
ENDBRANCH  24  25
ENDBRANCH   1  24
TORSDOF 17
ENDMDL
MODEL 3
REMARK VINA RESULT:     -10.7      2.825      4.444
REMARK SMILES CC[C@@H]1CCC[C@@](C[C@@H]2CSc3ccccc32)(C(=O)OCCOC(=O)c2ccc(-c3c4nc(c(-c5ccc(S(=O)(=O)[O-])cc5)c5ccc([nH]5)c(-c5ccc(S(=O)(=O)[O-])cc5)c5nc(c(-c6ccc(S(=O)(=O)[O-])cc6)c6ccc3[nH]6)C=C5)C=C4)cc2)C1
REMARK SMILES IDX 22 1 21 2 20 3 18 4 19 5 7 6 3 7 4 8 86 9 5 10 6 11 2 12
REMARK SMILES IDX 1 13 8 14 9 15 10 16 17 17 11 18 12 19 16 20 13 21 15 22
REMARK SMILES IDX 14 23 23 24 24 25 25 26 26 27 27 28 85 29 28 30 84 31 29 32
REMARK SMILES IDX 30 33 31 34 78 35 32 36 83 37 77 38 79 39 33 40 82 41 76 42
REMARK SMILES IDX 75 43 34 45 64 46 45 47 63 48 46 49 49 50 62 51 80 52 47 53
REMARK SMILES IDX 48 54 61 56 81 57 50 58 35 59 36 60 44 61 37 62 43 63 38 64
REMARK SMILES IDX 39 65 40 66 41 67 42 68 65 69 66 70 74 71 67 72 73 73 68 74
REMARK SMILES IDX 69 75 70 76 71 77 72 78 51 79 52 80 60 81 53 82 59 83 54 84
REMARK SMILES IDX 55 85 56 86 57 87 58 88
REMARK H PARENT 79 44 49 55
REMARK Flexibility Score: inf
ROOT
ATOM      1  C   UNL A   1      36.851  22.702  24.790  1.00  0.00     0.275 C 
ENDROOT
BRANCH   1   2
ATOM      2  C   UNL A   1      36.512  23.392  23.476  1.00  0.00     0.274 C 
BRANCH   2   3
ATOM      3  O   UNL A   1      35.124  23.170  23.127  1.00  0.00    -0.462 OA
BRANCH   3   4
ATOM      4  C   UNL A   1      34.226  24.134  23.461  1.00  0.00     0.312 C 
ATOM      5  O   UNL A   1      34.426  24.986  24.321  1.00  0.00    -0.252 OA
BRANCH   4   6
ATOM      6  C   UNL A   1      32.866  23.971  22.753  1.00  0.00     0.069 C 
ATOM      7  C   UNL A   1      31.588  26.039  23.754  1.00  0.00    -0.010 C 
ATOM      8  C   UNL A   1      31.499  26.650  22.355  1.00  0.00     0.003 C 
ATOM      9  C   UNL A   1      31.728  24.511  23.688  1.00  0.00     0.022 C 
ATOM     10  C   UNL A   1      32.682  26.227  21.503  1.00  0.00     0.001 C 
ATOM     11  C   UNL A   1      32.777  24.706  21.399  1.00  0.00     0.019 C 
BRANCH   7  12
ATOM     12  C   UNL A   1      30.396  26.533  24.604  1.00  0.00     0.000 C 
ATOM     13  C   UNL A   1      29.024  26.380  23.965  1.00  0.00     0.004 C 
ENDBRANCH   7  12
BRANCH   6  14
ATOM     14  C   UNL A   1      32.606  22.419  22.641  1.00  0.00     0.028 C 
BRANCH  14  15
ATOM     15  C   UNL A   1      32.203  21.530  23.845  1.00  0.00     0.032 C 
ATOM     16  C   UNL A   1      32.706  21.983  25.229  1.00  0.00     0.083 C 
ATOM     17  C   UNL A   1      32.535  20.072  23.677  1.00  0.00    -0.030 A 
ATOM     18  S   UNL A   1      33.836  20.716  25.884  1.00  0.00    -0.125 SA
ATOM     19  C   UNL A   1      33.423  19.558  24.621  1.00  0.00     0.011 A 
ATOM     20  C   UNL A   1      32.088  19.271  22.628  1.00  0.00     0.005 A 
ATOM     21  C   UNL A   1      33.944  18.279  24.490  1.00  0.00     0.015 A 
ATOM     22  C   UNL A   1      32.600  17.981  22.492  1.00  0.00     0.000 A 
ATOM     23  C   UNL A   1      33.537  17.493  23.410  1.00  0.00     0.001 A 
ENDBRANCH  14  15
ENDBRANCH   6  14
ENDBRANCH   4   6
ENDBRANCH   3   4
ENDBRANCH   2   3
ENDBRANCH   1   2
BRANCH   1  24
ATOM     24  O   UNL A   1      37.623  23.629  25.562  1.00  0.00    -0.458 OA
BRANCH  24  25
ATOM     25  C   UNL A   1      38.806  23.187  26.039  1.00  0.00     0.338 C 
ATOM     26  O   UNL A   1      39.323  22.102  25.860  1.00  0.00    -0.246 OA
BRANCH  25  27
ATOM     27  C   UNL A   1      39.414  24.298  26.794  1.00  0.00     0.060 A 
ATOM     28  C   UNL A   1      40.189  25.254  26.147  1.00  0.00     0.016 A 
ATOM     29  C   UNL A   1      39.127  24.432  28.151  1.00  0.00     0.016 A 
ATOM     30  C   UNL A   1      40.684  26.339  26.880  1.00  0.00     0.010 A 
ATOM     31  C   UNL A   1      39.518  25.574  28.839  1.00  0.00     0.010 A 
ATOM     32  C   UNL A   1      40.317  26.540  28.227  1.00  0.00    -0.014 A 
BRANCH  32  33
ATOM     33  C   UNL A   1      40.727  27.767  28.969  1.00  0.00     0.031 A 
ATOM     34  C   UNL A   1      42.133  27.955  29.490  1.00  0.00     0.074 A 
ATOM     35  C   UNL A   1      39.800  28.714  29.228  1.00  0.00     0.049 A 
ATOM     36  N   UNL A   1      42.658  29.008  30.067  1.00  0.00    -0.248 NA
ATOM     37  C   UNL A   1      43.056  26.812  29.406  1.00  0.00     0.031 C 
ATOM     38  C   UNL A   1      38.369  28.600  28.931  1.00  0.00     0.029 A 
ATOM     39  N   UNL A   1      39.924  29.972  29.767  1.00  0.00    -0.354 N 
ATOM     40  C   UNL A   1      43.947  28.642  30.436  1.00  0.00     0.074 A 
ATOM     41  C   UNL A   1      44.103  27.249  30.091  1.00  0.00     0.031 C 
ATOM     42  C   UNL A   1      37.771  29.772  29.190  1.00  0.00     0.029 A 
ATOM     43  C   UNL A   1      38.765  30.713  29.696  1.00  0.00     0.049 A 
ATOM     44  H   UNL A   1      40.758  30.310  30.166  1.00  0.00     0.167 HD
ATOM     45  C   UNL A   1      44.934  29.406  30.965  1.00  0.00     0.031 A 
ATOM     46  C   UNL A   1      38.534  32.015  29.954  1.00  0.00     0.031 A 
ATOM     47  C   UNL A   1      44.797  30.812  31.231  1.00  0.00     0.049 A 
ATOM     48  C   UNL A   1      39.673  32.892  30.384  1.00  0.00     0.074 A 
ATOM     49  C   UNL A   1      45.767  31.703  31.657  1.00  0.00     0.029 A 
ATOM     50  N   UNL A   1      43.628  31.538  31.070  1.00  0.00    -0.354 N 
ATOM     51  N   UNL A   1      40.919  32.557  30.618  1.00  0.00    -0.248 NA
ATOM     52  C   UNL A   1      39.389  34.323  30.559  1.00  0.00     0.031 C 
ATOM     53  C   UNL A   1      45.177  32.963  31.779  1.00  0.00     0.029 A 
ATOM     54  C   UNL A   1      43.853  32.866  31.383  1.00  0.00     0.049 A 
ATOM     55  H   UNL A   1      42.765  31.163  30.778  1.00  0.00     0.167 HD
ATOM     56  C   UNL A   1      41.573  33.737  30.951  1.00  0.00     0.074 A 
ATOM     57  C   UNL A   1      40.590  34.798  30.872  1.00  0.00     0.031 C 
ATOM     58  C   UNL A   1      42.871  33.917  31.292  1.00  0.00     0.031 A 
BRANCH  45  59
ATOM     59  C   UNL A   1      46.273  28.761  31.225  1.00  0.00    -0.014 A 
ATOM     60  C   UNL A   1      47.240  28.698  30.206  1.00  0.00     0.010 A 
ATOM     61  C   UNL A   1      46.541  28.136  32.457  1.00  0.00     0.010 A 
ATOM     62  C   UNL A   1      48.445  28.017  30.409  1.00  0.00     0.020 A 
ATOM     63  C   UNL A   1      47.757  27.483  32.676  1.00  0.00     0.020 A 
ATOM     64  C   UNL A   1      48.693  27.411  31.644  1.00  0.00     0.054 A 
BRANCH  64  65
ATOM     65  S   UNL A   1      50.265  26.543  31.907  1.00  0.00     0.124 S 
ATOM     66  O   UNL A   1      50.948  27.423  32.849  1.00  0.00    -0.237 OA
ATOM     67  O   UNL A   1      49.839  25.252  32.441  1.00  0.00    -0.237 OA
ATOM     68  O   UNL A   1      50.848  26.487  30.567  1.00  0.00    -0.744 OA
ENDBRANCH  64  65
ENDBRANCH  45  59
BRANCH  46  69
ATOM     69  C   UNL A   1      37.184  32.571  29.666  1.00  0.00    -0.014 A 
ATOM     70  C   UNL A   1      36.866  33.072  28.392  1.00  0.00     0.010 A 
ATOM     71  C   UNL A   1      36.251  32.710  30.710  1.00  0.00     0.010 A 
ATOM     72  C   UNL A   1      35.658  33.745  28.178  1.00  0.00     0.020 A 
ATOM     73  C   UNL A   1      35.034  33.362  30.494  1.00  0.00     0.020 A 
ATOM     74  C   UNL A   1      34.759  33.902  29.236  1.00  0.00     0.054 A 
BRANCH  74  75
ATOM     75  S   UNL A   1      33.230  34.838  28.957  1.00  0.00     0.124 S 
ATOM     76  O   UNL A   1      33.747  36.127  28.506  1.00  0.00    -0.237 OA
ATOM     77  O   UNL A   1      32.548  34.042  27.940  1.00  0.00    -0.237 OA
ATOM     78  O   UNL A   1      32.590  34.846  30.270  1.00  0.00    -0.744 OA
ENDBRANCH  74  75
ENDBRANCH  46  69
BRANCH  58  79
ATOM     79  C   UNL A   1      43.340  35.310  31.608  1.00  0.00    -0.014 A 
ATOM     80  C   UNL A   1      43.196  35.812  32.915  1.00  0.00     0.010 A 
ATOM     81  C   UNL A   1      43.773  36.170  30.584  1.00  0.00     0.010 A 
ATOM     82  C   UNL A   1      43.440  37.159  33.187  1.00  0.00     0.020 A 
ATOM     83  C   UNL A   1      44.041  37.514  30.858  1.00  0.00     0.020 A 
ATOM     84  C   UNL A   1      43.845  38.005  32.151  1.00  0.00     0.054 A 
BRANCH  84  85
ATOM     85  S   UNL A   1      44.108  39.765  32.508  1.00  0.00     0.124 S 
ATOM     86  O   UNL A   1      42.795  40.179  32.992  1.00  0.00    -0.237 OA
ATOM     87  O   UNL A   1      45.169  39.737  33.512  1.00  0.00    -0.237 OA
ATOM     88  O   UNL A   1      44.502  40.319  31.215  1.00  0.00    -0.744 OA
ENDBRANCH  84  85
ENDBRANCH  58  79
ENDBRANCH  32  33
ENDBRANCH  25  27
ENDBRANCH  24  25
ENDBRANCH   1  24
TORSDOF 17
ENDMDL
