MODEL 1
REMARK VINA RESULT:      -9.7      0.000      0.000
REMARK SMILES CC[NH2+][C@]1(C(=O)OCCOC(=O)c2ccc(-c3c4nc(c(-c5ccc(S(=O)(=O)[O-])cc5)c5ccc([nH]5)c(-c5ccc(S(=O)(=O)[O-])cc5)c5nc(c(-c6ccc(S(=O)(=O)[O-])cc6)c6ccc3[nH]6)C=C5)C=C4)cc2)CCC[C@@H]([N@@H+](C)CC2CCCC2)C1
REMARK SMILES IDX 8 1 7 2 5 3 6 4 4 5 73 6 85 7 74 8 76 9 75 10 3 11 2 14 1 15
REMARK SMILES IDX 77 16 78 17 79 19 80 20 81 21 84 22 82 23 83 24 9 25 10 26
REMARK SMILES IDX 11 27 12 28 13 29 14 30 72 31 15 32 71 33 16 34 17 35 18 36
REMARK SMILES IDX 65 37 19 38 70 39 64 40 66 41 20 42 69 43 63 44 62 45 21 47
REMARK SMILES IDX 51 48 32 49 50 50 33 51 36 52 49 53 67 54 34 55 35 56 48 58
REMARK SMILES IDX 68 59 37 60 22 61 23 62 31 63 24 64 30 65 25 66 26 67 27 68
REMARK SMILES IDX 28 69 29 70 52 71 53 72 61 73 54 74 60 75 55 76 56 77 57 78
REMARK SMILES IDX 58 79 59 80 38 81 39 82 47 83 40 84 46 85 41 86 42 87 43 88
REMARK SMILES IDX 44 89 45 90
REMARK H PARENT 3 12 3 13 77 18 66 46 36 57
REMARK Flexibility Score: inf
ROOT
ATOM      1  C   UNL A   1      36.052  21.403  25.544  1.00  0.00     0.274 C 
ENDROOT
BRANCH   1   2
ATOM      2  O   UNL A   1      35.554  22.735  25.782  1.00  0.00    -0.457 OA
BRANCH   2   3
ATOM      3  C   UNL A   1      34.474  22.824  26.617  1.00  0.00     0.368 C 
ATOM      4  O   UNL A   1      34.502  22.507  27.802  1.00  0.00    -0.245 OA
BRANCH   3   5
ATOM      5  C   UNL A   1      33.197  23.337  25.879  1.00  0.00     0.200 C 
ATOM      6  C   UNL A   1      32.067  23.407  26.947  1.00  0.00     0.081 C 
ATOM      7  C   UNL A   1      33.425  24.761  25.293  1.00  0.00     0.146 C 
ATOM      8  C   UNL A   1      30.779  24.044  26.439  1.00  0.00     0.013 C 
ATOM      9  C   UNL A   1      32.130  25.466  24.817  1.00  0.00     0.190 C 
ATOM     10  C   UNL A   1      31.066  25.439  25.917  1.00  0.00     0.065 C 
BRANCH   5  11
ATOM     11  N   UNL A   1      32.735  22.314  24.906  1.00  0.00    -0.332 N 
ATOM     12  H   UNL A   1      33.035  21.403  25.254  1.00  0.00     0.347 HD
ATOM     13  H   UNL A   1      31.725  22.448  24.848  1.00  0.00     0.347 HD
BRANCH  11  14
ATOM     14  C   UNL A   1      33.202  22.431  23.536  1.00  0.00     0.257 C 
ATOM     15  C   UNL A   1      31.972  22.390  22.637  1.00  0.00     0.071 C 
ENDBRANCH  11  14
ENDBRANCH   5  11
BRANCH   9  16
ATOM     16  N   UNL A   1      32.364  26.810  24.254  1.00  0.00    -0.334 N 
ATOM     17  C   UNL A   1      31.152  27.501  23.846  1.00  0.00     0.332 C 
ATOM     18  H   UNL A   1      32.855  26.522  23.407  1.00  0.00     0.348 HD
BRANCH  16  19
ATOM     19  C   UNL A   1      33.435  27.673  24.763  1.00  0.00     0.265 C 
BRANCH  19  20
ATOM     20  C   UNL A   1      33.354  28.621  25.989  1.00  0.00     0.044 C 
ATOM     21  C   UNL A   1      34.596  28.816  26.864  1.00  0.00     0.009 C 
ATOM     22  C   UNL A   1      32.880  30.051  25.775  1.00  0.00     0.009 C 
ATOM     23  C   UNL A   1      34.315  30.081  27.694  1.00  0.00     0.001 C 
ATOM     24  C   UNL A   1      33.006  30.660  27.162  1.00  0.00     0.001 C 
ENDBRANCH  19  20
ENDBRANCH  16  19
ENDBRANCH   9  16
ENDBRANCH   3   5
ENDBRANCH   2   3
ENDBRANCH   1   2
BRANCH   1  25
ATOM     25  C   UNL A   1      37.570  21.408  25.394  1.00  0.00     0.275 C 
BRANCH  25  26
ATOM     26  O   UNL A   1      38.074  22.733  25.632  1.00  0.00    -0.458 OA
BRANCH  26  27
ATOM     27  C   UNL A   1      39.257  22.799  26.285  1.00  0.00     0.338 C 
ATOM     28  O   UNL A   1      40.077  21.909  26.425  1.00  0.00    -0.246 OA
BRANCH  27  29
ATOM     29  C   UNL A   1      39.446  24.157  26.824  1.00  0.00     0.060 A 
ATOM     30  C   UNL A   1      40.078  25.128  26.049  1.00  0.00     0.016 A 
ATOM     31  C   UNL A   1      39.107  24.430  28.148  1.00  0.00     0.016 A 
ATOM     32  C   UNL A   1      40.452  26.346  26.619  1.00  0.00     0.010 A 
ATOM     33  C   UNL A   1      39.407  25.684  28.693  1.00  0.00     0.010 A 
ATOM     34  C   UNL A   1      40.124  26.642  27.951  1.00  0.00    -0.014 A 
BRANCH  34  35
ATOM     35  C   UNL A   1      40.583  27.909  28.593  1.00  0.00     0.031 A 
ATOM     36  C   UNL A   1      42.013  28.043  29.062  1.00  0.00     0.074 A 
ATOM     37  C   UNL A   1      39.741  28.950  28.761  1.00  0.00     0.049 A 
ATOM     38  N   UNL A   1      42.559  28.978  29.798  1.00  0.00    -0.248 NA
ATOM     39  C   UNL A   1      42.944  26.974  28.666  1.00  0.00     0.031 C 
ATOM     40  C   UNL A   1      38.344  28.995  28.327  1.00  0.00     0.029 A 
ATOM     41  N   UNL A   1      39.946  30.181  29.339  1.00  0.00    -0.354 N 
ATOM     42  C   UNL A   1      43.875  28.576  30.011  1.00  0.00     0.074 A 
ATOM     43  C   UNL A   1      44.044  27.315  29.322  1.00  0.00     0.031 C 
ATOM     44  C   UNL A   1      37.832  30.202  28.613  1.00  0.00     0.029 A 
ATOM     45  C   UNL A   1      38.835  30.991  29.323  1.00  0.00     0.049 A 
ATOM     46  H   UNL A   1      40.807  30.456  29.728  1.00  0.00     0.167 HD
ATOM     47  C   UNL A   1      44.850  29.195  30.720  1.00  0.00     0.031 A 
ATOM     48  C   UNL A   1      38.626  32.215  29.847  1.00  0.00     0.031 A 
ATOM     49  C   UNL A   1      44.705  30.477  31.358  1.00  0.00     0.049 A 
ATOM     50  C   UNL A   1      39.726  32.888  30.619  1.00  0.00     0.074 A 
ATOM     51  C   UNL A   1      45.643  31.187  32.089  1.00  0.00     0.029 A 
ATOM     52  N   UNL A   1      43.558  31.254  31.322  1.00  0.00    -0.354 N 
ATOM     53  N   UNL A   1      40.939  32.460  30.869  1.00  0.00    -0.248 NA
ATOM     54  C   UNL A   1      39.419  34.206  31.195  1.00  0.00     0.031 C 
ATOM     55  C   UNL A   1      45.055  32.383  32.517  1.00  0.00     0.029 A 
ATOM     56  C   UNL A   1      43.764  32.434  32.018  1.00  0.00     0.049 A 
ATOM     57  H   UNL A   1      42.721  31.004  30.869  1.00  0.00     0.167 HD
ATOM     58  C   UNL A   1      41.543  33.456  31.628  1.00  0.00     0.074 A 
ATOM     59  C   UNL A   1      40.570  34.520  31.774  1.00  0.00     0.031 C 
ATOM     60  C   UNL A   1      42.788  33.482  32.162  1.00  0.00     0.031 A 
BRANCH  47  61
ATOM     61  C   UNL A   1      46.159  28.467  30.879  1.00  0.00    -0.014 A 
ATOM     62  C   UNL A   1      47.217  28.645  29.970  1.00  0.00     0.010 A 
ATOM     63  C   UNL A   1      46.339  27.611  31.981  1.00  0.00     0.010 A 
ATOM     64  C   UNL A   1      48.416  27.945  30.137  1.00  0.00     0.020 A 
ATOM     65  C   UNL A   1      47.545  26.928  32.165  1.00  0.00     0.020 A 
ATOM     66  C   UNL A   1      48.569  27.086  31.231  1.00  0.00     0.054 A 
BRANCH  66  67
ATOM     67  S   UNL A   1      50.138  26.197  31.434  1.00  0.00     0.124 S 
ATOM     68  O   UNL A   1      49.844  25.324  32.568  1.00  0.00    -0.237 OA
ATOM     69  O   UNL A   1      50.297  25.522  30.148  1.00  0.00    -0.237 OA
ATOM     70  O   UNL A   1      51.105  27.260  31.698  1.00  0.00    -0.744 OA
ENDBRANCH  66  67
ENDBRANCH  47  61
BRANCH  48  71
ATOM     71  C   UNL A   1      37.299  32.868  29.689  1.00  0.00    -0.014 A 
ATOM     72  C   UNL A   1      36.527  33.197  30.816  1.00  0.00     0.010 A 
ATOM     73  C   UNL A   1      36.812  33.185  28.407  1.00  0.00     0.010 A 
ATOM     74  C   UNL A   1      35.289  33.829  30.665  1.00  0.00     0.020 A 
ATOM     75  C   UNL A   1      35.587  33.839  28.254  1.00  0.00     0.020 A 
ATOM     76  C   UNL A   1      34.828  34.150  29.384  1.00  0.00     0.054 A 
BRANCH  76  77
ATOM     77  S   UNL A   1      33.257  35.039  29.208  1.00  0.00     0.124 S 
ATOM     78  O   UNL A   1      32.699  34.938  30.553  1.00  0.00    -0.237 OA
ATOM     79  O   UNL A   1      33.687  36.373  28.801  1.00  0.00    -0.237 OA
ATOM     80  O   UNL A   1      32.552  34.279  28.178  1.00  0.00    -0.744 OA
ENDBRANCH  76  77
ENDBRANCH  48  71
BRANCH  60  81
ATOM     81  C   UNL A   1      43.176  34.711  32.936  1.00  0.00    -0.014 A 
ATOM     82  C   UNL A   1      43.729  35.831  32.289  1.00  0.00     0.010 A 
ATOM     83  C   UNL A   1      42.963  34.756  34.326  1.00  0.00     0.010 A 
ATOM     84  C   UNL A   1      44.096  36.962  33.025  1.00  0.00     0.020 A 
ATOM     85  C   UNL A   1      43.309  35.892  35.061  1.00  0.00     0.020 A 
ATOM     86  C   UNL A   1      43.890  36.982  34.409  1.00  0.00     0.054 A 
BRANCH  86  87
ATOM     87  S   UNL A   1      44.354  38.466  35.344  1.00  0.00     0.124 S 
ATOM     88  O   UNL A   1      43.648  39.516  34.615  1.00  0.00    -0.237 OA
ATOM     89  O   UNL A   1      43.843  38.178  36.683  1.00  0.00    -0.237 OA
ATOM     90  O   UNL A   1      45.811  38.500  35.235  1.00  0.00    -0.744 OA
ENDBRANCH  86  87
ENDBRANCH  60  81
ENDBRANCH  34  35
ENDBRANCH  27  29
ENDBRANCH  26  27
ENDBRANCH  25  26
ENDBRANCH   1  25
TORSDOF 19
ENDMDL
MODEL 2
REMARK VINA RESULT:      -9.6      1.143      1.927
REMARK SMILES CC[NH2+][C@]1(C(=O)OCCOC(=O)c2ccc(-c3c4nc(c(-c5ccc(S(=O)(=O)[O-])cc5)c5ccc([nH]5)c(-c5ccc(S(=O)(=O)[O-])cc5)c5nc(c(-c6ccc(S(=O)(=O)[O-])cc6)c6ccc3[nH]6)C=C5)C=C4)cc2)CCC[C@@H]([N@@H+](C)CC2CCCC2)C1
REMARK SMILES IDX 8 1 7 2 5 3 6 4 4 5 73 6 85 7 74 8 76 9 75 10 3 11 2 14 1 15
REMARK SMILES IDX 77 16 78 17 79 19 80 20 81 21 84 22 82 23 83 24 9 25 10 26
REMARK SMILES IDX 11 27 12 28 13 29 14 30 72 31 15 32 71 33 16 34 17 35 18 36
REMARK SMILES IDX 65 37 19 38 70 39 64 40 66 41 20 42 69 43 63 44 62 45 21 47
REMARK SMILES IDX 51 48 32 49 50 50 33 51 36 52 49 53 67 54 34 55 35 56 48 58
REMARK SMILES IDX 68 59 37 60 22 61 23 62 31 63 24 64 30 65 25 66 26 67 27 68
REMARK SMILES IDX 28 69 29 70 52 71 53 72 61 73 54 74 60 75 55 76 56 77 57 78
REMARK SMILES IDX 58 79 59 80 38 81 39 82 47 83 40 84 46 85 41 86 42 87 43 88
REMARK SMILES IDX 44 89 45 90
REMARK H PARENT 3 12 3 13 77 18 66 46 36 57
REMARK Flexibility Score: inf
ROOT
ATOM      1  C   UNL A   1      35.972  21.448  25.305  1.00  0.00     0.274 C 
ENDROOT
BRANCH   1   2
ATOM      2  O   UNL A   1      35.365  22.756  25.276  1.00  0.00    -0.457 OA
BRANCH   2   3
ATOM      3  C   UNL A   1      34.374  22.970  26.195  1.00  0.00     0.368 C 
ATOM      4  O   UNL A   1      34.439  22.602  27.363  1.00  0.00    -0.245 OA
BRANCH   3   5
ATOM      5  C   UNL A   1      33.141  23.699  25.574  1.00  0.00     0.200 C 
ATOM      6  C   UNL A   1      32.115  23.893  26.728  1.00  0.00     0.081 C 
ATOM      7  C   UNL A   1      33.541  25.096  25.017  1.00  0.00     0.146 C 
ATOM      8  C   UNL A   1      30.906  24.737  26.342  1.00  0.00     0.013 C 
ATOM      9  C   UNL A   1      32.338  26.008  24.665  1.00  0.00     0.190 C 
ATOM     10  C   UNL A   1      31.365  26.094  25.842  1.00  0.00     0.065 C 
BRANCH   5  11
ATOM     11  N   UNL A   1      32.459  22.800  24.609  1.00  0.00    -0.332 N 
ATOM     12  H   UNL A   1      31.621  23.280  24.282  1.00  0.00     0.347 HD
ATOM     13  H   UNL A   1      33.160  22.609  23.892  1.00  0.00     0.347 HD
BRANCH  11  14
ATOM     14  C   UNL A   1      32.051  21.489  25.084  1.00  0.00     0.257 C 
ATOM     15  C   UNL A   1      32.615  20.462  24.109  1.00  0.00     0.071 C 
ENDBRANCH  11  14
ENDBRANCH   5  11
BRANCH   9  16
ATOM     16  N   UNL A   1      32.734  27.324  24.126  1.00  0.00    -0.334 N 
ATOM     17  C   UNL A   1      33.420  27.259  22.847  1.00  0.00     0.332 C 
ATOM     18  H   UNL A   1      33.425  27.563  24.837  1.00  0.00     0.348 HD
BRANCH  16  19
ATOM     19  C   UNL A   1      31.895  28.511  24.328  1.00  0.00     0.265 C 
BRANCH  19  20
ATOM     20  C   UNL A   1      30.669  28.931  23.474  1.00  0.00     0.044 C 
ATOM     21  C   UNL A   1      29.545  27.918  23.235  1.00  0.00     0.009 C 
ATOM     22  C   UNL A   1      29.900  30.182  23.869  1.00  0.00     0.009 C 
ATOM     23  C   UNL A   1      28.348  28.748  22.740  1.00  0.00     0.001 C 
ATOM     24  C   UNL A   1      28.763  30.212  22.860  1.00  0.00     0.001 C 
ENDBRANCH  19  20
ENDBRANCH  16  19
ENDBRANCH   9  16
ENDBRANCH   3   5
ENDBRANCH   2   3
ENDBRANCH   1   2
BRANCH   1  25
ATOM     25  C   UNL A   1      37.493  21.554  25.308  1.00  0.00     0.275 C 
BRANCH  25  26
ATOM     26  O   UNL A   1      37.886  22.847  25.798  1.00  0.00    -0.458 OA
BRANCH  26  27
ATOM     27  C   UNL A   1      39.164  22.945  26.229  1.00  0.00     0.338 C 
ATOM     28  O   UNL A   1      40.047  22.113  26.125  1.00  0.00    -0.246 OA
BRANCH  27  29
ATOM     29  C   UNL A   1      39.370  24.259  26.864  1.00  0.00     0.060 A 
ATOM     30  C   UNL A   1      40.127  25.231  26.214  1.00  0.00     0.016 A 
ATOM     31  C   UNL A   1      38.915  24.478  28.163  1.00  0.00     0.016 A 
ATOM     32  C   UNL A   1      40.506  26.392  26.889  1.00  0.00     0.010 A 
ATOM     33  C   UNL A   1      39.225  25.681  28.808  1.00  0.00     0.010 A 
ATOM     34  C   UNL A   1      40.062  26.634  28.198  1.00  0.00    -0.014 A 
BRANCH  34  35
ATOM     35  C   UNL A   1      40.521  27.836  28.957  1.00  0.00     0.031 A 
ATOM     36  C   UNL A   1      41.917  27.878  29.532  1.00  0.00     0.074 A 
ATOM     37  C   UNL A   1      39.708  28.898  29.137  1.00  0.00     0.049 A 
ATOM     38  N   UNL A   1      42.444  28.738  30.366  1.00  0.00    -0.248 NA
ATOM     39  C   UNL A   1      42.834  26.799  29.128  1.00  0.00     0.031 C 
ATOM     40  C   UNL A   1      38.348  29.030  28.611  1.00  0.00     0.029 A 
ATOM     41  N   UNL A   1      39.917  30.078  29.812  1.00  0.00    -0.354 N 
ATOM     42  C   UNL A   1      43.725  28.268  30.641  1.00  0.00     0.074 A 
ATOM     43  C   UNL A   1      43.896  27.049  29.880  1.00  0.00     0.031 C 
ATOM     44  C   UNL A   1      37.863  30.237  28.944  1.00  0.00     0.029 A 
ATOM     45  C   UNL A   1      38.841  30.933  29.775  1.00  0.00     0.049 A 
ATOM     46  H   UNL A   1      40.758  30.290  30.277  1.00  0.00     0.167 HD
ATOM     47  C   UNL A   1      44.669  28.797  31.456  1.00  0.00     0.031 A 
ATOM     48  C   UNL A   1      38.641  32.127  30.366  1.00  0.00     0.031 A 
ATOM     49  C   UNL A   1      44.527  30.038  32.170  1.00  0.00     0.049 A 
ATOM     50  C   UNL A   1      39.707  32.701  31.257  1.00  0.00     0.074 A 
ATOM     51  C   UNL A   1      45.436  30.658  33.012  1.00  0.00     0.029 A 
ATOM     52  N   UNL A   1      43.415  30.864  32.109  1.00  0.00    -0.354 N 
ATOM     53  N   UNL A   1      40.883  32.206  31.560  1.00  0.00    -0.248 NA
ATOM     54  C   UNL A   1      39.410  33.990  31.900  1.00  0.00     0.031 C 
ATOM     55  C   UNL A   1      44.864  31.847  33.480  1.00  0.00     0.029 A 
ATOM     56  C   UNL A   1      43.614  31.986  32.898  1.00  0.00     0.049 A 
ATOM     57  H   UNL A   1      42.604  30.680  31.582  1.00  0.00     0.167 HD
ATOM     58  C   UNL A   1      41.467  33.124  32.426  1.00  0.00     0.074 A 
ATOM     59  C   UNL A   1      40.527  34.216  32.578  1.00  0.00     0.031 C 
ATOM     60  C   UNL A   1      42.671  33.062  33.046  1.00  0.00     0.031 A 
BRANCH  47  61
ATOM     61  C   UNL A   1      45.935  28.006  31.656  1.00  0.00    -0.014 A 
ATOM     62  C   UNL A   1      46.048  27.040  32.672  1.00  0.00     0.010 A 
ATOM     63  C   UNL A   1      47.022  28.218  30.787  1.00  0.00     0.010 A 
ATOM     64  C   UNL A   1      47.242  26.330  32.840  1.00  0.00     0.020 A 
ATOM     65  C   UNL A   1      48.208  27.493  30.938  1.00  0.00     0.020 A 
ATOM     66  C   UNL A   1      48.316  26.567  31.976  1.00  0.00     0.054 A 
BRANCH  66  67
ATOM     67  S   UNL A   1      49.851  25.627  32.207  1.00  0.00     0.124 S 
ATOM     68  O   UNL A   1      50.743  26.640  32.764  1.00  0.00    -0.237 OA
ATOM     69  O   UNL A   1      49.447  24.569  33.130  1.00  0.00    -0.237 OA
ATOM     70  O   UNL A   1      50.185  25.175  30.858  1.00  0.00    -0.744 OA
ENDBRANCH  66  67
ENDBRANCH  47  61
BRANCH  48  71
ATOM     71  C   UNL A   1      37.355  32.846  30.162  1.00  0.00    -0.014 A 
ATOM     72  C   UNL A   1      37.152  33.638  29.019  1.00  0.00     0.010 A 
ATOM     73  C   UNL A   1      36.316  32.722  31.104  1.00  0.00     0.010 A 
ATOM     74  C   UNL A   1      35.934  34.296  28.822  1.00  0.00     0.020 A 
ATOM     75  C   UNL A   1      35.089  33.358  30.897  1.00  0.00     0.020 A 
ATOM     76  C   UNL A   1      34.909  34.148  29.761  1.00  0.00     0.054 A 
BRANCH  76  77
ATOM     77  S   UNL A   1      33.308  34.945  29.452  1.00  0.00     0.124 S 
ATOM     78  O   UNL A   1      32.777  35.091  30.804  1.00  0.00    -0.237 OA
ATOM     79  O   UNL A   1      33.692  36.187  28.786  1.00  0.00    -0.237 OA
ATOM     80  O   UNL A   1      32.609  33.983  28.603  1.00  0.00    -0.744 OA
ENDBRANCH  76  77
ENDBRANCH  48  71
BRANCH  60  81
ATOM     81  C   UNL A   1      43.048  34.220  33.927  1.00  0.00    -0.014 A 
ATOM     82  C   UNL A   1      43.712  35.344  33.404  1.00  0.00     0.010 A 
ATOM     83  C   UNL A   1      42.713  34.194  35.293  1.00  0.00     0.010 A 
ATOM     84  C   UNL A   1      44.065  36.407  34.240  1.00  0.00     0.020 A 
ATOM     85  C   UNL A   1      43.048  35.263  36.128  1.00  0.00     0.020 A 
ATOM     86  C   UNL A   1      43.738  36.356  35.599  1.00  0.00     0.054 A 
BRANCH  86  87
ATOM     87  S   UNL A   1      44.188  37.754  36.664  1.00  0.00     0.124 S 
ATOM     88  O   UNL A   1      45.505  37.353  37.150  1.00  0.00    -0.237 OA
ATOM     89  O   UNL A   1      44.178  38.885  35.738  1.00  0.00    -0.237 OA
ATOM     90  O   UNL A   1      43.130  37.774  37.672  1.00  0.00    -0.744 OA
ENDBRANCH  86  87
ENDBRANCH  60  81
ENDBRANCH  34  35
ENDBRANCH  27  29
ENDBRANCH  26  27
ENDBRANCH  25  26
ENDBRANCH   1  25
TORSDOF 19
ENDMDL
MODEL 3
REMARK VINA RESULT:      -9.3      2.401      3.152
REMARK SMILES CC[NH2+][C@]1(C(=O)OCCOC(=O)c2ccc(-c3c4nc(c(-c5ccc(S(=O)(=O)[O-])cc5)c5ccc([nH]5)c(-c5ccc(S(=O)(=O)[O-])cc5)c5nc(c(-c6ccc(S(=O)(=O)[O-])cc6)c6ccc3[nH]6)C=C5)C=C4)cc2)CCC[C@@H]([N@@H+](C)CC2CCCC2)C1
REMARK SMILES IDX 8 1 7 2 5 3 6 4 4 5 73 6 85 7 74 8 76 9 75 10 3 11 2 14 1 15
REMARK SMILES IDX 77 16 78 17 79 19 80 20 81 21 84 22 82 23 83 24 9 25 10 26
REMARK SMILES IDX 11 27 12 28 13 29 14 30 72 31 15 32 71 33 16 34 17 35 18 36
REMARK SMILES IDX 65 37 19 38 70 39 64 40 66 41 20 42 69 43 63 44 62 45 21 47
REMARK SMILES IDX 51 48 32 49 50 50 33 51 36 52 49 53 67 54 34 55 35 56 48 58
REMARK SMILES IDX 68 59 37 60 22 61 23 62 31 63 24 64 30 65 25 66 26 67 27 68
REMARK SMILES IDX 28 69 29 70 52 71 53 72 61 73 54 74 60 75 55 76 56 77 57 78
REMARK SMILES IDX 58 79 59 80 38 81 39 82 47 83 40 84 46 85 41 86 42 87 43 88
REMARK SMILES IDX 44 89 45 90
REMARK H PARENT 3 12 3 13 77 18 66 46 36 57
REMARK Flexibility Score: inf
ROOT
ATOM      1  C   UNL A   1      36.185  21.403  24.565  1.00  0.00     0.274 C 
ENDROOT
BRANCH   1   2
ATOM      2  O   UNL A   1      35.586  22.557  25.190  1.00  0.00    -0.457 OA
BRANCH   2   3
ATOM      3  C   UNL A   1      34.579  22.294  26.078  1.00  0.00     0.368 C 
ATOM      4  O   UNL A   1      34.760  21.793  27.183  1.00  0.00    -0.245 OA
BRANCH   3   5
ATOM      5  C   UNL A   1      33.175  22.670  25.507  1.00  0.00     0.200 C 
ATOM      6  C   UNL A   1      32.177  22.593  26.699  1.00  0.00     0.081 C 
ATOM      7  C   UNL A   1      33.172  24.120  24.942  1.00  0.00     0.146 C 
ATOM      8  C   UNL A   1      30.776  23.087  26.362  1.00  0.00     0.013 C 
ATOM      9  C   UNL A   1      31.760  24.680  24.639  1.00  0.00     0.190 C 
ATOM     10  C   UNL A   1      30.842  24.514  25.852  1.00  0.00     0.065 C 
BRANCH   5  11
ATOM     11  N   UNL A   1      32.719  21.617  24.564  1.00  0.00    -0.332 N 
ATOM     12  H   UNL A   1      31.837  21.931  24.159  1.00  0.00     0.347 HD
ATOM     13  H   UNL A   1      33.488  21.509  23.903  1.00  0.00     0.347 HD
BRANCH  11  14
ATOM     14  C   UNL A   1      32.502  20.284  25.098  1.00  0.00     0.257 C 
ATOM     15  C   UNL A   1      32.787  19.297  23.972  1.00  0.00     0.071 C 
ENDBRANCH  11  14
ENDBRANCH   5  11
BRANCH   9  16
ATOM     16  N   UNL A   1      31.774  26.051  24.092  1.00  0.00    -0.334 N 
ATOM     17  C   UNL A   1      32.313  26.147  22.745  1.00  0.00     0.332 C 
ATOM     18  H   UNL A   1      32.464  26.448  24.730  1.00  0.00     0.348 HD
BRANCH  16  19
ATOM     19  C   UNL A   1      30.708  27.008  24.409  1.00  0.00     0.265 C 
BRANCH  19  20
ATOM     20  C   UNL A   1      29.930  27.892  23.398  1.00  0.00     0.044 C 
ATOM     21  C   UNL A   1      28.399  27.839  23.388  1.00  0.00     0.009 C 
ATOM     22  C   UNL A   1      30.203  29.388  23.376  1.00  0.00     0.009 C 
ATOM     23  C   UNL A   1      27.954  29.088  22.606  1.00  0.00     0.001 C 
ATOM     24  C   UNL A   1      29.220  29.895  22.333  1.00  0.00     0.001 C 
ENDBRANCH  19  20
ENDBRANCH  16  19
ENDBRANCH   9  16
ENDBRANCH   3   5
ENDBRANCH   2   3
ENDBRANCH   1   2
BRANCH   1  25
ATOM     25  C   UNL A   1      37.454  20.984  25.299  1.00  0.00     0.275 C 
BRANCH  25  26
ATOM     26  O   UNL A   1      38.284  22.135  25.524  1.00  0.00    -0.458 OA
BRANCH  26  27
ATOM     27  C   UNL A   1      39.302  21.960  26.398  1.00  0.00     0.338 C 
ATOM     28  O   UNL A   1      39.846  20.913  26.701  1.00  0.00    -0.246 OA
BRANCH  27  29
ATOM     29  C   UNL A   1      39.698  23.263  26.960  1.00  0.00     0.060 A 
ATOM     30  C   UNL A   1      39.116  24.432  26.475  1.00  0.00     0.016 A 
ATOM     31  C   UNL A   1      40.739  23.330  27.884  1.00  0.00     0.016 A 
ATOM     32  C   UNL A   1      39.629  25.676  26.843  1.00  0.00     0.010 A 
ATOM     33  C   UNL A   1      41.196  24.580  28.318  1.00  0.00     0.010 A 
ATOM     34  C   UNL A   1      40.678  25.769  27.770  1.00  0.00    -0.014 A 
BRANCH  34  35
ATOM     35  C   UNL A   1      41.285  27.089  28.115  1.00  0.00     0.031 A 
ATOM     36  C   UNL A   1      42.760  27.325  27.888  1.00  0.00     0.074 A 
ATOM     37  C   UNL A   1      40.535  28.088  28.627  1.00  0.00     0.049 A 
ATOM     38  N   UNL A   1      43.509  28.324  28.282  1.00  0.00    -0.248 NA
ATOM     39  C   UNL A   1      43.488  26.294  27.132  1.00  0.00     0.031 C 
ATOM     40  C   UNL A   1      39.092  28.033  28.868  1.00  0.00     0.029 A 
ATOM     41  N   UNL A   1      40.889  29.354  29.030  1.00  0.00    -0.354 N 
ATOM     42  C   UNL A   1      44.806  28.007  27.887  1.00  0.00     0.074 A 
ATOM     43  C   UNL A   1      44.738  26.726  27.216  1.00  0.00     0.031 C 
ATOM     44  C   UNL A   1      38.678  29.222  29.333  1.00  0.00     0.029 A 
ATOM     45  C   UNL A   1      39.834  30.098  29.503  1.00  0.00     0.049 A 
ATOM     46  H   UNL A   1      41.811  29.696  28.984  1.00  0.00     0.167 HD
ATOM     47  C   UNL A   1      45.948  28.713  28.070  1.00  0.00     0.031 A 
ATOM     48  C   UNL A   1      39.795  31.332  30.044  1.00  0.00     0.031 A 
ATOM     49  C   UNL A   1      46.013  30.013  28.684  1.00  0.00     0.049 A 
ATOM     50  C   UNL A   1      41.073  32.102  30.226  1.00  0.00     0.074 A 
ATOM     51  C   UNL A   1      47.126  30.808  28.902  1.00  0.00     0.029 A 
ATOM     52  N   UNL A   1      44.920  30.722  29.155  1.00  0.00    -0.354 N 
ATOM     53  N   UNL A   1      42.297  31.755  29.910  1.00  0.00    -0.248 NA
ATOM     54  C   UNL A   1      40.964  33.426  30.856  1.00  0.00     0.031 C 
ATOM     55  C   UNL A   1      46.709  31.988  29.529  1.00  0.00     0.029 A 
ATOM     56  C   UNL A   1      45.331  31.943  29.664  1.00  0.00     0.049 A 
ATOM     57  H   UNL A   1      43.988  30.404  29.132  1.00  0.00     0.167 HD
ATOM     58  C   UNL A   1      43.103  32.818  30.299  1.00  0.00     0.074 A 
ATOM     59  C   UNL A   1      42.226  33.831  30.850  1.00  0.00     0.031 C 
ATOM     60  C   UNL A   1      44.451  32.940  30.215  1.00  0.00     0.031 A 
BRANCH  47  61
ATOM     61  C   UNL A   1      47.238  28.068  27.635  1.00  0.00    -0.014 A 
ATOM     62  C   UNL A   1      47.965  27.223  28.492  1.00  0.00     0.010 A 
ATOM     63  C   UNL A   1      47.714  28.295  26.330  1.00  0.00     0.010 A 
ATOM     64  C   UNL A   1      49.167  26.650  28.064  1.00  0.00     0.020 A 
ATOM     65  C   UNL A   1      48.902  27.704  25.891  1.00  0.00     0.020 A 
ATOM     66  C   UNL A   1      49.630  26.900  26.768  1.00  0.00     0.054 A 
BRANCH  66  67
ATOM     67  S   UNL A   1      51.187  26.137  26.231  1.00  0.00     0.124 S 
ATOM     68  O   UNL A   1      51.075  26.218  24.776  1.00  0.00    -0.237 OA
ATOM     69  O   UNL A   1      52.197  27.004  26.832  1.00  0.00    -0.237 OA
ATOM     70  O   UNL A   1      51.120  24.788  26.788  1.00  0.00    -0.744 OA
ENDBRANCH  66  67
ENDBRANCH  47  61
BRANCH  48  71
ATOM     71  C   UNL A   1      38.495  31.902  30.490  1.00  0.00    -0.014 A 
ATOM     72  C   UNL A   1      38.137  31.885  31.849  1.00  0.00     0.010 A 
ATOM     73  C   UNL A   1      37.618  32.484  29.556  1.00  0.00     0.010 A 
ATOM     74  C   UNL A   1      36.923  32.438  32.266  1.00  0.00     0.020 A 
ATOM     75  C   UNL A   1      36.416  33.061  29.973  1.00  0.00     0.020 A 
ATOM     76  C   UNL A   1      36.072  33.027  31.326  1.00  0.00     0.054 A 
BRANCH  76  77
ATOM     77  S   UNL A   1      34.537  33.810  31.893  1.00  0.00     0.124 S 
ATOM     78  O   UNL A   1      35.037  34.828  32.812  1.00  0.00    -0.237 OA
ATOM     79  O   UNL A   1      33.954  34.311  30.652  1.00  0.00    -0.237 OA
ATOM     80  O   UNL A   1      33.805  32.709  32.515  1.00  0.00    -0.744 OA
ENDBRANCH  76  77
ENDBRANCH  48  71
BRANCH  60  81
ATOM     81  C   UNL A   1      45.055  34.224  30.710  1.00  0.00    -0.014 A 
ATOM     82  C   UNL A   1      45.214  35.329  29.854  1.00  0.00     0.010 A 
ATOM     83  C   UNL A   1      45.448  34.336  32.056  1.00  0.00     0.010 A 
ATOM     84  C   UNL A   1      45.789  36.512  30.328  1.00  0.00     0.020 A 
ATOM     85  C   UNL A   1      46.005  35.523  32.538  1.00  0.00     0.020 A 
ATOM     86  C   UNL A   1      46.188  36.599  31.666  1.00  0.00     0.054 A 
BRANCH  86  87
ATOM     87  S   UNL A   1      46.914  38.149  32.267  1.00  0.00     0.124 S 
ATOM     88  O   UNL A   1      46.091  38.435  33.439  1.00  0.00    -0.237 OA
ATOM     89  O   UNL A   1      48.298  37.772  32.548  1.00  0.00    -0.237 OA
ATOM     90  O   UNL A   1      46.742  39.068  31.143  1.00  0.00    -0.744 OA
ENDBRANCH  86  87
ENDBRANCH  60  81
ENDBRANCH  34  35
ENDBRANCH  27  29
ENDBRANCH  26  27
ENDBRANCH  25  26
ENDBRANCH   1  25
TORSDOF 19
ENDMDL
