MODEL 1
REMARK VINA RESULT:     -10.2      0.000      0.000
REMARK SMILES Nc1ccc(O)c(C(=O)OCCOC(=O)c2ccc(-c3c4nc(c(-c5ccc(S(=O)(=O)[O-])cc5)c5ccc([nH]5)c(-c5ccc(S(=O)(=O)[O-])cc5)c5nc(c(-c6ccc(S(=O)(=O)[O-])cc6)c6ccc3[nH]6)C=C5)C=C4)cc2)c1
REMARK SMILES IDX 12 1 11 2 10 3 8 4 9 5 7 6 2 7 3 8 76 9 4 10 5 11 1 12 6 15
REMARK SMILES IDX 13 17 14 18 15 19 16 20 17 21 75 22 18 23 74 24 19 25 20 26
REMARK SMILES IDX 21 27 68 28 22 29 73 30 67 31 69 32 23 33 72 34 66 35 65 36
REMARK SMILES IDX 24 38 54 39 35 40 53 41 36 42 39 43 52 44 70 45 37 46 38 47
REMARK SMILES IDX 51 49 71 50 40 51 25 52 26 53 34 54 27 55 33 56 28 57 29 58
REMARK SMILES IDX 30 59 31 60 32 61 55 62 56 63 64 64 57 65 63 66 58 67 59 68
REMARK SMILES IDX 60 69 61 70 62 71 41 72 42 73 50 74 43 75 49 76 44 77 45 78
REMARK SMILES IDX 46 79 47 80 48 81
REMARK H PARENT 1 13 1 14 6 16 69 37 39 48
REMARK Flexibility Score: inf
ROOT
ATOM      1  C   UNL A   1      34.680  33.377  28.456  1.00  0.00     0.275 C 
ENDROOT
BRANCH   1   2
ATOM      2  C   UNL A   1      33.303  33.959  28.124  1.00  0.00     0.275 C 
BRANCH   2   3
ATOM      3  O   UNL A   1      32.639  34.495  29.289  1.00  0.00    -0.458 OA
BRANCH   3   4
ATOM      4  C   UNL A   1      32.935  35.783  29.588  1.00  0.00     0.342 C 
ATOM      5  O   UNL A   1      32.960  36.714  28.795  1.00  0.00    -0.246 OA
BRANCH   4   6
ATOM      6  C   UNL A   1      33.248  35.939  31.023  1.00  0.00     0.103 A 
ATOM      7  C   UNL A   1      34.012  34.939  33.100  1.00  0.00     0.032 A 
ATOM      8  C   UNL A   1      34.289  36.216  33.596  1.00  0.00     0.029 A 
ATOM      9  C   UNL A   1      33.545  34.804  31.787  1.00  0.00     0.045 A 
ATOM     10  C   UNL A   1      33.976  37.349  32.853  1.00  0.00     0.049 A 
ATOM     11  C   UNL A   1      33.414  37.204  31.593  1.00  0.00     0.130 A 
BRANCH   7  12
ATOM     12  N   UNL A   1      34.344  33.819  33.850  1.00  0.00    -0.399 N 
ATOM     13  H   UNL A   1      35.036  33.198  33.527  1.00  0.00     0.156 HD
ATOM     14  H   UNL A   1      33.889  33.647  34.705  1.00  0.00     0.156 HD
ENDBRANCH   7  12
BRANCH  11  15
ATOM     15  O   UNL A   1      33.002  38.357  31.003  1.00  0.00    -0.507 OA
ATOM     16  H   UNL A   1      32.357  38.331  30.324  1.00  0.00     0.293 HD
ENDBRANCH  11  15
ENDBRANCH   4   6
ENDBRANCH   3   4
ENDBRANCH   2   3
ENDBRANCH   1   2
BRANCH   1  17
ATOM     17  O   UNL A   1      34.594  32.028  28.956  1.00  0.00    -0.458 OA
BRANCH  17  18
ATOM     18  C   UNL A   1      35.319  31.793  30.070  1.00  0.00     0.338 C 
ATOM     19  O   UNL A   1      35.046  32.116  31.214  1.00  0.00    -0.246 OA
BRANCH  18  20
ATOM     20  C   UNL A   1      36.479  30.937  29.788  1.00  0.00     0.060 A 
ATOM     21  C   UNL A   1      37.278  30.593  30.870  1.00  0.00     0.016 A 
ATOM     22  C   UNL A   1      36.948  30.768  28.485  1.00  0.00     0.016 A 
ATOM     23  C   UNL A   1      38.607  30.253  30.659  1.00  0.00     0.010 A 
ATOM     24  C   UNL A   1      38.245  30.272  28.279  1.00  0.00     0.010 A 
ATOM     25  C   UNL A   1      39.113  30.058  29.366  1.00  0.00    -0.014 A 
BRANCH  25  26
ATOM     26  C   UNL A   1      40.542  29.661  29.181  1.00  0.00     0.031 A 
ATOM     27  C   UNL A   1      41.665  30.639  29.439  1.00  0.00     0.074 A 
ATOM     28  C   UNL A   1      40.846  28.395  28.821  1.00  0.00     0.049 A 
ATOM     29  N   UNL A   1      42.941  30.519  29.167  1.00  0.00    -0.248 NA
ATOM     30  C   UNL A   1      41.313  31.921  30.071  1.00  0.00     0.031 C 
ATOM     31  C   UNL A   1      39.875  27.320  28.587  1.00  0.00     0.029 A 
ATOM     32  N   UNL A   1      42.059  27.784  28.615  1.00  0.00    -0.354 N 
ATOM     33  C   UNL A   1      43.529  31.728  29.528  1.00  0.00     0.074 A 
ATOM     34  C   UNL A   1      42.472  32.567  30.048  1.00  0.00     0.031 C 
ATOM     35  C   UNL A   1      40.527  26.176  28.349  1.00  0.00     0.029 A 
ATOM     36  C   UNL A   1      41.955  26.452  28.285  1.00  0.00     0.049 A 
ATOM     37  H   UNL A   1      42.920  28.253  28.697  1.00  0.00     0.167 HD
ATOM     38  C   UNL A   1      44.828  32.103  29.426  1.00  0.00     0.031 A 
ATOM     39  C   UNL A   1      42.888  25.555  27.912  1.00  0.00     0.031 A 
ATOM     40  C   UNL A   1      45.886  31.241  28.962  1.00  0.00     0.049 A 
ATOM     41  C   UNL A   1      44.313  26.000  27.783  1.00  0.00     0.074 A 
ATOM     42  C   UNL A   1      47.233  31.532  28.816  1.00  0.00     0.029 A 
ATOM     43  N   UNL A   1      45.724  29.914  28.593  1.00  0.00    -0.354 N 
ATOM     44  N   UNL A   1      44.831  27.178  28.035  1.00  0.00    -0.248 NA
ATOM     45  C   UNL A   1      45.274  25.006  27.291  1.00  0.00     0.031 C 
ATOM     46  C   UNL A   1      47.879  30.391  28.326  1.00  0.00     0.029 A 
ATOM     47  C   UNL A   1      46.942  29.376  28.212  1.00  0.00     0.049 A 
ATOM     48  H   UNL A   1      44.868  29.427  28.601  1.00  0.00     0.167 HD
ATOM     49  C   UNL A   1      46.182  27.067  27.729  1.00  0.00     0.074 A 
ATOM     50  C   UNL A   1      46.405  25.699  27.304  1.00  0.00     0.031 C 
ATOM     51  C   UNL A   1      47.146  28.017  27.785  1.00  0.00     0.031 A 
BRANCH  38  52
ATOM     52  C   UNL A   1      45.184  33.525  29.778  1.00  0.00    -0.014 A 
ATOM     53  C   UNL A   1      45.509  33.905  31.092  1.00  0.00     0.010 A 
ATOM     54  C   UNL A   1      45.258  34.488  28.752  1.00  0.00     0.010 A 
ATOM     55  C   UNL A   1      45.872  35.227  31.377  1.00  0.00     0.020 A 
ATOM     56  C   UNL A   1      45.644  35.803  29.029  1.00  0.00     0.020 A 
ATOM     57  C   UNL A   1      45.934  36.168  30.345  1.00  0.00     0.054 A 
BRANCH  57  58
ATOM     58  S   UNL A   1      46.437  37.868  30.735  1.00  0.00     0.124 S 
ATOM     59  O   UNL A   1      47.738  37.660  31.366  1.00  0.00    -0.237 OA
ATOM     60  O   UNL A   1      46.472  38.504  29.421  1.00  0.00    -0.237 OA
ATOM     61  O   UNL A   1      45.383  38.346  31.627  1.00  0.00    -0.744 OA
ENDBRANCH  57  58
ENDBRANCH  38  52
BRANCH  39  62
ATOM     62  C   UNL A   1      42.477  24.170  27.552  1.00  0.00    -0.014 A 
ATOM     63  C   UNL A   1      42.054  23.859  26.249  1.00  0.00     0.010 A 
ATOM     64  C   UNL A   1      42.539  23.144  28.515  1.00  0.00     0.010 A 
ATOM     65  C   UNL A   1      41.696  22.548  25.917  1.00  0.00     0.020 A 
ATOM     66  C   UNL A   1      42.215  21.829  28.179  1.00  0.00     0.020 A 
ATOM     67  C   UNL A   1      41.783  21.542  26.883  1.00  0.00     0.054 A 
BRANCH  67  68
ATOM     68  S   UNL A   1      41.379  19.834  26.420  1.00  0.00     0.124 S 
ATOM     69  O   UNL A   1      41.632  19.115  27.665  1.00  0.00    -0.237 OA
ATOM     70  O   UNL A   1      39.977  19.933  26.019  1.00  0.00    -0.237 OA
ATOM     71  O   UNL A   1      42.310  19.550  25.330  1.00  0.00    -0.744 OA
ENDBRANCH  67  68
ENDBRANCH  39  62
BRANCH  51  72
ATOM     72  C   UNL A   1      48.535  27.596  27.396  1.00  0.00    -0.014 A 
ATOM     73  C   UNL A   1      49.433  27.090  28.353  1.00  0.00     0.010 A 
ATOM     74  C   UNL A   1      48.939  27.686  26.052  1.00  0.00     0.010 A 
ATOM     75  C   UNL A   1      50.724  26.711  27.978  1.00  0.00     0.020 A 
ATOM     76  C   UNL A   1      50.221  27.287  25.669  1.00  0.00     0.020 A 
ATOM     77  C   UNL A   1      51.111  26.818  26.638  1.00  0.00     0.054 A 
BRANCH  77  78
ATOM     78  S   UNL A   1      52.783  26.293  26.168  1.00  0.00     0.124 S 
ATOM     79  O   UNL A   1      53.615  27.100  27.054  1.00  0.00    -0.237 OA
ATOM     80  O   UNL A   1      52.764  24.860  26.454  1.00  0.00    -0.237 OA
ATOM     81  O   UNL A   1      52.866  26.636  24.749  1.00  0.00    -0.744 OA
ENDBRANCH  77  78
ENDBRANCH  51  72
ENDBRANCH  25  26
ENDBRANCH  18  20
ENDBRANCH  17  18
ENDBRANCH   1  17
TORSDOF 16
ENDMDL
MODEL 2
REMARK VINA RESULT:     -10.1      5.925     13.950
REMARK SMILES Nc1ccc(O)c(C(=O)OCCOC(=O)c2ccc(-c3c4nc(c(-c5ccc(S(=O)(=O)[O-])cc5)c5ccc([nH]5)c(-c5ccc(S(=O)(=O)[O-])cc5)c5nc(c(-c6ccc(S(=O)(=O)[O-])cc6)c6ccc3[nH]6)C=C5)C=C4)cc2)c1
REMARK SMILES IDX 12 1 11 2 10 3 8 4 9 5 7 6 2 7 3 8 76 9 4 10 5 11 1 12 6 15
REMARK SMILES IDX 13 17 14 18 15 19 16 20 17 21 75 22 18 23 74 24 19 25 20 26
REMARK SMILES IDX 21 27 68 28 22 29 73 30 67 31 69 32 23 33 72 34 66 35 65 36
REMARK SMILES IDX 24 38 54 39 35 40 53 41 36 42 39 43 52 44 70 45 37 46 38 47
REMARK SMILES IDX 51 49 71 50 40 51 25 52 26 53 34 54 27 55 33 56 28 57 29 58
REMARK SMILES IDX 30 59 31 60 32 61 55 62 56 63 64 64 57 65 63 66 58 67 59 68
REMARK SMILES IDX 60 69 61 70 62 71 41 72 42 73 50 74 43 75 49 76 44 77 45 78
REMARK SMILES IDX 46 79 47 80 48 81
REMARK H PARENT 1 13 1 14 6 16 69 37 39 48
REMARK Flexibility Score: inf
ROOT
ATOM      1  C   UNL A   1      40.468  22.248  26.313  1.00  0.00     0.275 C 
ENDROOT
BRANCH   1   2
ATOM      2  C   UNL A   1      40.988  21.224  27.326  1.00  0.00     0.275 C 
BRANCH   2   3
ATOM      3  O   UNL A   1      42.357  20.844  27.067  1.00  0.00    -0.458 OA
BRANCH   3   4
ATOM      4  C   UNL A   1      42.529  19.895  26.116  1.00  0.00     0.342 C 
ATOM      5  O   UNL A   1      41.719  19.030  25.814  1.00  0.00    -0.246 OA
BRANCH   4   6
ATOM      6  C   UNL A   1      43.854  20.017  25.474  1.00  0.00     0.103 A 
ATOM      7  C   UNL A   1      45.490  21.410  24.341  1.00  0.00     0.032 A 
ATOM      8  C   UNL A   1      46.481  20.475  24.654  1.00  0.00     0.029 A 
ATOM      9  C   UNL A   1      44.185  21.202  24.806  1.00  0.00     0.045 A 
ATOM     10  C   UNL A   1      46.156  19.285  25.297  1.00  0.00     0.049 A 
ATOM     11  C   UNL A   1      44.839  19.043  25.659  1.00  0.00     0.130 A 
BRANCH   7  12
ATOM     12  N   UNL A   1      45.835  22.598  23.713  1.00  0.00    -0.399 N 
ATOM     13  H   UNL A   1      45.478  22.803  22.818  1.00  0.00     0.156 HD
ATOM     14  H   UNL A   1      46.436  23.235  24.161  1.00  0.00     0.156 HD
ENDBRANCH   7  12
BRANCH  11  15
ATOM     15  O   UNL A   1      44.588  17.798  26.142  1.00  0.00    -0.507 OA
ATOM     16  H   UNL A   1      45.296  17.203  26.295  1.00  0.00     0.293 HD
ENDBRANCH  11  15
ENDBRANCH   4   6
ENDBRANCH   3   4
ENDBRANCH   2   3
ENDBRANCH   1   2
BRANCH   1  17
ATOM     17  O   UNL A   1      40.044  23.472  26.945  1.00  0.00    -0.458 OA
BRANCH  17  18
ATOM     18  C   UNL A   1      40.873  24.520  26.754  1.00  0.00     0.338 C 
ATOM     19  O   UNL A   1      41.798  24.599  25.962  1.00  0.00    -0.246 OA
BRANCH  18  20
ATOM     20  C   UNL A   1      40.454  25.689  27.539  1.00  0.00     0.060 A 
ATOM     21  C   UNL A   1      41.254  26.820  27.448  1.00  0.00     0.016 A 
ATOM     22  C   UNL A   1      39.523  25.566  28.570  1.00  0.00     0.016 A 
ATOM     23  C   UNL A   1      41.254  27.743  28.485  1.00  0.00     0.010 A 
ATOM     24  C   UNL A   1      39.421  26.585  29.530  1.00  0.00     0.010 A 
ATOM     25  C   UNL A   1      40.324  27.664  29.531  1.00  0.00    -0.014 A 
BRANCH  25  26
ATOM     26  C   UNL A   1      40.336  28.696  30.613  1.00  0.00     0.031 A 
ATOM     27  C   UNL A   1      41.352  28.646  31.730  1.00  0.00     0.074 A 
ATOM     28  C   UNL A   1      39.454  29.719  30.573  1.00  0.00     0.049 A 
ATOM     29  N   UNL A   1      41.400  29.353  32.832  1.00  0.00    -0.248 NA
ATOM     30  C   UNL A   1      42.449  27.673  31.603  1.00  0.00     0.031 C 
ATOM     31  C   UNL A   1      38.445  29.935  29.531  1.00  0.00     0.029 A 
ATOM     32  N   UNL A   1      39.280  30.790  31.417  1.00  0.00    -0.354 N 
ATOM     33  C   UNL A   1      42.483  28.865  33.558  1.00  0.00     0.074 A 
ATOM     34  C   UNL A   1      43.073  27.807  32.767  1.00  0.00     0.031 C 
ATOM     35  C   UNL A   1      37.817  31.096  29.752  1.00  0.00     0.029 A 
ATOM     36  C   UNL A   1      38.282  31.648  31.017  1.00  0.00     0.049 A 
ATOM     37  H   UNL A   1      39.818  30.930  32.229  1.00  0.00     0.167 HD
ATOM     38  C   UNL A   1      42.936  29.259  34.774  1.00  0.00     0.031 A 
ATOM     39  C   UNL A   1      37.749  32.730  31.616  1.00  0.00     0.031 A 
ATOM     40  C   UNL A   1      42.380  30.352  35.530  1.00  0.00     0.049 A 
ATOM     41  C   UNL A   1      38.249  33.130  32.971  1.00  0.00     0.074 A 
ATOM     42  C   UNL A   1      42.765  30.823  36.775  1.00  0.00     0.029 A 
ATOM     43  N   UNL A   1      41.338  31.163  35.104  1.00  0.00    -0.354 N 
ATOM     44  N   UNL A   1      39.210  32.593  33.683  1.00  0.00    -0.248 NA
ATOM     45  C   UNL A   1      37.575  34.264  33.616  1.00  0.00     0.031 C 
ATOM     46  C   UNL A   1      41.933  31.895  37.117  1.00  0.00     0.029 A 
ATOM     47  C   UNL A   1      41.062  32.123  36.064  1.00  0.00     0.049 A 
ATOM     48  H   UNL A   1      40.865  31.068  34.246  1.00  0.00     0.167 HD
ATOM     49  C   UNL A   1      39.254  33.322  34.864  1.00  0.00     0.074 A 
ATOM     50  C   UNL A   1      38.246  34.357  34.756  1.00  0.00     0.031 C 
ATOM     51  C   UNL A   1      40.051  33.141  35.944  1.00  0.00     0.031 A 
BRANCH  38  52
ATOM     52  C   UNL A   1      44.065  28.476  35.396  1.00  0.00    -0.014 A 
ATOM     53  C   UNL A   1      43.831  27.338  36.187  1.00  0.00     0.010 A 
ATOM     54  C   UNL A   1      45.394  28.855  35.123  1.00  0.00     0.010 A 
ATOM     55  C   UNL A   1      44.904  26.612  36.718  1.00  0.00     0.020 A 
ATOM     56  C   UNL A   1      46.469  28.119  35.631  1.00  0.00     0.020 A 
ATOM     57  C   UNL A   1      46.216  27.009  36.439  1.00  0.00     0.054 A 
BRANCH  57  58
ATOM     58  S   UNL A   1      47.590  26.034  37.114  1.00  0.00     0.124 S 
ATOM     59  O   UNL A   1      48.061  26.889  38.200  1.00  0.00    -0.237 OA
ATOM     60  O   UNL A   1      46.934  24.797  37.529  1.00  0.00    -0.237 OA
ATOM     61  O   UNL A   1      48.508  25.899  35.985  1.00  0.00    -0.744 OA
ENDBRANCH  57  58
ENDBRANCH  38  52
BRANCH  39  62
ATOM     62  C   UNL A   1      36.619  33.451  30.967  1.00  0.00    -0.014 A 
ATOM     63  C   UNL A   1      36.719  33.903  29.641  1.00  0.00     0.010 A 
ATOM     64  C   UNL A   1      35.418  33.659  31.672  1.00  0.00     0.010 A 
ATOM     65  C   UNL A   1      35.641  34.555  29.034  1.00  0.00     0.020 A 
ATOM     66  C   UNL A   1      34.328  34.280  31.060  1.00  0.00     0.020 A 
ATOM     67  C   UNL A   1      34.452  34.735  29.746  1.00  0.00     0.054 A 
BRANCH  67  68
ATOM     68  S   UNL A   1      33.039  35.523  28.924  1.00  0.00     0.124 S 
ATOM     69  O   UNL A   1      33.680  36.621  28.207  1.00  0.00    -0.237 OA
ATOM     70  O   UNL A   1      32.510  34.446  28.091  1.00  0.00    -0.237 OA
ATOM     71  O   UNL A   1      32.177  35.918  30.036  1.00  0.00    -0.744 OA
ENDBRANCH  67  68
ENDBRANCH  39  62
BRANCH  51  72
ATOM     72  C   UNL A   1      39.875  34.102  37.086  1.00  0.00    -0.014 A 
ATOM     73  C   UNL A   1      40.453  35.383  37.049  1.00  0.00     0.010 A 
ATOM     74  C   UNL A   1      39.102  33.727  38.199  1.00  0.00     0.010 A 
ATOM     75  C   UNL A   1      40.288  36.263  38.121  1.00  0.00     0.020 A 
ATOM     76  C   UNL A   1      38.915  34.612  39.263  1.00  0.00     0.020 A 
ATOM     77  C   UNL A   1      39.523  35.868  39.224  1.00  0.00     0.054 A 
BRANCH  77  78
ATOM     78  S   UNL A   1      39.297  37.037  40.593  1.00  0.00     0.124 S 
ATOM     79  O   UNL A   1      38.676  38.175  39.922  1.00  0.00    -0.237 OA
ATOM     80  O   UNL A   1      38.432  36.298  41.510  1.00  0.00    -0.237 OA
ATOM     81  O   UNL A   1      40.656  37.266  41.079  1.00  0.00    -0.744 OA
ENDBRANCH  77  78
ENDBRANCH  51  72
ENDBRANCH  25  26
ENDBRANCH  18  20
ENDBRANCH  17  18
ENDBRANCH   1  17
TORSDOF 16
ENDMDL
MODEL 3
REMARK VINA RESULT:     -10.0      6.012     10.656
REMARK SMILES Nc1ccc(O)c(C(=O)OCCOC(=O)c2ccc(-c3c4nc(c(-c5ccc(S(=O)(=O)[O-])cc5)c5ccc([nH]5)c(-c5ccc(S(=O)(=O)[O-])cc5)c5nc(c(-c6ccc(S(=O)(=O)[O-])cc6)c6ccc3[nH]6)C=C5)C=C4)cc2)c1
REMARK SMILES IDX 12 1 11 2 10 3 8 4 9 5 7 6 2 7 3 8 76 9 4 10 5 11 1 12 6 15
REMARK SMILES IDX 13 17 14 18 15 19 16 20 17 21 75 22 18 23 74 24 19 25 20 26
REMARK SMILES IDX 21 27 68 28 22 29 73 30 67 31 69 32 23 33 72 34 66 35 65 36
REMARK SMILES IDX 24 38 54 39 35 40 53 41 36 42 39 43 52 44 70 45 37 46 38 47
REMARK SMILES IDX 51 49 71 50 40 51 25 52 26 53 34 54 27 55 33 56 28 57 29 58
REMARK SMILES IDX 30 59 31 60 32 61 55 62 56 63 64 64 57 65 63 66 58 67 59 68
REMARK SMILES IDX 60 69 61 70 62 71 41 72 42 73 50 74 43 75 49 76 44 77 45 78
REMARK SMILES IDX 46 79 47 80 48 81
REMARK H PARENT 1 13 1 14 6 16 69 37 39 48
REMARK Flexibility Score: inf
ROOT
ATOM      1  C   UNL A   1      32.297  30.002  26.448  1.00  0.00     0.275 C 
ENDROOT
BRANCH   1   2
ATOM      2  C   UNL A   1      33.016  29.318  25.281  1.00  0.00     0.275 C 
BRANCH   2   3
ATOM      3  O   UNL A   1      32.225  29.321  24.073  1.00  0.00    -0.458 OA
BRANCH   3   4
ATOM      4  C   UNL A   1      31.348  28.296  23.947  1.00  0.00     0.342 C 
ATOM      5  O   UNL A   1      31.491  27.172  24.406  1.00  0.00    -0.246 OA
BRANCH   4   6
ATOM      6  C   UNL A   1      30.169  28.697  23.153  1.00  0.00     0.103 A 
ATOM      7  C   UNL A   1      27.753  28.736  22.901  1.00  0.00     0.032 A 
ATOM      8  C   UNL A   1      27.880  29.784  21.985  1.00  0.00     0.029 A 
ATOM      9  C   UNL A   1      28.901  28.234  23.528  1.00  0.00     0.045 A 
ATOM     10  C   UNL A   1      29.136  30.234  21.592  1.00  0.00     0.049 A 
ATOM     11  C   UNL A   1      30.271  29.656  22.142  1.00  0.00     0.130 A 
BRANCH   7  12
ATOM     12  N   UNL A   1      26.492  28.310  23.293  1.00  0.00    -0.399 N 
ATOM     13  H   UNL A   1      25.873  27.930  22.628  1.00  0.00     0.156 HD
ATOM     14  H   UNL A   1      26.216  28.388  24.234  1.00  0.00     0.156 HD
ENDBRANCH   7  12
BRANCH  11  15
ATOM     15  O   UNL A   1      31.449  30.049  21.591  1.00  0.00    -0.507 OA
ATOM     16  H   UNL A   1      31.757  30.925  21.718  1.00  0.00     0.293 HD
ENDBRANCH  11  15
ENDBRANCH   4   6
ENDBRANCH   3   4
ENDBRANCH   2   3
ENDBRANCH   1   2
BRANCH   1  17
ATOM     17  O   UNL A   1      33.130  30.094  27.621  1.00  0.00    -0.458 OA
BRANCH  17  18
ATOM     18  C   UNL A   1      33.906  31.198  27.675  1.00  0.00     0.338 C 
ATOM     19  O   UNL A   1      33.541  32.361  27.654  1.00  0.00    -0.246 OA
BRANCH  18  20
ATOM     20  C   UNL A   1      35.314  30.855  27.915  1.00  0.00     0.060 A 
ATOM     21  C   UNL A   1      35.579  29.553  28.315  1.00  0.00     0.016 A 
ATOM     22  C   UNL A   1      36.279  31.850  28.072  1.00  0.00     0.016 A 
ATOM     23  C   UNL A   1      36.734  29.279  29.036  1.00  0.00     0.010 A 
ATOM     24  C   UNL A   1      37.511  31.527  28.662  1.00  0.00     0.010 A 
ATOM     25  C   UNL A   1      37.735  30.247  29.201  1.00  0.00    -0.014 A 
BRANCH  25  26
ATOM     26  C   UNL A   1      38.978  29.905  29.958  1.00  0.00     0.031 A 
ATOM     27  C   UNL A   1      39.943  28.860  29.446  1.00  0.00     0.074 A 
ATOM     28  C   UNL A   1      39.275  30.569  31.096  1.00  0.00     0.049 A 
ATOM     29  N   UNL A   1      40.971  28.320  30.053  1.00  0.00    -0.248 NA
ATOM     30  C   UNL A   1      39.720  28.343  28.086  1.00  0.00     0.031 C 
ATOM     31  C   UNL A   1      38.470  31.642  31.691  1.00  0.00     0.029 A 
ATOM     32  N   UNL A   1      40.349  30.463  31.947  1.00  0.00    -0.354 N 
ATOM     33  C   UNL A   1      41.473  27.358  29.182  1.00  0.00     0.074 A 
ATOM     34  C   UNL A   1      40.642  27.392  27.998  1.00  0.00     0.031 C 
ATOM     35  C   UNL A   1      39.111  32.142  32.754  1.00  0.00     0.029 A 
ATOM     36  C   UNL A   1      40.307  31.348  32.999  1.00  0.00     0.049 A 
ATOM     37  H   UNL A   1      41.079  29.816  31.815  1.00  0.00     0.167 HD
ATOM     38  C   UNL A   1      42.524  26.520  29.358  1.00  0.00     0.031 A 
ATOM     39  C   UNL A   1      41.102  31.482  34.078  1.00  0.00     0.031 A 
ATOM     40  C   UNL A   1      43.384  26.531  30.515  1.00  0.00     0.049 A 
ATOM     41  C   UNL A   1      42.242  30.528  34.263  1.00  0.00     0.074 A 
ATOM     42  C   UNL A   1      44.470  25.716  30.789  1.00  0.00     0.029 A 
ATOM     43  N   UNL A   1      43.273  27.416  31.577  1.00  0.00    -0.354 N 
ATOM     44  N   UNL A   1      42.639  29.560  33.473  1.00  0.00    -0.248 NA
ATOM     45  C   UNL A   1      43.023  30.663  35.499  1.00  0.00     0.031 C 
ATOM     46  C   UNL A   1      44.994  26.085  32.034  1.00  0.00     0.029 A 
ATOM     47  C   UNL A   1      44.264  27.161  32.511  1.00  0.00     0.049 A 
ATOM     48  H   UNL A   1      42.590  28.120  31.655  1.00  0.00     0.167 HD
ATOM     49  C   UNL A   1      43.717  28.967  34.118  1.00  0.00     0.074 A 
ATOM     50  C   UNL A   1      43.928  29.706  35.347  1.00  0.00     0.031 C 
ATOM     51  C   UNL A   1      44.456  27.900  33.732  1.00  0.00     0.031 A 
BRANCH  38  52
ATOM     52  C   UNL A   1      42.785  25.479  28.299  1.00  0.00    -0.014 A 
ATOM     53  C   UNL A   1      43.671  25.712  27.233  1.00  0.00     0.010 A 
ATOM     54  C   UNL A   1      42.177  24.213  28.415  1.00  0.00     0.010 A 
ATOM     55  C   UNL A   1      43.919  24.709  26.287  1.00  0.00     0.020 A 
ATOM     56  C   UNL A   1      42.441  23.202  27.488  1.00  0.00     0.020 A 
ATOM     57  C   UNL A   1      43.301  23.462  26.419  1.00  0.00     0.054 A 
BRANCH  57  58
ATOM     58  S   UNL A   1      43.663  22.169  25.198  1.00  0.00     0.124 S 
ATOM     59  O   UNL A   1      45.035  21.806  25.541  1.00  0.00    -0.237 OA
ATOM     60  O   UNL A   1      42.654  21.155  25.493  1.00  0.00    -0.237 OA
ATOM     61  O   UNL A   1      43.501  22.848  23.914  1.00  0.00    -0.744 OA
ENDBRANCH  57  58
ENDBRANCH  38  52
BRANCH  39  62
ATOM     62  C   UNL A   1      40.783  32.512  35.105  1.00  0.00    -0.014 A 
ATOM     63  C   UNL A   1      39.932  32.216  36.183  1.00  0.00     0.010 A 
ATOM     64  C   UNL A   1      41.362  33.793  35.022  1.00  0.00     0.010 A 
ATOM     65  C   UNL A   1      39.661  33.184  37.156  1.00  0.00     0.020 A 
ATOM     66  C   UNL A   1      41.121  34.751  36.009  1.00  0.00     0.020 A 
ATOM     67  C   UNL A   1      40.262  34.443  37.064  1.00  0.00     0.054 A 
BRANCH  67  68
ATOM     68  S   UNL A   1      39.954  35.666  38.368  1.00  0.00     0.124 S 
ATOM     69  O   UNL A   1      39.673  36.871  37.594  1.00  0.00    -0.237 OA
ATOM     70  O   UNL A   1      38.816  35.094  39.084  1.00  0.00    -0.237 OA
ATOM     71  O   UNL A   1      41.207  35.681  39.121  1.00  0.00    -0.744 OA
ENDBRANCH  67  68
ENDBRANCH  39  62
BRANCH  51  72
ATOM     72  C   UNL A   1      45.577  27.485  34.642  1.00  0.00    -0.014 A 
ATOM     73  C   UNL A   1      45.375  26.525  35.649  1.00  0.00     0.010 A 
ATOM     74  C   UNL A   1      46.856  28.045  34.470  1.00  0.00     0.010 A 
ATOM     75  C   UNL A   1      46.425  26.156  36.493  1.00  0.00     0.020 A 
ATOM     76  C   UNL A   1      47.914  27.662  35.297  1.00  0.00     0.020 A 
ATOM     77  C   UNL A   1      47.688  26.732  36.314  1.00  0.00     0.054 A 
BRANCH  77  78
ATOM     78  S   UNL A   1      49.045  26.217  37.402  1.00  0.00     0.124 S 
ATOM     79  O   UNL A   1      48.399  25.207  38.235  1.00  0.00    -0.237 OA
ATOM     80  O   UNL A   1      50.041  25.713  36.460  1.00  0.00    -0.237 OA
ATOM     81  O   UNL A   1      49.419  27.449  38.093  1.00  0.00    -0.744 OA
ENDBRANCH  77  78
ENDBRANCH  51  72
ENDBRANCH  25  26
ENDBRANCH  18  20
ENDBRANCH  17  18
ENDBRANCH   1  17
TORSDOF 16
ENDMDL
