MODEL 1
REMARK VINA RESULT:     -11.8      0.000      0.000
REMARK SMILES O=C(CCC(=O)N1CCc2[nH]c3ccc(F)cc3c2C1)OCCOC(=O)c1ccc(-c2c3nc(c(-c4ccc(S(=O)(=O)[O-])cc4)c4ccc([nH]4)c(-c4ccc(S(=O)(=O)[O-])cc4)c4nc(c(-c5ccc(S(=O)(=O)[O-])cc5)c5ccc2[nH]5)C=C4)C=C3)cc1
REMARK SMILES IDX 22 1 21 2 2 3 1 4 3 5 4 6 5 7 6 8 7 9 8 10 20 11 9 12 19 13
REMARK SMILES IDX 10 14 18 15 11 16 12 17 17 18 13 20 15 21 14 22 16 23 23 24
REMARK SMILES IDX 24 25 25 26 26 27 27 28 28 29 86 30 29 31 85 32 30 33 31 34
REMARK SMILES IDX 32 35 79 36 33 37 84 38 78 39 80 40 34 41 83 42 77 43 76 44
REMARK SMILES IDX 35 46 65 47 46 48 64 49 47 50 50 51 63 52 81 53 48 54 49 55
REMARK SMILES IDX 62 57 82 58 51 59 36 60 37 61 45 62 38 63 44 64 39 65 40 66
REMARK SMILES IDX 41 67 42 68 43 69 66 70 67 71 75 72 68 73 74 74 69 75 70 76
REMARK SMILES IDX 71 77 72 78 73 79 52 80 53 81 61 82 54 83 60 84 55 85 56 86
REMARK SMILES IDX 57 87 58 88 59 89
REMARK H PARENT 11 19 80 45 50 56
REMARK Flexibility Score: inf
ROOT
ATOM      1  C   UNL A   1      40.780  21.413  27.208  1.00  0.00     0.274 C 
ENDROOT
BRANCH   1   2
ATOM      2  O   UNL A   1      39.836  22.223  26.482  1.00  0.00    -0.462 OA
BRANCH   2   3
ATOM      3  C   UNL A   1      39.328  23.393  26.924  1.00  0.00     0.306 C 
ATOM      4  O   UNL A   1      39.912  23.984  27.831  1.00  0.00    -0.252 OA
BRANCH   3   5
ATOM      5  C   UNL A   1      38.140  23.998  26.229  1.00  0.00     0.132 C 
BRANCH   5   6
ATOM      6  C   UNL A   1      37.271  22.999  25.528  1.00  0.00     0.112 C 
BRANCH   6   7
ATOM      7  C   UNL A   1      35.848  23.420  25.608  1.00  0.00     0.223 C 
ATOM      8  O   UNL A   1      35.552  24.614  25.564  1.00  0.00    -0.275 OA
BRANCH   7   9
ATOM      9  N   UNL A   1      34.914  22.419  25.704  1.00  0.00    -0.338 N 
ATOM     10  C   UNL A   1      33.480  22.525  26.073  1.00  0.00     0.126 C 
ATOM     11  C   UNL A   1      35.393  21.088  25.402  1.00  0.00     0.157 C 
ATOM     12  C   UNL A   1      32.591  22.159  24.845  1.00  0.00     0.075 C 
ATOM     13  C   UNL A   1      34.324  20.331  24.710  1.00  0.00     0.000 A 
ATOM     14  C   UNL A   1      33.072  20.821  24.398  1.00  0.00     0.023 A 
ATOM     15  C   UNL A   1      34.293  18.946  24.494  1.00  0.00     0.008 A 
ATOM     16  N   UNL A   1      32.366  19.833  23.776  1.00  0.00    -0.358 N 
ATOM     17  C   UNL A   1      33.064  18.644  23.907  1.00  0.00     0.046 A 
ATOM     18  C   UNL A   1      35.188  17.924  24.844  1.00  0.00     0.050 A 
ATOM     19  H   UNL A   1      31.505  19.947  23.311  1.00  0.00     0.166 HD
ATOM     20  C   UNL A   1      32.698  17.329  23.609  1.00  0.00     0.030 A 
ATOM     21  C   UNL A   1      34.804  16.617  24.603  1.00  0.00     0.123 A 
ATOM     22  C   UNL A   1      33.593  16.319  23.990  1.00  0.00     0.041 A 
ATOM     23  F   UNL A   1      35.610  15.624  24.997  1.00  0.00    -0.207 F 
ENDBRANCH   7   9
ENDBRANCH   6   7
ENDBRANCH   5   6
ENDBRANCH   3   5
ENDBRANCH   2   3
ENDBRANCH   1   2
BRANCH   1  24
ATOM     24  C   UNL A   1      42.165  21.593  26.587  1.00  0.00     0.275 C 
BRANCH  24  25
ATOM     25  O   UNL A   1      42.060  22.486  25.460  1.00  0.00    -0.458 OA
BRANCH  25  26
ATOM     26  C   UNL A   1      43.195  23.143  25.090  1.00  0.00     0.338 C 
ATOM     27  O   UNL A   1      44.023  22.757  24.277  1.00  0.00    -0.246 OA
BRANCH  26  28
ATOM     28  C   UNL A   1      43.095  24.541  25.589  1.00  0.00     0.060 A 
ATOM     29  C   UNL A   1      43.833  24.963  26.696  1.00  0.00     0.016 A 
ATOM     30  C   UNL A   1      42.021  25.320  25.125  1.00  0.00     0.016 A 
ATOM     31  C   UNL A   1      43.370  26.052  27.432  1.00  0.00     0.010 A 
ATOM     32  C   UNL A   1      41.543  26.394  25.886  1.00  0.00     0.010 A 
ATOM     33  C   UNL A   1      42.154  26.702  27.096  1.00  0.00    -0.014 A 
BRANCH  33  34
ATOM     34  C   UNL A   1      41.705  27.800  27.979  1.00  0.00     0.031 A 
ATOM     35  C   UNL A   1      42.714  28.885  27.967  1.00  0.00     0.074 A 
ATOM     36  C   UNL A   1      40.559  27.978  28.682  1.00  0.00     0.049 A 
ATOM     37  N   UNL A   1      43.480  29.263  28.936  1.00  0.00    -0.248 NA
ATOM     38  C   UNL A   1      43.068  29.427  26.645  1.00  0.00     0.031 C 
ATOM     39  C   UNL A   1      39.334  27.176  28.673  1.00  0.00     0.029 A 
ATOM     40  N   UNL A   1      40.222  29.014  29.525  1.00  0.00    -0.354 N 
ATOM     41  C   UNL A   1      44.310  30.224  28.379  1.00  0.00     0.074 A 
ATOM     42  C   UNL A   1      44.156  30.126  26.950  1.00  0.00     0.031 C 
ATOM     43  C   UNL A   1      38.331  27.874  29.263  1.00  0.00     0.029 A 
ATOM     44  C   UNL A   1      38.859  29.115  29.810  1.00  0.00     0.049 A 
ATOM     45  H   UNL A   1      40.890  29.636  29.896  1.00  0.00     0.167 HD
ATOM     46  C   UNL A   1      44.896  31.197  29.120  1.00  0.00     0.031 A 
ATOM     47  C   UNL A   1      38.209  30.162  30.395  1.00  0.00     0.031 A 
ATOM     48  C   UNL A   1      44.925  30.878  30.520  1.00  0.00     0.049 A 
ATOM     49  C   UNL A   1      39.213  30.954  31.140  1.00  0.00     0.074 A 
ATOM     50  C   UNL A   1      45.514  29.884  31.275  1.00  0.00     0.029 A 
ATOM     51  N   UNL A   1      43.963  31.448  31.315  1.00  0.00    -0.354 N 
ATOM     52  N   UNL A   1      39.813  30.544  32.219  1.00  0.00    -0.248 NA
ATOM     53  C   UNL A   1      39.833  32.079  30.460  1.00  0.00     0.031 C 
ATOM     54  C   UNL A   1      44.592  29.615  32.324  1.00  0.00     0.029 A 
ATOM     55  C   UNL A   1      43.514  30.493  32.191  1.00  0.00     0.049 A 
ATOM     56  H   UNL A   1      43.650  32.380  31.266  1.00  0.00     0.167 HD
ATOM     57  C   UNL A   1      41.098  31.051  32.112  1.00  0.00     0.074 A 
ATOM     58  C   UNL A   1      41.022  32.064  31.063  1.00  0.00     0.031 C 
ATOM     59  C   UNL A   1      42.155  30.413  32.692  1.00  0.00     0.031 A 
BRANCH  46  60
ATOM     60  C   UNL A   1      45.102  32.583  28.575  1.00  0.00    -0.014 A 
ATOM     61  C   UNL A   1      44.030  33.463  28.310  1.00  0.00     0.010 A 
ATOM     62  C   UNL A   1      46.398  33.125  28.525  1.00  0.00     0.010 A 
ATOM     63  C   UNL A   1      44.224  34.790  27.946  1.00  0.00     0.020 A 
ATOM     64  C   UNL A   1      46.604  34.477  28.212  1.00  0.00     0.020 A 
ATOM     65  C   UNL A   1      45.515  35.293  27.906  1.00  0.00     0.054 A 
BRANCH  65  66
ATOM     66  S   UNL A   1      45.718  37.043  27.507  1.00  0.00     0.124 S 
ATOM     67  O   UNL A   1      46.513  37.514  28.638  1.00  0.00    -0.237 OA
ATOM     68  O   UNL A   1      46.415  36.992  26.225  1.00  0.00    -0.237 OA
ATOM     69  O   UNL A   1      44.347  37.541  27.454  1.00  0.00    -0.744 OA
ENDBRANCH  65  66
ENDBRANCH  46  60
BRANCH  47  70
ATOM     70  C   UNL A   1      36.894  30.781  30.039  1.00  0.00    -0.014 A 
ATOM     71  C   UNL A   1      36.593  31.040  28.690  1.00  0.00     0.010 A 
ATOM     72  C   UNL A   1      36.116  31.444  31.018  1.00  0.00     0.010 A 
ATOM     73  C   UNL A   1      35.633  31.996  28.328  1.00  0.00     0.020 A 
ATOM     74  C   UNL A   1      35.151  32.406  30.661  1.00  0.00     0.020 A 
ATOM     75  C   UNL A   1      34.949  32.707  29.314  1.00  0.00     0.054 A 
BRANCH  75  76
ATOM     76  S   UNL A   1      33.884  34.088  28.798  1.00  0.00     0.124 S 
ATOM     77  O   UNL A   1      32.974  33.436  27.861  1.00  0.00    -0.237 OA
ATOM     78  O   UNL A   1      33.282  34.512  30.060  1.00  0.00    -0.237 OA
ATOM     79  O   UNL A   1      34.814  35.045  28.204  1.00  0.00    -0.744 OA
ENDBRANCH  75  76
ENDBRANCH  47  70
BRANCH  59  80
ATOM     80  C   UNL A   1      41.894  29.364  33.752  1.00  0.00    -0.014 A 
ATOM     81  C   UNL A   1      42.373  29.637  35.048  1.00  0.00     0.010 A 
ATOM     82  C   UNL A   1      41.375  28.081  33.490  1.00  0.00     0.010 A 
ATOM     83  C   UNL A   1      42.385  28.654  36.036  1.00  0.00     0.020 A 
ATOM     84  C   UNL A   1      41.357  27.093  34.490  1.00  0.00     0.020 A 
ATOM     85  C   UNL A   1      41.891  27.381  35.749  1.00  0.00     0.054 A 
BRANCH  85  86
ATOM     86  S   UNL A   1      41.996  26.116  37.044  1.00  0.00     0.124 S 
ATOM     87  O   UNL A   1      40.618  26.058  37.530  1.00  0.00    -0.237 OA
ATOM     88  O   UNL A   1      42.446  24.937  36.306  1.00  0.00    -0.237 OA
ATOM     89  O   UNL A   1      42.966  26.659  37.992  1.00  0.00    -0.744 OA
ENDBRANCH  85  86
ENDBRANCH  59  80
ENDBRANCH  33  34
ENDBRANCH  26  28
ENDBRANCH  25  26
ENDBRANCH  24  25
ENDBRANCH   1  24
TORSDOF 17
ENDMDL
MODEL 2
REMARK VINA RESULT:     -11.8      2.330      3.490
REMARK SMILES O=C(CCC(=O)N1CCc2[nH]c3ccc(F)cc3c2C1)OCCOC(=O)c1ccc(-c2c3nc(c(-c4ccc(S(=O)(=O)[O-])cc4)c4ccc([nH]4)c(-c4ccc(S(=O)(=O)[O-])cc4)c4nc(c(-c5ccc(S(=O)(=O)[O-])cc5)c5ccc2[nH]5)C=C4)C=C3)cc1
REMARK SMILES IDX 22 1 21 2 2 3 1 4 3 5 4 6 5 7 6 8 7 9 8 10 20 11 9 12 19 13
REMARK SMILES IDX 10 14 18 15 11 16 12 17 17 18 13 20 15 21 14 22 16 23 23 24
REMARK SMILES IDX 24 25 25 26 26 27 27 28 28 29 86 30 29 31 85 32 30 33 31 34
REMARK SMILES IDX 32 35 79 36 33 37 84 38 78 39 80 40 34 41 83 42 77 43 76 44
REMARK SMILES IDX 35 46 65 47 46 48 64 49 47 50 50 51 63 52 81 53 48 54 49 55
REMARK SMILES IDX 62 57 82 58 51 59 36 60 37 61 45 62 38 63 44 64 39 65 40 66
REMARK SMILES IDX 41 67 42 68 43 69 66 70 67 71 75 72 68 73 74 74 69 75 70 76
REMARK SMILES IDX 71 77 72 78 73 79 52 80 53 81 61 82 54 83 60 84 55 85 56 86
REMARK SMILES IDX 57 87 58 88 59 89
REMARK H PARENT 11 19 80 45 50 56
REMARK Flexibility Score: inf
ROOT
ATOM      1  C   UNL A   1      43.940  18.725  25.430  1.00  0.00     0.274 C 
ENDROOT
BRANCH   1   2
ATOM      2  O   UNL A   1      42.660  19.361  25.609  1.00  0.00    -0.462 OA
BRANCH   2   3
ATOM      3  C   UNL A   1      42.072  19.579  26.804  1.00  0.00     0.306 C 
ATOM      4  O   UNL A   1      42.381  18.861  27.754  1.00  0.00    -0.252 OA
BRANCH   3   5
ATOM      5  C   UNL A   1      41.149  20.754  26.976  1.00  0.00     0.132 C 
BRANCH   5   6
ATOM      6  C   UNL A   1      39.996  20.766  26.020  1.00  0.00     0.112 C 
BRANCH   6   7
ATOM      7  C   UNL A   1      39.218  22.024  26.179  1.00  0.00     0.223 C 
ATOM      8  O   UNL A   1      39.669  22.948  26.856  1.00  0.00    -0.275 OA
BRANCH   7   9
ATOM      9  N   UNL A   1      38.017  22.093  25.519  1.00  0.00    -0.338 N 
ATOM     10  C   UNL A   1      37.431  21.120  24.564  1.00  0.00     0.126 C 
ATOM     11  C   UNL A   1      37.220  23.267  25.796  1.00  0.00     0.157 C 
ATOM     12  C   UNL A   1      36.154  20.474  25.185  1.00  0.00     0.075 C 
ATOM     13  C   UNL A   1      35.787  22.892  25.805  1.00  0.00     0.000 A 
ATOM     14  C   UNL A   1      35.292  21.621  25.589  1.00  0.00     0.023 A 
ATOM     15  C   UNL A   1      34.697  23.773  25.767  1.00  0.00     0.008 A 
ATOM     16  N   UNL A   1      33.931  21.670  25.665  1.00  0.00    -0.358 N 
ATOM     17  C   UNL A   1      33.539  22.998  25.681  1.00  0.00     0.046 A 
ATOM     18  C   UNL A   1      34.627  25.172  25.706  1.00  0.00     0.050 A 
ATOM     19  H   UNL A   1      33.329  20.892  25.702  1.00  0.00     0.166 HD
ATOM     20  C   UNL A   1      32.274  23.582  25.576  1.00  0.00     0.030 A 
ATOM     21  C   UNL A   1      33.381  25.751  25.543  1.00  0.00     0.123 A 
ATOM     22  C   UNL A   1      32.224  24.981  25.489  1.00  0.00     0.041 A 
ATOM     23  F   UNL A   1      33.298  27.080  25.408  1.00  0.00    -0.207 F 
ENDBRANCH   7   9
ENDBRANCH   6   7
ENDBRANCH   5   6
ENDBRANCH   3   5
ENDBRANCH   2   3
ENDBRANCH   1   2
BRANCH   1  24
ATOM     24  C   UNL A   1      44.709  19.463  24.334  1.00  0.00     0.275 C 
BRANCH  24  25
ATOM     25  O   UNL A   1      44.196  20.807  24.226  1.00  0.00    -0.458 OA
BRANCH  25  26
ATOM     26  C   UNL A   1      44.979  21.803  24.724  1.00  0.00     0.338 C 
ATOM     27  O   UNL A   1      46.066  22.157  24.287  1.00  0.00    -0.246 OA
BRANCH  26  28
ATOM     28  C   UNL A   1      44.156  22.600  25.674  1.00  0.00     0.060 A 
ATOM     29  C   UNL A   1      43.078  23.363  25.223  1.00  0.00     0.016 A 
ATOM     30  C   UNL A   1      44.677  22.814  26.961  1.00  0.00     0.016 A 
ATOM     31  C   UNL A   1      42.662  24.450  25.990  1.00  0.00     0.010 A 
ATOM     32  C   UNL A   1      44.276  23.926  27.713  1.00  0.00     0.010 A 
ATOM     33  C   UNL A   1      43.338  24.807  27.186  1.00  0.00    -0.014 A 
BRANCH  33  34
ATOM     34  C   UNL A   1      42.873  26.019  27.893  1.00  0.00     0.031 A 
ATOM     35  C   UNL A   1      43.851  27.113  27.690  1.00  0.00     0.074 A 
ATOM     36  C   UNL A   1      41.734  26.277  28.582  1.00  0.00     0.049 A 
ATOM     37  N   UNL A   1      44.622  27.658  28.571  1.00  0.00    -0.248 NA
ATOM     38  C   UNL A   1      44.168  27.448  26.292  1.00  0.00     0.031 C 
ATOM     39  C   UNL A   1      40.531  25.454  28.725  1.00  0.00     0.029 A 
ATOM     40  N   UNL A   1      41.382  27.425  29.258  1.00  0.00    -0.354 N 
ATOM     41  C   UNL A   1      45.415  28.539  27.853  1.00  0.00     0.074 A 
ATOM     42  C   UNL A   1      45.242  28.213  26.461  1.00  0.00     0.031 C 
ATOM     43  C   UNL A   1      39.519  26.211  29.218  1.00  0.00     0.029 A 
ATOM     44  C   UNL A   1      40.022  27.536  29.552  1.00  0.00     0.049 A 
ATOM     45  H   UNL A   1      42.038  28.114  29.513  1.00  0.00     0.167 HD
ATOM     46  C   UNL A   1      45.986  29.632  28.420  1.00  0.00     0.031 A 
ATOM     47  C   UNL A   1      39.352  28.645  29.978  1.00  0.00     0.031 A 
ATOM     48  C   UNL A   1      46.047  29.538  29.852  1.00  0.00     0.049 A 
ATOM     49  C   UNL A   1      40.346  29.570  30.568  1.00  0.00     0.074 A 
ATOM     50  C   UNL A   1      46.675  28.691  30.742  1.00  0.00     0.029 A 
ATOM     51  N   UNL A   1      45.082  30.203  30.566  1.00  0.00    -0.354 N 
ATOM     52  N   UNL A   1      40.974  29.351  31.686  1.00  0.00    -0.248 NA
ATOM     53  C   UNL A   1      40.923  30.588  29.707  1.00  0.00     0.031 C 
ATOM     54  C   UNL A   1      45.778  28.569  31.838  1.00  0.00     0.029 A 
ATOM     55  C   UNL A   1      44.674  29.388  31.591  1.00  0.00     0.049 A 
ATOM     56  H   UNL A   1      44.743  31.108  30.378  1.00  0.00     0.167 HD
ATOM     57  C   UNL A   1      42.243  29.866  31.474  1.00  0.00     0.074 A 
ATOM     58  C   UNL A   1      42.122  30.699  30.281  1.00  0.00     0.031 C 
ATOM     59  C   UNL A   1      43.327  29.354  32.125  1.00  0.00     0.031 A 
BRANCH  46  60
ATOM     60  C   UNL A   1      46.146  30.919  27.660  1.00  0.00    -0.014 A 
ATOM     61  C   UNL A   1      45.046  31.628  27.128  1.00  0.00     0.010 A 
ATOM     62  C   UNL A   1      47.389  31.572  27.650  1.00  0.00     0.010 A 
ATOM     63  C   UNL A   1      45.175  32.887  26.554  1.00  0.00     0.020 A 
ATOM     64  C   UNL A   1      47.523  32.865  27.123  1.00  0.00     0.020 A 
ATOM     65  C   UNL A   1      46.417  33.503  26.561  1.00  0.00     0.054 A 
BRANCH  65  66
ATOM     66  S   UNL A   1      46.525  35.171  25.877  1.00  0.00     0.124 S 
ATOM     67  O   UNL A   1      47.876  35.566  26.271  1.00  0.00    -0.237 OA
ATOM     68  O   UNL A   1      46.329  34.937  24.449  1.00  0.00    -0.237 OA
ATOM     69  O   UNL A   1      45.444  35.886  26.547  1.00  0.00    -0.744 OA
ENDBRANCH  65  66
ENDBRANCH  46  60
BRANCH  47  70
ATOM     70  C   UNL A   1      38.015  29.168  29.555  1.00  0.00    -0.014 A 
ATOM     71  C   UNL A   1      37.801  29.519  28.210  1.00  0.00     0.010 A 
ATOM     72  C   UNL A   1      37.096  29.663  30.510  1.00  0.00     0.010 A 
ATOM     73  C   UNL A   1      36.783  30.409  27.842  1.00  0.00     0.020 A 
ATOM     74  C   UNL A   1      36.070  30.558  30.147  1.00  0.00     0.020 A 
ATOM     75  C   UNL A   1      35.951  30.960  28.817  1.00  0.00     0.054 A 
BRANCH  75  76
ATOM     76  S   UNL A   1      34.797  32.276  28.321  1.00  0.00     0.124 S 
ATOM     77  O   UNL A   1      34.399  32.832  29.610  1.00  0.00    -0.237 OA
ATOM     78  O   UNL A   1      35.640  33.142  27.500  1.00  0.00    -0.237 OA
ATOM     79  O   UNL A   1      33.747  31.566  27.595  1.00  0.00    -0.744 OA
ENDBRANCH  75  76
ENDBRANCH  47  70
BRANCH  59  80
ATOM     80  C   UNL A   1      43.112  28.480  33.343  1.00  0.00    -0.014 A 
ATOM     81  C   UNL A   1      43.120  27.087  33.135  1.00  0.00     0.010 A 
ATOM     82  C   UNL A   1      42.732  28.962  34.611  1.00  0.00     0.010 A 
ATOM     83  C   UNL A   1      42.714  26.204  34.135  1.00  0.00     0.020 A 
ATOM     84  C   UNL A   1      42.350  28.077  35.633  1.00  0.00     0.020 A 
ATOM     85  C   UNL A   1      42.316  26.703  35.375  1.00  0.00     0.054 A 
BRANCH  85  86
ATOM     86  S   UNL A   1      41.727  25.521  36.618  1.00  0.00     0.124 S 
ATOM     87  O   UNL A   1      42.945  25.235  37.373  1.00  0.00    -0.237 OA
ATOM     88  O   UNL A   1      40.714  26.290  37.338  1.00  0.00    -0.237 OA
ATOM     89  O   UNL A   1      41.210  24.406  35.828  1.00  0.00    -0.744 OA
ENDBRANCH  85  86
ENDBRANCH  59  80
ENDBRANCH  33  34
ENDBRANCH  26  28
ENDBRANCH  25  26
ENDBRANCH  24  25
ENDBRANCH   1  24
TORSDOF 17
ENDMDL
MODEL 3
REMARK VINA RESULT:     -11.5      2.789      9.414
REMARK SMILES O=C(CCC(=O)N1CCc2[nH]c3ccc(F)cc3c2C1)OCCOC(=O)c1ccc(-c2c3nc(c(-c4ccc(S(=O)(=O)[O-])cc4)c4ccc([nH]4)c(-c4ccc(S(=O)(=O)[O-])cc4)c4nc(c(-c5ccc(S(=O)(=O)[O-])cc5)c5ccc2[nH]5)C=C4)C=C3)cc1
REMARK SMILES IDX 22 1 21 2 2 3 1 4 3 5 4 6 5 7 6 8 7 9 8 10 20 11 9 12 19 13
REMARK SMILES IDX 10 14 18 15 11 16 12 17 17 18 13 20 15 21 14 22 16 23 23 24
REMARK SMILES IDX 24 25 25 26 26 27 27 28 28 29 86 30 29 31 85 32 30 33 31 34
REMARK SMILES IDX 32 35 79 36 33 37 84 38 78 39 80 40 34 41 83 42 77 43 76 44
REMARK SMILES IDX 35 46 65 47 46 48 64 49 47 50 50 51 63 52 81 53 48 54 49 55
REMARK SMILES IDX 62 57 82 58 51 59 36 60 37 61 45 62 38 63 44 64 39 65 40 66
REMARK SMILES IDX 41 67 42 68 43 69 66 70 67 71 75 72 68 73 74 74 69 75 70 76
REMARK SMILES IDX 71 77 72 78 73 79 52 80 53 81 61 82 54 83 60 84 55 85 56 86
REMARK SMILES IDX 57 87 58 88 59 89
REMARK H PARENT 11 19 80 45 50 56
REMARK Flexibility Score: inf
ROOT
ATOM      1  C   UNL A   1      33.345  29.848  26.593  1.00  0.00     0.274 C 
ENDROOT
BRANCH   1   2
ATOM      2  O   UNL A   1      32.009  29.324  26.478  1.00  0.00    -0.462 OA
BRANCH   2   3
ATOM      3  C   UNL A   1      31.672  28.230  25.763  1.00  0.00     0.306 C 
ATOM      4  O   UNL A   1      31.087  28.383  24.691  1.00  0.00    -0.252 OA
BRANCH   3   5
ATOM      5  C   UNL A   1      32.115  26.871  26.227  1.00  0.00     0.132 C 
BRANCH   5   6
ATOM      6  C   UNL A   1      33.306  26.335  25.493  1.00  0.00     0.112 C 
BRANCH   6   7
ATOM      7  C   UNL A   1      32.889  25.235  24.583  1.00  0.00     0.223 C 
ATOM      8  O   UNL A   1      32.076  25.451  23.684  1.00  0.00    -0.275 OA
BRANCH   7   9
ATOM      9  N   UNL A   1      33.473  24.011  24.790  1.00  0.00    -0.338 N 
ATOM     10  C   UNL A   1      34.637  23.676  25.648  1.00  0.00     0.126 C 
ATOM     11  C   UNL A   1      32.870  22.904  24.081  1.00  0.00     0.157 C 
ATOM     12  C   UNL A   1      34.175  22.775  26.835  1.00  0.00     0.075 C 
ATOM     13  C   UNL A   1      32.922  21.693  24.932  1.00  0.00     0.000 A 
ATOM     14  C   UNL A   1      33.456  21.633  26.204  1.00  0.00     0.023 A 
ATOM     15  C   UNL A   1      32.693  20.374  24.515  1.00  0.00     0.008 A 
ATOM     16  N   UNL A   1      33.332  20.354  26.663  1.00  0.00    -0.358 N 
ATOM     17  C   UNL A   1      32.950  19.543  25.607  1.00  0.00     0.046 A 
ATOM     18  C   UNL A   1      32.375  19.831  23.262  1.00  0.00     0.050 A 
ATOM     19  H   UNL A   1      33.487  20.058  27.589  1.00  0.00     0.166 HD
ATOM     20  C   UNL A   1      32.860  18.153  25.506  1.00  0.00     0.030 A 
ATOM     21  C   UNL A   1      32.343  18.452  23.144  1.00  0.00     0.123 A 
ATOM     22  C   UNL A   1      32.569  17.625  24.239  1.00  0.00     0.041 A 
ATOM     23  F   UNL A   1      32.115  17.912  21.941  1.00  0.00    -0.207 F 
ENDBRANCH   7   9
ENDBRANCH   6   7
ENDBRANCH   5   6
ENDBRANCH   3   5
ENDBRANCH   2   3
ENDBRANCH   1   2
BRANCH   1  24
ATOM     24  C   UNL A   1      33.290  31.183  27.337  1.00  0.00     0.275 C 
BRANCH  24  25
ATOM     25  O   UNL A   1      34.344  31.215  28.320  1.00  0.00    -0.458 OA
BRANCH  25  26
ATOM     26  C   UNL A   1      35.494  31.852  27.964  1.00  0.00     0.338 C 
ATOM     27  O   UNL A   1      35.589  33.000  27.551  1.00  0.00    -0.246 OA
BRANCH  26  28
ATOM     28  C   UNL A   1      36.638  31.043  28.465  1.00  0.00     0.060 A 
ATOM     29  C   UNL A   1      37.730  31.652  29.085  1.00  0.00     0.016 A 
ATOM     30  C   UNL A   1      36.736  29.713  28.021  1.00  0.00     0.016 A 
ATOM     31  C   UNL A   1      38.957  30.988  29.081  1.00  0.00     0.010 A 
ATOM     32  C   UNL A   1      37.976  29.064  27.991  1.00  0.00     0.010 A 
ATOM     33  C   UNL A   1      39.112  29.738  28.428  1.00  0.00    -0.014 A 
BRANCH  33  34
ATOM     34  C   UNL A   1      40.466  29.144  28.411  1.00  0.00     0.031 A 
ATOM     35  C   UNL A   1      40.920  28.916  29.803  1.00  0.00     0.074 A 
ATOM     36  C   UNL A   1      41.259  28.741  27.388  1.00  0.00     0.049 A 
ATOM     37  N   UNL A   1      41.875  29.517  30.432  1.00  0.00    -0.248 NA
ATOM     38  C   UNL A   1      40.034  28.100  30.649  1.00  0.00     0.031 C 
ATOM     39  C   UNL A   1      40.950  28.646  25.960  1.00  0.00     0.029 A 
ATOM     40  N   UNL A   1      42.538  28.232  27.443  1.00  0.00    -0.354 N 
ATOM     41  C   UNL A   1      41.815  29.022  31.725  1.00  0.00     0.074 A 
ATOM     42  C   UNL A   1      40.556  28.334  31.848  1.00  0.00     0.031 C 
ATOM     43  C   UNL A   1      41.899  27.899  25.339  1.00  0.00     0.029 A 
ATOM     44  C   UNL A   1      42.953  27.569  26.287  1.00  0.00     0.049 A 
ATOM     45  H   UNL A   1      43.114  28.327  28.236  1.00  0.00     0.167 HD
ATOM     46  C   UNL A   1      42.895  29.002  32.547  1.00  0.00     0.031 A 
ATOM     47  C   UNL A   1      44.044  26.764  26.138  1.00  0.00     0.031 A 
ATOM     48  C   UNL A   1      43.927  29.903  32.119  1.00  0.00     0.049 A 
ATOM     49  C   UNL A   1      44.998  27.096  27.221  1.00  0.00     0.074 A 
ATOM     50  C   UNL A   1      44.015  31.271  31.960  1.00  0.00     0.029 A 
ATOM     51  N   UNL A   1      44.983  29.366  31.426  1.00  0.00    -0.354 N 
ATOM     52  N   UNL A   1      45.660  28.213  27.294  1.00  0.00    -0.248 NA
ATOM     53  C   UNL A   1      44.935  26.316  28.445  1.00  0.00     0.031 C 
ATOM     54  C   UNL A   1      44.857  31.464  30.830  1.00  0.00     0.029 A 
ATOM     55  C   UNL A   1      45.286  30.210  30.388  1.00  0.00     0.049 A 
ATOM     56  H   UNL A   1      45.444  28.521  31.637  1.00  0.00     0.167 HD
ATOM     57  C   UNL A   1      45.714  28.493  28.650  1.00  0.00     0.074 A 
ATOM     58  C   UNL A   1      45.339  27.246  29.312  1.00  0.00     0.031 C 
ATOM     59  C   UNL A   1      45.792  29.778  29.100  1.00  0.00     0.031 A 
BRANCH  46  60
ATOM     60  C   UNL A   1      43.116  27.883  33.526  1.00  0.00    -0.014 A 
ATOM     61  C   UNL A   1      43.710  26.655  33.155  1.00  0.00     0.010 A 
ATOM     62  C   UNL A   1      42.940  28.115  34.900  1.00  0.00     0.010 A 
ATOM     63  C   UNL A   1      44.048  25.678  34.083  1.00  0.00     0.020 A 
ATOM     64  C   UNL A   1      43.328  27.159  35.851  1.00  0.00     0.020 A 
ATOM     65  C   UNL A   1      43.861  25.939  35.431  1.00  0.00     0.054 A 
BRANCH  65  66
ATOM     66  S   UNL A   1      44.389  24.675  36.608  1.00  0.00     0.124 S 
ATOM     67  O   UNL A   1      45.828  24.625  36.363  1.00  0.00    -0.237 OA
ATOM     68  O   UNL A   1      43.988  25.252  37.887  1.00  0.00    -0.237 OA
ATOM     69  O   UNL A   1      43.641  23.491  36.195  1.00  0.00    -0.744 OA
ENDBRANCH  65  66
ENDBRANCH  46  60
BRANCH  47  70
ATOM     70  C   UNL A   1      44.171  25.460  25.415  1.00  0.00    -0.014 A 
ATOM     71  C   UNL A   1      43.096  24.553  25.430  1.00  0.00     0.010 A 
ATOM     72  C   UNL A   1      45.440  24.959  25.040  1.00  0.00     0.010 A 
ATOM     73  C   UNL A   1      43.293  23.185  25.188  1.00  0.00     0.020 A 
ATOM     74  C   UNL A   1      45.644  23.587  24.795  1.00  0.00     0.020 A 
ATOM     75  C   UNL A   1      44.573  22.702  24.916  1.00  0.00     0.054 A 
BRANCH  75  76
ATOM     76  S   UNL A   1      44.814  20.901  24.832  1.00  0.00     0.124 S 
ATOM     77  O   UNL A   1      44.695  20.645  23.400  1.00  0.00    -0.237 OA
ATOM     78  O   UNL A   1      46.155  20.735  25.387  1.00  0.00    -0.237 OA
ATOM     79  O   UNL A   1      43.733  20.365  25.656  1.00  0.00    -0.744 OA
ENDBRANCH  75  76
ENDBRANCH  47  70
BRANCH  59  80
ATOM     80  C   UNL A   1      46.188  30.876  28.135  1.00  0.00    -0.014 A 
ATOM     81  C   UNL A   1      47.556  31.202  28.070  1.00  0.00     0.010 A 
ATOM     82  C   UNL A   1      45.273  31.698  27.448  1.00  0.00     0.010 A 
ATOM     83  C   UNL A   1      47.998  32.335  27.389  1.00  0.00     0.020 A 
ATOM     84  C   UNL A   1      45.714  32.826  26.735  1.00  0.00     0.020 A 
ATOM     85  C   UNL A   1      47.073  33.151  26.736  1.00  0.00     0.054 A 
BRANCH  85  86
ATOM     86  S   UNL A   1      47.687  34.654  25.927  1.00  0.00     0.124 S 
ATOM     87  O   UNL A   1      49.057  34.280  25.582  1.00  0.00    -0.237 OA
ATOM     88  O   UNL A   1      46.777  34.803  24.793  1.00  0.00    -0.237 OA
ATOM     89  O   UNL A   1      47.566  35.684  26.956  1.00  0.00    -0.744 OA
ENDBRANCH  85  86
ENDBRANCH  59  80
ENDBRANCH  33  34
ENDBRANCH  26  28
ENDBRANCH  25  26
ENDBRANCH  24  25
ENDBRANCH   1  24
TORSDOF 17
ENDMDL
