MODEL 1
REMARK VINA RESULT:      -9.5      0.000      0.000
REMARK SMILES COc1cc(C(=O)CCC(=O)OCCOC(=O)c2ccc(-c3c4nc(c(-c5ccc(S(=O)(=O)[O-])cc5)c5ccc([nH]5)c(-c5ccc(S(=O)(=O)[O-])cc5)c5nc(c(-c6ccc(S(=O)(=O)[O-])cc6)c6ccc3[nH]6)C=C5)C=C4)cc2)cc(OC)c1OC
REMARK SMILES IDX 13 1 12 2 10 3 11 4 9 5 8 6 6 7 7 8 5 9 3 10 4 11 82 12
REMARK SMILES IDX 79 13 78 14 2 15 1 16 83 17 84 18 80 19 81 20 14 21 15 22
REMARK SMILES IDX 16 23 17 24 18 25 19 26 77 27 20 28 76 29 21 30 22 31 23 32
REMARK SMILES IDX 70 33 24 34 75 35 69 36 71 37 25 38 74 39 68 40 67 41 26 43
REMARK SMILES IDX 56 44 37 45 55 46 38 47 41 48 54 49 72 50 39 51 40 52 53 54
REMARK SMILES IDX 73 55 42 56 27 57 28 58 36 59 29 60 35 61 30 62 31 63 32 64
REMARK SMILES IDX 33 65 34 66 57 67 58 68 66 69 59 70 65 71 60 72 61 73 62 74
REMARK SMILES IDX 63 75 64 76 43 77 44 78 52 79 45 80 51 81 46 82 47 83 48 84
REMARK SMILES IDX 49 85 50 86
REMARK H PARENT 71 42 41 53
REMARK Flexibility Score: inf
ROOT
ATOM      1  C   UNL A   1      37.960  22.260  25.466  1.00  0.00     0.274 C 
ENDROOT
BRANCH   1   2
ATOM      2  O   UNL A   1      37.036  23.352  25.303  1.00  0.00    -0.462 OA
BRANCH   2   3
ATOM      3  C   UNL A   1      35.725  23.064  25.496  1.00  0.00     0.306 C 
ATOM      4  O   UNL A   1      35.058  23.431  26.454  1.00  0.00    -0.252 OA
BRANCH   3   5
ATOM      5  C   UNL A   1      35.178  22.168  24.410  1.00  0.00     0.131 C 
BRANCH   5   6
ATOM      6  C   UNL A   1      33.802  21.583  24.722  1.00  0.00     0.093 C 
BRANCH   6   7
ATOM      7  C   UNL A   1      32.810  21.935  23.628  1.00  0.00     0.163 C 
ATOM      8  O   UNL A   1      32.303  21.060  22.928  1.00  0.00    -0.294 OA
BRANCH   7   9
ATOM      9  C   UNL A   1      32.563  23.364  23.295  1.00  0.00     0.025 A 
ATOM     10  C   UNL A   1      31.308  25.378  23.832  1.00  0.00     0.165 A 
ATOM     11  C   UNL A   1      31.751  24.091  24.165  1.00  0.00     0.062 A 
ATOM     12  C   UNL A   1      31.701  25.955  22.610  1.00  0.00     0.203 A 
ATOM     13  C   UNL A   1      32.596  25.255  21.776  1.00  0.00     0.165 A 
ATOM     14  C   UNL A   1      33.037  23.971  22.134  1.00  0.00     0.062 A 
BRANCH  10  15
ATOM     15  O   UNL A   1      30.464  25.889  24.783  1.00  0.00    -0.493 OA
ATOM     16  C   UNL A   1      31.012  26.257  26.036  1.00  0.00     0.278 C 
ENDBRANCH  10  15
BRANCH  12  17
ATOM     17  O   UNL A   1      31.082  27.100  22.179  1.00  0.00    -0.490 OA
ATOM     18  C   UNL A   1      31.633  28.293  22.726  1.00  0.00     0.278 C 
ENDBRANCH  12  17
BRANCH  13  19
ATOM     19  O   UNL A   1      33.169  25.753  20.636  1.00  0.00    -0.493 OA
ATOM     20  C   UNL A   1      32.518  25.450  19.407  1.00  0.00     0.278 C 
ENDBRANCH  13  19
ENDBRANCH   7   9
ENDBRANCH   6   7
ENDBRANCH   5   6
ENDBRANCH   3   5
ENDBRANCH   2   3
ENDBRANCH   1   2
BRANCH   1  21
ATOM     21  C   UNL A   1      39.098  22.635  26.411  1.00  0.00     0.275 C 
BRANCH  21  22
ATOM     22  O   UNL A   1      38.918  23.947  26.963  1.00  0.00    -0.458 OA
BRANCH  22  23
ATOM     23  C   UNL A   1      39.872  24.845  26.645  1.00  0.00     0.338 C 
ATOM     24  O   UNL A   1      40.597  24.862  25.657  1.00  0.00    -0.246 OA
BRANCH  23  25
ATOM     25  C   UNL A   1      39.950  25.855  27.694  1.00  0.00     0.060 A 
ATOM     26  C   UNL A   1      40.834  26.928  27.556  1.00  0.00     0.016 A 
ATOM     27  C   UNL A   1      39.180  25.689  28.845  1.00  0.00     0.016 A 
ATOM     28  C   UNL A   1      40.943  27.855  28.587  1.00  0.00     0.010 A 
ATOM     29  C   UNL A   1      39.266  26.637  29.860  1.00  0.00     0.010 A 
ATOM     30  C   UNL A   1      40.148  27.724  29.736  1.00  0.00    -0.014 A 
BRANCH  30  31
ATOM     31  C   UNL A   1      40.188  28.755  30.793  1.00  0.00     0.031 A 
ATOM     32  C   UNL A   1      41.129  28.616  31.952  1.00  0.00     0.074 A 
ATOM     33  C   UNL A   1      39.324  29.785  30.711  1.00  0.00     0.049 A 
ATOM     34  N   UNL A   1      41.255  29.380  33.004  1.00  0.00    -0.248 NA
ATOM     35  C   UNL A   1      42.039  27.459  31.935  1.00  0.00     0.031 C 
ATOM     36  C   UNL A   1      38.359  29.991  29.625  1.00  0.00     0.029 A 
ATOM     37  N   UNL A   1      39.106  30.841  31.554  1.00  0.00    -0.354 N 
ATOM     38  C   UNL A   1      42.237  28.788  33.788  1.00  0.00     0.074 A 
ATOM     39  C   UNL A   1      42.666  27.592  33.096  1.00  0.00     0.031 C 
ATOM     40  C   UNL A   1      37.660  31.111  29.866  1.00  0.00     0.029 A 
ATOM     41  C   UNL A   1      38.097  31.676  31.136  1.00  0.00     0.049 A 
ATOM     42  H   UNL A   1      39.622  30.989  32.380  1.00  0.00     0.167 HD
ATOM     43  C   UNL A   1      42.729  29.208  34.978  1.00  0.00     0.031 A 
ATOM     44  C   UNL A   1      37.573  32.767  31.725  1.00  0.00     0.031 A 
ATOM     45  C   UNL A   1      42.282  30.402  35.648  1.00  0.00     0.049 A 
ATOM     46  C   UNL A   1      38.146  33.215  33.039  1.00  0.00     0.074 A 
ATOM     47  C   UNL A   1      42.731  30.943  36.840  1.00  0.00     0.029 A 
ATOM     48  N   UNL A   1      41.277  31.238  35.183  1.00  0.00    -0.354 N 
ATOM     49  N   UNL A   1      39.106  32.666  33.747  1.00  0.00    -0.248 NA
ATOM     50  C   UNL A   1      37.576  34.431  33.629  1.00  0.00     0.031 C 
ATOM     51  C   UNL A   1      41.969  32.085  37.115  1.00  0.00     0.029 A 
ATOM     52  C   UNL A   1      41.079  32.282  36.072  1.00  0.00     0.049 A 
ATOM     53  H   UNL A   1      40.777  31.108  34.345  1.00  0.00     0.167 HD
ATOM     54  C   UNL A   1      39.270  33.483  34.857  1.00  0.00     0.074 A 
ATOM     55  C   UNL A   1      38.323  34.573  34.716  1.00  0.00     0.031 C 
ATOM     56  C   UNL A   1      40.124  33.348  35.902  1.00  0.00     0.031 A 
BRANCH  43  57
ATOM     57  C   UNL A   1      43.779  28.357  35.644  1.00  0.00    -0.014 A 
ATOM     58  C   UNL A   1      45.150  28.583  35.427  1.00  0.00     0.010 A 
ATOM     59  C   UNL A   1      43.388  27.339  36.533  1.00  0.00     0.010 A 
ATOM     60  C   UNL A   1      46.108  27.783  36.058  1.00  0.00     0.020 A 
ATOM     61  C   UNL A   1      44.343  26.553  37.184  1.00  0.00     0.020 A 
ATOM     62  C   UNL A   1      45.699  26.770  36.929  1.00  0.00     0.054 A 
BRANCH  62  63
ATOM     63  S   UNL A   1      46.962  25.760  37.752  1.00  0.00     0.124 S 
ATOM     64  O   UNL A   1      48.179  26.523  37.485  1.00  0.00    -0.237 OA
ATOM     65  O   UNL A   1      46.516  25.756  39.144  1.00  0.00    -0.237 OA
ATOM     66  O   UNL A   1      46.873  24.470  37.072  1.00  0.00    -0.744 OA
ENDBRANCH  62  63
ENDBRANCH  43  57
BRANCH  44  67
ATOM     67  C   UNL A   1      36.455  33.500  31.074  1.00  0.00    -0.014 A 
ATOM     68  C   UNL A   1      36.589  33.999  29.766  1.00  0.00     0.010 A 
ATOM     69  C   UNL A   1      35.235  33.682  31.753  1.00  0.00     0.010 A 
ATOM     70  C   UNL A   1      35.534  34.686  29.159  1.00  0.00     0.020 A 
ATOM     71  C   UNL A   1      34.170  34.346  31.139  1.00  0.00     0.020 A 
ATOM     72  C   UNL A   1      34.331  34.857  29.849  1.00  0.00     0.054 A 
BRANCH  72  73
ATOM     73  S   UNL A   1      32.959  35.713  29.027  1.00  0.00     0.124 S 
ATOM     74  O   UNL A   1      32.490  34.700  28.087  1.00  0.00    -0.237 OA
ATOM     75  O   UNL A   1      32.058  36.012  30.137  1.00  0.00    -0.237 OA
ATOM     76  O   UNL A   1      33.598  36.881  28.424  1.00  0.00    -0.744 OA
ENDBRANCH  72  73
ENDBRANCH  44  67
BRANCH  56  77
ATOM     77  C   UNL A   1      40.087  34.426  36.948  1.00  0.00    -0.014 A 
ATOM     78  C   UNL A   1      39.244  34.320  38.069  1.00  0.00     0.010 A 
ATOM     79  C   UNL A   1      40.923  35.548  36.815  1.00  0.00     0.010 A 
ATOM     80  C   UNL A   1      39.209  35.342  39.020  1.00  0.00     0.020 A 
ATOM     81  C   UNL A   1      40.908  36.560  37.777  1.00  0.00     0.020 A 
ATOM     82  C   UNL A   1      40.037  36.459  38.864  1.00  0.00     0.054 A 
BRANCH  82  83
ATOM     83  S   UNL A   1      39.990  37.765  40.120  1.00  0.00     0.124 S 
ATOM     84  O   UNL A   1      38.684  38.370  39.879  1.00  0.00    -0.237 OA
ATOM     85  O   UNL A   1      40.117  37.017  41.369  1.00  0.00    -0.237 OA
ATOM     86  O   UNL A   1      41.139  38.604  39.787  1.00  0.00    -0.744 OA
ENDBRANCH  82  83
ENDBRANCH  56  77
ENDBRANCH  30  31
ENDBRANCH  23  25
ENDBRANCH  22  23
ENDBRANCH  21  22
ENDBRANCH   1  21
TORSDOF 20
ENDMDL
MODEL 2
REMARK VINA RESULT:      -9.5      1.311      2.395
REMARK SMILES COc1cc(C(=O)CCC(=O)OCCOC(=O)c2ccc(-c3c4nc(c(-c5ccc(S(=O)(=O)[O-])cc5)c5ccc([nH]5)c(-c5ccc(S(=O)(=O)[O-])cc5)c5nc(c(-c6ccc(S(=O)(=O)[O-])cc6)c6ccc3[nH]6)C=C5)C=C4)cc2)cc(OC)c1OC
REMARK SMILES IDX 13 1 12 2 10 3 11 4 9 5 8 6 6 7 7 8 5 9 3 10 4 11 82 12
REMARK SMILES IDX 79 13 78 14 2 15 1 16 83 17 84 18 80 19 81 20 14 21 15 22
REMARK SMILES IDX 16 23 17 24 18 25 19 26 77 27 20 28 76 29 21 30 22 31 23 32
REMARK SMILES IDX 70 33 24 34 75 35 69 36 71 37 25 38 74 39 68 40 67 41 26 43
REMARK SMILES IDX 56 44 37 45 55 46 38 47 41 48 54 49 72 50 39 51 40 52 53 54
REMARK SMILES IDX 73 55 42 56 27 57 28 58 36 59 29 60 35 61 30 62 31 63 32 64
REMARK SMILES IDX 33 65 34 66 57 67 58 68 66 69 59 70 65 71 60 72 61 73 62 74
REMARK SMILES IDX 63 75 64 76 43 77 44 78 52 79 45 80 51 81 46 82 47 83 48 84
REMARK SMILES IDX 49 85 50 86
REMARK H PARENT 71 42 41 53
REMARK Flexibility Score: inf
ROOT
ATOM      1  C   UNL A   1      41.214  21.752  26.133  1.00  0.00     0.274 C 
ENDROOT
BRANCH   1   2
ATOM      2  O   UNL A   1      39.845  21.868  26.560  1.00  0.00    -0.462 OA
BRANCH   2   3
ATOM      3  C   UNL A   1      38.911  21.321  25.742  1.00  0.00     0.306 C 
ATOM      4  O   UNL A   1      38.905  20.157  25.363  1.00  0.00    -0.252 OA
BRANCH   3   5
ATOM      5  C   UNL A   1      37.893  22.338  25.287  1.00  0.00     0.131 C 
BRANCH   5   6
ATOM      6  C   UNL A   1      36.583  21.729  24.792  1.00  0.00     0.093 C 
BRANCH   6   7
ATOM      7  C   UNL A   1      35.868  22.684  23.855  1.00  0.00     0.163 C 
ATOM      8  O   UNL A   1      36.414  23.098  22.833  1.00  0.00    -0.294 OA
BRANCH   7   9
ATOM      9  C   UNL A   1      34.549  23.248  24.251  1.00  0.00     0.025 A 
ATOM     10  C   UNL A   1      32.783  24.833  23.714  1.00  0.00     0.165 A 
ATOM     11  C   UNL A   1      33.924  24.107  23.347  1.00  0.00     0.062 A 
ATOM     12  C   UNL A   1      32.247  24.682  25.006  1.00  0.00     0.203 A 
ATOM     13  C   UNL A   1      32.826  23.746  25.885  1.00  0.00     0.165 A 
ATOM     14  C   UNL A   1      33.963  23.019  25.494  1.00  0.00     0.062 A 
BRANCH  10  15
ATOM     15  O   UNL A   1      32.368  25.671  22.712  1.00  0.00    -0.493 OA
ATOM     16  C   UNL A   1      33.351  26.394  21.994  1.00  0.00     0.278 C 
ENDBRANCH  10  15
BRANCH  12  17
ATOM     17  O   UNL A   1      31.288  25.560  25.441  1.00  0.00    -0.490 OA
ATOM     18  C   UNL A   1      31.803  26.635  26.219  1.00  0.00     0.278 C 
ENDBRANCH  12  17
BRANCH  13  19
ATOM     19  O   UNL A   1      32.325  23.396  27.111  1.00  0.00    -0.493 OA
ATOM     20  C   UNL A   1      33.013  22.367  27.815  1.00  0.00     0.278 C 
ENDBRANCH  13  19
ENDBRANCH   7   9
ENDBRANCH   6   7
ENDBRANCH   5   6
ENDBRANCH   3   5
ENDBRANCH   2   3
ENDBRANCH   1   2
BRANCH   1  21
ATOM     21  C   UNL A   1      41.965  23.067  26.318  1.00  0.00     0.275 C 
BRANCH  21  22
ATOM     22  O   UNL A   1      41.073  24.190  26.321  1.00  0.00    -0.458 OA
BRANCH  22  23
ATOM     23  C   UNL A   1      41.636  25.378  26.021  1.00  0.00     0.338 C 
ATOM     24  O   UNL A   1      42.191  25.711  24.981  1.00  0.00    -0.246 OA
BRANCH  23  25
ATOM     25  C   UNL A   1      41.505  26.276  27.163  1.00  0.00     0.060 A 
ATOM     26  C   UNL A   1      42.315  27.410  27.247  1.00  0.00     0.016 A 
ATOM     27  C   UNL A   1      40.610  25.941  28.180  1.00  0.00     0.016 A 
ATOM     28  C   UNL A   1      42.222  28.229  28.368  1.00  0.00     0.010 A 
ATOM     29  C   UNL A   1      40.496  26.781  29.284  1.00  0.00     0.010 A 
ATOM     30  C   UNL A   1      41.301  27.927  29.383  1.00  0.00    -0.014 A 
BRANCH  30  31
ATOM     31  C   UNL A   1      41.129  28.843  30.530  1.00  0.00     0.031 A 
ATOM     32  C   UNL A   1      42.002  28.709  31.743  1.00  0.00     0.074 A 
ATOM     33  C   UNL A   1      40.141  29.755  30.474  1.00  0.00     0.049 A 
ATOM     34  N   UNL A   1      41.951  29.372  32.868  1.00  0.00    -0.248 NA
ATOM     35  C   UNL A   1      43.060  27.687  31.692  1.00  0.00     0.031 C 
ATOM     36  C   UNL A   1      39.232  29.944  29.339  1.00  0.00     0.029 A 
ATOM     37  N   UNL A   1      39.725  30.682  31.391  1.00  0.00    -0.354 N 
ATOM     38  C   UNL A   1      42.951  28.836  33.670  1.00  0.00     0.074 A 
ATOM     39  C   UNL A   1      43.585  27.781  32.906  1.00  0.00     0.031 C 
ATOM     40  C   UNL A   1      38.372  30.934  29.625  1.00  0.00     0.029 A 
ATOM     41  C   UNL A   1      38.642  31.418  30.973  1.00  0.00     0.049 A 
ATOM     42  H   UNL A   1      40.160  30.811  32.265  1.00  0.00     0.167 HD
ATOM     43  C   UNL A   1      43.301  29.193  34.928  1.00  0.00     0.031 A 
ATOM     44  C   UNL A   1      37.936  32.367  31.615  1.00  0.00     0.031 A 
ATOM     45  C   UNL A   1      42.651  30.244  35.668  1.00  0.00     0.049 A 
ATOM     46  C   UNL A   1      38.353  32.749  33.007  1.00  0.00     0.074 A 
ATOM     47  C   UNL A   1      42.942  30.715  36.936  1.00  0.00     0.029 A 
ATOM     48  N   UNL A   1      41.575  30.986  35.203  1.00  0.00    -0.354 N 
ATOM     49  N   UNL A   1      39.329  32.260  33.735  1.00  0.00    -0.248 NA
ATOM     50  C   UNL A   1      37.584  33.815  33.659  1.00  0.00     0.031 C 
ATOM     51  C   UNL A   1      42.015  31.714  37.253  1.00  0.00     0.029 A 
ATOM     52  C   UNL A   1      41.177  31.900  36.165  1.00  0.00     0.049 A 
ATOM     53  H   UNL A   1      41.154  30.879  34.319  1.00  0.00     0.167 HD
ATOM     54  C   UNL A   1      39.307  32.974  34.925  1.00  0.00     0.074 A 
ATOM     55  C   UNL A   1      38.231  33.941  34.810  1.00  0.00     0.031 C 
ATOM     56  C   UNL A   1      40.099  32.845  36.018  1.00  0.00     0.031 A 
BRANCH  43  57
ATOM     57  C   UNL A   1      44.410  28.421  35.594  1.00  0.00    -0.014 A 
ATOM     58  C   UNL A   1      44.148  27.251  36.329  1.00  0.00     0.010 A 
ATOM     59  C   UNL A   1      45.742  28.852  35.450  1.00  0.00     0.010 A 
ATOM     60  C   UNL A   1      45.194  26.546  36.935  1.00  0.00     0.020 A 
ATOM     61  C   UNL A   1      46.792  28.138  36.036  1.00  0.00     0.020 A 
ATOM     62  C   UNL A   1      46.508  26.998  36.789  1.00  0.00     0.054 A 
BRANCH  62  63
ATOM     63  S   UNL A   1      47.849  26.055  37.569  1.00  0.00     0.124 S 
ATOM     64  O   UNL A   1      48.226  25.130  36.504  1.00  0.00    -0.237 OA
ATOM     65  O   UNL A   1      48.833  27.090  37.879  1.00  0.00    -0.237 OA
ATOM     66  O   UNL A   1      47.211  25.441  38.731  1.00  0.00    -0.744 OA
ENDBRANCH  62  63
ENDBRANCH  43  57
BRANCH  44  67
ATOM     67  C   UNL A   1      36.774  33.012  30.948  1.00  0.00    -0.014 A 
ATOM     68  C   UNL A   1      35.459  32.675  31.315  1.00  0.00     0.010 A 
ATOM     69  C   UNL A   1      36.977  33.988  29.955  1.00  0.00     0.010 A 
ATOM     70  C   UNL A   1      34.370  33.284  30.686  1.00  0.00     0.020 A 
ATOM     71  C   UNL A   1      35.890  34.619  29.343  1.00  0.00     0.020 A 
ATOM     72  C   UNL A   1      34.592  34.252  29.702  1.00  0.00     0.054 A 
BRANCH  72  73
ATOM     73  S   UNL A   1      33.166  35.064  28.927  1.00  0.00     0.124 S 
ATOM     74  O   UNL A   1      32.684  34.027  28.020  1.00  0.00    -0.237 OA
ATOM     75  O   UNL A   1      32.304  35.354  30.070  1.00  0.00    -0.237 OA
ATOM     76  O   UNL A   1      33.750  36.238  28.283  1.00  0.00    -0.744 OA
ENDBRANCH  72  73
ENDBRANCH  44  67
BRANCH  56  77
ATOM     77  C   UNL A   1      39.845  33.797  37.153  1.00  0.00    -0.014 A 
ATOM     78  C   UNL A   1      39.014  33.438  38.228  1.00  0.00     0.010 A 
ATOM     79  C   UNL A   1      40.466  35.059  37.150  1.00  0.00     0.010 A 
ATOM     80  C   UNL A   1      38.774  34.345  39.263  1.00  0.00     0.020 A 
ATOM     81  C   UNL A   1      40.248  35.958  38.195  1.00  0.00     0.020 A 
ATOM     82  C   UNL A   1      39.388  35.602  39.236  1.00  0.00     0.054 A 
BRANCH  82  83
ATOM     83  S   UNL A   1      39.079  36.756  40.599  1.00  0.00     0.124 S 
ATOM     84  O   UNL A   1      38.572  37.929  39.894  1.00  0.00    -0.237 OA
ATOM     85  O   UNL A   1      38.101  36.040  41.415  1.00  0.00    -0.237 OA
ATOM     86  O   UNL A   1      40.394  36.918  41.217  1.00  0.00    -0.744 OA
ENDBRANCH  82  83
ENDBRANCH  56  77
ENDBRANCH  30  31
ENDBRANCH  23  25
ENDBRANCH  22  23
ENDBRANCH  21  22
ENDBRANCH   1  21
TORSDOF 20
ENDMDL
MODEL 3
REMARK VINA RESULT:      -9.4      1.615      2.520
REMARK SMILES COc1cc(C(=O)CCC(=O)OCCOC(=O)c2ccc(-c3c4nc(c(-c5ccc(S(=O)(=O)[O-])cc5)c5ccc([nH]5)c(-c5ccc(S(=O)(=O)[O-])cc5)c5nc(c(-c6ccc(S(=O)(=O)[O-])cc6)c6ccc3[nH]6)C=C5)C=C4)cc2)cc(OC)c1OC
REMARK SMILES IDX 13 1 12 2 10 3 11 4 9 5 8 6 6 7 7 8 5 9 3 10 4 11 82 12
REMARK SMILES IDX 79 13 78 14 2 15 1 16 83 17 84 18 80 19 81 20 14 21 15 22
REMARK SMILES IDX 16 23 17 24 18 25 19 26 77 27 20 28 76 29 21 30 22 31 23 32
REMARK SMILES IDX 70 33 24 34 75 35 69 36 71 37 25 38 74 39 68 40 67 41 26 43
REMARK SMILES IDX 56 44 37 45 55 46 38 47 41 48 54 49 72 50 39 51 40 52 53 54
REMARK SMILES IDX 73 55 42 56 27 57 28 58 36 59 29 60 35 61 30 62 31 63 32 64
REMARK SMILES IDX 33 65 34 66 57 67 58 68 66 69 59 70 65 71 60 72 61 73 62 74
REMARK SMILES IDX 63 75 64 76 43 77 44 78 52 79 45 80 51 81 46 82 47 83 48 84
REMARK SMILES IDX 49 85 50 86
REMARK H PARENT 71 42 41 53
REMARK Flexibility Score: inf
ROOT
ATOM      1  C   UNL A   1      38.382  22.945  26.123  1.00  0.00     0.274 C 
ENDROOT
BRANCH   1   2
ATOM      2  O   UNL A   1      37.088  23.560  26.267  1.00  0.00    -0.462 OA
BRANCH   2   3
ATOM      3  C   UNL A   1      36.048  22.913  25.685  1.00  0.00     0.306 C 
ATOM      4  O   UNL A   1      35.718  21.758  25.921  1.00  0.00    -0.252 OA
BRANCH   3   5
ATOM      5  C   UNL A   1      35.362  23.766  24.646  1.00  0.00     0.131 C 
BRANCH   5   6
ATOM      6  C   UNL A   1      34.572  22.969  23.610  1.00  0.00     0.093 C 
BRANCH   6   7
ATOM      7  C   UNL A   1      33.533  23.847  22.936  1.00  0.00     0.163 C 
ATOM      8  O   UNL A   1      33.445  23.899  21.711  1.00  0.00    -0.294 OA
BRANCH   7   9
ATOM      9  C   UNL A   1      32.711  24.774  23.762  1.00  0.00     0.025 A 
ATOM     10  C   UNL A   1      32.183  27.091  24.282  1.00  0.00     0.165 A 
ATOM     11  C   UNL A   1      32.765  26.130  23.444  1.00  0.00     0.062 A 
ATOM     12  C   UNL A   1      31.519  26.682  25.453  1.00  0.00     0.203 A 
ATOM     13  C   UNL A   1      31.387  25.306  25.724  1.00  0.00     0.165 A 
ATOM     14  C   UNL A   1      31.968  24.359  24.865  1.00  0.00     0.062 A 
BRANCH  10  15
ATOM     15  O   UNL A   1      32.409  28.365  23.831  1.00  0.00    -0.493 OA
ATOM     16  C   UNL A   1      33.367  28.552  22.805  1.00  0.00     0.278 C 
ENDBRANCH  10  15
BRANCH  12  17
ATOM     17  O   UNL A   1      31.164  27.623  26.386  1.00  0.00    -0.490 OA
ATOM     18  C   UNL A   1      32.210  27.957  27.292  1.00  0.00     0.278 C 
ENDBRANCH  12  17
BRANCH  13  19
ATOM     19  O   UNL A   1      30.649  24.766  26.744  1.00  0.00    -0.493 OA
ATOM     20  C   UNL A   1      30.423  23.362  26.699  1.00  0.00     0.278 C 
ENDBRANCH  13  19
ENDBRANCH   7   9
ENDBRANCH   6   7
ENDBRANCH   5   6
ENDBRANCH   3   5
ENDBRANCH   2   3
ENDBRANCH   1   2
BRANCH   1  21
ATOM     21  C   UNL A   1      39.459  23.747  26.848  1.00  0.00     0.275 C 
BRANCH  21  22
ATOM     22  O   UNL A   1      39.065  25.113  27.036  1.00  0.00    -0.458 OA
BRANCH  22  23
ATOM     23  C   UNL A   1      40.048  26.025  26.887  1.00  0.00     0.338 C 
ATOM     24  O   UNL A   1      40.800  26.177  25.931  1.00  0.00    -0.246 OA
BRANCH  23  25
ATOM     25  C   UNL A   1      40.118  26.857  28.082  1.00  0.00     0.060 A 
ATOM     26  C   UNL A   1      39.304  26.563  29.178  1.00  0.00     0.016 A 
ATOM     27  C   UNL A   1      40.957  27.971  28.076  1.00  0.00     0.016 A 
ATOM     28  C   UNL A   1      39.336  27.396  30.291  1.00  0.00     0.010 A 
ATOM     29  C   UNL A   1      41.013  28.783  29.205  1.00  0.00     0.010 A 
ATOM     30  C   UNL A   1      40.203  28.500  30.316  1.00  0.00    -0.014 A 
BRANCH  30  31
ATOM     31  C   UNL A   1      40.313  29.334  31.531  1.00  0.00     0.031 A 
ATOM     32  C   UNL A   1      41.416  29.092  32.519  1.00  0.00     0.074 A 
ATOM     33  C   UNL A   1      39.371  30.271  31.748  1.00  0.00     0.049 A 
ATOM     34  N   UNL A   1      41.630  29.673  33.669  1.00  0.00    -0.248 NA
ATOM     35  C   UNL A   1      42.399  28.051  32.176  1.00  0.00     0.031 C 
ATOM     36  C   UNL A   1      38.251  30.564  30.848  1.00  0.00     0.029 A 
ATOM     37  N   UNL A   1      39.194  31.139  32.791  1.00  0.00    -0.354 N 
ATOM     38  C   UNL A   1      42.755  29.056  34.202  1.00  0.00     0.074 A 
ATOM     39  C   UNL A   1      43.172  28.044  33.254  1.00  0.00     0.031 C 
ATOM     40  C   UNL A   1      37.510  31.550  31.375  1.00  0.00     0.029 A 
ATOM     41  C   UNL A   1      38.077  31.929  32.663  1.00  0.00     0.049 A 
ATOM     42  H   UNL A   1      39.809  31.194  33.559  1.00  0.00     0.167 HD
ATOM     43  C   UNL A   1      43.376  29.312  35.378  1.00  0.00     0.031 A 
ATOM     44  C   UNL A   1      37.560  32.846  33.502  1.00  0.00     0.031 A 
ATOM     45  C   UNL A   1      42.939  30.322  36.306  1.00  0.00     0.049 A 
ATOM     46  C   UNL A   1      38.277  33.116  34.794  1.00  0.00     0.074 A 
ATOM     47  C   UNL A   1      43.509  30.693  37.511  1.00  0.00     0.029 A 
ATOM     48  N   UNL A   1      41.818  31.122  36.132  1.00  0.00    -0.354 N 
ATOM     49  N   UNL A   1      39.365  32.552  35.264  1.00  0.00    -0.248 NA
ATOM     50  C   UNL A   1      37.705  34.150  35.664  1.00  0.00     0.031 C 
ATOM     51  C   UNL A   1      42.709  31.689  38.084  1.00  0.00     0.029 A 
ATOM     52  C   UNL A   1      41.669  31.973  37.214  1.00  0.00     0.049 A 
ATOM     53  H   UNL A   1      41.217  31.089  35.353  1.00  0.00     0.167 HD
ATOM     54  C   UNL A   1      39.622  33.178  36.476  1.00  0.00     0.074 A 
ATOM     55  C   UNL A   1      38.585  34.176  36.657  1.00  0.00     0.031 C 
ATOM     56  C   UNL A   1      40.622  32.952  37.363  1.00  0.00     0.031 A 
BRANCH  43  57
ATOM     57  C   UNL A   1      44.570  28.468  35.739  1.00  0.00    -0.014 A 
ATOM     58  C   UNL A   1      44.420  27.221  36.372  1.00  0.00     0.010 A 
ATOM     59  C   UNL A   1      45.863  28.911  35.405  1.00  0.00     0.010 A 
ATOM     60  C   UNL A   1      45.542  26.450  36.695  1.00  0.00     0.020 A 
ATOM     61  C   UNL A   1      46.986  28.134  35.706  1.00  0.00     0.020 A 
ATOM     62  C   UNL A   1      46.818  26.914  36.364  1.00  0.00     0.054 A 
BRANCH  62  63
ATOM     63  S   UNL A   1      48.257  25.887  36.776  1.00  0.00     0.124 S 
ATOM     64  O   UNL A   1      48.244  25.923  38.236  1.00  0.00    -0.237 OA
ATOM     65  O   UNL A   1      47.915  24.598  36.177  1.00  0.00    -0.237 OA
ATOM     66  O   UNL A   1      49.374  26.585  36.145  1.00  0.00    -0.744 OA
ENDBRANCH  62  63
ENDBRANCH  43  57
BRANCH  44  67
ATOM     67  C   UNL A   1      36.309  33.565  33.142  1.00  0.00    -0.014 A 
ATOM     68  C   UNL A   1      36.359  34.790  32.455  1.00  0.00     0.010 A 
ATOM     69  C   UNL A   1      35.055  33.012  33.464  1.00  0.00     0.010 A 
ATOM     70  C   UNL A   1      35.180  35.461  32.117  1.00  0.00     0.020 A 
ATOM     71  C   UNL A   1      33.874  33.668  33.104  1.00  0.00     0.020 A 
ATOM     72  C   UNL A   1      33.944  34.897  32.445  1.00  0.00     0.054 A 
BRANCH  72  73
ATOM     73  S   UNL A   1      32.425  35.762  31.960  1.00  0.00     0.124 S 
ATOM     74  O   UNL A   1      32.352  35.467  30.533  1.00  0.00    -0.237 OA
ATOM     75  O   UNL A   1      31.412  35.119  32.792  1.00  0.00    -0.237 OA
ATOM     76  O   UNL A   1      32.704  37.156  32.298  1.00  0.00    -0.744 OA
ENDBRANCH  72  73
ENDBRANCH  44  67
BRANCH  56  77
ATOM     77  C   UNL A   1      40.650  33.825  38.586  1.00  0.00    -0.014 A 
ATOM     78  C   UNL A   1      40.011  33.430  39.774  1.00  0.00     0.010 A 
ATOM     79  C   UNL A   1      41.346  35.046  38.547  1.00  0.00     0.010 A 
ATOM     80  C   UNL A   1      40.032  34.265  40.894  1.00  0.00     0.020 A 
ATOM     81  C   UNL A   1      41.389  35.872  39.672  1.00  0.00     0.020 A 
ATOM     82  C   UNL A   1      40.716  35.484  40.833  1.00  0.00     0.054 A 
BRANCH  82  83
ATOM     83  S   UNL A   1      40.748  36.544  42.303  1.00  0.00     0.124 S 
ATOM     84  O   UNL A   1      40.541  35.578  43.377  1.00  0.00    -0.237 OA
ATOM     85  O   UNL A   1      42.080  37.142  42.242  1.00  0.00    -0.237 OA
ATOM     86  O   UNL A   1      39.645  37.476  42.080  1.00  0.00    -0.744 OA
ENDBRANCH  82  83
ENDBRANCH  56  77
ENDBRANCH  30  31
ENDBRANCH  23  25
ENDBRANCH  22  23
ENDBRANCH  21  22
ENDBRANCH   1  21
TORSDOF 20
ENDMDL
