MODEL 1
REMARK VINA RESULT:     -11.4      0.000      0.000
REMARK SMILES Cc1cc(C)cc(Oc2nc3ccccn3c(=O)c2/C=C2\SC(=S)N(CCC(=O)OCCOC(=O)c3ccc(-c4c5nc(c(-c6ccc(S(=O)(=O)[O-])cc6)c6ccc([nH]6)c(-c6ccc(S(=O)(=O)[O-])cc6)c6nc(c(-c7ccc(S(=O)(=O)[O-])cc7)c7ccc4[nH]7)C=C6)C=C5)cc3)C2=O)c1
REMARK SMILES IDX 31 1 30 2 28 3 29 4 27 5 26 6 25 7 20 8 21 9 22 10 96 11
REMARK SMILES IDX 23 12 97 13 24 14 19 15 9 16 10 17 11 18 17 19 12 20 16 21
REMARK SMILES IDX 18 22 13 23 15 24 14 25 8 26 7 27 1 28 2 29 3 30 98 31 4 32
REMARK SMILES IDX 5 33 6 34 32 35 33 36 34 37 35 38 36 39 37 40 95 41 38 42
REMARK SMILES IDX 94 43 39 44 40 45 41 46 88 47 42 48 93 49 87 50 89 51 43 52
REMARK SMILES IDX 92 53 86 54 85 55 44 57 74 58 55 59 73 60 56 61 59 62 72 63
REMARK SMILES IDX 90 64 57 65 58 66 71 68 91 69 60 70 45 71 46 72 54 73 47 74
REMARK SMILES IDX 53 75 48 76 49 77 50 78 51 79 52 80 75 81 76 82 84 83 77 84
REMARK SMILES IDX 83 85 78 86 79 87 80 88 81 89 82 90 61 91 62 92 70 93 63 94
REMARK SMILES IDX 69 95 64 96 65 97 66 98 67 99 68 100
REMARK H PARENT 89 56 59 67
REMARK Flexibility Score: inf
ROOT
ATOM      1  C   UNL A   1      36.632  23.819  26.125  1.00  0.00     0.274 C 
ENDROOT
BRANCH   1   2
ATOM      2  O   UNL A   1      36.221  22.840  25.151  1.00  0.00    -0.462 OA
BRANCH   2   3
ATOM      3  C   UNL A   1      35.696  21.684  25.624  1.00  0.00     0.307 C 
ATOM      4  O   UNL A   1      35.927  20.570  25.175  1.00  0.00    -0.252 OA
BRANCH   3   5
ATOM      5  C   UNL A   1      34.721  21.926  26.752  1.00  0.00     0.144 C 
BRANCH   5   6
ATOM      6  C   UNL A   1      33.290  21.460  26.462  1.00  0.00     0.139 C 
BRANCH   6   7
ATOM      7  N   UNL A   1      32.533  22.458  25.703  1.00  0.00    -0.292 N 
ATOM      8  C   UNL A   1      31.484  25.852  25.827  1.00  0.00     0.041 C 
ATOM      9  C   UNL A   1      31.602  24.579  25.425  1.00  0.00     0.081 C 
ATOM     10  S   UNL A   1      31.533  23.929  23.837  1.00  0.00    -0.054 SA
ATOM     11  C   UNL A   1      31.971  23.522  26.379  1.00  0.00     0.266 C 
ATOM     12  C   UNL A   1      32.349  22.448  24.336  1.00  0.00     0.148 C 
ATOM     13  O   UNL A   1      31.794  23.632  27.580  1.00  0.00    -0.268 OA
ATOM     14  S   UNL A   1      32.825  21.288  23.235  1.00  0.00    -0.052 S 
BRANCH   8  15
ATOM     15  C   UNL A   1      31.153  26.952  24.948  1.00  0.00     0.104 A 
ATOM     16  C   UNL A   1      32.025  27.874  24.491  1.00  0.00     0.234 A 
ATOM     17  N   UNL A   1      31.669  28.880  23.624  1.00  0.00    -0.194 NA
ATOM     18  C   UNL A   1      30.450  28.917  23.190  1.00  0.00     0.143 A 
ATOM     19  C   UNL A   1      29.732  27.062  24.511  1.00  0.00     0.269 A 
ATOM     20  C   UNL A   1      30.061  29.975  22.215  1.00  0.00     0.048 A 
ATOM     21  N   UNL A   1      29.456  28.033  23.571  1.00  0.00    -0.267 N 
ATOM     22  O   UNL A   1      28.877  26.322  25.005  1.00  0.00    -0.268 OA
ATOM     23  C   UNL A   1      28.811  30.020  21.738  1.00  0.00     0.005 A 
ATOM     24  C   UNL A   1      28.167  28.122  23.059  1.00  0.00     0.096 A 
ATOM     25  C   UNL A   1      27.829  29.062  22.169  1.00  0.00     0.019 A 
BRANCH  16  26
ATOM     26  O   UNL A   1      33.329  27.961  24.980  1.00  0.00    -0.438 OA
BRANCH  26  27
ATOM     27  C   UNL A   1      33.700  28.901  25.917  1.00  0.00     0.130 A 
ATOM     28  C   UNL A   1      32.714  32.189  27.563  1.00  0.00     0.044 C 
ATOM     29  C   UNL A   1      33.471  30.944  27.207  1.00  0.00    -0.047 A 
ATOM     30  C   UNL A   1      34.739  30.728  27.765  1.00  0.00     0.007 A 
ATOM     31  C   UNL A   1      32.943  30.005  26.308  1.00  0.00     0.050 A 
ATOM     32  C   UNL A   1      35.475  29.583  27.445  1.00  0.00    -0.047 A 
ATOM     33  C   UNL A   1      36.803  29.346  28.101  1.00  0.00     0.044 C 
ATOM     34  C   UNL A   1      34.954  28.684  26.506  1.00  0.00     0.050 A 
ENDBRANCH  26  27
ENDBRANCH  16  26
ENDBRANCH   8  15
ENDBRANCH   6   7
ENDBRANCH   5   6
ENDBRANCH   3   5
ENDBRANCH   2   3
ENDBRANCH   1   2
BRANCH   1  35
ATOM     35  C   UNL A   1      38.156  23.949  26.188  1.00  0.00     0.275 C 
BRANCH  35  36
ATOM     36  O   UNL A   1      38.532  24.831  27.259  1.00  0.00    -0.458 OA
BRANCH  36  37
ATOM     37  C   UNL A   1      39.574  25.656  27.022  1.00  0.00     0.338 C 
ATOM     38  O   UNL A   1      40.351  25.661  26.087  1.00  0.00    -0.246 OA
BRANCH  37  39
ATOM     39  C   UNL A   1      39.664  26.616  28.121  1.00  0.00     0.060 A 
ATOM     40  C   UNL A   1      40.439  27.771  27.974  1.00  0.00     0.016 A 
ATOM     41  C   UNL A   1      39.043  26.310  29.331  1.00  0.00     0.016 A 
ATOM     42  C   UNL A   1      40.596  28.631  29.056  1.00  0.00     0.010 A 
ATOM     43  C   UNL A   1      39.181  27.185  30.404  1.00  0.00     0.010 A 
ATOM     44  C   UNL A   1      39.967  28.343  30.275  1.00  0.00    -0.014 A 
BRANCH  44  45
ATOM     45  C   UNL A   1      40.138  29.237  31.441  1.00  0.00     0.031 A 
ATOM     46  C   UNL A   1      41.285  29.018  32.381  1.00  0.00     0.074 A 
ATOM     47  C   UNL A   1      39.240  30.214  31.659  1.00  0.00     0.049 A 
ATOM     48  N   UNL A   1      41.533  29.597  33.527  1.00  0.00    -0.248 NA
ATOM     49  C   UNL A   1      42.286  28.015  31.981  1.00  0.00     0.031 C 
ATOM     50  C   UNL A   1      38.110  30.536  30.783  1.00  0.00     0.029 A 
ATOM     51  N   UNL A   1      39.129  31.108  32.691  1.00  0.00    -0.354 N 
ATOM     52  C   UNL A   1      42.708  29.022  33.993  1.00  0.00     0.074 A 
ATOM     53  C   UNL A   1      43.116  28.035  33.016  1.00  0.00     0.031 C 
ATOM     54  C   UNL A   1      37.420  31.557  31.318  1.00  0.00     0.029 A 
ATOM     55  C   UNL A   1      38.027  31.923  32.593  1.00  0.00     0.049 A 
ATOM     56  H   UNL A   1      39.777  31.162  33.430  1.00  0.00     0.167 HD
ATOM     57  C   UNL A   1      43.384  29.296  35.134  1.00  0.00     0.031 A 
ATOM     58  C   UNL A   1      37.545  32.840  33.453  1.00  0.00     0.031 A 
ATOM     59  C   UNL A   1      42.955  30.267  36.106  1.00  0.00     0.049 A 
ATOM     60  C   UNL A   1      38.272  33.069  34.750  1.00  0.00     0.074 A 
ATOM     61  C   UNL A   1      43.552  30.608  37.307  1.00  0.00     0.029 A 
ATOM     62  N   UNL A   1      41.821  31.058  35.983  1.00  0.00    -0.354 N 
ATOM     63  N   UNL A   1      39.370  32.502  35.190  1.00  0.00    -0.248 NA
ATOM     64  C   UNL A   1      37.693  34.059  35.666  1.00  0.00     0.031 C 
ATOM     65  C   UNL A   1      42.759  31.581  37.927  1.00  0.00     0.029 A 
ATOM     66  C   UNL A   1      41.695  31.878  37.089  1.00  0.00     0.049 A 
ATOM     67  H   UNL A   1      41.199  31.037  35.220  1.00  0.00     0.167 HD
ATOM     68  C   UNL A   1      39.627  33.084  36.425  1.00  0.00     0.074 A 
ATOM     69  C   UNL A   1      38.575  34.054  36.657  1.00  0.00     0.031 C 
ATOM     70  C   UNL A   1      40.641  32.839  37.291  1.00  0.00     0.031 A 
BRANCH  57  71
ATOM     71  C   UNL A   1      44.640  28.514  35.402  1.00  0.00    -0.014 A 
ATOM     72  C   UNL A   1      44.598  27.297  36.107  1.00  0.00     0.010 A 
ATOM     73  C   UNL A   1      45.875  28.982  34.916  1.00  0.00     0.010 A 
ATOM     74  C   UNL A   1      45.772  26.578  36.348  1.00  0.00     0.020 A 
ATOM     75  C   UNL A   1      47.049  28.255  35.137  1.00  0.00     0.020 A 
ATOM     76  C   UNL A   1      46.991  27.065  35.866  1.00  0.00     0.054 A 
BRANCH  76  77
ATOM     77  S   UNL A   1      48.498  26.102  36.175  1.00  0.00     0.124 S 
ATOM     78  O   UNL A   1      49.472  27.152  36.460  1.00  0.00    -0.237 OA
ATOM     79  O   UNL A   1      48.120  25.269  37.314  1.00  0.00    -0.237 OA
ATOM     80  O   UNL A   1      48.709  25.379  34.923  1.00  0.00    -0.744 OA
ENDBRANCH  76  77
ENDBRANCH  57  71
BRANCH  58  81
ATOM     81  C   UNL A   1      36.300  33.585  33.131  1.00  0.00    -0.014 A 
ATOM     82  C   UNL A   1      35.043  32.993  33.341  1.00  0.00     0.010 A 
ATOM     83  C   UNL A   1      36.365  34.892  32.615  1.00  0.00     0.010 A 
ATOM     84  C   UNL A   1      33.872  33.687  33.018  1.00  0.00     0.020 A 
ATOM     85  C   UNL A   1      35.196  35.598  32.315  1.00  0.00     0.020 A 
ATOM     86  C   UNL A   1      33.958  34.984  32.504  1.00  0.00     0.054 A 
BRANCH  86  87
ATOM     87  S   UNL A   1      32.427  35.883  32.126  1.00  0.00     0.124 S 
ATOM     88  O   UNL A   1      32.432  35.885  30.667  1.00  0.00    -0.237 OA
ATOM     89  O   UNL A   1      31.404  35.050  32.755  1.00  0.00    -0.237 OA
ATOM     90  O   UNL A   1      32.632  37.185  32.757  1.00  0.00    -0.744 OA
ENDBRANCH  86  87
ENDBRANCH  58  81
BRANCH  70  91
ATOM     91  C   UNL A   1      40.682  33.664  38.547  1.00  0.00    -0.014 A 
ATOM     92  C   UNL A   1      41.321  34.915  38.574  1.00  0.00     0.010 A 
ATOM     93  C   UNL A   1      40.026  33.198  39.700  1.00  0.00     0.010 A 
ATOM     94  C   UNL A   1      41.326  35.676  39.746  1.00  0.00     0.020 A 
ATOM     95  C   UNL A   1      40.011  33.965  40.866  1.00  0.00     0.020 A 
ATOM     96  C   UNL A   1      40.673  35.195  40.885  1.00  0.00     0.054 A 
BRANCH  96  97
ATOM     97  S   UNL A   1      40.652  36.220  42.381  1.00  0.00     0.124 S 
ATOM     98  O   UNL A   1      41.970  36.845  42.339  1.00  0.00    -0.237 OA
ATOM     99  O   UNL A   1      39.523  37.117  42.142  1.00  0.00    -0.237 OA
ATOM    100  O   UNL A   1      40.452  35.254  43.459  1.00  0.00    -0.744 OA
ENDBRANCH  96  97
ENDBRANCH  70  91
ENDBRANCH  44  45
ENDBRANCH  37  39
ENDBRANCH  36  37
ENDBRANCH  35  36
ENDBRANCH   1  35
TORSDOF 19
ENDMDL
MODEL 2
REMARK VINA RESULT:     -10.3      6.580     12.239
REMARK SMILES Cc1cc(C)cc(Oc2nc3ccccn3c(=O)c2/C=C2\SC(=S)N(CCC(=O)OCCOC(=O)c3ccc(-c4c5nc(c(-c6ccc(S(=O)(=O)[O-])cc6)c6ccc([nH]6)c(-c6ccc(S(=O)(=O)[O-])cc6)c6nc(c(-c7ccc(S(=O)(=O)[O-])cc7)c7ccc4[nH]7)C=C6)C=C5)cc3)C2=O)c1
REMARK SMILES IDX 31 1 30 2 28 3 29 4 27 5 26 6 25 7 20 8 21 9 22 10 96 11
REMARK SMILES IDX 23 12 97 13 24 14 19 15 9 16 10 17 11 18 17 19 12 20 16 21
REMARK SMILES IDX 18 22 13 23 15 24 14 25 8 26 7 27 1 28 2 29 3 30 98 31 4 32
REMARK SMILES IDX 5 33 6 34 32 35 33 36 34 37 35 38 36 39 37 40 95 41 38 42
REMARK SMILES IDX 94 43 39 44 40 45 41 46 88 47 42 48 93 49 87 50 89 51 43 52
REMARK SMILES IDX 92 53 86 54 85 55 44 57 74 58 55 59 73 60 56 61 59 62 72 63
REMARK SMILES IDX 90 64 57 65 58 66 71 68 91 69 60 70 45 71 46 72 54 73 47 74
REMARK SMILES IDX 53 75 48 76 49 77 50 78 51 79 52 80 75 81 76 82 84 83 77 84
REMARK SMILES IDX 83 85 78 86 79 87 80 88 81 89 82 90 61 91 62 92 70 93 63 94
REMARK SMILES IDX 69 95 64 96 65 97 66 98 67 99 68 100
REMARK H PARENT 89 56 59 67
REMARK Flexibility Score: inf
ROOT
ATOM      1  C   UNL A   1      35.888  31.972  32.037  1.00  0.00     0.274 C 
ENDROOT
BRANCH   1   2
ATOM      2  O   UNL A   1      35.163  31.856  30.797  1.00  0.00    -0.462 OA
BRANCH   2   3
ATOM      3  C   UNL A   1      35.238  32.902  29.940  1.00  0.00     0.307 C 
ATOM      4  O   UNL A   1      36.132  33.737  29.924  1.00  0.00    -0.252 OA
BRANCH   3   5
ATOM      5  C   UNL A   1      34.040  32.968  29.022  1.00  0.00     0.144 C 
BRANCH   5   6
ATOM      6  C   UNL A   1      34.320  32.526  27.582  1.00  0.00     0.139 C 
BRANCH   6   7
ATOM      7  N   UNL A   1      33.985  31.116  27.368  1.00  0.00    -0.292 N 
ATOM      8  C   UNL A   1      31.626  29.027  25.724  1.00  0.00     0.041 C 
ATOM      9  C   UNL A   1      32.636  29.414  26.514  1.00  0.00     0.081 C 
ATOM     10  S   UNL A   1      34.078  28.578  26.927  1.00  0.00    -0.054 SA
ATOM     11  C   UNL A   1      32.683  30.782  27.055  1.00  0.00     0.266 C 
ATOM     12  C   UNL A   1      34.879  30.067  27.424  1.00  0.00     0.148 C 
ATOM     13  O   UNL A   1      31.687  31.474  27.174  1.00  0.00    -0.268 OA
ATOM     14  S   UNL A   1      36.495  30.104  27.840  1.00  0.00    -0.052 S 
BRANCH   8  15
ATOM     15  C   UNL A   1      31.521  27.711  25.131  1.00  0.00     0.104 A 
ATOM     16  C   UNL A   1      31.466  27.455  23.808  1.00  0.00     0.234 A 
ATOM     17  N   UNL A   1      31.406  26.183  23.290  1.00  0.00    -0.194 NA
ATOM     18  C   UNL A   1      31.450  25.181  24.110  1.00  0.00     0.143 A 
ATOM     19  C   UNL A   1      31.479  26.550  26.066  1.00  0.00     0.269 A 
ATOM     20  C   UNL A   1      31.431  23.796  23.560  1.00  0.00     0.048 A 
ATOM     21  N   UNL A   1      31.511  25.299  25.487  1.00  0.00    -0.267 N 
ATOM     22  O   UNL A   1      31.394  26.743  27.282  1.00  0.00    -0.268 OA
ATOM     23  C   UNL A   1      31.495  22.745  24.389  1.00  0.00     0.005 A 
ATOM     24  C   UNL A   1      31.566  24.182  26.311  1.00  0.00     0.096 A 
ATOM     25  C   UNL A   1      31.568  22.941  25.811  1.00  0.00     0.019 A 
BRANCH  16  26
ATOM     26  O   UNL A   1      31.321  28.474  22.865  1.00  0.00    -0.438 OA
BRANCH  26  27
ATOM     27  C   UNL A   1      30.096  29.032  22.570  1.00  0.00     0.130 A 
ATOM     28  C   UNL A   1      28.356  31.938  20.834  1.00  0.00     0.044 C 
ATOM     29  C   UNL A   1      28.592  30.679  21.614  1.00  0.00    -0.047 A 
ATOM     30  C   UNL A   1      27.507  30.034  22.222  1.00  0.00     0.007 A 
ATOM     31  C   UNL A   1      29.882  30.150  21.764  1.00  0.00     0.050 A 
ATOM     32  C   UNL A   1      27.695  28.864  22.965  1.00  0.00    -0.047 A 
ATOM     33  C   UNL A   1      26.510  28.161  23.557  1.00  0.00     0.044 C 
ATOM     34  C   UNL A   1      28.997  28.382  23.148  1.00  0.00     0.050 A 
ENDBRANCH  26  27
ENDBRANCH  16  26
ENDBRANCH   8  15
ENDBRANCH   6   7
ENDBRANCH   5   6
ENDBRANCH   3   5
ENDBRANCH   2   3
ENDBRANCH   1   2
BRANCH   1  35
ATOM     35  C   UNL A   1      37.233  31.244  31.977  1.00  0.00     0.275 C 
BRANCH  35  36
ATOM     36  O   UNL A   1      37.046  29.901  31.503  1.00  0.00    -0.458 OA
BRANCH  36  37
ATOM     37  C   UNL A   1      37.763  28.938  32.121  1.00  0.00     0.338 C 
ATOM     38  O   UNL A   1      37.447  28.226  33.054  1.00  0.00    -0.246 OA
BRANCH  37  39
ATOM     39  C   UNL A   1      39.076  28.856  31.482  1.00  0.00     0.060 A 
ATOM     40  C   UNL A   1      39.191  29.048  30.102  1.00  0.00     0.016 A 
ATOM     41  C   UNL A   1      40.178  28.497  32.258  1.00  0.00     0.016 A 
ATOM     42  C   UNL A   1      40.427  28.874  29.488  1.00  0.00     0.010 A 
ATOM     43  C   UNL A   1      41.418  28.349  31.645  1.00  0.00     0.010 A 
ATOM     44  C   UNL A   1      41.546  28.525  30.257  1.00  0.00    -0.014 A 
BRANCH  44  45
ATOM     45  C   UNL A   1      42.864  28.319  29.619  1.00  0.00     0.031 A 
ATOM     46  C   UNL A   1      43.865  29.436  29.609  1.00  0.00     0.074 A 
ATOM     47  C   UNL A   1      43.134  27.142  29.027  1.00  0.00     0.049 A 
ATOM     48  N   UNL A   1      45.013  29.507  28.988  1.00  0.00    -0.248 NA
ATOM     49  C   UNL A   1      43.530  30.632  30.400  1.00  0.00     0.031 C 
ATOM     50  C   UNL A   1      42.245  25.977  29.015  1.00  0.00     0.029 A 
ATOM     51  N   UNL A   1      44.228  26.735  28.310  1.00  0.00    -0.354 N 
ATOM     52  C   UNL A   1      45.534  30.756  29.300  1.00  0.00     0.074 A 
ATOM     53  C   UNL A   1      44.569  31.419  30.151  1.00  0.00     0.031 C 
ATOM     54  C   UNL A   1      42.831  24.987  28.322  1.00  0.00     0.029 A 
ATOM     55  C   UNL A   1      44.108  25.464  27.802  1.00  0.00     0.049 A 
ATOM     56  H   UNL A   1      45.024  27.298  28.174  1.00  0.00     0.167 HD
ATOM     57  C   UNL A   1      46.713  31.298  28.911  1.00  0.00     0.031 A 
ATOM     58  C   UNL A   1      44.923  24.776  26.981  1.00  0.00     0.031 A 
ATOM     59  C   UNL A   1      47.654  30.634  28.049  1.00  0.00     0.049 A 
ATOM     60  C   UNL A   1      46.189  25.431  26.501  1.00  0.00     0.074 A 
ATOM     61  C   UNL A   1      48.867  31.101  27.573  1.00  0.00     0.029 A 
ATOM     62  N   UNL A   1      47.486  29.356  27.535  1.00  0.00    -0.354 N 
ATOM     63  N   UNL A   1      46.658  26.623  26.784  1.00  0.00    -0.248 NA
ATOM     64  C   UNL A   1      47.032  24.650  25.586  1.00  0.00     0.031 C 
ATOM     65  C   UNL A   1      49.417  30.117  26.744  1.00  0.00     0.029 A 
ATOM     66  C   UNL A   1      48.568  29.020  26.741  1.00  0.00     0.049 A 
ATOM     67  H   UNL A   1      46.712  28.774  27.711  1.00  0.00     0.167 HD
ATOM     68  C   UNL A   1      47.864  26.725  26.103  1.00  0.00     0.074 A 
ATOM     69  C   UNL A   1      48.056  25.472  25.401  1.00  0.00     0.031 C 
ATOM     70  C   UNL A   1      48.736  27.763  26.060  1.00  0.00     0.031 A 
BRANCH  57  71
ATOM     71  C   UNL A   1      47.031  32.686  29.395  1.00  0.00    -0.014 A 
ATOM     72  C   UNL A   1      47.602  32.896  30.663  1.00  0.00     0.010 A 
ATOM     73  C   UNL A   1      46.789  33.793  28.561  1.00  0.00     0.010 A 
ATOM     74  C   UNL A   1      47.896  34.190  31.102  1.00  0.00     0.020 A 
ATOM     75  C   UNL A   1      47.100  35.088  28.988  1.00  0.00     0.020 A 
ATOM     76  C   UNL A   1      47.638  35.279  30.263  1.00  0.00     0.054 A 
BRANCH  76  77
ATOM     77  S   UNL A   1      48.046  36.947  30.848  1.00  0.00     0.124 S 
ATOM     78  O   UNL A   1      49.145  36.681  31.773  1.00  0.00    -0.237 OA
ATOM     79  O   UNL A   1      48.418  37.639  29.616  1.00  0.00    -0.237 OA
ATOM     80  O   UNL A   1      46.808  37.409  31.468  1.00  0.00    -0.744 OA
ENDBRANCH  76  77
ENDBRANCH  57  71
BRANCH  58  81
ATOM     81  C   UNL A   1      44.556  23.404  26.541  1.00  0.00    -0.014 A 
ATOM     82  C   UNL A   1      45.536  22.402  26.442  1.00  0.00     0.010 A 
ATOM     83  C   UNL A   1      43.222  23.092  26.220  1.00  0.00     0.010 A 
ATOM     84  C   UNL A   1      45.193  21.118  26.007  1.00  0.00     0.020 A 
ATOM     85  C   UNL A   1      42.871  21.803  25.810  1.00  0.00     0.020 A 
ATOM     86  C   UNL A   1      43.862  20.828  25.691  1.00  0.00     0.054 A 
BRANCH  86  87
ATOM     87  S   UNL A   1      43.430  19.146  25.165  1.00  0.00     0.124 S 
ATOM     88  O   UNL A   1      41.975  19.222  25.079  1.00  0.00    -0.237 OA
ATOM     89  O   UNL A   1      44.135  19.019  23.892  1.00  0.00    -0.237 OA
ATOM     90  O   UNL A   1      43.952  18.308  26.243  1.00  0.00    -0.744 OA
ENDBRANCH  86  87
ENDBRANCH  58  81
BRANCH  70  91
ATOM     91  C   UNL A   1      49.994  27.566  25.260  1.00  0.00    -0.014 A 
ATOM     92  C   UNL A   1      49.988  27.668  23.859  1.00  0.00     0.010 A 
ATOM     93  C   UNL A   1      51.207  27.325  25.930  1.00  0.00     0.010 A 
ATOM     94  C   UNL A   1      51.172  27.505  23.137  1.00  0.00     0.020 A 
ATOM     95  C   UNL A   1      52.396  27.183  25.213  1.00  0.00     0.020 A 
ATOM     96  C   UNL A   1      52.369  27.261  23.819  1.00  0.00     0.054 A 
BRANCH  96  97
ATOM     97  S   UNL A   1      53.903  27.100  22.866  1.00  0.00     0.124 S 
ATOM     98  O   UNL A   1      53.478  26.268  21.744  1.00  0.00    -0.237 OA
ATOM     99  O   UNL A   1      54.225  28.486  22.533  1.00  0.00    -0.237 OA
ATOM    100  O   UNL A   1      54.826  26.462  23.802  1.00  0.00    -0.744 OA
ENDBRANCH  96  97
ENDBRANCH  70  91
ENDBRANCH  44  45
ENDBRANCH  37  39
ENDBRANCH  36  37
ENDBRANCH  35  36
ENDBRANCH   1  35
TORSDOF 19
ENDMDL
MODEL 3
REMARK VINA RESULT:     -10.2      6.799     14.046
REMARK SMILES Cc1cc(C)cc(Oc2nc3ccccn3c(=O)c2/C=C2\SC(=S)N(CCC(=O)OCCOC(=O)c3ccc(-c4c5nc(c(-c6ccc(S(=O)(=O)[O-])cc6)c6ccc([nH]6)c(-c6ccc(S(=O)(=O)[O-])cc6)c6nc(c(-c7ccc(S(=O)(=O)[O-])cc7)c7ccc4[nH]7)C=C6)C=C5)cc3)C2=O)c1
REMARK SMILES IDX 31 1 30 2 28 3 29 4 27 5 26 6 25 7 20 8 21 9 22 10 96 11
REMARK SMILES IDX 23 12 97 13 24 14 19 15 9 16 10 17 11 18 17 19 12 20 16 21
REMARK SMILES IDX 18 22 13 23 15 24 14 25 8 26 7 27 1 28 2 29 3 30 98 31 4 32
REMARK SMILES IDX 5 33 6 34 32 35 33 36 34 37 35 38 36 39 37 40 95 41 38 42
REMARK SMILES IDX 94 43 39 44 40 45 41 46 88 47 42 48 93 49 87 50 89 51 43 52
REMARK SMILES IDX 92 53 86 54 85 55 44 57 74 58 55 59 73 60 56 61 59 62 72 63
REMARK SMILES IDX 90 64 57 65 58 66 71 68 91 69 60 70 45 71 46 72 54 73 47 74
REMARK SMILES IDX 53 75 48 76 49 77 50 78 51 79 52 80 75 81 76 82 84 83 77 84
REMARK SMILES IDX 83 85 78 86 79 87 80 88 81 89 82 90 61 91 62 92 70 93 63 94
REMARK SMILES IDX 69 95 64 96 65 97 66 98 67 99 68 100
REMARK H PARENT 89 56 59 67
REMARK Flexibility Score: inf
ROOT
ATOM      1  C   UNL A   1      45.097  37.220  29.787  1.00  0.00     0.274 C 
ENDROOT
BRANCH   1   2
ATOM      2  O   UNL A   1      44.949  35.828  30.127  1.00  0.00    -0.462 OA
BRANCH   2   3
ATOM      3  C   UNL A   1      44.486  35.542  31.367  1.00  0.00     0.307 C 
ATOM      4  O   UNL A   1      43.650  36.197  31.975  1.00  0.00    -0.252 OA
BRANCH   3   5
ATOM      5  C   UNL A   1      45.174  34.337  31.964  1.00  0.00     0.144 C 
BRANCH   5   6
ATOM      6  C   UNL A   1      44.987  34.186  33.477  1.00  0.00     0.139 C 
BRANCH   6   7
ATOM      7  N   UNL A   1      44.891  32.781  33.879  1.00  0.00    -0.292 N 
ATOM      8  C   UNL A   1      43.252  29.743  33.030  1.00  0.00     0.041 C 
ATOM      9  C   UNL A   1      43.999  30.632  33.699  1.00  0.00     0.081 C 
ATOM     10  S   UNL A   1      45.402  30.376  34.654  1.00  0.00    -0.054 SA
ATOM     11  C   UNL A   1      43.747  32.076  33.562  1.00  0.00     0.266 C 
ATOM     12  C   UNL A   1      45.874  32.070  34.535  1.00  0.00     0.148 C 
ATOM     13  O   UNL A   1      42.671  32.522  33.206  1.00  0.00    -0.268 OA
ATOM     14  S   UNL A   1      47.335  32.624  35.123  1.00  0.00    -0.052 S 
BRANCH   8  15
ATOM     15  C   UNL A   1      43.453  28.311  33.088  1.00  0.00     0.104 A 
ATOM     16  C   UNL A   1      44.273  27.605  32.282  1.00  0.00     0.234 A 
ATOM     17  N   UNL A   1      44.460  26.249  32.402  1.00  0.00    -0.194 NA
ATOM     18  C   UNL A   1      43.855  25.626  33.363  1.00  0.00     0.143 A 
ATOM     19  C   UNL A   1      42.693  27.565  34.132  1.00  0.00     0.269 A 
ATOM     20  C   UNL A   1      44.083  24.163  33.532  1.00  0.00     0.048 A 
ATOM     21  N   UNL A   1      42.991  26.225  34.262  1.00  0.00    -0.267 N 
ATOM     22  O   UNL A   1      41.836  28.146  34.803  1.00  0.00    -0.268 OA
ATOM     23  C   UNL A   1      43.484  23.502  34.531  1.00  0.00     0.005 A 
ATOM     24  C   UNL A   1      42.382  25.500  35.279  1.00  0.00     0.096 A 
ATOM     25  C   UNL A   1      42.606  24.190  35.438  1.00  0.00     0.019 A 
BRANCH  16  26
ATOM     26  O   UNL A   1      44.886  28.182  31.168  1.00  0.00    -0.438 OA
BRANCH  26  27
ATOM     27  C   UNL A   1      46.239  28.071  30.936  1.00  0.00     0.130 A 
ATOM     28  C   UNL A   1      49.019  25.681  29.909  1.00  0.00     0.044 C 
ATOM     29  C   UNL A   1      48.291  26.920  30.339  1.00  0.00    -0.047 A 
ATOM     30  C   UNL A   1      49.024  28.070  30.662  1.00  0.00     0.007 A 
ATOM     31  C   UNL A   1      46.892  26.941  30.445  1.00  0.00     0.050 A 
ATOM     32  C   UNL A   1      48.376  29.238  31.076  1.00  0.00    -0.047 A 
ATOM     33  C   UNL A   1      49.180  30.473  31.359  1.00  0.00     0.044 C 
ATOM     34  C   UNL A   1      46.984  29.222  31.227  1.00  0.00     0.050 A 
ENDBRANCH  26  27
ENDBRANCH  16  26
ENDBRANCH   8  15
ENDBRANCH   6   7
ENDBRANCH   5   6
ENDBRANCH   3   5
ENDBRANCH   2   3
ENDBRANCH   1   2
BRANCH   1  35
ATOM     35  C   UNL A   1      46.544  37.691  29.946  1.00  0.00     0.275 C 
BRANCH  35  36
ATOM     36  O   UNL A   1      47.243  37.568  28.697  1.00  0.00    -0.458 OA
BRANCH  36  37
ATOM     37  C   UNL A   1      48.325  36.761  28.689  1.00  0.00     0.338 C 
ATOM     38  O   UNL A   1      49.501  37.055  28.772  1.00  0.00    -0.246 OA
BRANCH  37  39
ATOM     39  C   UNL A   1      47.871  35.377  28.551  1.00  0.00     0.060 A 
ATOM     40  C   UNL A   1      47.125  34.999  27.430  1.00  0.00     0.016 A 
ATOM     41  C   UNL A   1      48.119  34.484  29.591  1.00  0.00     0.016 A 
ATOM     42  C   UNL A   1      46.616  33.707  27.352  1.00  0.00     0.010 A 
ATOM     43  C   UNL A   1      47.630  33.185  29.499  1.00  0.00     0.010 A 
ATOM     44  C   UNL A   1      46.867  32.794  28.386  1.00  0.00    -0.014 A 
BRANCH  44  45
ATOM     45  C   UNL A   1      46.319  31.421  28.328  1.00  0.00     0.031 A 
ATOM     46  C   UNL A   1      47.152  30.315  27.752  1.00  0.00     0.074 A 
ATOM     47  C   UNL A   1      45.068  31.192  28.764  1.00  0.00     0.049 A 
ATOM     48  N   UNL A   1      46.811  29.082  27.484  1.00  0.00    -0.248 NA
ATOM     49  C   UNL A   1      48.552  30.639  27.431  1.00  0.00     0.031 C 
ATOM     50  C   UNL A   1      44.189  32.190  29.379  1.00  0.00     0.029 A 
ATOM     51  N   UNL A   1      44.314  30.049  28.744  1.00  0.00    -0.354 N 
ATOM     52  C   UNL A   1      47.947  28.484  26.954  1.00  0.00     0.074 A 
ATOM     53  C   UNL A   1      48.982  29.494  26.918  1.00  0.00     0.031 C 
ATOM     54  C   UNL A   1      43.013  31.613  29.677  1.00  0.00     0.029 A 
ATOM     55  C   UNL A   1      43.039  30.225  29.229  1.00  0.00     0.049 A 
ATOM     56  H   UNL A   1      44.652  29.184  28.417  1.00  0.00     0.167 HD
ATOM     57  C   UNL A   1      48.107  27.205  26.535  1.00  0.00     0.031 A 
ATOM     58  C   UNL A   1      42.001  29.369  29.275  1.00  0.00     0.031 A 
ATOM     59  C   UNL A   1      47.061  26.217  26.559  1.00  0.00     0.049 A 
ATOM     60  C   UNL A   1      42.184  27.979  28.731  1.00  0.00     0.074 A 
ATOM     61  C   UNL A   1      47.109  24.899  26.137  1.00  0.00     0.029 A 
ATOM     62  N   UNL A   1      45.777  26.440  27.035  1.00  0.00    -0.354 N 
ATOM     63  N   UNL A   1      43.256  27.433  28.209  1.00  0.00    -0.248 NA
ATOM     64  C   UNL A   1      41.014  27.092  28.779  1.00  0.00     0.031 C 
ATOM     65  C   UNL A   1      45.842  24.336  26.328  1.00  0.00     0.029 A 
ATOM     66  C   UNL A   1      45.021  25.288  26.911  1.00  0.00     0.049 A 
ATOM     67  H   UNL A   1      45.454  27.292  27.408  1.00  0.00     0.167 HD
ATOM     68  C   UNL A   1      42.898  26.129  27.889  1.00  0.00     0.074 A 
ATOM     69  C   UNL A   1      41.513  25.967  28.285  1.00  0.00     0.031 C 
ATOM     70  C   UNL A   1      43.646  25.153  27.319  1.00  0.00     0.031 A 
BRANCH  57  71
ATOM     71  C   UNL A   1      49.455  26.817  25.992  1.00  0.00    -0.014 A 
ATOM     72  C   UNL A   1      49.845  27.190  24.692  1.00  0.00     0.010 A 
ATOM     73  C   UNL A   1      50.356  26.099  26.798  1.00  0.00     0.010 A 
ATOM     74  C   UNL A   1      51.100  26.825  24.199  1.00  0.00     0.020 A 
ATOM     75  C   UNL A   1      51.621  25.751  26.315  1.00  0.00     0.020 A 
ATOM     76  C   UNL A   1      51.979  26.103  25.012  1.00  0.00     0.054 A 
BRANCH  76  77
ATOM     77  S   UNL A   1      53.611  25.659  24.354  1.00  0.00     0.124 S 
ATOM     78  O   UNL A   1      53.765  24.287  24.832  1.00  0.00    -0.237 OA
ATOM     79  O   UNL A   1      53.427  25.804  22.912  1.00  0.00    -0.237 OA
ATOM     80  O   UNL A   1      54.507  26.636  24.966  1.00  0.00    -0.744 OA
ENDBRANCH  76  77
ENDBRANCH  57  71
BRANCH  58  81
ATOM     81  C   UNL A   1      40.694  29.811  29.828  1.00  0.00    -0.014 A 
ATOM     82  C   UNL A   1      40.434  29.710  31.205  1.00  0.00     0.010 A 
ATOM     83  C   UNL A   1      39.702  30.336  28.980  1.00  0.00     0.010 A 
ATOM     84  C   UNL A   1      39.196  30.106  31.722  1.00  0.00     0.020 A 
ATOM     85  C   UNL A   1      38.473  30.757  29.496  1.00  0.00     0.020 A 
ATOM     86  C   UNL A   1      38.223  30.624  30.862  1.00  0.00     0.054 A 
BRANCH  86  87
ATOM     87  S   UNL A   1      36.636  31.167  31.556  1.00  0.00     0.124 S 
ATOM     88  O   UNL A   1      37.051  32.240  32.454  1.00  0.00    -0.237 OA
ATOM     89  O   UNL A   1      35.894  31.586  30.370  1.00  0.00    -0.237 OA
ATOM     90  O   UNL A   1      36.122  29.965  32.210  1.00  0.00    -0.744 OA
ENDBRANCH  86  87
ENDBRANCH  58  81
BRANCH  70  91
ATOM     91  C   UNL A   1      42.992  23.813  27.129  1.00  0.00    -0.014 A 
ATOM     92  C   UNL A   1      42.399  23.461  25.906  1.00  0.00     0.010 A 
ATOM     93  C   UNL A   1      43.017  22.878  28.179  1.00  0.00     0.010 A 
ATOM     94  C   UNL A   1      41.817  22.201  25.743  1.00  0.00     0.020 A 
ATOM     95  C   UNL A   1      42.456  21.610  28.014  1.00  0.00     0.020 A 
ATOM     96  C   UNL A   1      41.847  21.285  26.799  1.00  0.00     0.054 A 
BRANCH  96  97
ATOM     97  S   UNL A   1      41.128  19.639  26.552  1.00  0.00     0.124 S 
ATOM     98  O   UNL A   1      39.827  19.959  25.971  1.00  0.00    -0.237 OA
ATOM     99  O   UNL A   1      42.081  19.002  25.644  1.00  0.00    -0.237 OA
ATOM    100  O   UNL A   1      41.089  19.073  27.898  1.00  0.00    -0.744 OA
ENDBRANCH  96  97
ENDBRANCH  70  91
ENDBRANCH  44  45
ENDBRANCH  37  39
ENDBRANCH  36  37
ENDBRANCH  35  36
ENDBRANCH   1  35
TORSDOF 19
ENDMDL
