MODEL 1
REMARK VINA RESULT:     -10.5      0.000      0.000
REMARK SMILES O=C(CCSc1nc(-c2cccs2)cc(C(F)(F)F)n1)OCCOC(=O)c1ccc(-c2c3nc(c(-c4ccc(S(=O)(=O)[O-])cc4)c4ccc([nH]4)c(-c4ccc(S(=O)(=O)[O-])cc4)c4nc(c(-c5ccc(S(=O)(=O)[O-])cc5)c5ccc2[nH]5)C=C4)C=C3)cc1
REMARK SMILES IDX 22 1 21 2 2 3 1 4 3 5 4 6 5 7 6 8 7 9 20 10 8 11 15 12 14 13
REMARK SMILES IDX 9 14 10 15 13 16 11 17 12 18 16 19 17 20 18 21 19 22 23 23
REMARK SMILES IDX 24 24 25 25 26 26 27 27 28 28 86 29 29 30 85 31 30 32 31 33
REMARK SMILES IDX 32 34 79 35 33 36 84 37 78 38 80 39 34 40 83 41 77 42 76 43
REMARK SMILES IDX 35 45 65 46 46 47 64 48 47 49 50 50 63 51 81 52 48 53 49 54
REMARK SMILES IDX 62 56 82 57 51 58 36 59 37 60 45 61 38 62 44 63 39 64 40 65
REMARK SMILES IDX 41 66 42 67 43 68 66 69 67 70 75 71 68 72 74 73 69 74 70 75
REMARK SMILES IDX 71 76 72 77 73 78 52 79 53 80 61 81 54 82 60 83 55 84 56 85
REMARK SMILES IDX 57 86 58 87 59 88
REMARK H PARENT 80 44 50 55
REMARK Flexibility Score: inf
ROOT
ATOM      1  C   UNL A   1      32.101  28.982  27.008  1.00  0.00     0.274 C 
ENDROOT
BRANCH   1   2
ATOM      2  O   UNL A   1      31.642  27.638  27.284  1.00  0.00    -0.462 OA
BRANCH   2   3
ATOM      3  C   UNL A   1      31.896  26.540  26.534  1.00  0.00     0.306 C 
ATOM      4  O   UNL A   1      33.042  26.308  26.154  1.00  0.00    -0.252 OA
BRANCH   3   5
ATOM      5  C   UNL A   1      30.774  25.593  26.197  1.00  0.00     0.134 C 
BRANCH   5   6
ATOM      6  C   UNL A   1      31.230  24.407  25.351  1.00  0.00     0.090 C 
BRANCH   6   7
ATOM      7  S   UNL A   1      30.791  22.762  26.026  1.00  0.00    -0.086 SA
BRANCH   7   8
ATOM      8  C   UNL A   1      32.182  21.820  25.461  1.00  0.00     0.188 A 
ATOM      9  N   UNL A   1      33.403  22.314  25.671  1.00  0.00    -0.222 NA
ATOM     10  N   UNL A   1      31.921  20.606  24.949  1.00  0.00    -0.218 NA
ATOM     11  C   UNL A   1      34.430  21.488  25.407  1.00  0.00     0.085 A 
ATOM     12  C   UNL A   1      32.981  19.795  24.693  1.00  0.00     0.149 A 
ATOM     13  C   UNL A   1      34.277  20.205  24.934  1.00  0.00     0.063 A 
BRANCH  11  14
ATOM     14  C   UNL A   1      35.754  22.078  25.545  1.00  0.00     0.053 A 
ATOM     15  C   UNL A   1      36.071  23.363  25.938  1.00  0.00     0.022 A 
ATOM     16  S   UNL A   1      37.153  21.163  25.188  1.00  0.00    -0.142 S 
ATOM     17  C   UNL A   1      37.477  23.594  25.950  1.00  0.00     0.012 A 
ATOM     18  C   UNL A   1      38.183  22.479  25.558  1.00  0.00     0.065 A 
ENDBRANCH  11  14
BRANCH  12  19
ATOM     19  C   UNL A   1      32.728  18.389  24.174  1.00  0.00     0.433 C 
ATOM     20  F   UNL A   1      32.002  18.369  23.020  1.00  0.00    -0.165 F 
ATOM     21  F   UNL A   1      33.873  17.698  23.906  1.00  0.00    -0.165 F 
ATOM     22  F   UNL A   1      32.034  17.611  25.056  1.00  0.00    -0.165 F 
ENDBRANCH  12  19
ENDBRANCH   7   8
ENDBRANCH   6   7
ENDBRANCH   5   6
ENDBRANCH   3   5
ENDBRANCH   2   3
ENDBRANCH   1   2
BRANCH   1  23
ATOM     23  C   UNL A   1      33.499  29.225  27.559  1.00  0.00     0.275 C 
BRANCH  23  24
ATOM     24  O   UNL A   1      33.873  30.589  27.334  1.00  0.00    -0.458 OA
BRANCH  24  25
ATOM     25  C   UNL A   1      34.678  31.114  28.289  1.00  0.00     0.338 C 
ATOM     26  O   UNL A   1      34.427  32.052  29.025  1.00  0.00    -0.246 OA
BRANCH  25  27
ATOM     27  C   UNL A   1      35.885  30.278  28.406  1.00  0.00     0.060 A 
ATOM     28  C   UNL A   1      36.132  29.647  29.630  1.00  0.00     0.016 A 
ATOM     29  C   UNL A   1      36.791  30.162  27.345  1.00  0.00     0.016 A 
ATOM     30  C   UNL A   1      37.337  28.981  29.831  1.00  0.00     0.010 A 
ATOM     31  C   UNL A   1      37.990  29.481  27.542  1.00  0.00     0.010 A 
ATOM     32  C   UNL A   1      38.294  28.952  28.806  1.00  0.00    -0.014 A 
BRANCH  32  33
ATOM     33  C   UNL A   1      39.688  28.580  29.126  1.00  0.00     0.031 A 
ATOM     34  C   UNL A   1      40.530  29.571  29.886  1.00  0.00     0.074 A 
ATOM     35  C   UNL A   1      40.182  27.383  28.771  1.00  0.00     0.049 A 
ATOM     36  N   UNL A   1      41.761  29.458  30.312  1.00  0.00    -0.248 NA
ATOM     37  C   UNL A   1      39.901  30.866  30.204  1.00  0.00     0.031 C 
ATOM     38  C   UNL A   1      39.449  26.342  28.052  1.00  0.00     0.029 A 
ATOM     39  N   UNL A   1      41.423  26.841  28.979  1.00  0.00    -0.354 N 
ATOM     40  C   UNL A   1      42.054  30.666  30.937  1.00  0.00     0.074 A 
ATOM     41  C   UNL A   1      40.892  31.512  30.797  1.00  0.00     0.031 C 
ATOM     42  C   UNL A   1      40.254  25.278  27.888  1.00  0.00     0.029 A 
ATOM     43  C   UNL A   1      41.562  25.572  28.472  1.00  0.00     0.049 A 
ATOM     44  H   UNL A   1      42.147  27.315  29.448  1.00  0.00     0.167 HD
ATOM     45  C   UNL A   1      43.186  31.031  31.583  1.00  0.00     0.031 A 
ATOM     46  C   UNL A   1      42.624  24.745  28.484  1.00  0.00     0.031 A 
ATOM     47  C   UNL A   1      44.340  30.184  31.709  1.00  0.00     0.049 A 
ATOM     48  C   UNL A   1      43.888  25.190  29.173  1.00  0.00     0.074 A 
ATOM     49  C   UNL A   1      45.530  30.441  32.366  1.00  0.00     0.029 A 
ATOM     50  N   UNL A   1      44.449  28.915  31.160  1.00  0.00    -0.354 N 
ATOM     51  N   UNL A   1      44.136  26.316  29.800  1.00  0.00    -0.248 NA
ATOM     52  C   UNL A   1      45.008  24.239  29.175  1.00  0.00     0.031 C 
ATOM     53  C   UNL A   1      46.381  29.350  32.163  1.00  0.00     0.029 A 
ATOM     54  C   UNL A   1      45.696  28.385  31.442  1.00  0.00     0.049 A 
ATOM     55  H   UNL A   1      43.744  28.459  30.647  1.00  0.00     0.167 HD
ATOM     56  C   UNL A   1      45.425  26.190  30.312  1.00  0.00     0.074 A 
ATOM     57  C   UNL A   1      45.898  24.877  29.923  1.00  0.00     0.031 C 
ATOM     58  C   UNL A   1      46.147  27.073  31.047  1.00  0.00     0.031 A 
BRANCH  45  59
ATOM     59  C   UNL A   1      43.236  32.421  32.162  1.00  0.00    -0.014 A 
ATOM     60  C   UNL A   1      43.459  33.549  31.350  1.00  0.00     0.010 A 
ATOM     61  C   UNL A   1      43.044  32.603  33.544  1.00  0.00     0.010 A 
ATOM     62  C   UNL A   1      43.535  34.825  31.915  1.00  0.00     0.020 A 
ATOM     63  C   UNL A   1      43.089  33.881  34.109  1.00  0.00     0.020 A 
ATOM     64  C   UNL A   1      43.354  34.982  33.292  1.00  0.00     0.054 A 
BRANCH  64  65
ATOM     65  S   UNL A   1      43.446  36.651  33.998  1.00  0.00     0.124 S 
ATOM     66  O   UNL A   1      44.478  36.488  35.019  1.00  0.00    -0.237 OA
ATOM     67  O   UNL A   1      43.823  37.465  32.846  1.00  0.00    -0.237 OA
ATOM     68  O   UNL A   1      42.098  36.886  34.509  1.00  0.00    -0.744 OA
ENDBRANCH  64  65
ENDBRANCH  45  59
BRANCH  46  69
ATOM     69  C   UNL A   1      42.529  23.402  27.849  1.00  0.00    -0.014 A 
ATOM     70  C   UNL A   1      43.163  23.146  26.621  1.00  0.00     0.010 A 
ATOM     71  C   UNL A   1      41.807  22.370  28.474  1.00  0.00     0.010 A 
ATOM     72  C   UNL A   1      43.057  21.889  26.018  1.00  0.00     0.020 A 
ATOM     73  C   UNL A   1      41.721  21.104  27.887  1.00  0.00     0.020 A 
ATOM     74  C   UNL A   1      42.337  20.875  26.655  1.00  0.00     0.054 A 
BRANCH  74  75
ATOM     75  S   UNL A   1      42.249  19.240  25.874  1.00  0.00     0.124 S 
ATOM     76  O   UNL A   1      40.815  19.087  25.651  1.00  0.00    -0.237 OA
ATOM     77  O   UNL A   1      43.061  19.422  24.672  1.00  0.00    -0.237 OA
ATOM     78  O   UNL A   1      42.827  18.349  26.878  1.00  0.00    -0.744 OA
ENDBRANCH  74  75
ENDBRANCH  46  69
BRANCH  58  79
ATOM     79  C   UNL A   1      47.502  26.626  31.532  1.00  0.00    -0.014 A 
ATOM     80  C   UNL A   1      48.630  26.642  30.695  1.00  0.00     0.010 A 
ATOM     81  C   UNL A   1      47.647  26.219  32.872  1.00  0.00     0.010 A 
ATOM     82  C   UNL A   1      49.870  26.209  31.174  1.00  0.00     0.020 A 
ATOM     83  C   UNL A   1      48.891  25.818  33.364  1.00  0.00     0.020 A 
ATOM     84  C   UNL A   1      49.991  25.796  32.505  1.00  0.00     0.054 A 
BRANCH  84  85
ATOM     85  S   UNL A   1      51.613  25.255  33.109  1.00  0.00     0.124 S 
ATOM     86  O   UNL A   1      51.915  24.144  32.211  1.00  0.00    -0.237 OA
ATOM     87  O   UNL A   1      52.436  26.449  32.931  1.00  0.00    -0.237 OA
ATOM     88  O   UNL A   1      51.359  24.882  34.499  1.00  0.00    -0.744 OA
ENDBRANCH  84  85
ENDBRANCH  58  79
ENDBRANCH  32  33
ENDBRANCH  25  27
ENDBRANCH  24  25
ENDBRANCH  23  24
ENDBRANCH   1  23
TORSDOF 19
ENDMDL
MODEL 2
REMARK VINA RESULT:     -10.4      1.605      2.387
REMARK SMILES O=C(CCSc1nc(-c2cccs2)cc(C(F)(F)F)n1)OCCOC(=O)c1ccc(-c2c3nc(c(-c4ccc(S(=O)(=O)[O-])cc4)c4ccc([nH]4)c(-c4ccc(S(=O)(=O)[O-])cc4)c4nc(c(-c5ccc(S(=O)(=O)[O-])cc5)c5ccc2[nH]5)C=C4)C=C3)cc1
REMARK SMILES IDX 22 1 21 2 2 3 1 4 3 5 4 6 5 7 6 8 7 9 20 10 8 11 15 12 14 13
REMARK SMILES IDX 9 14 10 15 13 16 11 17 12 18 16 19 17 20 18 21 19 22 23 23
REMARK SMILES IDX 24 24 25 25 26 26 27 27 28 28 86 29 29 30 85 31 30 32 31 33
REMARK SMILES IDX 32 34 79 35 33 36 84 37 78 38 80 39 34 40 83 41 77 42 76 43
REMARK SMILES IDX 35 45 65 46 46 47 64 48 47 49 50 50 63 51 81 52 48 53 49 54
REMARK SMILES IDX 62 56 82 57 51 58 36 59 37 60 45 61 38 62 44 63 39 64 40 65
REMARK SMILES IDX 41 66 42 67 43 68 66 69 67 70 75 71 68 72 74 73 69 74 70 75
REMARK SMILES IDX 71 76 72 77 73 78 52 79 53 80 61 81 54 82 60 83 55 84 56 85
REMARK SMILES IDX 57 86 58 87 59 88
REMARK H PARENT 80 44 50 55
REMARK Flexibility Score: inf
ROOT
ATOM      1  C   UNL A   1      32.021  29.312  27.026  1.00  0.00     0.274 C 
ENDROOT
BRANCH   1   2
ATOM      2  O   UNL A   1      31.452  27.998  27.233  1.00  0.00    -0.462 OA
BRANCH   2   3
ATOM      3  C   UNL A   1      31.731  26.887  26.514  1.00  0.00     0.306 C 
ATOM      4  O   UNL A   1      32.900  26.557  26.322  1.00  0.00    -0.252 OA
BRANCH   3   5
ATOM      5  C   UNL A   1      30.603  26.043  25.980  1.00  0.00     0.134 C 
BRANCH   5   6
ATOM      6  C   UNL A   1      31.088  24.822  25.204  1.00  0.00     0.090 C 
BRANCH   6   7
ATOM      7  S   UNL A   1      30.931  23.228  26.092  1.00  0.00    -0.086 SA
BRANCH   7   8
ATOM      8  C   UNL A   1      32.495  22.498  25.689  1.00  0.00     0.188 A 
ATOM      9  N   UNL A   1      32.509  21.234  25.267  1.00  0.00    -0.222 NA
ATOM     10  N   UNL A   1      33.566  23.308  25.729  1.00  0.00    -0.218 NA
ATOM     11  C   UNL A   1      33.680  20.781  24.787  1.00  0.00     0.085 A 
ATOM     12  C   UNL A   1      34.736  22.821  25.237  1.00  0.00     0.149 A 
ATOM     13  C   UNL A   1      34.827  21.541  24.729  1.00  0.00     0.063 A 
BRANCH  11  14
ATOM     14  C   UNL A   1      33.702  19.370  24.428  1.00  0.00     0.053 A 
ATOM     15  C   UNL A   1      34.742  18.474  24.583  1.00  0.00     0.022 A 
ATOM     16  S   UNL A   1      32.338  18.636  23.705  1.00  0.00    -0.142 S 
ATOM     17  C   UNL A   1      34.409  17.173  24.108  1.00  0.00     0.012 A 
ATOM     18  C   UNL A   1      33.131  17.124  23.600  1.00  0.00     0.065 A 
ENDBRANCH  11  14
BRANCH  12  19
ATOM     19  C   UNL A   1      35.957  23.724  25.205  1.00  0.00     0.433 C 
ATOM     20  F   UNL A   1      35.660  25.033  25.442  1.00  0.00    -0.165 F 
ATOM     21  F   UNL A   1      36.906  23.384  26.124  1.00  0.00    -0.165 F 
ATOM     22  F   UNL A   1      36.602  23.708  24.000  1.00  0.00    -0.165 F 
ENDBRANCH  12  19
ENDBRANCH   7   8
ENDBRANCH   6   7
ENDBRANCH   5   6
ENDBRANCH   3   5
ENDBRANCH   2   3
ENDBRANCH   1   2
BRANCH   1  23
ATOM     23  C   UNL A   1      33.434  29.409  27.585  1.00  0.00     0.275 C 
BRANCH  23  24
ATOM     24  O   UNL A   1      33.942  30.732  27.381  1.00  0.00    -0.458 OA
BRANCH  24  25
ATOM     25  C   UNL A   1      34.726  31.192  28.386  1.00  0.00     0.338 C 
ATOM     26  O   UNL A   1      34.452  32.067  29.188  1.00  0.00    -0.246 OA
BRANCH  25  27
ATOM     27  C   UNL A   1      35.943  30.364  28.457  1.00  0.00     0.060 A 
ATOM     28  C   UNL A   1      36.257  29.760  29.679  1.00  0.00     0.016 A 
ATOM     29  C   UNL A   1      36.792  30.230  27.352  1.00  0.00     0.016 A 
ATOM     30  C   UNL A   1      37.475  29.104  29.829  1.00  0.00     0.010 A 
ATOM     31  C   UNL A   1      38.003  29.559  27.499  1.00  0.00     0.010 A 
ATOM     32  C   UNL A   1      38.376  29.057  28.757  1.00  0.00    -0.014 A 
BRANCH  32  33
ATOM     33  C   UNL A   1      39.787  28.699  29.009  1.00  0.00     0.031 A 
ATOM     34  C   UNL A   1      40.668  29.717  29.686  1.00  0.00     0.074 A 
ATOM     35  C   UNL A   1      40.265  27.491  28.670  1.00  0.00     0.049 A 
ATOM     36  N   UNL A   1      41.921  29.621  30.045  1.00  0.00    -0.248 NA
ATOM     37  C   UNL A   1      40.054  31.022  29.993  1.00  0.00     0.031 C 
ATOM     38  C   UNL A   1      39.495  26.424  28.031  1.00  0.00     0.029 A 
ATOM     39  N   UNL A   1      41.517  26.958  28.827  1.00  0.00    -0.354 N 
ATOM     40  C   UNL A   1      42.245  30.850  30.610  1.00  0.00     0.074 A 
ATOM     41  C   UNL A   1      41.074  31.690  30.506  1.00  0.00     0.031 C 
ATOM     42  C   UNL A   1      40.292  25.355  27.860  1.00  0.00     0.029 A 
ATOM     43  C   UNL A   1      41.630  25.672  28.358  1.00  0.00     0.049 A 
ATOM     44  H   UNL A   1      42.265  27.449  29.237  1.00  0.00     0.167 HD
ATOM     45  C   UNL A   1      43.410  31.240  31.177  1.00  0.00     0.031 A 
ATOM     46  C   UNL A   1      42.694  24.847  28.338  1.00  0.00     0.031 A 
ATOM     47  C   UNL A   1      44.572  30.398  31.267  1.00  0.00     0.049 A 
ATOM     48  C   UNL A   1      43.994  25.318  28.938  1.00  0.00     0.074 A 
ATOM     49  C   UNL A   1      45.797  30.680  31.846  1.00  0.00     0.029 A 
ATOM     50  N   UNL A   1      44.655  29.111  30.758  1.00  0.00    -0.354 N 
ATOM     51  N   UNL A   1      44.273  26.465  29.511  1.00  0.00    -0.248 NA
ATOM     52  C   UNL A   1      45.115  24.368  28.911  1.00  0.00     0.031 C 
ATOM     53  C   UNL A   1      46.639  29.584  31.634  1.00  0.00     0.029 A 
ATOM     54  C   UNL A   1      45.917  28.593  30.988  1.00  0.00     0.049 A 
ATOM     55  H   UNL A   1      43.923  28.636  30.302  1.00  0.00     0.167 HD
ATOM     56  C   UNL A   1      45.590  26.359  29.953  1.00  0.00     0.074 A 
ATOM     57  C   UNL A   1      46.044  25.033  29.584  1.00  0.00     0.031 C 
ATOM     58  C   UNL A   1      46.349  27.269  30.615  1.00  0.00     0.031 A 
BRANCH  45  59
ATOM     59  C   UNL A   1      43.490  32.649  31.703  1.00  0.00    -0.014 A 
ATOM     60  C   UNL A   1      42.944  32.998  32.953  1.00  0.00     0.010 A 
ATOM     61  C   UNL A   1      44.134  33.639  30.940  1.00  0.00     0.010 A 
ATOM     62  C   UNL A   1      43.001  34.320  33.406  1.00  0.00     0.020 A 
ATOM     63  C   UNL A   1      44.220  34.955  31.402  1.00  0.00     0.020 A 
ATOM     64  C   UNL A   1      43.634  35.291  32.625  1.00  0.00     0.054 A 
BRANCH  64  65
ATOM     65  S   UNL A   1      43.704  36.995  33.242  1.00  0.00     0.124 S 
ATOM     66  O   UNL A   1      43.590  37.766  32.006  1.00  0.00    -0.237 OA
ATOM     67  O   UNL A   1      42.548  37.061  34.132  1.00  0.00    -0.237 OA
ATOM     68  O   UNL A   1      45.003  37.072  33.905  1.00  0.00    -0.744 OA
ENDBRANCH  64  65
ENDBRANCH  45  59
BRANCH  46  69
ATOM     69  C   UNL A   1      42.568  23.482  27.758  1.00  0.00    -0.014 A 
ATOM     70  C   UNL A   1      42.790  23.265  26.387  1.00  0.00     0.010 A 
ATOM     71  C   UNL A   1      42.229  22.390  28.577  1.00  0.00     0.010 A 
ATOM     72  C   UNL A   1      42.652  21.985  25.841  1.00  0.00     0.020 A 
ATOM     73  C   UNL A   1      42.117  21.104  28.039  1.00  0.00     0.020 A 
ATOM     74  C   UNL A   1      42.317  20.913  26.671  1.00  0.00     0.054 A 
BRANCH  74  75
ATOM     75  S   UNL A   1      42.186  19.254  25.947  1.00  0.00     0.124 S 
ATOM     76  O   UNL A   1      40.761  19.166  25.648  1.00  0.00    -0.237 OA
ATOM     77  O   UNL A   1      43.073  19.346  24.789  1.00  0.00    -0.237 OA
ATOM     78  O   UNL A   1      42.659  18.376  27.015  1.00  0.00    -0.744 OA
ENDBRANCH  74  75
ENDBRANCH  46  69
BRANCH  58  79
ATOM     79  C   UNL A   1      47.730  26.841  31.038  1.00  0.00    -0.014 A 
ATOM     80  C   UNL A   1      48.877  27.226  30.322  1.00  0.00     0.010 A 
ATOM     81  C   UNL A   1      47.879  26.066  32.204  1.00  0.00     0.010 A 
ATOM     82  C   UNL A   1      50.143  26.801  30.736  1.00  0.00     0.020 A 
ATOM     83  C   UNL A   1      49.144  25.669  32.640  1.00  0.00     0.020 A 
ATOM     84  C   UNL A   1      50.267  26.021  31.890  1.00  0.00     0.054 A 
BRANCH  84  85
ATOM     85  S   UNL A   1      51.921  25.497  32.417  1.00  0.00     0.124 S 
ATOM     86  O   UNL A   1      52.679  25.590  31.172  1.00  0.00    -0.237 OA
ATOM     87  O   UNL A   1      52.262  26.486  33.437  1.00  0.00    -0.237 OA
ATOM     88  O   UNL A   1      51.711  24.140  32.920  1.00  0.00    -0.744 OA
ENDBRANCH  84  85
ENDBRANCH  58  79
ENDBRANCH  32  33
ENDBRANCH  25  27
ENDBRANCH  24  25
ENDBRANCH  23  24
ENDBRANCH   1  23
TORSDOF 19
ENDMDL
MODEL 3
REMARK VINA RESULT:     -10.4      4.800     10.551
REMARK SMILES O=C(CCSc1nc(-c2cccs2)cc(C(F)(F)F)n1)OCCOC(=O)c1ccc(-c2c3nc(c(-c4ccc(S(=O)(=O)[O-])cc4)c4ccc([nH]4)c(-c4ccc(S(=O)(=O)[O-])cc4)c4nc(c(-c5ccc(S(=O)(=O)[O-])cc5)c5ccc2[nH]5)C=C4)C=C3)cc1
REMARK SMILES IDX 22 1 21 2 2 3 1 4 3 5 4 6 5 7 6 8 7 9 20 10 8 11 15 12 14 13
REMARK SMILES IDX 9 14 10 15 13 16 11 17 12 18 16 19 17 20 18 21 19 22 23 23
REMARK SMILES IDX 24 24 25 25 26 26 27 27 28 28 86 29 29 30 85 31 30 32 31 33
REMARK SMILES IDX 32 34 79 35 33 36 84 37 78 38 80 39 34 40 83 41 77 42 76 43
REMARK SMILES IDX 35 45 65 46 46 47 64 48 47 49 50 50 63 51 81 52 48 53 49 54
REMARK SMILES IDX 62 56 82 57 51 58 36 59 37 60 45 61 38 62 44 63 39 64 40 65
REMARK SMILES IDX 41 66 42 67 43 68 66 69 67 70 75 71 68 72 74 73 69 74 70 75
REMARK SMILES IDX 71 76 72 77 73 78 52 79 53 80 61 81 54 82 60 83 55 84 56 85
REMARK SMILES IDX 57 86 58 87 59 88
REMARK H PARENT 80 44 50 55
REMARK Flexibility Score: inf
ROOT
ATOM      1  C   UNL A   1      37.485  23.292  25.242  1.00  0.00     0.274 C 
ENDROOT
BRANCH   1   2
ATOM      2  O   UNL A   1      36.270  23.550  25.984  1.00  0.00    -0.462 OA
BRANCH   2   3
ATOM      3  C   UNL A   1      35.289  22.654  26.242  1.00  0.00     0.306 C 
ATOM      4  O   UNL A   1      35.548  21.453  26.279  1.00  0.00    -0.252 OA
BRANCH   3   5
ATOM      5  C   UNL A   1      33.888  23.140  26.511  1.00  0.00     0.134 C 
BRANCH   5   6
ATOM      6  C   UNL A   1      33.676  24.596  26.110  1.00  0.00     0.090 C 
BRANCH   6   7
ATOM      7  S   UNL A   1      32.791  24.841  24.525  1.00  0.00    -0.086 SA
BRANCH   7   8
ATOM      8  C   UNL A   1      32.235  26.510  24.741  1.00  0.00     0.188 A 
ATOM      9  N   UNL A   1      32.972  27.326  25.495  1.00  0.00    -0.222 NA
ATOM     10  N   UNL A   1      31.154  26.882  24.035  1.00  0.00    -0.218 NA
ATOM     11  C   UNL A   1      32.628  28.625  25.475  1.00  0.00     0.085 A 
ATOM     12  C   UNL A   1      30.831  28.202  24.036  1.00  0.00     0.149 A 
ATOM     13  C   UNL A   1      31.574  29.125  24.744  1.00  0.00     0.063 A 
BRANCH  11  14
ATOM     14  C   UNL A   1      33.378  29.482  26.382  1.00  0.00     0.053 A 
ATOM     15  C   UNL A   1      34.651  29.280  26.879  1.00  0.00     0.022 A 
ATOM     16  S   UNL A   1      32.691  30.930  26.977  1.00  0.00    -0.142 S 
ATOM     17  C   UNL A   1      35.063  30.327  27.751  1.00  0.00     0.012 A 
ATOM     18  C   UNL A   1      34.089  31.288  27.896  1.00  0.00     0.065 A 
ENDBRANCH  11  14
BRANCH  12  19
ATOM     19  C   UNL A   1      29.654  28.676  23.201  1.00  0.00     0.433 C 
ATOM     20  F   UNL A   1      29.977  28.884  21.893  1.00  0.00    -0.165 F 
ATOM     21  F   UNL A   1      28.609  27.799  23.192  1.00  0.00    -0.165 F 
ATOM     22  F   UNL A   1      29.128  29.858  23.640  1.00  0.00    -0.165 F 
ENDBRANCH  12  19
ENDBRANCH   7   8
ENDBRANCH   6   7
ENDBRANCH   5   6
ENDBRANCH   3   5
ENDBRANCH   2   3
ENDBRANCH   1   2
BRANCH   1  23
ATOM     23  C   UNL A   1      38.726  23.516  26.095  1.00  0.00     0.275 C 
BRANCH  23  24
ATOM     24  O   UNL A   1      38.783  24.885  26.510  1.00  0.00    -0.458 OA
BRANCH  24  25
ATOM     25  C   UNL A   1      40.028  25.419  26.510  1.00  0.00     0.338 C 
ATOM     26  O   UNL A   1      40.820  25.432  25.583  1.00  0.00    -0.246 OA
BRANCH  25  27
ATOM     27  C   UNL A   1      40.245  26.122  27.786  1.00  0.00     0.060 A 
ATOM     28  C   UNL A   1      39.383  25.835  28.850  1.00  0.00     0.016 A 
ATOM     29  C   UNL A   1      41.248  27.089  27.918  1.00  0.00     0.016 A 
ATOM     30  C   UNL A   1      39.454  26.590  30.016  1.00  0.00     0.010 A 
ATOM     31  C   UNL A   1      41.329  27.833  29.092  1.00  0.00     0.010 A 
ATOM     32  C   UNL A   1      40.387  27.632  30.114  1.00  0.00    -0.014 A 
BRANCH  32  33
ATOM     33  C   UNL A   1      40.228  28.653  31.170  1.00  0.00     0.031 A 
ATOM     34  C   UNL A   1      41.124  28.570  32.379  1.00  0.00     0.074 A 
ATOM     35  C   UNL A   1      39.328  29.641  31.045  1.00  0.00     0.049 A 
ATOM     36  N   UNL A   1      41.198  29.367  33.412  1.00  0.00    -0.248 NA
ATOM     37  C   UNL A   1      42.059  27.431  32.431  1.00  0.00     0.031 C 
ATOM     38  C   UNL A   1      38.426  29.828  29.910  1.00  0.00     0.029 A 
ATOM     39  N   UNL A   1      39.033  30.682  31.886  1.00  0.00    -0.354 N 
ATOM     40  C   UNL A   1      42.176  28.822  34.237  1.00  0.00     0.074 A 
ATOM     41  C   UNL A   1      42.636  27.606  33.608  1.00  0.00     0.031 C 
ATOM     42  C   UNL A   1      37.683  30.929  30.121  1.00  0.00     0.029 A 
ATOM     43  C   UNL A   1      38.044  31.509  31.413  1.00  0.00     0.049 A 
ATOM     44  H   UNL A   1      39.488  30.824  32.748  1.00  0.00     0.167 HD
ATOM     45  C   UNL A   1      42.658  29.301  35.407  1.00  0.00     0.031 A 
ATOM     46  C   UNL A   1      37.498  32.610  31.963  1.00  0.00     0.031 A 
ATOM     47  C   UNL A   1      42.187  30.508  36.028  1.00  0.00     0.049 A 
ATOM     48  C   UNL A   1      38.023  33.101  33.287  1.00  0.00     0.074 A 
ATOM     49  C   UNL A   1      42.623  31.102  37.199  1.00  0.00     0.029 A 
ATOM     50  N   UNL A   1      41.167  31.304  35.530  1.00  0.00    -0.354 N 
ATOM     51  N   UNL A   1      38.980  32.603  34.035  1.00  0.00    -0.248 NA
ATOM     52  C   UNL A   1      37.407  34.320  33.830  1.00  0.00     0.031 C 
ATOM     53  C   UNL A   1      41.825  32.225  37.440  1.00  0.00     0.029 A 
ATOM     54  C   UNL A   1      40.941  32.372  36.382  1.00  0.00     0.049 A 
ATOM     55  H   UNL A   1      40.676  31.136  34.693  1.00  0.00     0.167 HD
ATOM     56  C   UNL A   1      39.113  33.474  35.113  1.00  0.00     0.074 A 
ATOM     57  C   UNL A   1      38.140  34.530  34.915  1.00  0.00     0.031 C 
ATOM     58  C   UNL A   1      39.969  33.414  36.164  1.00  0.00     0.031 A 
BRANCH  45  59
ATOM     59  C   UNL A   1      43.720  28.490  36.104  1.00  0.00    -0.014 A 
ATOM     60  C   UNL A   1      45.088  28.781  35.946  1.00  0.00     0.010 A 
ATOM     61  C   UNL A   1      43.342  27.428  36.944  1.00  0.00     0.010 A 
ATOM     62  C   UNL A   1      46.057  27.995  36.576  1.00  0.00     0.020 A 
ATOM     63  C   UNL A   1      44.306  26.658  37.601  1.00  0.00     0.020 A 
ATOM     64  C   UNL A   1      45.660  26.935  37.396  1.00  0.00     0.054 A 
BRANCH  64  65
ATOM     65  S   UNL A   1      46.936  25.938  38.212  1.00  0.00     0.124 S 
ATOM     66  O   UNL A   1      46.171  25.273  39.264  1.00  0.00    -0.237 OA
ATOM     67  O   UNL A   1      47.405  25.073  37.133  1.00  0.00    -0.237 OA
ATOM     68  O   UNL A   1      47.905  26.927  38.679  1.00  0.00    -0.744 OA
ENDBRANCH  64  65
ENDBRANCH  45  59
BRANCH  46  69
ATOM     69  C   UNL A   1      36.416  33.341  31.250  1.00  0.00    -0.014 A 
ATOM     70  C   UNL A   1      36.611  33.803  29.937  1.00  0.00     0.010 A 
ATOM     71  C   UNL A   1      35.180  33.574  31.880  1.00  0.00     0.010 A 
ATOM     72  C   UNL A   1      35.599  34.506  29.275  1.00  0.00     0.020 A 
ATOM     73  C   UNL A   1      34.156  34.252  31.212  1.00  0.00     0.020 A 
ATOM     74  C   UNL A   1      34.378  34.726  29.917  1.00  0.00     0.054 A 
BRANCH  74  75
ATOM     75  S   UNL A   1      33.065  35.602  29.023  1.00  0.00     0.124 S 
ATOM     76  O   UNL A   1      33.824  36.583  28.254  1.00  0.00    -0.237 OA
ATOM     77  O   UNL A   1      32.443  34.531  28.247  1.00  0.00    -0.237 OA
ATOM     78  O   UNL A   1      32.231  36.151  30.091  1.00  0.00    -0.744 OA
ENDBRANCH  74  75
ENDBRANCH  46  69
BRANCH  58  79
ATOM     79  C   UNL A   1      39.936  34.553  37.151  1.00  0.00    -0.014 A 
ATOM     80  C   UNL A   1      40.707  35.713  36.968  1.00  0.00     0.010 A 
ATOM     81  C   UNL A   1      39.079  34.467  38.265  1.00  0.00     0.010 A 
ATOM     82  C   UNL A   1      40.661  36.746  37.910  1.00  0.00     0.020 A 
ATOM     83  C   UNL A   1      39.005  35.511  39.188  1.00  0.00     0.020 A 
ATOM     84  C   UNL A   1      39.813  36.635  39.016  1.00  0.00     0.054 A 
BRANCH  84  85
ATOM     85  S   UNL A   1      39.756  37.996  40.214  1.00  0.00     0.124 S 
ATOM     86  O   UNL A   1      41.119  38.518  40.143  1.00  0.00    -0.237 OA
ATOM     87  O   UNL A   1      38.720  38.866  39.664  1.00  0.00    -0.237 OA
ATOM     88  O   UNL A   1      39.406  37.337  41.471  1.00  0.00    -0.744 OA
ENDBRANCH  84  85
ENDBRANCH  58  79
ENDBRANCH  32  33
ENDBRANCH  25  27
ENDBRANCH  24  25
ENDBRANCH  23  24
ENDBRANCH   1  23
TORSDOF 19
ENDMDL
