MODEL 1
REMARK VINA RESULT:     -11.3      0.000      0.000
REMARK SMILES C[C@H]1CCC[C@](Cc2cn3ccccc3n2)(C(=O)OCCOC(=O)c2ccc(-c3c4nc(c(-c5ccc(S(=O)(=O)[O-])cc5)c5ccc([nH]5)c(-c5ccc(S(=O)(=O)[O-])cc5)c5nc(c(-c6ccc(S(=O)(=O)[O-])cc6)c6ccc3[nH]6)C=C5)C=C4)cc2)C1
REMARK SMILES IDX 21 1 20 2 19 3 17 4 18 5 6 6 1 7 2 8 3 9 85 10 4 11 5 12
REMARK SMILES IDX 7 13 8 14 9 15 16 16 10 17 15 18 11 19 14 20 12 21 13 22
REMARK SMILES IDX 22 23 23 24 24 25 25 26 26 27 84 28 27 29 83 30 28 31 29 32
REMARK SMILES IDX 30 33 77 34 31 35 82 36 76 37 78 38 32 39 81 40 75 41 74 42
REMARK SMILES IDX 33 44 63 45 44 46 62 47 45 48 48 49 61 50 79 51 46 52 47 53
REMARK SMILES IDX 60 55 80 56 49 57 34 58 35 59 43 60 36 61 42 62 37 63 38 64
REMARK SMILES IDX 39 65 40 66 41 67 64 68 65 69 73 70 66 71 72 72 67 73 68 74
REMARK SMILES IDX 69 75 70 76 71 77 50 78 51 79 59 80 52 81 58 82 53 83 54 84
REMARK SMILES IDX 55 85 56 86 57 87
REMARK H PARENT 78 43 48 54
REMARK Flexibility Score: inf
ROOT
ATOM      1  C   UNL A   1      33.429  28.744  27.481  1.00  0.00     0.275 C 
ENDROOT
BRANCH   1   2
ATOM      2  C   UNL A   1      32.195  28.402  26.656  1.00  0.00     0.274 C 
BRANCH   2   3
ATOM      3  O   UNL A   1      32.477  27.320  25.745  1.00  0.00    -0.462 OA
BRANCH   3   4
ATOM      4  C   UNL A   1      31.726  26.198  25.878  1.00  0.00     0.312 C 
ATOM      5  O   UNL A   1      30.932  26.018  26.798  1.00  0.00    -0.252 OA
BRANCH   4   6
ATOM      6  C   UNL A   1      32.017  25.119  24.811  1.00  0.00     0.074 C 
ATOM      7  C   UNL A   1      33.049  22.273  27.270  1.00  0.00     0.007 C 
ATOM      8  C   UNL A   1      33.167  23.595  26.514  1.00  0.00    -0.013 C 
ATOM      9  C   UNL A   1      34.472  23.658  25.715  1.00  0.00     0.003 C 
ATOM     10  C   UNL A   1      31.973  23.773  25.566  1.00  0.00     0.022 C 
ATOM     11  C   UNL A   1      34.604  24.972  24.952  1.00  0.00     0.001 C 
ATOM     12  C   UNL A   1      33.376  25.296  24.094  1.00  0.00     0.019 C 
BRANCH   6  13
ATOM     13  C   UNL A   1      30.852  25.267  23.799  1.00  0.00     0.076 C 
BRANCH  13  14
ATOM     14  C   UNL A   1      30.345  26.619  23.410  1.00  0.00     0.061 A 
ATOM     15  C   UNL A   1      30.906  27.623  22.646  1.00  0.00     0.116 A 
ATOM     16  N   UNL A   1      29.033  26.935  23.706  1.00  0.00    -0.234 NA
ATOM     17  N   UNL A   1      29.924  28.568  22.479  1.00  0.00    -0.307 N 
ATOM     18  C   UNL A   1      28.788  28.082  23.112  1.00  0.00     0.136 A 
ATOM     19  C   UNL A   1      29.970  29.781  21.795  1.00  0.00     0.093 A 
ATOM     20  C   UNL A   1      27.601  28.860  22.997  1.00  0.00     0.048 A 
ATOM     21  C   UNL A   1      28.854  30.528  21.714  1.00  0.00     0.018 A 
ATOM     22  C   UNL A   1      27.630  30.029  22.326  1.00  0.00     0.005 A 
ENDBRANCH  13  14
ENDBRANCH   6  13
ENDBRANCH   4   6
ENDBRANCH   3   4
ENDBRANCH   2   3
ENDBRANCH   1   2
BRANCH   1  23
ATOM     23  O   UNL A   1      33.866  30.066  27.134  1.00  0.00    -0.458 OA
BRANCH  23  24
ATOM     24  C   UNL A   1      34.517  30.742  28.107  1.00  0.00     0.338 C 
ATOM     25  O   UNL A   1      34.097  31.673  28.772  1.00  0.00    -0.246 OA
BRANCH  24  26
ATOM     26  C   UNL A   1      35.857  30.162  28.278  1.00  0.00     0.060 A 
ATOM     27  C   UNL A   1      36.255  29.713  29.535  1.00  0.00     0.016 A 
ATOM     28  C   UNL A   1      36.760  30.175  27.219  1.00  0.00     0.016 A 
ATOM     29  C   UNL A   1      37.588  29.385  29.770  1.00  0.00     0.010 A 
ATOM     30  C   UNL A   1      38.069  29.730  27.429  1.00  0.00     0.010 A 
ATOM     31  C   UNL A   1      38.510  29.368  28.717  1.00  0.00    -0.014 A 
BRANCH  31  32
ATOM     32  C   UNL A   1      39.938  29.017  28.954  1.00  0.00     0.031 A 
ATOM     33  C   UNL A   1      40.883  30.053  29.508  1.00  0.00     0.074 A 
ATOM     34  C   UNL A   1      40.401  27.781  28.675  1.00  0.00     0.049 A 
ATOM     35  N   UNL A   1      42.191  30.043  29.547  1.00  0.00    -0.248 NA
ATOM     36  C   UNL A   1      40.276  31.270  30.076  1.00  0.00     0.031 C 
ATOM     37  C   UNL A   1      39.597  26.657  28.189  1.00  0.00     0.029 A 
ATOM     38  N   UNL A   1      41.670  27.262  28.763  1.00  0.00    -0.354 N 
ATOM     39  C   UNL A   1      42.564  31.272  30.080  1.00  0.00     0.074 A 
ATOM     40  C   UNL A   1      41.345  32.002  30.355  1.00  0.00     0.031 C 
ATOM     41  C   UNL A   1      40.382  25.577  28.056  1.00  0.00     0.029 A 
ATOM     42  C   UNL A   1      41.759  25.952  28.355  1.00  0.00     0.049 A 
ATOM     43  H   UNL A   1      42.442  27.779  29.088  1.00  0.00     0.167 HD
ATOM     44  C   UNL A   1      43.811  31.748  30.314  1.00  0.00     0.031 A 
ATOM     45  C   UNL A   1      42.830  25.152  28.187  1.00  0.00     0.031 A 
ATOM     46  C   UNL A   1      45.017  30.997  30.086  1.00  0.00     0.049 A 
ATOM     47  C   UNL A   1      44.203  25.704  28.443  1.00  0.00     0.074 A 
ATOM     48  C   UNL A   1      46.331  31.401  30.256  1.00  0.00     0.029 A 
ATOM     49  N   UNL A   1      45.056  29.675  29.671  1.00  0.00    -0.354 N 
ATOM     50  N   UNL A   1      44.545  26.906  28.840  1.00  0.00    -0.248 NA
ATOM     51  C   UNL A   1      45.336  24.799  28.209  1.00  0.00     0.031 C 
ATOM     52  C   UNL A   1      47.164  30.325  29.929  1.00  0.00     0.029 A 
ATOM     53  C   UNL A   1      46.367  29.243  29.590  1.00  0.00     0.049 A 
ATOM     54  H   UNL A   1      44.265  29.125  29.464  1.00  0.00     0.167 HD
ATOM     55  C   UNL A   1      45.933  26.901  28.902  1.00  0.00     0.074 A 
ATOM     56  C   UNL A   1      46.366  25.569  28.531  1.00  0.00     0.031 C 
ATOM     57  C   UNL A   1      46.775  27.912  29.224  1.00  0.00     0.031 A 
BRANCH  44  58
ATOM     58  C   UNL A   1      43.937  33.161  30.815  1.00  0.00    -0.014 A 
ATOM     59  C   UNL A   1      44.020  34.247  29.927  1.00  0.00     0.010 A 
ATOM     60  C   UNL A   1      43.923  33.408  32.200  1.00  0.00     0.010 A 
ATOM     61  C   UNL A   1      44.114  35.554  30.415  1.00  0.00     0.020 A 
ATOM     62  C   UNL A   1      43.994  34.714  32.693  1.00  0.00     0.020 A 
ATOM     63  C   UNL A   1      44.104  35.779  31.796  1.00  0.00     0.054 A 
BRANCH  63  64
ATOM     64  S   UNL A   1      44.190  37.485  32.406  1.00  0.00     0.124 S 
ATOM     65  O   UNL A   1      45.582  37.581  32.838  1.00  0.00    -0.237 OA
ATOM     66  O   UNL A   1      43.846  38.271  31.223  1.00  0.00    -0.237 OA
ATOM     67  O   UNL A   1      43.202  37.520  33.482  1.00  0.00    -0.744 OA
ENDBRANCH  63  64
ENDBRANCH  44  58
BRANCH  45  68
ATOM     68  C   UNL A   1      42.649  23.765  27.681  1.00  0.00    -0.014 A 
ATOM     69  C   UNL A   1      42.396  22.704  28.566  1.00  0.00     0.010 A 
ATOM     70  C   UNL A   1      42.726  23.501  26.300  1.00  0.00     0.010 A 
ATOM     71  C   UNL A   1      42.241  21.401  28.083  1.00  0.00     0.020 A 
ATOM     72  C   UNL A   1      42.542  22.206  25.812  1.00  0.00     0.020 A 
ATOM     73  C   UNL A   1      42.316  21.160  26.708  1.00  0.00     0.054 A 
BRANCH  73  74
ATOM     74  S   UNL A   1      42.062  19.474  26.086  1.00  0.00     0.124 S 
ATOM     75  O   UNL A   1      42.524  18.665  27.211  1.00  0.00    -0.237 OA
ATOM     76  O   UNL A   1      40.624  19.437  25.830  1.00  0.00    -0.237 OA
ATOM     77  O   UNL A   1      42.901  19.425  24.891  1.00  0.00    -0.744 OA
ENDBRANCH  73  74
ENDBRANCH  45  68
BRANCH  57  78
ATOM     78  C   UNL A   1      48.246  27.605  29.216  1.00  0.00    -0.014 A 
ATOM     79  C   UNL A   1      49.008  27.756  28.044  1.00  0.00     0.010 A 
ATOM     80  C   UNL A   1      48.878  27.196  30.403  1.00  0.00     0.010 A 
ATOM     81  C   UNL A   1      50.376  27.473  28.054  1.00  0.00     0.020 A 
ATOM     82  C   UNL A   1      50.248  26.931  30.421  1.00  0.00     0.020 A 
ATOM     83  C   UNL A   1      50.986  27.056  29.241  1.00  0.00     0.054 A 
BRANCH  83  84
ATOM     84  S   UNL A   1      52.770  26.728  29.242  1.00  0.00     0.124 S 
ATOM     85  O   UNL A   1      53.327  28.078  29.287  1.00  0.00    -0.237 OA
ATOM     86  O   UNL A   1      52.953  25.932  30.453  1.00  0.00    -0.237 OA
ATOM     87  O   UNL A   1      52.988  26.005  27.991  1.00  0.00    -0.744 OA
ENDBRANCH  83  84
ENDBRANCH  57  78
ENDBRANCH  31  32
ENDBRANCH  24  26
ENDBRANCH  23  24
ENDBRANCH   1  23
TORSDOF 16
ENDMDL
MODEL 2
REMARK VINA RESULT:     -11.0      1.760      3.703
REMARK SMILES C[C@H]1CCC[C@](Cc2cn3ccccc3n2)(C(=O)OCCOC(=O)c2ccc(-c3c4nc(c(-c5ccc(S(=O)(=O)[O-])cc5)c5ccc([nH]5)c(-c5ccc(S(=O)(=O)[O-])cc5)c5nc(c(-c6ccc(S(=O)(=O)[O-])cc6)c6ccc3[nH]6)C=C5)C=C4)cc2)C1
REMARK SMILES IDX 21 1 20 2 19 3 17 4 18 5 6 6 1 7 2 8 3 9 85 10 4 11 5 12
REMARK SMILES IDX 7 13 8 14 9 15 16 16 10 17 15 18 11 19 14 20 12 21 13 22
REMARK SMILES IDX 22 23 23 24 24 25 25 26 26 27 84 28 27 29 83 30 28 31 29 32
REMARK SMILES IDX 30 33 77 34 31 35 82 36 76 37 78 38 32 39 81 40 75 41 74 42
REMARK SMILES IDX 33 44 63 45 44 46 62 47 45 48 48 49 61 50 79 51 46 52 47 53
REMARK SMILES IDX 60 55 80 56 49 57 34 58 35 59 43 60 36 61 42 62 37 63 38 64
REMARK SMILES IDX 39 65 40 66 41 67 64 68 65 69 73 70 66 71 72 72 67 73 68 74
REMARK SMILES IDX 69 75 70 76 71 77 50 78 51 79 59 80 52 81 58 82 53 83 54 84
REMARK SMILES IDX 55 85 56 86 57 87
REMARK H PARENT 78 43 48 54
REMARK Flexibility Score: inf
ROOT
ATOM      1  C   UNL A   1      32.272  29.882  27.233  1.00  0.00     0.275 C 
ENDROOT
BRANCH   1   2
ATOM      2  C   UNL A   1      31.550  28.543  27.310  1.00  0.00     0.274 C 
BRANCH   2   3
ATOM      3  O   UNL A   1      32.272  27.534  26.573  1.00  0.00    -0.462 OA
BRANCH   3   4
ATOM      4  C   UNL A   1      31.539  26.728  25.763  1.00  0.00     0.312 C 
ATOM      5  O   UNL A   1      30.324  26.834  25.620  1.00  0.00    -0.252 OA
BRANCH   4   6
ATOM      6  C   UNL A   1      32.359  25.601  25.095  1.00  0.00     0.074 C 
ATOM      7  C   UNL A   1      34.037  27.792  22.339  1.00  0.00     0.007 C 
ATOM      8  C   UNL A   1      32.911  27.060  23.068  1.00  0.00    -0.013 C 
ATOM      9  C   UNL A   1      32.209  26.065  22.140  1.00  0.00     0.003 C 
ATOM     10  C   UNL A   1      33.465  26.319  24.292  1.00  0.00     0.022 C 
ATOM     11  C   UNL A   1      31.083  25.325  22.853  1.00  0.00     0.001 C 
ATOM     12  C   UNL A   1      31.527  24.681  24.172  1.00  0.00     0.019 C 
BRANCH   6  13
ATOM     13  C   UNL A   1      32.927  24.791  26.290  1.00  0.00     0.076 C 
BRANCH  13  14
ATOM     14  C   UNL A   1      34.042  23.814  26.089  1.00  0.00     0.061 A 
ATOM     15  C   UNL A   1      34.041  22.498  25.675  1.00  0.00     0.116 A 
ATOM     16  N   UNL A   1      35.340  24.279  26.170  1.00  0.00    -0.234 NA
ATOM     17  N   UNL A   1      35.359  22.151  25.507  1.00  0.00    -0.307 N 
ATOM     18  C   UNL A   1      36.110  23.285  25.784  1.00  0.00     0.136 A 
ATOM     19  C   UNL A   1      35.912  20.936  25.108  1.00  0.00     0.093 A 
ATOM     20  C   UNL A   1      37.518  23.192  25.590  1.00  0.00     0.048 A 
ATOM     21  C   UNL A   1      37.245  20.843  24.955  1.00  0.00     0.018 A 
ATOM     22  C   UNL A   1      38.062  22.025  25.191  1.00  0.00     0.005 A 
ENDBRANCH  13  14
ENDBRANCH   6  13
ENDBRANCH   4   6
ENDBRANCH   3   4
ENDBRANCH   2   3
ENDBRANCH   1   2
BRANCH   1  23
ATOM     23  O   UNL A   1      33.687  29.644  27.223  1.00  0.00    -0.458 OA
BRANCH  23  24
ATOM     24  C   UNL A   1      34.432  30.515  27.939  1.00  0.00     0.338 C 
ATOM     25  O   UNL A   1      34.085  31.590  28.396  1.00  0.00    -0.246 OA
BRANCH  24  26
ATOM     26  C   UNL A   1      35.780  29.954  28.121  1.00  0.00     0.060 A 
ATOM     27  C   UNL A   1      36.157  29.465  29.370  1.00  0.00     0.016 A 
ATOM     28  C   UNL A   1      36.707  30.024  27.085  1.00  0.00     0.016 A 
ATOM     29  C   UNL A   1      37.490  29.153  29.624  1.00  0.00     0.010 A 
ATOM     30  C   UNL A   1      38.019  29.596  27.310  1.00  0.00     0.010 A 
ATOM     31  C   UNL A   1      38.437  29.194  28.593  1.00  0.00    -0.014 A 
BRANCH  31  32
ATOM     32  C   UNL A   1      39.866  28.861  28.851  1.00  0.00     0.031 A 
ATOM     33  C   UNL A   1      40.787  29.906  29.427  1.00  0.00     0.074 A 
ATOM     34  C   UNL A   1      40.350  27.633  28.573  1.00  0.00     0.049 A 
ATOM     35  N   UNL A   1      42.094  29.915  29.487  1.00  0.00    -0.248 NA
ATOM     36  C   UNL A   1      40.154  31.111  29.992  1.00  0.00     0.031 C 
ATOM     37  C   UNL A   1      39.570  26.501  28.067  1.00  0.00     0.029 A 
ATOM     38  N   UNL A   1      41.624  27.131  28.678  1.00  0.00    -0.354 N 
ATOM     39  C   UNL A   1      42.441  31.145  30.033  1.00  0.00     0.074 A 
ATOM     40  C   UNL A   1      41.208  31.856  30.292  1.00  0.00     0.031 C 
ATOM     41  C   UNL A   1      40.372  25.433  27.940  1.00  0.00     0.029 A 
ATOM     42  C   UNL A   1      41.738  25.825  28.264  1.00  0.00     0.049 A 
ATOM     43  H   UNL A   1      42.385  27.657  29.019  1.00  0.00     0.167 HD
ATOM     44  C   UNL A   1      43.678  31.637  30.290  1.00  0.00     0.031 A 
ATOM     45  C   UNL A   1      42.823  25.041  28.108  1.00  0.00     0.031 A 
ATOM     46  C   UNL A   1      44.897  30.904  30.077  1.00  0.00     0.049 A 
ATOM     47  C   UNL A   1      44.184  25.611  28.390  1.00  0.00     0.074 A 
ATOM     48  C   UNL A   1      46.203  31.324  30.271  1.00  0.00     0.029 A 
ATOM     49  N   UNL A   1      44.962  29.585  29.655  1.00  0.00    -0.354 N 
ATOM     50  N   UNL A   1      44.503  26.814  28.800  1.00  0.00    -0.248 NA
ATOM     51  C   UNL A   1      45.333  24.722  28.169  1.00  0.00     0.031 C 
ATOM     52  C   UNL A   1      47.057  30.262  29.951  1.00  0.00     0.029 A 
ATOM     53  C   UNL A   1      46.280  29.171  29.593  1.00  0.00     0.049 A 
ATOM     54  H   UNL A   1      44.182  29.025  29.432  1.00  0.00     0.167 HD
ATOM     55  C   UNL A   1      45.890  26.828  28.884  1.00  0.00     0.074 A 
ATOM     56  C   UNL A   1      46.347  25.505  28.512  1.00  0.00     0.031 C 
ATOM     57  C   UNL A   1      46.712  27.849  29.225  1.00  0.00     0.031 A 
BRANCH  44  58
ATOM     58  C   UNL A   1      43.776  33.048  30.801  1.00  0.00    -0.014 A 
ATOM     59  C   UNL A   1      43.718  33.334  32.176  1.00  0.00     0.010 A 
ATOM     60  C   UNL A   1      43.978  34.102  29.891  1.00  0.00     0.010 A 
ATOM     61  C   UNL A   1      43.832  34.651  32.630  1.00  0.00     0.020 A 
ATOM     62  C   UNL A   1      44.117  35.418  30.342  1.00  0.00     0.020 A 
ATOM     63  C   UNL A   1      44.029  35.686  31.709  1.00  0.00     0.054 A 
BRANCH  63  64
ATOM     64  S   UNL A   1      44.212  37.383  32.324  1.00  0.00     0.124 S 
ATOM     65  O   UNL A   1      43.814  38.170  31.159  1.00  0.00    -0.237 OA
ATOM     66  O   UNL A   1      43.285  37.421  33.452  1.00  0.00    -0.237 OA
ATOM     67  O   UNL A   1      45.626  37.472  32.681  1.00  0.00    -0.744 OA
ENDBRANCH  63  64
ENDBRANCH  44  58
BRANCH  45  68
ATOM     68  C   UNL A   1      42.670  23.655  27.591  1.00  0.00    -0.014 A 
ATOM     69  C   UNL A   1      42.685  23.396  26.210  1.00  0.00     0.010 A 
ATOM     70  C   UNL A   1      42.510  22.581  28.487  1.00  0.00     0.010 A 
ATOM     71  C   UNL A   1      42.526  22.092  25.733  1.00  0.00     0.020 A 
ATOM     72  C   UNL A   1      42.381  21.273  28.015  1.00  0.00     0.020 A 
ATOM     73  C   UNL A   1      42.374  21.038  26.639  1.00  0.00     0.054 A 
BRANCH  73  74
ATOM     74  S   UNL A   1      42.220  19.342  26.011  1.00  0.00     0.124 S 
ATOM     75  O   UNL A   1      43.096  19.371  24.844  1.00  0.00    -0.237 OA
ATOM     76  O   UNL A   1      42.693  18.537  27.136  1.00  0.00    -0.237 OA
ATOM     77  O   UNL A   1      40.793  19.217  25.724  1.00  0.00    -0.744 OA
ENDBRANCH  73  74
ENDBRANCH  45  68
BRANCH  57  78
ATOM     78  C   UNL A   1      48.187  27.562  29.239  1.00  0.00    -0.014 A 
ATOM     79  C   UNL A   1      48.953  27.661  28.064  1.00  0.00     0.010 A 
ATOM     80  C   UNL A   1      48.819  27.224  30.449  1.00  0.00     0.010 A 
ATOM     81  C   UNL A   1      50.324  27.398  28.094  1.00  0.00     0.020 A 
ATOM     82  C   UNL A   1      50.192  26.980  30.486  1.00  0.00     0.020 A 
ATOM     83  C   UNL A   1      50.935  27.053  29.305  1.00  0.00     0.054 A 
BRANCH  83  84
ATOM     84  S   UNL A   1      52.722  26.750  29.330  1.00  0.00     0.124 S 
ATOM     85  O   UNL A   1      52.868  25.891  30.503  1.00  0.00    -0.237 OA
ATOM     86  O   UNL A   1      52.961  26.102  28.043  1.00  0.00    -0.237 OA
ATOM     87  O   UNL A   1      53.297  28.087  29.462  1.00  0.00    -0.744 OA
ENDBRANCH  83  84
ENDBRANCH  57  78
ENDBRANCH  31  32
ENDBRANCH  24  26
ENDBRANCH  23  24
ENDBRANCH   1  23
TORSDOF 16
ENDMDL
MODEL 3
REMARK VINA RESULT:     -10.9      3.699      9.874
REMARK SMILES C[C@H]1CCC[C@](Cc2cn3ccccc3n2)(C(=O)OCCOC(=O)c2ccc(-c3c4nc(c(-c5ccc(S(=O)(=O)[O-])cc5)c5ccc([nH]5)c(-c5ccc(S(=O)(=O)[O-])cc5)c5nc(c(-c6ccc(S(=O)(=O)[O-])cc6)c6ccc3[nH]6)C=C5)C=C4)cc2)C1
REMARK SMILES IDX 21 1 20 2 19 3 17 4 18 5 6 6 1 7 2 8 3 9 85 10 4 11 5 12
REMARK SMILES IDX 7 13 8 14 9 15 16 16 10 17 15 18 11 19 14 20 12 21 13 22
REMARK SMILES IDX 22 23 23 24 24 25 25 26 26 27 84 28 27 29 83 30 28 31 29 32
REMARK SMILES IDX 30 33 77 34 31 35 82 36 76 37 78 38 32 39 81 40 75 41 74 42
REMARK SMILES IDX 33 44 63 45 44 46 62 47 45 48 48 49 61 50 79 51 46 52 47 53
REMARK SMILES IDX 60 55 80 56 49 57 34 58 35 59 43 60 36 61 42 62 37 63 38 64
REMARK SMILES IDX 39 65 40 66 41 67 64 68 65 69 73 70 66 71 72 72 67 73 68 74
REMARK SMILES IDX 69 75 70 76 71 77 50 78 51 79 59 80 52 81 58 82 53 83 54 84
REMARK SMILES IDX 55 85 56 86 57 87
REMARK H PARENT 78 43 48 54
REMARK Flexibility Score: inf
ROOT
ATOM      1  C   UNL A   1      37.370  21.929  24.598  1.00  0.00     0.275 C 
ENDROOT
BRANCH   1   2
ATOM      2  C   UNL A   1      36.509  22.605  23.540  1.00  0.00     0.274 C 
BRANCH   2   3
ATOM      3  O   UNL A   1      35.269  23.068  24.114  1.00  0.00    -0.462 OA
BRANCH   3   4
ATOM      4  C   UNL A   1      34.281  23.403  23.245  1.00  0.00     0.312 C 
ATOM      5  O   UNL A   1      34.399  23.335  22.025  1.00  0.00    -0.252 OA
BRANCH   4   6
ATOM      6  C   UNL A   1      33.012  23.963  23.927  1.00  0.00     0.074 C 
ATOM      7  C   UNL A   1      33.239  27.577  22.479  1.00  0.00     0.007 C 
ATOM      8  C   UNL A   1      33.629  26.374  23.335  1.00  0.00    -0.013 C 
ATOM      9  C   UNL A   1      33.672  26.745  24.820  1.00  0.00     0.003 C 
ATOM     10  C   UNL A   1      32.635  25.224  23.120  1.00  0.00     0.022 C 
ATOM     11  C   UNL A   1      34.059  25.553  25.690  1.00  0.00     0.001 C 
ATOM     12  C   UNL A   1      33.203  24.310  25.422  1.00  0.00     0.019 C 
BRANCH   6  13
ATOM     13  C   UNL A   1      31.968  22.827  23.768  1.00  0.00     0.076 C 
BRANCH  13  14
ATOM     14  C   UNL A   1      32.334  21.406  24.060  1.00  0.00     0.061 A 
ATOM     15  C   UNL A   1      32.501  20.730  25.251  1.00  0.00     0.116 A 
ATOM     16  N   UNL A   1      32.389  20.516  23.004  1.00  0.00    -0.234 NA
ATOM     17  N   UNL A   1      32.665  19.408  24.918  1.00  0.00    -0.307 N 
ATOM     18  C   UNL A   1      32.550  19.325  23.537  1.00  0.00     0.136 A 
ATOM     19  C   UNL A   1      32.877  18.306  25.744  1.00  0.00     0.093 A 
ATOM     20  C   UNL A   1      32.600  18.024  22.960  1.00  0.00     0.048 A 
ATOM     21  C   UNL A   1      32.953  17.081  25.193  1.00  0.00     0.018 A 
ATOM     22  C   UNL A   1      32.789  16.949  23.752  1.00  0.00     0.005 A 
ENDBRANCH  13  14
ENDBRANCH   6  13
ENDBRANCH   4   6
ENDBRANCH   3   4
ENDBRANCH   2   3
ENDBRANCH   1   2
BRANCH   1  23
ATOM     23  O   UNL A   1      37.629  22.868  25.652  1.00  0.00    -0.458 OA
BRANCH  23  24
ATOM     24  C   UNL A   1      38.897  22.888  26.121  1.00  0.00     0.338 C 
ATOM     25  O   UNL A   1      39.741  22.016  26.015  1.00  0.00    -0.246 OA
BRANCH  24  26
ATOM     26  C   UNL A   1      39.138  24.174  26.792  1.00  0.00     0.060 A 
ATOM     27  C   UNL A   1      40.039  25.080  26.235  1.00  0.00     0.016 A 
ATOM     28  C   UNL A   1      38.563  24.430  28.034  1.00  0.00     0.016 A 
ATOM     29  C   UNL A   1      40.459  26.187  26.968  1.00  0.00     0.010 A 
ATOM     30  C   UNL A   1      38.896  25.604  28.715  1.00  0.00     0.010 A 
ATOM     31  C   UNL A   1      39.879  26.478  28.209  1.00  0.00    -0.014 A 
BRANCH  31  32
ATOM     32  C   UNL A   1      40.317  27.660  29.002  1.00  0.00     0.031 A 
ATOM     33  C   UNL A   1      41.658  27.645  29.691  1.00  0.00     0.074 A 
ATOM     34  C   UNL A   1      39.527  28.747  29.115  1.00  0.00     0.049 A 
ATOM     35  N   UNL A   1      42.118  28.439  30.624  1.00  0.00    -0.248 NA
ATOM     36  C   UNL A   1      42.599  26.583  29.293  1.00  0.00     0.031 C 
ATOM     37  C   UNL A   1      38.230  28.933  28.460  1.00  0.00     0.029 A 
ATOM     38  N   UNL A   1      39.703  29.908  29.828  1.00  0.00    -0.354 N 
ATOM     39  C   UNL A   1      43.368  27.937  30.968  1.00  0.00     0.074 A 
ATOM     40  C   UNL A   1      43.598  26.772  30.142  1.00  0.00     0.031 C 
ATOM     41  C   UNL A   1      37.747  30.145  28.772  1.00  0.00     0.029 A 
ATOM     42  C   UNL A   1      38.649  30.785  29.722  1.00  0.00     0.049 A 
ATOM     43  H   UNL A   1      40.508  30.095  30.364  1.00  0.00     0.167 HD
ATOM     44  C   UNL A   1      44.240  28.404  31.894  1.00  0.00     0.031 A 
ATOM     45  C   UNL A   1      38.405  31.949  30.354  1.00  0.00     0.031 A 
ATOM     46  C   UNL A   1      44.027  29.593  32.676  1.00  0.00     0.049 A 
ATOM     47  C   UNL A   1      39.382  32.443  31.382  1.00  0.00     0.074 A 
ATOM     48  C   UNL A   1      44.832  30.132  33.666  1.00  0.00     0.029 A 
ATOM     49  N   UNL A   1      42.944  30.447  32.533  1.00  0.00    -0.354 N 
ATOM     50  N   UNL A   1      40.506  31.898  31.777  1.00  0.00    -0.248 NA
ATOM     51  C   UNL A   1      39.046  33.700  32.065  1.00  0.00     0.031 C 
ATOM     52  C   UNL A   1      44.226  31.305  34.131  1.00  0.00     0.029 A 
ATOM     53  C   UNL A   1      43.064  31.513  33.406  1.00  0.00     0.049 A 
ATOM     54  H   UNL A   1      42.199  30.313  31.903  1.00  0.00     0.167 HD
ATOM     55  C   UNL A   1      41.013  32.744  32.756  1.00  0.00     0.074 A 
ATOM     56  C   UNL A   1      40.087  33.852  32.872  1.00  0.00     0.031 C 
ATOM     57  C   UNL A   1      42.135  32.608  33.502  1.00  0.00     0.031 A 
BRANCH  44  58
ATOM     58  C   UNL A   1      45.495  27.610  32.135  1.00  0.00    -0.014 A 
ATOM     59  C   UNL A   1      46.731  28.015  31.601  1.00  0.00     0.010 A 
ATOM     60  C   UNL A   1      45.443  26.464  32.950  1.00  0.00     0.010 A 
ATOM     61  C   UNL A   1      47.888  27.273  31.856  1.00  0.00     0.020 A 
ATOM     62  C   UNL A   1      46.602  25.733  33.226  1.00  0.00     0.020 A 
ATOM     63  C   UNL A   1      47.816  26.134  32.665  1.00  0.00     0.054 A 
BRANCH  63  64
ATOM     64  S   UNL A   1      49.336  25.208  33.012  1.00  0.00     0.124 S 
ATOM     65  O   UNL A   1      48.840  24.116  33.846  1.00  0.00    -0.237 OA
ATOM     66  O   UNL A   1      49.792  24.821  31.679  1.00  0.00    -0.237 OA
ATOM     67  O   UNL A   1      50.185  26.179  33.699  1.00  0.00    -0.744 OA
ENDBRANCH  63  64
ENDBRANCH  44  58
BRANCH  45  68
ATOM     68  C   UNL A   1      37.143  32.691  30.084  1.00  0.00    -0.014 A 
ATOM     69  C   UNL A   1      36.034  32.557  30.935  1.00  0.00     0.010 A 
ATOM     70  C   UNL A   1      37.050  33.542  28.966  1.00  0.00     0.010 A 
ATOM     71  C   UNL A   1      34.848  33.247  30.666  1.00  0.00     0.020 A 
ATOM     72  C   UNL A   1      35.877  34.255  28.711  1.00  0.00     0.020 A 
ATOM     73  C   UNL A   1      34.777  34.091  29.554  1.00  0.00     0.054 A 
BRANCH  73  74
ATOM     74  S   UNL A   1      33.250  35.022  29.241  1.00  0.00     0.124 S 
ATOM     75  O   UNL A   1      32.598  34.199  28.227  1.00  0.00    -0.237 OA
ATOM     76  O   UNL A   1      32.606  35.036  30.553  1.00  0.00    -0.237 OA
ATOM     77  O   UNL A   1      33.735  36.320  28.781  1.00  0.00    -0.744 OA
ENDBRANCH  73  74
ENDBRANCH  45  68
BRANCH  57  78
ATOM     78  C   UNL A   1      42.436  33.701  34.487  1.00  0.00    -0.014 A 
ATOM     79  C   UNL A   1      42.182  33.527  35.859  1.00  0.00     0.010 A 
ATOM     80  C   UNL A   1      43.013  34.903  34.039  1.00  0.00     0.010 A 
ATOM     81  C   UNL A   1      42.474  34.550  36.764  1.00  0.00     0.020 A 
ATOM     82  C   UNL A   1      43.323  35.920  34.944  1.00  0.00     0.020 A 
ATOM     83  C   UNL A   1      43.037  35.743  36.300  1.00  0.00     0.054 A 
BRANCH  83  84
ATOM     84  S   UNL A   1      43.441  37.045  37.495  1.00  0.00     0.124 S 
ATOM     85  O   UNL A   1      44.437  36.386  38.337  1.00  0.00    -0.237 OA
ATOM     86  O   UNL A   1      43.949  38.119  36.645  1.00  0.00    -0.237 OA
ATOM     87  O   UNL A   1      42.163  37.326  38.145  1.00  0.00    -0.744 OA
ENDBRANCH  83  84
ENDBRANCH  57  78
ENDBRANCH  31  32
ENDBRANCH  24  26
ENDBRANCH  23  24
ENDBRANCH   1  23
TORSDOF 16
ENDMDL
