MODEL 1
REMARK VINA RESULT:     -10.3      0.000      0.000
REMARK SMILES CCC(CC)(NC(=O)c1cc([N+](=O)[O-])c[nH]1)C(=O)OCCOC(=O)c1ccc(-c2c3nc(c(-c4ccc(S(=O)(=O)[O-])cc4)c4ccc([nH]4)c(-c4ccc(S(=O)(=O)[O-])cc4)c4nc(c(-c5ccc(S(=O)(=O)[O-])cc5)c5ccc2[nH]5)C=C4)C=C3)cc1
REMARK SMILES IDX 20 1 19 2 17 3 18 4 3 5 2 6 1 7 4 8 5 9 6 10 7 11 8 13 9 14
REMARK SMILES IDX 10 15 16 16 11 17 15 18 12 20 13 21 14 22 21 23 22 24 23 25
REMARK SMILES IDX 24 26 25 27 26 28 84 29 27 30 83 31 28 32 29 33 30 34 77 35
REMARK SMILES IDX 31 36 82 37 76 38 78 39 32 40 81 41 75 42 74 43 33 45 63 46
REMARK SMILES IDX 44 47 62 48 45 49 48 50 61 51 79 52 46 53 47 54 60 56 80 57
REMARK SMILES IDX 49 58 34 59 35 60 43 61 36 62 42 63 37 64 38 65 39 66 40 67
REMARK SMILES IDX 41 68 64 69 65 70 73 71 66 72 72 73 67 74 68 75 69 76 70 77
REMARK SMILES IDX 71 78 50 79 51 80 59 81 52 82 58 83 53 84 54 85 55 86 56 87
REMARK SMILES IDX 57 88
REMARK H PARENT 6 12 16 19 78 44 48 55
REMARK Flexibility Score: inf
ROOT
ATOM      1  C   UNL A   1      32.908  31.364  26.972  1.00  0.00     0.274 C 
ENDROOT
BRANCH   1   2
ATOM      2  O   UNL A   1      32.097  30.692  25.981  1.00  0.00    -0.460 OA
BRANCH   2   3
ATOM      3  C   UNL A   1      31.832  29.385  26.200  1.00  0.00     0.331 C 
ATOM      4  O   UNL A   1      31.387  28.984  27.276  1.00  0.00    -0.249 OA
BRANCH   3   5
ATOM      5  C   UNL A   1      32.126  28.411  24.989  1.00  0.00     0.137 C 
BRANCH   5   6
ATOM      6  C   UNL A   1      32.873  27.142  25.551  1.00  0.00     0.037 C 
ATOM      7  C   UNL A   1      34.235  27.359  26.219  1.00  0.00     0.007 C 
ENDBRANCH   5   6
BRANCH   5   8
ATOM      8  C   UNL A   1      33.095  29.258  24.091  1.00  0.00     0.037 C 
ATOM      9  C   UNL A   1      33.470  28.643  22.744  1.00  0.00     0.007 C 
ENDBRANCH   5   8
BRANCH   5  10
ATOM     10  N   UNL A   1      31.070  27.949  23.992  1.00  0.00    -0.335 N 
ATOM     11  C   UNL A   1      29.809  28.381  23.677  1.00  0.00     0.268 C 
ATOM     12  H   UNL A   1      31.355  27.172  23.459  1.00  0.00     0.165 HD
ATOM     13  O   UNL A   1      28.883  27.586  23.837  1.00  0.00    -0.268 OA
BRANCH  11  14
ATOM     14  C   UNL A   1      29.604  29.632  22.988  1.00  0.00     0.111 A 
ATOM     15  C   UNL A   1      29.212  30.885  23.431  1.00  0.00     0.119 A 
ATOM     16  N   UNL A   1      29.855  29.755  21.635  1.00  0.00    -0.351 N 
ATOM     17  C   UNL A   1      29.026  31.710  22.286  1.00  0.00     0.287 A 
ATOM     18  C   UNL A   1      29.451  30.986  21.188  1.00  0.00     0.169 A 
ATOM     19  H   UNL A   1      30.264  29.058  21.072  1.00  0.00     0.166 HD
BRANCH  17  20
ATOM     20  N   UNL A   1      28.424  33.017  22.247  1.00  0.00     0.064 N 
ATOM     21  O   UNL A   1      27.639  33.251  21.318  1.00  0.00    -0.258 OA
ATOM     22  O   UNL A   1      28.694  33.788  23.177  1.00  0.00    -0.258 OA
ENDBRANCH  17  20
ENDBRANCH  11  14
ENDBRANCH   5  10
ENDBRANCH   3   5
ENDBRANCH   2   3
ENDBRANCH   1   2
BRANCH   1  23
ATOM     23  C   UNL A   1      32.348  32.741  27.374  1.00  0.00     0.275 C 
BRANCH  23  24
ATOM     24  O   UNL A   1      33.283  33.811  27.605  1.00  0.00    -0.458 OA
BRANCH  24  25
ATOM     25  C   UNL A   1      33.394  34.169  28.896  1.00  0.00     0.338 C 
ATOM     26  O   UNL A   1      32.687  34.932  29.517  1.00  0.00    -0.246 OA
BRANCH  25  27
ATOM     27  C   UNL A   1      34.603  33.738  29.567  1.00  0.00     0.060 A 
ATOM     28  C   UNL A   1      35.815  34.109  28.975  1.00  0.00     0.016 A 
ATOM     29  C   UNL A   1      34.518  32.713  30.513  1.00  0.00     0.016 A 
ATOM     30  C   UNL A   1      36.972  33.460  29.349  1.00  0.00     0.010 A 
ATOM     31  C   UNL A   1      35.683  32.064  30.898  1.00  0.00     0.010 A 
ATOM     32  C   UNL A   1      36.905  32.468  30.336  1.00  0.00    -0.014 A 
BRANCH  32  33
ATOM     33  C   UNL A   1      38.173  32.180  31.031  1.00  0.00     0.031 A 
ATOM     34  C   UNL A   1      38.794  30.891  30.437  1.00  0.00     0.074 A 
ATOM     35  C   UNL A   1      38.516  32.979  32.086  1.00  0.00     0.049 A 
ATOM     36  N   UNL A   1      39.561  30.004  30.992  1.00  0.00    -0.248 NA
ATOM     37  C   UNL A   1      38.420  30.465  29.052  1.00  0.00     0.031 C 
ATOM     38  C   UNL A   1      37.776  34.187  32.524  1.00  0.00     0.029 A 
ATOM     39  N   UNL A   1      39.536  32.940  33.009  1.00  0.00    -0.354 N 
ATOM     40  C   UNL A   1      39.890  29.047  30.004  1.00  0.00     0.074 A 
ATOM     41  C   UNL A   1      39.060  29.313  28.875  1.00  0.00     0.031 C 
ATOM     42  C   UNL A   1      38.321  34.706  33.650  1.00  0.00     0.029 A 
ATOM     43  C   UNL A   1      39.470  33.913  34.043  1.00  0.00     0.049 A 
ATOM     44  H   UNL A   1      40.265  32.280  32.957  1.00  0.00     0.167 HD
ATOM     45  C   UNL A   1      40.924  28.165  30.117  1.00  0.00     0.031 A 
ATOM     46  C   UNL A   1      40.265  34.034  35.154  1.00  0.00     0.031 A 
ATOM     47  C   UNL A   1      41.540  28.297  31.391  1.00  0.00     0.049 A 
ATOM     48  C   UNL A   1      41.327  33.030  34.981  1.00  0.00     0.074 A 
ATOM     49  C   UNL A   1      41.135  27.936  32.649  1.00  0.00     0.029 A 
ATOM     50  N   UNL A   1      42.542  29.234  31.485  1.00  0.00    -0.354 N 
ATOM     51  N   UNL A   1      42.301  33.113  34.129  1.00  0.00    -0.248 NA
ATOM     52  C   UNL A   1      41.272  31.799  35.783  1.00  0.00     0.031 C 
ATOM     53  C   UNL A   1      41.547  29.026  33.442  1.00  0.00     0.029 A 
ATOM     54  C   UNL A   1      42.364  29.876  32.685  1.00  0.00     0.049 A 
ATOM     55  H   UNL A   1      43.248  29.409  30.822  1.00  0.00     0.167 HD
ATOM     56  C   UNL A   1      42.714  31.810  34.028  1.00  0.00     0.074 A 
ATOM     57  C   UNL A   1      42.310  31.155  35.255  1.00  0.00     0.031 C 
ATOM     58  C   UNL A   1      42.836  31.236  32.804  1.00  0.00     0.031 A 
BRANCH  45  59
ATOM     59  C   UNL A   1      41.616  27.318  29.088  1.00  0.00    -0.014 A 
ATOM     60  C   UNL A   1      40.894  26.212  28.575  1.00  0.00     0.010 A 
ATOM     61  C   UNL A   1      42.997  27.361  28.847  1.00  0.00     0.010 A 
ATOM     62  C   UNL A   1      41.537  25.134  27.966  1.00  0.00     0.020 A 
ATOM     63  C   UNL A   1      43.646  26.297  28.199  1.00  0.00     0.020 A 
ATOM     64  C   UNL A   1      42.918  25.170  27.811  1.00  0.00     0.054 A 
BRANCH  64  65
ATOM     65  S   UNL A   1      43.746  23.689  27.173  1.00  0.00     0.124 S 
ATOM     66  O   UNL A   1      42.692  23.067  26.376  1.00  0.00    -0.237 OA
ATOM     67  O   UNL A   1      44.856  24.254  26.411  1.00  0.00    -0.237 OA
ATOM     68  O   UNL A   1      44.133  22.964  28.381  1.00  0.00    -0.744 OA
ENDBRANCH  64  65
ENDBRANCH  45  59
BRANCH  46  69
ATOM     69  C   UNL A   1      40.300  34.780  36.473  1.00  0.00    -0.014 A 
ATOM     70  C   UNL A   1      40.863  36.038  36.711  1.00  0.00     0.010 A 
ATOM     71  C   UNL A   1      39.570  34.221  37.566  1.00  0.00     0.010 A 
ATOM     72  C   UNL A   1      40.573  36.753  37.905  1.00  0.00     0.020 A 
ATOM     73  C   UNL A   1      39.229  34.933  38.717  1.00  0.00     0.020 A 
ATOM     74  C   UNL A   1      39.709  36.218  38.870  1.00  0.00     0.054 A 
BRANCH  74  75
ATOM     75  S   UNL A   1      39.081  37.231  40.243  1.00  0.00     0.124 S 
ATOM     76  O   UNL A   1      40.301  37.576  40.964  1.00  0.00    -0.237 OA
ATOM     77  O   UNL A   1      38.418  38.335  39.554  1.00  0.00    -0.237 OA
ATOM     78  O   UNL A   1      38.176  36.323  40.948  1.00  0.00    -0.744 OA
ENDBRANCH  74  75
ENDBRANCH  46  69
BRANCH  58  79
ATOM     79  C   UNL A   1      43.064  32.203  31.647  1.00  0.00    -0.014 A 
ATOM     80  C   UNL A   1      44.331  32.786  31.465  1.00  0.00     0.010 A 
ATOM     81  C   UNL A   1      42.036  32.626  30.780  1.00  0.00     0.010 A 
ATOM     82  C   UNL A   1      44.563  33.746  30.468  1.00  0.00     0.020 A 
ATOM     83  C   UNL A   1      42.254  33.590  29.776  1.00  0.00     0.020 A 
ATOM     84  C   UNL A   1      43.525  34.143  29.624  1.00  0.00     0.054 A 
BRANCH  84  85
ATOM     85  S   UNL A   1      43.863  35.386  28.342  1.00  0.00     0.124 S 
ATOM     86  O   UNL A   1      45.282  35.673  28.533  1.00  0.00    -0.237 OA
ATOM     87  O   UNL A   1      43.533  34.668  27.113  1.00  0.00    -0.237 OA
ATOM     88  O   UNL A   1      42.963  36.490  28.675  1.00  0.00    -0.744 OA
ENDBRANCH  84  85
ENDBRANCH  58  79
ENDBRANCH  32  33
ENDBRANCH  25  27
ENDBRANCH  24  25
ENDBRANCH  23  24
ENDBRANCH   1  23
TORSDOF 19
ENDMDL
MODEL 2
REMARK VINA RESULT:     -10.1      5.611     10.980
REMARK SMILES CCC(CC)(NC(=O)c1cc([N+](=O)[O-])c[nH]1)C(=O)OCCOC(=O)c1ccc(-c2c3nc(c(-c4ccc(S(=O)(=O)[O-])cc4)c4ccc([nH]4)c(-c4ccc(S(=O)(=O)[O-])cc4)c4nc(c(-c5ccc(S(=O)(=O)[O-])cc5)c5ccc2[nH]5)C=C4)C=C3)cc1
REMARK SMILES IDX 20 1 19 2 17 3 18 4 3 5 2 6 1 7 4 8 5 9 6 10 7 11 8 13 9 14
REMARK SMILES IDX 10 15 16 16 11 17 15 18 12 20 13 21 14 22 21 23 22 24 23 25
REMARK SMILES IDX 24 26 25 27 26 28 84 29 27 30 83 31 28 32 29 33 30 34 77 35
REMARK SMILES IDX 31 36 82 37 76 38 78 39 32 40 81 41 75 42 74 43 33 45 63 46
REMARK SMILES IDX 44 47 62 48 45 49 48 50 61 51 79 52 46 53 47 54 60 56 80 57
REMARK SMILES IDX 49 58 34 59 35 60 43 61 36 62 42 63 37 64 38 65 39 66 40 67
REMARK SMILES IDX 41 68 64 69 65 70 73 71 66 72 72 73 67 74 68 75 69 76 70 77
REMARK SMILES IDX 71 78 50 79 51 80 59 81 52 82 58 83 53 84 54 85 55 86 56 87
REMARK SMILES IDX 57 88
REMARK H PARENT 6 12 16 19 78 44 48 55
REMARK Flexibility Score: inf
ROOT
ATOM      1  C   UNL A   1      45.962  40.102  29.783  1.00  0.00     0.274 C 
ENDROOT
BRANCH   1   2
ATOM      2  O   UNL A   1      44.549  39.971  29.509  1.00  0.00    -0.460 OA
BRANCH   2   3
ATOM      3  C   UNL A   1      44.175  40.024  28.210  1.00  0.00     0.331 C 
ATOM      4  O   UNL A   1      44.998  40.163  27.304  1.00  0.00    -0.249 OA
BRANCH   3   5
ATOM      5  C   UNL A   1      42.624  39.894  27.934  1.00  0.00     0.137 C 
BRANCH   5   6
ATOM      6  C   UNL A   1      42.183  38.424  28.294  1.00  0.00     0.037 C 
ATOM      7  C   UNL A   1      42.086  37.413  27.145  1.00  0.00     0.007 C 
ENDBRANCH   5   6
BRANCH   5   8
ATOM      8  C   UNL A   1      42.526  40.127  26.386  1.00  0.00     0.037 C 
ATOM      9  C   UNL A   1      42.918  41.518  25.891  1.00  0.00     0.007 C 
ENDBRANCH   5   8
BRANCH   5  10
ATOM     10  N   UNL A   1      41.578  40.859  28.481  1.00  0.00    -0.335 N 
ATOM     11  C   UNL A   1      41.110  41.140  29.737  1.00  0.00     0.268 C 
ATOM     12  H   UNL A   1      41.145  41.398  27.779  1.00  0.00     0.165 HD
ATOM     13  O   UNL A   1      39.912  40.950  29.949  1.00  0.00    -0.268 OA
BRANCH  11  14
ATOM     14  C   UNL A   1      41.936  41.826  30.700  1.00  0.00     0.111 A 
ATOM     15  C   UNL A   1      41.935  41.841  32.085  1.00  0.00     0.119 A 
ATOM     16  N   UNL A   1      42.997  42.618  30.301  1.00  0.00    -0.351 N 
ATOM     17  C   UNL A   1      42.877  42.820  32.509  1.00  0.00     0.287 A 
ATOM     18  C   UNL A   1      43.533  43.271  31.379  1.00  0.00     0.169 A 
ATOM     19  H   UNL A   1      43.320  42.701  29.374  1.00  0.00     0.166 HD
BRANCH  17  20
ATOM     20  N   UNL A   1      43.061  43.327  33.844  1.00  0.00     0.064 N 
ATOM     21  O   UNL A   1      43.592  42.571  34.669  1.00  0.00    -0.258 OA
ATOM     22  O   UNL A   1      42.725  44.500  34.051  1.00  0.00    -0.258 OA
ENDBRANCH  17  20
ENDBRANCH  11  14
ENDBRANCH   5  10
ENDBRANCH   3   5
ENDBRANCH   2   3
ENDBRANCH   1   2
BRANCH   1  23
ATOM     23  C   UNL A   1      46.555  38.863  30.480  1.00  0.00     0.275 C 
BRANCH  23  24
ATOM     24  O   UNL A   1      45.992  37.576  30.167  1.00  0.00    -0.458 OA
BRANCH  24  25
ATOM     25  C   UNL A   1      45.550  36.898  31.242  1.00  0.00     0.338 C 
ATOM     26  O   UNL A   1      45.971  36.952  32.377  1.00  0.00    -0.246 OA
BRANCH  25  27
ATOM     27  C   UNL A   1      44.589  35.850  30.973  1.00  0.00     0.060 A 
ATOM     28  C   UNL A   1      44.460  34.851  31.945  1.00  0.00     0.016 A 
ATOM     29  C   UNL A   1      44.127  35.680  29.665  1.00  0.00     0.016 A 
ATOM     30  C   UNL A   1      43.839  33.667  31.614  1.00  0.00     0.010 A 
ATOM     31  C   UNL A   1      43.493  34.492  29.330  1.00  0.00     0.010 A 
ATOM     32  C   UNL A   1      43.325  33.509  30.319  1.00  0.00    -0.014 A 
BRANCH  32  33
ATOM     33  C   UNL A   1      42.275  32.484  30.177  1.00  0.00     0.031 A 
ATOM     34  C   UNL A   1      42.830  31.302  29.344  1.00  0.00     0.074 A 
ATOM     35  C   UNL A   1      41.034  32.772  30.675  1.00  0.00     0.049 A 
ATOM     36  N   UNL A   1      42.212  30.470  28.564  1.00  0.00    -0.248 NA
ATOM     37  C   UNL A   1      44.308  31.078  29.280  1.00  0.00     0.031 C 
ATOM     38  C   UNL A   1      40.680  33.984  31.451  1.00  0.00     0.029 A 
ATOM     39  N   UNL A   1      39.821  32.122  30.625  1.00  0.00    -0.354 N 
ATOM     40  C   UNL A   1      43.170  29.549  28.078  1.00  0.00     0.074 A 
ATOM     41  C   UNL A   1      44.452  30.049  28.449  1.00  0.00     0.031 C 
ATOM     42  C   UNL A   1      39.354  34.014  31.724  1.00  0.00     0.029 A 
ATOM     43  C   UNL A   1      38.721  32.828  31.180  1.00  0.00     0.049 A 
ATOM     44  H   UNL A   1      39.723  31.225  30.229  1.00  0.00     0.167 HD
ATOM     45  C   UNL A   1      42.849  28.352  27.509  1.00  0.00     0.031 A 
ATOM     46  C   UNL A   1      37.391  32.490  31.159  1.00  0.00     0.031 A 
ATOM     47  C   UNL A   1      41.438  28.225  27.402  1.00  0.00     0.049 A 
ATOM     48  C   UNL A   1      37.344  31.141  30.574  1.00  0.00     0.074 A 
ATOM     49  C   UNL A   1      40.522  28.825  26.579  1.00  0.00     0.029 A 
ATOM     50  N   UNL A   1      40.793  27.693  28.494  1.00  0.00    -0.354 N 
ATOM     51  N   UNL A   1      37.733  30.056  31.168  1.00  0.00    -0.248 NA
ATOM     52  C   UNL A   1      36.879  30.989  29.188  1.00  0.00     0.031 C 
ATOM     53  C   UNL A   1      39.436  29.077  27.442  1.00  0.00     0.029 A 
ATOM     54  C   UNL A   1      39.648  28.431  28.667  1.00  0.00     0.049 A 
ATOM     55  H   UNL A   1      41.093  26.934  29.043  1.00  0.00     0.167 HD
ATOM     56  C   UNL A   1      37.922  29.198  30.115  1.00  0.00     0.074 A 
ATOM     57  C   UNL A   1      37.091  29.685  29.034  1.00  0.00     0.031 C 
ATOM     58  C   UNL A   1      39.097  28.527  29.998  1.00  0.00     0.031 A 
BRANCH  45  59
ATOM     59  C   UNL A   1      43.687  27.136  27.232  1.00  0.00    -0.014 A 
ATOM     60  C   UNL A   1      44.359  27.089  25.986  1.00  0.00     0.010 A 
ATOM     61  C   UNL A   1      43.591  25.944  27.965  1.00  0.00     0.010 A 
ATOM     62  C   UNL A   1      44.800  25.886  25.435  1.00  0.00     0.020 A 
ATOM     63  C   UNL A   1      44.068  24.734  27.433  1.00  0.00     0.020 A 
ATOM     64  C   UNL A   1      44.621  24.707  26.151  1.00  0.00     0.054 A 
BRANCH  64  65
ATOM     65  S   UNL A   1      45.047  23.143  25.342  1.00  0.00     0.124 S 
ATOM     66  O   UNL A   1      45.463  23.586  24.014  1.00  0.00    -0.237 OA
ATOM     67  O   UNL A   1      46.117  22.629  26.194  1.00  0.00    -0.237 OA
ATOM     68  O   UNL A   1      43.801  22.380  25.390  1.00  0.00    -0.744 OA
ENDBRANCH  64  65
ENDBRANCH  45  59
BRANCH  46  69
ATOM     69  C   UNL A   1      36.038  33.110  31.447  1.00  0.00    -0.014 A 
ATOM     70  C   UNL A   1      35.370  33.136  32.677  1.00  0.00     0.010 A 
ATOM     71  C   UNL A   1      35.425  33.868  30.404  1.00  0.00     0.010 A 
ATOM     72  C   UNL A   1      34.258  33.996  32.884  1.00  0.00     0.020 A 
ATOM     73  C   UNL A   1      34.371  34.760  30.607  1.00  0.00     0.020 A 
ATOM     74  C   UNL A   1      33.807  34.845  31.865  1.00  0.00     0.054 A 
BRANCH  74  75
ATOM     75  S   UNL A   1      32.601  36.165  32.196  1.00  0.00     0.124 S 
ATOM     76  O   UNL A   1      33.240  36.914  33.273  1.00  0.00    -0.237 OA
ATOM     77  O   UNL A   1      32.514  36.853  30.911  1.00  0.00    -0.237 OA
ATOM     78  O   UNL A   1      31.393  35.433  32.577  1.00  0.00    -0.744 OA
ENDBRANCH  74  75
ENDBRANCH  46  69
BRANCH  58  79
ATOM     79  C   UNL A   1      39.871  28.329  31.297  1.00  0.00    -0.014 A 
ATOM     80  C   UNL A   1      39.289  27.598  32.349  1.00  0.00     0.010 A 
ATOM     81  C   UNL A   1      41.126  28.920  31.548  1.00  0.00     0.010 A 
ATOM     82  C   UNL A   1      39.927  27.463  33.592  1.00  0.00     0.020 A 
ATOM     83  C   UNL A   1      41.776  28.794  32.790  1.00  0.00     0.020 A 
ATOM     84  C   UNL A   1      41.171  28.059  33.808  1.00  0.00     0.054 A 
BRANCH  84  85
ATOM     85  S   UNL A   1      41.969  27.860  35.429  1.00  0.00     0.124 S 
ATOM     86  O   UNL A   1      41.888  26.420  35.657  1.00  0.00    -0.237 OA
ATOM     87  O   UNL A   1      43.312  28.378  35.183  1.00  0.00    -0.237 OA
ATOM     88  O   UNL A   1      41.147  28.670  36.328  1.00  0.00    -0.744 OA
ENDBRANCH  84  85
ENDBRANCH  58  79
ENDBRANCH  32  33
ENDBRANCH  25  27
ENDBRANCH  24  25
ENDBRANCH  23  24
ENDBRANCH   1  23
TORSDOF 19
ENDMDL
MODEL 3
REMARK VINA RESULT:     -10.0      5.018      8.256
REMARK SMILES CCC(CC)(NC(=O)c1cc([N+](=O)[O-])c[nH]1)C(=O)OCCOC(=O)c1ccc(-c2c3nc(c(-c4ccc(S(=O)(=O)[O-])cc4)c4ccc([nH]4)c(-c4ccc(S(=O)(=O)[O-])cc4)c4nc(c(-c5ccc(S(=O)(=O)[O-])cc5)c5ccc2[nH]5)C=C4)C=C3)cc1
REMARK SMILES IDX 20 1 19 2 17 3 18 4 3 5 2 6 1 7 4 8 5 9 6 10 7 11 8 13 9 14
REMARK SMILES IDX 10 15 16 16 11 17 15 18 12 20 13 21 14 22 21 23 22 24 23 25
REMARK SMILES IDX 24 26 25 27 26 28 84 29 27 30 83 31 28 32 29 33 30 34 77 35
REMARK SMILES IDX 31 36 82 37 76 38 78 39 32 40 81 41 75 42 74 43 33 45 63 46
REMARK SMILES IDX 44 47 62 48 45 49 48 50 61 51 79 52 46 53 47 54 60 56 80 57
REMARK SMILES IDX 49 58 34 59 35 60 43 61 36 62 42 63 37 64 38 65 39 66 40 67
REMARK SMILES IDX 41 68 64 69 65 70 73 71 66 72 72 73 67 74 68 75 69 76 70 77
REMARK SMILES IDX 71 78 50 79 51 80 59 81 52 82 58 83 53 84 54 85 55 86 56 87
REMARK SMILES IDX 57 88
REMARK H PARENT 6 12 16 19 78 44 48 55
REMARK Flexibility Score: inf
ROOT
ATOM      1  C   UNL A   1      39.136  21.195  26.027  1.00  0.00     0.274 C 
ENDROOT
BRANCH   1   2
ATOM      2  O   UNL A   1      37.765  21.636  26.140  1.00  0.00    -0.460 OA
BRANCH   2   3
ATOM      3  C   UNL A   1      36.867  21.041  25.323  1.00  0.00     0.331 C 
ATOM      4  O   UNL A   1      37.103  19.965  24.773  1.00  0.00    -0.249 OA
BRANCH   3   5
ATOM      5  C   UNL A   1      35.501  21.813  25.123  1.00  0.00     0.137 C 
BRANCH   5   6
ATOM      6  C   UNL A   1      35.383  22.217  23.605  1.00  0.00     0.037 C 
ATOM      7  C   UNL A   1      34.534  23.448  23.263  1.00  0.00     0.007 C 
ENDBRANCH   5   6
BRANCH   5   8
ATOM      8  C   UNL A   1      35.692  23.091  26.013  1.00  0.00     0.037 C 
ATOM      9  C   UNL A   1      34.565  23.398  26.997  1.00  0.00     0.007 C 
ENDBRANCH   5   8
BRANCH   5  10
ATOM     10  N   UNL A   1      34.149  21.285  25.590  1.00  0.00    -0.335 N 
ATOM     11  C   UNL A   1      33.222  20.437  25.044  1.00  0.00     0.268 C 
ATOM     12  H   UNL A   1      33.884  21.627  26.474  1.00  0.00     0.165 HD
ATOM     13  O   UNL A   1      32.096  20.889  24.835  1.00  0.00    -0.268 OA
BRANCH  11  14
ATOM     14  C   UNL A   1      33.491  19.025  24.921  1.00  0.00     0.111 A 
ATOM     15  C   UNL A   1      32.710  17.905  25.157  1.00  0.00     0.119 A 
ATOM     16  N   UNL A   1      34.703  18.564  24.444  1.00  0.00    -0.351 N 
ATOM     17  C   UNL A   1      33.543  16.760  25.017  1.00  0.00     0.287 A 
ATOM     18  C   UNL A   1      34.769  17.200  24.555  1.00  0.00     0.169 A 
ATOM     19  H   UNL A   1      35.418  19.135  24.078  1.00  0.00     0.166 HD
BRANCH  17  20
ATOM     20  N   UNL A   1      33.220  15.402  25.372  1.00  0.00     0.064 N 
ATOM     21  O   UNL A   1      34.151  14.586  25.399  1.00  0.00    -0.258 OA
ATOM     22  O   UNL A   1      32.044  15.167  25.678  1.00  0.00    -0.258 OA
ENDBRANCH  17  20
ENDBRANCH  11  14
ENDBRANCH   5  10
ENDBRANCH   3   5
ENDBRANCH   2   3
ENDBRANCH   1   2
BRANCH   1  23
ATOM     23  C   UNL A   1      40.153  22.335  26.226  1.00  0.00     0.275 C 
BRANCH  23  24
ATOM     24  O   UNL A   1      39.885  23.308  27.253  1.00  0.00    -0.458 OA
BRANCH  24  25
ATOM     25  C   UNL A   1      39.528  24.516  26.780  1.00  0.00     0.338 C 
ATOM     26  O   UNL A   1      39.160  24.794  25.659  1.00  0.00    -0.246 OA
BRANCH  25  27
ATOM     27  C   UNL A   1      39.793  25.638  27.655  1.00  0.00     0.060 A 
ATOM     28  C   UNL A   1      39.192  25.605  28.919  1.00  0.00     0.016 A 
ATOM     29  C   UNL A   1      40.300  26.817  27.102  1.00  0.00     0.016 A 
ATOM     30  C   UNL A   1      39.114  26.766  29.656  1.00  0.00     0.010 A 
ATOM     31  C   UNL A   1      40.230  27.987  27.846  1.00  0.00     0.010 A 
ATOM     32  C   UNL A   1      39.668  27.942  29.132  1.00  0.00    -0.014 A 
BRANCH  32  33
ATOM     33  C   UNL A   1      39.997  28.982  30.123  1.00  0.00     0.031 A 
ATOM     34  C   UNL A   1      41.288  28.574  30.877  1.00  0.00     0.074 A 
ATOM     35  C   UNL A   1      39.112  30.012  30.283  1.00  0.00     0.049 A 
ATOM     36  N   UNL A   1      41.671  28.852  32.084  1.00  0.00    -0.248 NA
ATOM     37  C   UNL A   1      42.246  27.623  30.230  1.00  0.00     0.031 C 
ATOM     38  C   UNL A   1      37.899  30.235  29.460  1.00  0.00     0.029 A 
ATOM     39  N   UNL A   1      39.037  31.067  31.164  1.00  0.00    -0.354 N 
ATOM     40  C   UNL A   1      42.951  28.278  32.268  1.00  0.00     0.074 A 
ATOM     41  C   UNL A   1      43.193  27.433  31.146  1.00  0.00     0.031 C 
ATOM     42  C   UNL A   1      37.187  31.290  29.925  1.00  0.00     0.029 A 
ATOM     43  C   UNL A   1      37.867  31.867  31.069  1.00  0.00     0.049 A 
ATOM     44  H   UNL A   1      39.748  31.254  31.819  1.00  0.00     0.167 HD
ATOM     45  C   UNL A   1      43.802  28.631  33.273  1.00  0.00     0.031 A 
ATOM     46  C   UNL A   1      37.465  32.892  31.886  1.00  0.00     0.031 A 
ATOM     47  C   UNL A   1      43.177  29.574  34.134  1.00  0.00     0.049 A 
ATOM     48  C   UNL A   1      38.588  33.112  32.812  1.00  0.00     0.074 A 
ATOM     49  C   UNL A   1      42.181  29.447  35.065  1.00  0.00     0.029 A 
ATOM     50  N   UNL A   1      43.306  30.896  33.779  1.00  0.00    -0.354 N 
ATOM     51  N   UNL A   1      39.723  33.653  32.492  1.00  0.00    -0.248 NA
ATOM     52  C   UNL A   1      38.463  32.640  34.198  1.00  0.00     0.031 C 
ATOM     53  C   UNL A   1      41.409  30.610  34.867  1.00  0.00     0.029 A 
ATOM     54  C   UNL A   1      42.083  31.480  33.999  1.00  0.00     0.049 A 
ATOM     55  H   UNL A   1      44.116  31.337  33.436  1.00  0.00     0.167 HD
ATOM     56  C   UNL A   1      40.545  33.227  33.504  1.00  0.00     0.074 A 
ATOM     57  C   UNL A   1      39.687  32.930  34.632  1.00  0.00     0.031 C 
ATOM     58  C   UNL A   1      41.726  32.630  33.203  1.00  0.00     0.031 A 
BRANCH  45  59
ATOM     59  C   UNL A   1      45.273  28.387  33.451  1.00  0.00    -0.014 A 
ATOM     60  C   UNL A   1      46.143  28.995  32.512  1.00  0.00     0.010 A 
ATOM     61  C   UNL A   1      45.800  27.372  34.263  1.00  0.00     0.010 A 
ATOM     62  C   UNL A   1      47.440  28.525  32.301  1.00  0.00     0.020 A 
ATOM     63  C   UNL A   1      47.118  26.919  34.082  1.00  0.00     0.020 A 
ATOM     64  C   UNL A   1      47.909  27.465  33.068  1.00  0.00     0.054 A 
BRANCH  64  65
ATOM     65  S   UNL A   1      49.529  26.764  32.659  1.00  0.00     0.124 S 
ATOM     66  O   UNL A   1      50.141  26.615  33.977  1.00  0.00    -0.237 OA
ATOM     67  O   UNL A   1      49.172  25.516  31.990  1.00  0.00    -0.237 OA
ATOM     68  O   UNL A   1      50.134  27.775  31.795  1.00  0.00    -0.744 OA
ENDBRANCH  64  65
ENDBRANCH  45  59
BRANCH  46  69
ATOM     69  C   UNL A   1      36.235  33.735  32.162  1.00  0.00    -0.014 A 
ATOM     70  C   UNL A   1      36.003  34.541  33.282  1.00  0.00     0.010 A 
ATOM     71  C   UNL A   1      35.260  33.838  31.124  1.00  0.00     0.010 A 
ATOM     72  C   UNL A   1      34.957  35.503  33.284  1.00  0.00     0.020 A 
ATOM     73  C   UNL A   1      34.265  34.816  31.086  1.00  0.00     0.020 A 
ATOM     74  C   UNL A   1      34.136  35.673  32.161  1.00  0.00     0.054 A 
BRANCH  74  75
ATOM     75  S   UNL A   1      33.005  37.090  32.021  1.00  0.00     0.124 S 
ATOM     76  O   UNL A   1      31.778  36.575  32.618  1.00  0.00    -0.237 OA
ATOM     77  O   UNL A   1      33.694  38.130  32.783  1.00  0.00    -0.237 OA
ATOM     78  O   UNL A   1      32.943  37.333  30.580  1.00  0.00    -0.744 OA
ENDBRANCH  74  75
ENDBRANCH  46  69
BRANCH  58  79
ATOM     79  C   UNL A   1      42.310  32.983  31.839  1.00  0.00    -0.014 A 
ATOM     80  C   UNL A   1      42.287  32.030  30.804  1.00  0.00     0.010 A 
ATOM     81  C   UNL A   1      42.964  34.202  31.569  1.00  0.00     0.010 A 
ATOM     82  C   UNL A   1      42.888  32.279  29.560  1.00  0.00     0.020 A 
ATOM     83  C   UNL A   1      43.573  34.465  30.327  1.00  0.00     0.020 A 
ATOM     84  C   UNL A   1      43.527  33.498  29.324  1.00  0.00     0.054 A 
BRANCH  84  85
ATOM     85  S   UNL A   1      44.291  33.787  27.701  1.00  0.00     0.124 S 
ATOM     86  O   UNL A   1      43.443  34.826  27.123  1.00  0.00    -0.237 OA
ATOM     87  O   UNL A   1      45.641  34.213  28.061  1.00  0.00    -0.237 OA
ATOM     88  O   UNL A   1      44.208  32.487  27.036  1.00  0.00    -0.744 OA
ENDBRANCH  84  85
ENDBRANCH  58  79
ENDBRANCH  32  33
ENDBRANCH  25  27
ENDBRANCH  24  25
ENDBRANCH  23  24
ENDBRANCH   1  23
TORSDOF 19
ENDMDL
