MODEL 1
REMARK VINA RESULT:     -10.7      0.000      0.000
REMARK SMILES C[C@@H](c1ccccc1)[C@@H](CC(=O)Nc1ccccc1I)C(=O)OCCOC(=O)c1ccc(-c2c3nc(c(-c4ccc(S(=O)(=O)[O-])cc4)c4ccc([nH]4)c(-c4ccc(S(=O)(=O)[O-])cc4)c4nc(c(-c5ccc(S(=O)(=O)[O-])cc5)c5ccc2[nH]5)C=C4)C=C3)cc1
REMARK SMILES IDX 24 1 23 2 21 3 22 4 9 5 2 6 1 7 3 8 4 9 8 10 5 11 7 12 6 13
REMARK SMILES IDX 10 14 11 15 12 16 13 17 14 19 15 20 19 21 16 22 18 23 20 24
REMARK SMILES IDX 17 25 25 26 26 27 27 28 28 29 29 30 30 31 88 32 31 33 87 34
REMARK SMILES IDX 32 35 33 36 34 37 81 38 35 39 86 40 80 41 82 42 36 43 85 44
REMARK SMILES IDX 79 45 78 46 37 48 67 49 48 50 66 51 49 52 52 53 65 54 83 55
REMARK SMILES IDX 50 56 51 57 64 59 84 60 53 61 38 62 39 63 47 64 40 65 46 66
REMARK SMILES IDX 41 67 42 68 43 69 44 70 45 71 68 72 69 73 77 74 70 75 76 76
REMARK SMILES IDX 71 77 72 78 73 79 74 80 75 81 54 82 55 83 63 84 56 85 62 86
REMARK SMILES IDX 57 87 58 88 59 89 60 90 61 91
REMARK H PARENT 13 18 82 47 52 58
REMARK Flexibility Score: inf
ROOT
ATOM      1  C   UNL A   1      32.360  29.694  25.525  1.00  0.00     0.274 C 
ENDROOT
BRANCH   1   2
ATOM      2  O   UNL A   1      31.359  28.825  24.944  1.00  0.00    -0.462 OA
BRANCH   2   3
ATOM      3  C   UNL A   1      31.790  28.099  23.880  1.00  0.00     0.310 C 
ATOM      4  O   UNL A   1      31.765  28.482  22.714  1.00  0.00    -0.252 OA
BRANCH   3   5
ATOM      5  C   UNL A   1      32.197  26.680  24.229  1.00  0.00     0.116 C 
BRANCH   5   6
ATOM      6  C   UNL A   1      31.694  26.055  25.558  1.00  0.00     0.031 C 
ATOM      7  C   UNL A   1      30.150  25.940  25.515  1.00  0.00     0.013 C 
BRANCH   6   8
ATOM      8  C   UNL A   1      32.276  24.746  26.096  1.00  0.00    -0.044 A 
ATOM      9  C   UNL A   1      33.668  24.621  26.245  1.00  0.00     0.004 A 
ATOM     10  C   UNL A   1      31.472  23.741  26.662  1.00  0.00     0.004 A 
ATOM     11  C   UNL A   1      34.230  23.567  26.973  1.00  0.00     0.000 A 
ATOM     12  C   UNL A   1      32.033  22.705  27.414  1.00  0.00     0.000 A 
ATOM     13  C   UNL A   1      33.410  22.619  27.575  1.00  0.00     0.000 A 
ENDBRANCH   6   8
ENDBRANCH   5   6
BRANCH   5  14
ATOM     14  C   UNL A   1      31.946  25.790  22.976  1.00  0.00     0.116 C 
BRANCH  14  15
ATOM     15  C   UNL A   1      33.173  25.383  22.164  1.00  0.00     0.225 C 
ATOM     16  O   UNL A   1      33.640  26.166  21.329  1.00  0.00    -0.275 OA
ATOM     17  N   UNL A   1      33.752  24.150  22.249  1.00  0.00    -0.325 N 
ATOM     18  H   UNL A   1      34.531  24.022  21.663  1.00  0.00     0.169 HD
BRANCH  17  19
ATOM     19  C   UNL A   1      33.419  23.036  23.033  1.00  0.00     0.054 A 
ATOM     20  C   UNL A   1      32.101  22.583  23.137  1.00  0.00     0.027 A 
ATOM     21  C   UNL A   1      34.440  22.334  23.700  1.00  0.00     0.037 A 
ATOM     22  C   UNL A   1      31.821  21.385  23.806  1.00  0.00     0.002 A 
ATOM     23  C   UNL A   1      34.166  21.108  24.311  1.00  0.00     0.017 A 
ATOM     24  I   UNL A   1      36.440  22.982  23.672  1.00  0.00    -0.042 I 
ATOM     25  C   UNL A   1      32.858  20.629  24.351  1.00  0.00     0.001 A 
ENDBRANCH  17  19
ENDBRANCH  14  15
ENDBRANCH   5  14
ENDBRANCH   3   5
ENDBRANCH   2   3
ENDBRANCH   1   2
BRANCH   1  26
ATOM     26  C   UNL A   1      32.348  29.588  27.049  1.00  0.00     0.275 C 
BRANCH  26  27
ATOM     27  O   UNL A   1      33.685  29.354  27.506  1.00  0.00    -0.458 OA
BRANCH  27  28
ATOM     28  C   UNL A   1      34.336  30.429  27.999  1.00  0.00     0.338 C 
ATOM     29  O   UNL A   1      33.846  31.534  28.204  1.00  0.00    -0.246 OA
BRANCH  28  30
ATOM     30  C   UNL A   1      35.751  30.078  28.278  1.00  0.00     0.060 A 
ATOM     31  C   UNL A   1      36.723  30.084  27.271  1.00  0.00     0.016 A 
ATOM     32  C   UNL A   1      36.107  29.678  29.568  1.00  0.00     0.016 A 
ATOM     33  C   UNL A   1      38.026  29.661  27.534  1.00  0.00     0.010 A 
ATOM     34  C   UNL A   1      37.431  29.331  29.849  1.00  0.00     0.010 A 
ATOM     35  C   UNL A   1      38.404  29.312  28.836  1.00  0.00    -0.014 A 
BRANCH  35  36
ATOM     36  C   UNL A   1      39.814  28.975  29.168  1.00  0.00     0.031 A 
ATOM     37  C   UNL A   1      40.747  30.030  29.697  1.00  0.00     0.074 A 
ATOM     38  C   UNL A   1      40.277  27.734  28.914  1.00  0.00     0.049 A 
ATOM     39  N   UNL A   1      42.048  29.991  29.838  1.00  0.00    -0.248 NA
ATOM     40  C   UNL A   1      40.140  31.301  30.119  1.00  0.00     0.031 C 
ATOM     41  C   UNL A   1      39.474  26.607  28.432  1.00  0.00     0.029 A 
ATOM     42  N   UNL A   1      41.548  27.221  28.999  1.00  0.00    -0.354 N 
ATOM     43  C   UNL A   1      42.418  31.240  30.325  1.00  0.00     0.074 A 
ATOM     44  C   UNL A   1      41.202  32.015  30.461  1.00  0.00     0.031 C 
ATOM     45  C   UNL A   1      40.268  25.541  28.259  1.00  0.00     0.029 A 
ATOM     46  C   UNL A   1      41.645  25.928  28.537  1.00  0.00     0.049 A 
ATOM     47  H   UNL A   1      42.313  27.728  29.355  1.00  0.00     0.167 HD
ATOM     48  C   UNL A   1      43.657  31.703  30.615  1.00  0.00     0.031 A 
ATOM     49  C   UNL A   1      42.722  25.157  28.301  1.00  0.00     0.031 A 
ATOM     50  C   UNL A   1      44.862  30.931  30.457  1.00  0.00     0.049 A 
ATOM     51  C   UNL A   1      44.092  25.714  28.562  1.00  0.00     0.074 A 
ATOM     52  C   UNL A   1      46.167  31.306  30.728  1.00  0.00     0.029 A 
ATOM     53  N   UNL A   1      44.912  29.631  29.978  1.00  0.00    -0.354 N 
ATOM     54  N   UNL A   1      44.425  26.899  29.012  1.00  0.00    -0.248 NA
ATOM     55  C   UNL A   1      45.230  24.831  28.276  1.00  0.00     0.031 C 
ATOM     56  C   UNL A   1      47.009  30.249  30.366  1.00  0.00     0.029 A 
ATOM     57  C   UNL A   1      46.225  29.196  29.924  1.00  0.00     0.049 A 
ATOM     58  H   UNL A   1      44.128  29.096  29.716  1.00  0.00     0.167 HD
ATOM     59  C   UNL A   1      45.813  26.898  29.083  1.00  0.00     0.074 A 
ATOM     60  C   UNL A   1      46.254  25.590  28.642  1.00  0.00     0.031 C 
ATOM     61  C   UNL A   1      46.646  27.891  29.481  1.00  0.00     0.031 A 
BRANCH  48  62
ATOM     62  C   UNL A   1      43.777  33.130  31.083  1.00  0.00    -0.014 A 
ATOM     63  C   UNL A   1      44.055  33.440  32.426  1.00  0.00     0.010 A 
ATOM     64  C   UNL A   1      43.646  34.179  30.153  1.00  0.00     0.010 A 
ATOM     65  C   UNL A   1      44.161  34.772  32.838  1.00  0.00     0.020 A 
ATOM     66  C   UNL A   1      43.775  35.511  30.556  1.00  0.00     0.020 A 
ATOM     67  C   UNL A   1      44.014  35.799  31.902  1.00  0.00     0.054 A 
BRANCH  67  68
ATOM     68  S   UNL A   1      44.167  37.519  32.460  1.00  0.00     0.124 S 
ATOM     69  O   UNL A   1      43.090  37.612  33.444  1.00  0.00    -0.237 OA
ATOM     70  O   UNL A   1      45.520  37.560  33.008  1.00  0.00    -0.237 OA
ATOM     71  O   UNL A   1      43.967  38.300  31.242  1.00  0.00    -0.744 OA
ENDBRANCH  67  68
ENDBRANCH  48  62
BRANCH  49  72
ATOM     72  C   UNL A   1      42.540  23.789  27.746  1.00  0.00    -0.014 A 
ATOM     73  C   UNL A   1      42.630  23.563  26.362  1.00  0.00     0.010 A 
ATOM     74  C   UNL A   1      42.313  22.696  28.605  1.00  0.00     0.010 A 
ATOM     75  C   UNL A   1      42.491  22.272  25.846  1.00  0.00     0.020 A 
ATOM     76  C   UNL A   1      42.201  21.400  28.095  1.00  0.00     0.020 A 
ATOM     77  C   UNL A   1      42.281  21.198  26.716  1.00  0.00     0.054 A 
BRANCH  77  78
ATOM     78  S   UNL A   1      42.170  19.522  26.028  1.00  0.00     0.124 S 
ATOM     79  O   UNL A   1      43.081  19.603  24.890  1.00  0.00    -0.237 OA
ATOM     80  O   UNL A   1      42.621  18.692  27.142  1.00  0.00    -0.237 OA
ATOM     81  O   UNL A   1      40.756  19.385  25.690  1.00  0.00    -0.744 OA
ENDBRANCH  77  78
ENDBRANCH  49  72
BRANCH  61  82
ATOM     82  C   UNL A   1      48.119  27.586  29.498  1.00  0.00    -0.014 A 
ATOM     83  C   UNL A   1      48.922  27.796  28.363  1.00  0.00     0.010 A 
ATOM     84  C   UNL A   1      48.714  27.124  30.686  1.00  0.00     0.010 A 
ATOM     85  C   UNL A   1      50.291  27.520  28.408  1.00  0.00     0.020 A 
ATOM     86  C   UNL A   1      50.085  26.870  30.743  1.00  0.00     0.020 A 
ATOM     87  C   UNL A   1      50.864  27.057  29.598  1.00  0.00     0.054 A 
BRANCH  87  88
ATOM     88  S   UNL A   1      52.650  26.747  29.647  1.00  0.00     0.124 S 
ATOM     89  O   UNL A   1      52.890  26.152  28.335  1.00  0.00    -0.237 OA
ATOM     90  O   UNL A   1      53.204  28.085  29.842  1.00  0.00    -0.237 OA
ATOM     91  O   UNL A   1      52.813  25.841  30.782  1.00  0.00    -0.744 OA
ENDBRANCH  87  88
ENDBRANCH  61  82
ENDBRANCH  35  36
ENDBRANCH  28  30
ENDBRANCH  27  28
ENDBRANCH  26  27
ENDBRANCH   1  26
TORSDOF 19
ENDMDL
MODEL 2
REMARK VINA RESULT:     -10.5      1.434      2.776
REMARK SMILES C[C@@H](c1ccccc1)[C@@H](CC(=O)Nc1ccccc1I)C(=O)OCCOC(=O)c1ccc(-c2c3nc(c(-c4ccc(S(=O)(=O)[O-])cc4)c4ccc([nH]4)c(-c4ccc(S(=O)(=O)[O-])cc4)c4nc(c(-c5ccc(S(=O)(=O)[O-])cc5)c5ccc2[nH]5)C=C4)C=C3)cc1
REMARK SMILES IDX 24 1 23 2 21 3 22 4 9 5 2 6 1 7 3 8 4 9 8 10 5 11 7 12 6 13
REMARK SMILES IDX 10 14 11 15 12 16 13 17 14 19 15 20 19 21 16 22 18 23 20 24
REMARK SMILES IDX 17 25 25 26 26 27 27 28 28 29 29 30 30 31 88 32 31 33 87 34
REMARK SMILES IDX 32 35 33 36 34 37 81 38 35 39 86 40 80 41 82 42 36 43 85 44
REMARK SMILES IDX 79 45 78 46 37 48 67 49 48 50 66 51 49 52 52 53 65 54 83 55
REMARK SMILES IDX 50 56 51 57 64 59 84 60 53 61 38 62 39 63 47 64 40 65 46 66
REMARK SMILES IDX 41 67 42 68 43 69 44 70 45 71 68 72 69 73 77 74 70 75 76 76
REMARK SMILES IDX 71 77 72 78 73 79 74 80 75 81 54 82 55 83 63 84 56 85 62 86
REMARK SMILES IDX 57 87 58 88 59 89 60 90 61 91
REMARK H PARENT 13 18 82 47 52 58
REMARK Flexibility Score: inf
ROOT
ATOM      1  C   UNL A   1      31.759  28.573  27.051  1.00  0.00     0.274 C 
ENDROOT
BRANCH   1   2
ATOM      2  O   UNL A   1      32.119  27.309  26.445  1.00  0.00    -0.462 OA
BRANCH   2   3
ATOM      3  C   UNL A   1      31.069  26.587  25.976  1.00  0.00     0.310 C 
ATOM      4  O   UNL A   1      30.151  26.157  26.668  1.00  0.00    -0.252 OA
BRANCH   3   5
ATOM      5  C   UNL A   1      31.181  26.221  24.508  1.00  0.00     0.116 C 
BRANCH   5   6
ATOM      6  C   UNL A   1      31.192  27.354  23.447  1.00  0.00     0.031 C 
ATOM      7  C   UNL A   1      31.713  26.787  22.102  1.00  0.00     0.013 C 
BRANCH   6   8
ATOM      8  C   UNL A   1      29.951  28.208  23.179  1.00  0.00    -0.044 A 
ATOM      9  C   UNL A   1      28.677  27.619  23.261  1.00  0.00     0.004 A 
ATOM     10  C   UNL A   1      30.009  29.609  23.075  1.00  0.00     0.004 A 
ATOM     11  C   UNL A   1      27.516  28.398  23.292  1.00  0.00     0.000 A 
ATOM     12  C   UNL A   1      28.849  30.387  23.137  1.00  0.00     0.000 A 
ATOM     13  C   UNL A   1      27.604  29.785  23.250  1.00  0.00     0.000 A 
ENDBRANCH   6   8
ENDBRANCH   5   6
BRANCH   5  14
ATOM     14  C   UNL A   1      32.348  25.201  24.359  1.00  0.00     0.116 C 
BRANCH  14  15
ATOM     15  C   UNL A   1      31.963  23.727  24.251  1.00  0.00     0.225 C 
ATOM     16  O   UNL A   1      30.770  23.409  24.211  1.00  0.00    -0.275 OA
ATOM     17  N   UNL A   1      32.875  22.712  24.277  1.00  0.00    -0.325 N 
ATOM     18  H   UNL A   1      32.487  21.811  24.207  1.00  0.00     0.169 HD
BRANCH  17  19
ATOM     19  C   UNL A   1      34.273  22.741  24.386  1.00  0.00     0.054 A 
ATOM     20  C   UNL A   1      35.090  22.920  23.268  1.00  0.00     0.027 A 
ATOM     21  C   UNL A   1      34.865  22.623  25.657  1.00  0.00     0.037 A 
ATOM     22  C   UNL A   1      36.471  23.091  23.427  1.00  0.00     0.002 A 
ATOM     23  C   UNL A   1      36.234  22.858  25.818  1.00  0.00     0.017 A 
ATOM     24  I   UNL A   1      33.729  22.269  27.389  1.00  0.00    -0.042 I 
ATOM     25  C   UNL A   1      37.033  23.104  24.703  1.00  0.00     0.001 A 
ENDBRANCH  17  19
ENDBRANCH  14  15
ENDBRANCH   5  14
ENDBRANCH   3   5
ENDBRANCH   2   3
ENDBRANCH   1   2
BRANCH   1  26
ATOM     26  C   UNL A   1      32.628  29.703  26.500  1.00  0.00     0.275 C 
BRANCH  26  27
ATOM     27  O   UNL A   1      33.984  29.481  26.907  1.00  0.00    -0.458 OA
BRANCH  27  28
ATOM     28  C   UNL A   1      34.474  30.343  27.823  1.00  0.00     0.338 C 
ATOM     29  O   UNL A   1      33.853  31.260  28.350  1.00  0.00    -0.246 OA
BRANCH  28  30
ATOM     30  C   UNL A   1      35.889  30.013  28.120  1.00  0.00     0.060 A 
ATOM     31  C   UNL A   1      36.882  30.075  27.135  1.00  0.00     0.016 A 
ATOM     32  C   UNL A   1      36.228  29.577  29.402  1.00  0.00     0.016 A 
ATOM     33  C   UNL A   1      38.188  29.671  27.411  1.00  0.00     0.010 A 
ATOM     34  C   UNL A   1      37.553  29.248  29.700  1.00  0.00     0.010 A 
ATOM     35  C   UNL A   1      38.547  29.285  28.708  1.00  0.00    -0.014 A 
BRANCH  35  36
ATOM     36  C   UNL A   1      39.957  28.968  29.058  1.00  0.00     0.031 A 
ATOM     37  C   UNL A   1      40.874  30.038  29.585  1.00  0.00     0.074 A 
ATOM     38  C   UNL A   1      40.435  27.728  28.825  1.00  0.00     0.049 A 
ATOM     39  N   UNL A   1      42.173  30.014  29.739  1.00  0.00    -0.248 NA
ATOM     40  C   UNL A   1      40.248  31.307  29.985  1.00  0.00     0.031 C 
ATOM     41  C   UNL A   1      39.650  26.587  28.348  1.00  0.00     0.029 A 
ATOM     42  N   UNL A   1      41.711  27.229  28.929  1.00  0.00    -0.354 N 
ATOM     43  C   UNL A   1      42.524  31.273  30.215  1.00  0.00     0.074 A 
ATOM     44  C   UNL A   1      41.300  32.037  30.330  1.00  0.00     0.031 C 
ATOM     45  C   UNL A   1      40.457  25.528  28.196  1.00  0.00     0.029 A 
ATOM     46  C   UNL A   1      41.826  25.933  28.483  1.00  0.00     0.049 A 
ATOM     47  H   UNL A   1      42.467  27.749  29.286  1.00  0.00     0.167 HD
ATOM     48  C   UNL A   1      43.756  31.753  30.512  1.00  0.00     0.031 A 
ATOM     49  C   UNL A   1      42.914  25.170  28.268  1.00  0.00     0.031 A 
ATOM     50  C   UNL A   1      44.971  30.992  30.376  1.00  0.00     0.049 A 
ATOM     51  C   UNL A   1      44.275  25.745  28.535  1.00  0.00     0.074 A 
ATOM     52  C   UNL A   1      46.269  31.384  30.656  1.00  0.00     0.029 A 
ATOM     53  N   UNL A   1      45.039  29.687  29.914  1.00  0.00    -0.354 N 
ATOM     54  N   UNL A   1      44.591  26.939  28.975  1.00  0.00    -0.248 NA
ATOM     55  C   UNL A   1      45.425  24.871  28.272  1.00  0.00     0.031 C 
ATOM     56  C   UNL A   1      47.125  30.332  30.315  1.00  0.00     0.029 A 
ATOM     57  C   UNL A   1      46.357  29.265  29.878  1.00  0.00     0.049 A 
ATOM     58  H   UNL A   1      44.264  29.141  29.649  1.00  0.00     0.167 HD
ATOM     59  C   UNL A   1      45.978  26.953  29.061  1.00  0.00     0.074 A 
ATOM     60  C   UNL A   1      46.437  25.645  28.639  1.00  0.00     0.031 C 
ATOM     61  C   UNL A   1      46.796  27.960  29.455  1.00  0.00     0.031 A 
BRANCH  48  62
ATOM     62  C   UNL A   1      43.856  33.187  30.965  1.00  0.00    -0.014 A 
ATOM     63  C   UNL A   1      43.825  33.529  32.329  1.00  0.00     0.010 A 
ATOM     64  C   UNL A   1      44.022  34.206  30.009  1.00  0.00     0.010 A 
ATOM     65  C   UNL A   1      43.918  34.867  32.725  1.00  0.00     0.020 A 
ATOM     66  C   UNL A   1      44.140  35.542  30.402  1.00  0.00     0.020 A 
ATOM     67  C   UNL A   1      44.069  35.865  31.759  1.00  0.00     0.054 A 
BRANCH  67  68
ATOM     68  S   UNL A   1      44.199  37.593  32.300  1.00  0.00     0.124 S 
ATOM     69  O   UNL A   1      43.794  38.315  31.097  1.00  0.00    -0.237 OA
ATOM     70  O   UNL A   1      43.255  37.652  33.413  1.00  0.00    -0.237 OA
ATOM     71  O   UNL A   1      45.605  37.736  32.670  1.00  0.00    -0.744 OA
ENDBRANCH  67  68
ENDBRANCH  48  62
BRANCH  49  72
ATOM     72  C   UNL A   1      42.752  23.794  27.727  1.00  0.00    -0.014 A 
ATOM     73  C   UNL A   1      42.507  22.713  28.591  1.00  0.00     0.010 A 
ATOM     74  C   UNL A   1      42.803  23.564  26.338  1.00  0.00     0.010 A 
ATOM     75  C   UNL A   1      42.323  21.426  28.078  1.00  0.00     0.020 A 
ATOM     76  C   UNL A   1      42.591  22.284  25.820  1.00  0.00     0.020 A 
ATOM     77  C   UNL A   1      42.362  21.220  26.695  1.00  0.00     0.054 A 
BRANCH  77  78
ATOM     78  S   UNL A   1      42.053  19.553  26.049  1.00  0.00     0.124 S 
ATOM     79  O   UNL A   1      42.967  19.495  24.913  1.00  0.00    -0.237 OA
ATOM     80  O   UNL A   1      42.400  18.704  27.185  1.00  0.00    -0.237 OA
ATOM     81  O   UNL A   1      40.632  19.576  25.710  1.00  0.00    -0.744 OA
ENDBRANCH  77  78
ENDBRANCH  49  72
BRANCH  61  82
ATOM     82  C   UNL A   1      48.272  27.671  29.491  1.00  0.00    -0.014 A 
ATOM     83  C   UNL A   1      48.878  27.105  30.628  1.00  0.00     0.010 A 
ATOM     84  C   UNL A   1      49.055  27.930  28.351  1.00  0.00     0.010 A 
ATOM     85  C   UNL A   1      50.248  26.831  30.633  1.00  0.00     0.020 A 
ATOM     86  C   UNL A   1      50.419  27.634  28.344  1.00  0.00     0.020 A 
ATOM     87  C   UNL A   1      51.011  27.099  29.490  1.00  0.00     0.054 A 
BRANCH  87  88
ATOM     88  S   UNL A   1      52.778  26.695  29.503  1.00  0.00     0.124 S 
ATOM     89  O   UNL A   1      52.908  25.946  30.750  1.00  0.00    -0.237 OA
ATOM     90  O   UNL A   1      52.939  25.912  28.280  1.00  0.00    -0.237 OA
ATOM     91  O   UNL A   1      53.432  28.002  29.489  1.00  0.00    -0.744 OA
ENDBRANCH  87  88
ENDBRANCH  61  82
ENDBRANCH  35  36
ENDBRANCH  28  30
ENDBRANCH  27  28
ENDBRANCH  26  27
ENDBRANCH   1  26
TORSDOF 19
ENDMDL
MODEL 3
REMARK VINA RESULT:     -10.3      3.303      8.104
REMARK SMILES C[C@@H](c1ccccc1)[C@@H](CC(=O)Nc1ccccc1I)C(=O)OCCOC(=O)c1ccc(-c2c3nc(c(-c4ccc(S(=O)(=O)[O-])cc4)c4ccc([nH]4)c(-c4ccc(S(=O)(=O)[O-])cc4)c4nc(c(-c5ccc(S(=O)(=O)[O-])cc5)c5ccc2[nH]5)C=C4)C=C3)cc1
REMARK SMILES IDX 24 1 23 2 21 3 22 4 9 5 2 6 1 7 3 8 4 9 8 10 5 11 7 12 6 13
REMARK SMILES IDX 10 14 11 15 12 16 13 17 14 19 15 20 19 21 16 22 18 23 20 24
REMARK SMILES IDX 17 25 25 26 26 27 27 28 28 29 29 30 30 31 88 32 31 33 87 34
REMARK SMILES IDX 32 35 33 36 34 37 81 38 35 39 86 40 80 41 82 42 36 43 85 44
REMARK SMILES IDX 79 45 78 46 37 48 67 49 48 50 66 51 49 52 52 53 65 54 83 55
REMARK SMILES IDX 50 56 51 57 64 59 84 60 53 61 38 62 39 63 47 64 40 65 46 66
REMARK SMILES IDX 41 67 42 68 43 69 44 70 45 71 68 72 69 73 77 74 70 75 76 76
REMARK SMILES IDX 71 77 72 78 73 79 74 80 75 81 54 82 55 83 63 84 56 85 62 86
REMARK SMILES IDX 57 87 58 88 59 89 60 90 61 91
REMARK H PARENT 13 18 82 47 52 58
REMARK Flexibility Score: inf
ROOT
ATOM      1  C   UNL A   1      39.339  21.395  26.181  1.00  0.00     0.274 C 
ENDROOT
BRANCH   1   2
ATOM      2  O   UNL A   1      38.168  21.827  25.448  1.00  0.00    -0.462 OA
BRANCH   2   3
ATOM      3  C   UNL A   1      37.600  22.970  25.913  1.00  0.00     0.310 C 
ATOM      4  O   UNL A   1      38.184  23.824  26.574  1.00  0.00    -0.252 OA
BRANCH   3   5
ATOM      5  C   UNL A   1      36.107  23.060  25.663  1.00  0.00     0.116 C 
BRANCH   5   6
ATOM      6  C   UNL A   1      35.579  24.051  24.591  1.00  0.00     0.031 C 
ATOM      7  C   UNL A   1      35.325  23.285  23.269  1.00  0.00     0.013 C 
BRANCH   6   8
ATOM      8  C   UNL A   1      34.387  24.969  24.871  1.00  0.00    -0.044 A 
ATOM      9  C   UNL A   1      33.854  25.745  23.826  1.00  0.00     0.004 A 
ATOM     10  C   UNL A   1      33.652  24.906  26.068  1.00  0.00     0.004 A 
ATOM     11  C   UNL A   1      32.618  26.385  23.954  1.00  0.00     0.000 A 
ATOM     12  C   UNL A   1      32.402  25.522  26.183  1.00  0.00     0.000 A 
ATOM     13  C   UNL A   1      31.882  26.258  25.126  1.00  0.00     0.000 A 
ENDBRANCH   6   8
ENDBRANCH   5   6
BRANCH   5  14
ATOM     14  C   UNL A   1      35.561  21.610  25.508  1.00  0.00     0.116 C 
BRANCH  14  15
ATOM     15  C   UNL A   1      34.414  21.205  26.430  1.00  0.00     0.225 C 
ATOM     16  O   UNL A   1      34.371  21.647  27.583  1.00  0.00    -0.275 OA
ATOM     17  N   UNL A   1      33.453  20.302  26.076  1.00  0.00    -0.325 N 
ATOM     18  H   UNL A   1      32.778  20.129  26.770  1.00  0.00     0.169 HD
BRANCH  17  19
ATOM     19  C   UNL A   1      33.269  19.580  24.888  1.00  0.00     0.054 A 
ATOM     20  C   UNL A   1      33.774  18.286  24.733  1.00  0.00     0.027 A 
ATOM     21  C   UNL A   1      32.528  20.157  23.840  1.00  0.00     0.037 A 
ATOM     22  C   UNL A   1      33.450  17.538  23.595  1.00  0.00     0.002 A 
ATOM     23  C   UNL A   1      32.154  19.386  22.737  1.00  0.00     0.017 A 
ATOM     24  I   UNL A   1      31.798  22.126  23.944  1.00  0.00    -0.042 I 
ATOM     25  C   UNL A   1      32.605  18.072  22.622  1.00  0.00     0.001 A 
ENDBRANCH  17  19
ENDBRANCH  14  15
ENDBRANCH   5  14
ENDBRANCH   3   5
ENDBRANCH   2   3
ENDBRANCH   1   2
BRANCH   1  26
ATOM     26  C   UNL A   1      39.745  19.983  25.765  1.00  0.00     0.275 C 
BRANCH  26  27
ATOM     27  O   UNL A   1      40.924  19.610  26.487  1.00  0.00    -0.458 OA
BRANCH  27  28
ATOM     28  C   UNL A   1      42.096  19.801  25.844  1.00  0.00     0.338 C 
ATOM     29  O   UNL A   1      42.625  19.012  25.068  1.00  0.00    -0.246 OA
BRANCH  28  30
ATOM     30  C   UNL A   1      42.657  21.127  26.200  1.00  0.00     0.060 A 
ATOM     31  C   UNL A   1      43.015  22.062  25.221  1.00  0.00     0.016 A 
ATOM     32  C   UNL A   1      42.883  21.428  27.545  1.00  0.00     0.016 A 
ATOM     33  C   UNL A   1      43.627  23.265  25.573  1.00  0.00     0.010 A 
ATOM     34  C   UNL A   1      43.422  22.667  27.902  1.00  0.00     0.010 A 
ATOM     35  C   UNL A   1      43.806  23.597  26.921  1.00  0.00    -0.014 A 
BRANCH  35  36
ATOM     36  C   UNL A   1      44.343  24.923  27.327  1.00  0.00     0.031 A 
ATOM     37  C   UNL A   1      43.416  26.013  27.793  1.00  0.00     0.074 A 
ATOM     38  C   UNL A   1      45.662  25.172  27.197  1.00  0.00     0.049 A 
ATOM     39  N   UNL A   1      43.660  27.285  27.979  1.00  0.00    -0.248 NA
ATOM     40  C   UNL A   1      42.028  25.623  28.082  1.00  0.00     0.031 C 
ATOM     41  C   UNL A   1      46.678  24.198  26.789  1.00  0.00     0.029 A 
ATOM     42  N   UNL A   1      46.372  26.336  27.368  1.00  0.00    -0.354 N 
ATOM     43  C   UNL A   1      42.451  27.853  28.367  1.00  0.00     0.074 A 
ATOM     44  C   UNL A   1      41.474  26.785  28.396  1.00  0.00     0.031 C 
ATOM     45  C   UNL A   1      47.873  24.802  26.735  1.00  0.00     0.029 A 
ATOM     46  C   UNL A   1      47.698  26.220  27.023  1.00  0.00     0.049 A 
ATOM     47  H   UNL A   1      45.970  27.170  27.703  1.00  0.00     0.167 HD
ATOM     48  C   UNL A   1      42.178  29.148  28.656  1.00  0.00     0.031 A 
ATOM     49  C   UNL A   1      48.658  27.154  26.890  1.00  0.00     0.031 A 
ATOM     50  C   UNL A   1      43.152  30.207  28.605  1.00  0.00     0.049 A 
ATOM     51  C   UNL A   1      48.317  28.594  27.146  1.00  0.00     0.074 A 
ATOM     52  C   UNL A   1      42.978  31.552  28.885  1.00  0.00     0.029 A 
ATOM     53  N   UNL A   1      44.481  30.043  28.243  1.00  0.00    -0.354 N 
ATOM     54  N   UNL A   1      47.169  29.116  27.502  1.00  0.00    -0.248 NA
ATOM     55  C   UNL A   1      49.400  29.570  26.975  1.00  0.00     0.031 C 
ATOM     56  C   UNL A   1      44.190  32.208  28.643  1.00  0.00     0.029 A 
ATOM     57  C   UNL A   1      45.133  31.264  28.270  1.00  0.00     0.049 A 
ATOM     58  H   UNL A   1      44.898  29.185  28.002  1.00  0.00     0.167 HD
ATOM     59  C   UNL A   1      47.396  30.482  27.618  1.00  0.00     0.074 A 
ATOM     60  C   UNL A   1      48.794  30.702  27.307  1.00  0.00     0.031 C 
ATOM     61  C   UNL A   1      46.525  31.465  27.955  1.00  0.00     0.031 A 
BRANCH  48  62
ATOM     62  C   UNL A   1      40.755  29.501  29.002  1.00  0.00    -0.014 A 
ATOM     63  C   UNL A   1      40.376  29.811  30.321  1.00  0.00     0.010 A 
ATOM     64  C   UNL A   1      39.786  29.559  27.982  1.00  0.00     0.010 A 
ATOM     65  C   UNL A   1      39.049  30.134  30.619  1.00  0.00     0.020 A 
ATOM     66  C   UNL A   1      38.464  29.905  28.272  1.00  0.00     0.020 A 
ATOM     67  C   UNL A   1      38.099  30.173  29.593  1.00  0.00     0.054 A 
BRANCH  67  68
ATOM     68  S   UNL A   1      36.386  30.606  30.005  1.00  0.00     0.124 S 
ATOM     69  O   UNL A   1      36.079  29.644  31.061  1.00  0.00    -0.237 OA
ATOM     70  O   UNL A   1      36.502  31.996  30.439  1.00  0.00    -0.237 OA
ATOM     71  O   UNL A   1      35.665  30.406  28.750  1.00  0.00    -0.744 OA
ENDBRANCH  67  68
ENDBRANCH  48  62
BRANCH  49  72
ATOM     72  C   UNL A   1      50.021  26.752  26.450  1.00  0.00    -0.014 A 
ATOM     73  C   UNL A   1      50.315  26.609  25.083  1.00  0.00     0.010 A 
ATOM     74  C   UNL A   1      51.043  26.547  27.397  1.00  0.00     0.010 A 
ATOM     75  C   UNL A   1      51.605  26.262  24.671  1.00  0.00     0.020 A 
ATOM     76  C   UNL A   1      52.340  26.228  26.987  1.00  0.00     0.020 A 
ATOM     77  C   UNL A   1      52.610  26.078  25.626  1.00  0.00     0.054 A 
BRANCH  77  78
ATOM     78  S   UNL A   1      54.293  25.695  25.062  1.00  0.00     0.124 S 
ATOM     79  O   UNL A   1      54.263  24.237  24.997  1.00  0.00    -0.237 OA
ATOM     80  O   UNL A   1      54.361  26.385  23.777  1.00  0.00    -0.237 OA
ATOM     81  O   UNL A   1      55.140  26.259  26.109  1.00  0.00    -0.744 OA
ENDBRANCH  77  78
ENDBRANCH  49  72
BRANCH  61  82
ATOM     82  C   UNL A   1      47.070  32.864  28.047  1.00  0.00    -0.014 A 
ATOM     83  C   UNL A   1      47.632  33.351  29.240  1.00  0.00     0.010 A 
ATOM     84  C   UNL A   1      47.056  33.686  26.906  1.00  0.00     0.010 A 
ATOM     85  C   UNL A   1      48.146  34.649  29.297  1.00  0.00     0.020 A 
ATOM     86  C   UNL A   1      47.591  34.975  26.952  1.00  0.00     0.020 A 
ATOM     87  C   UNL A   1      48.121  35.454  28.152  1.00  0.00     0.054 A 
BRANCH  87  88
ATOM     88  S   UNL A   1      48.833  37.120  28.237  1.00  0.00     0.124 S 
ATOM     89  O   UNL A   1      47.648  37.962  28.101  1.00  0.00    -0.237 OA
ATOM     90  O   UNL A   1      49.466  37.133  29.553  1.00  0.00    -0.237 OA
ATOM     91  O   UNL A   1      49.759  37.157  27.107  1.00  0.00    -0.744 OA
ENDBRANCH  87  88
ENDBRANCH  61  82
ENDBRANCH  35  36
ENDBRANCH  28  30
ENDBRANCH  27  28
ENDBRANCH  26  27
ENDBRANCH   1  26
TORSDOF 19
ENDMDL
