MODEL 1
REMARK VINA RESULT:      -9.7      0.000      0.000
REMARK SMILES CC(C)c1ccc2c(c1)c(SC(C)(C)C)c(CC(C)(C)C(=O)OCCOC(=O)c1ccc(-c3c4nc(c(-c5ccc(S(=O)(=O)[O-])cc5)c5ccc([nH]5)c(-c5ccc(S(=O)(=O)[O-])cc5)c5nc(c(-c6ccc(S(=O)(=O)[O-])cc6)c6ccc3[nH]6)C=C5)C=C4)cc1)n2Cc1ccc(Cl)cc1
REMARK SMILES IDX 24 1 23 2 21 3 22 4 18 5 19 6 20 7 17 8 16 9 4 10 5 11 9 12
REMARK SMILES IDX 6 13 8 14 7 15 10 16 89 17 2 18 1 19 3 20 11 21 12 22 13 23
REMARK SMILES IDX 14 24 15 25 90 26 91 27 92 28 97 29 93 30 96 31 94 32 95 33
REMARK SMILES IDX 25 34 26 35 27 36 28 37 29 38 30 39 88 40 31 41 87 42 32 43
REMARK SMILES IDX 33 44 34 45 81 46 35 47 86 48 80 49 82 50 36 51 85 52 79 53
REMARK SMILES IDX 78 54 37 56 67 57 48 58 66 59 49 60 52 61 65 62 83 63 50 64
REMARK SMILES IDX 51 65 64 67 84 68 53 69 38 70 39 71 47 72 40 73 46 74 41 75
REMARK SMILES IDX 42 76 43 77 44 78 45 79 68 80 69 81 77 82 70 83 76 84 71 85
REMARK SMILES IDX 72 86 73 87 74 88 75 89 54 90 55 91 63 92 56 93 62 94 57 95
REMARK SMILES IDX 58 96 59 97 60 98 61 99
REMARK H PARENT 82 55 52 66
REMARK Flexibility Score: inf
ROOT
ATOM      1  C   UNL A   1      45.156  43.431  32.062  1.00  0.00     0.274 C 
ENDROOT
BRANCH   1   2
ATOM      2  O   UNL A   1      45.439  42.077  31.688  1.00  0.00    -0.462 OA
BRANCH   2   3
ATOM      3  C   UNL A   1      46.147  41.977  30.544  1.00  0.00     0.312 C 
ATOM      4  O   UNL A   1      46.021  42.768  29.614  1.00  0.00    -0.252 OA
BRANCH   3   5
ATOM      5  C   UNL A   1      47.020  40.729  30.458  1.00  0.00     0.068 C 
ATOM      6  C   UNL A   1      46.176  39.833  31.392  1.00  0.00     0.024 C 
ATOM      7  C   UNL A   1      48.451  40.862  31.023  1.00  0.00     0.024 C 
BRANCH   5   8
ATOM      8  C   UNL A   1      47.160  40.210  29.000  1.00  0.00     0.073 C 
BRANCH   8   9
ATOM      9  C   UNL A   1      46.343  39.056  28.707  1.00  0.00     0.034 A 
ATOM     10  C   UNL A   1      43.438  35.566  28.404  1.00  0.00    -0.045 A 
ATOM     11  C   UNL A   1      42.871  36.385  27.434  1.00  0.00     0.006 A 
ATOM     12  C   UNL A   1      44.581  35.944  29.228  1.00  0.00     0.015 A 
ATOM     13  C   UNL A   1      43.607  37.449  27.042  1.00  0.00     0.027 A 
ATOM     14  C   UNL A   1      45.304  37.094  28.885  1.00  0.00     0.014 A 
ATOM     15  C   UNL A   1      44.710  37.804  27.839  1.00  0.00     0.050 A 
ATOM     16  C   UNL A   1      46.601  37.778  29.123  1.00  0.00     0.037 A 
ATOM     17  N   UNL A   1      45.106  39.080  28.127  1.00  0.00    -0.339 N 
BRANCH  10  18
ATOM     18  C   UNL A   1      43.412  34.099  28.031  1.00  0.00     0.013 C 
ATOM     19  C   UNL A   1      44.260  33.679  26.817  1.00  0.00     0.012 C 
ATOM     20  C   UNL A   1      43.849  33.536  29.411  1.00  0.00     0.012 C 
ENDBRANCH  10  18
BRANCH  16  21
ATOM     21  S   UNL A   1      48.217  37.262  29.834  1.00  0.00    -0.118 SA
BRANCH  21  22
ATOM     22  C   UNL A   1      48.074  36.140  31.548  1.00  0.00     0.012 C 
ATOM     23  C   UNL A   1      46.909  35.120  31.747  1.00  0.00     0.023 C 
ATOM     24  C   UNL A   1      49.396  35.423  31.969  1.00  0.00     0.023 C 
ATOM     25  C   UNL A   1      47.940  37.181  32.690  1.00  0.00     0.023 C 
ENDBRANCH  21  22
ENDBRANCH  16  21
BRANCH  17  26
ATOM     26  C   UNL A   1      43.967  39.936  28.335  1.00  0.00     0.158 C 
BRANCH  26  27
ATOM     27  C   UNL A   1      43.652  40.881  27.284  1.00  0.00    -0.028 A 
ATOM     28  C   UNL A   1      44.609  42.257  26.546  1.00  0.00     0.007 A 
ATOM     29  C   UNL A   1      42.010  40.454  26.548  1.00  0.00     0.007 A 
ATOM     30  C   UNL A   1      44.084  42.968  24.957  1.00  0.00     0.021 A 
ATOM     31  C   UNL A   1      41.508  41.233  25.018  1.00  0.00     0.021 A 
ATOM     32  C   UNL A   1      42.558  42.415  24.203  1.00  0.00     0.041 A 
ATOM     33  Cl  UNL A   1      41.809  43.494  23.059  1.00  0.00    -0.084 Cl
ENDBRANCH  26  27
ENDBRANCH  17  26
ENDBRANCH   8   9
ENDBRANCH   5   8
ENDBRANCH   3   5
ENDBRANCH   2   3
ENDBRANCH   1   2
BRANCH   1  34
ATOM     34  C   UNL A   1      45.869  43.763  33.382  1.00  0.00     0.275 C 
BRANCH  34  35
ATOM     35  O   UNL A   1      44.955  43.741  34.527  1.00  0.00    -0.458 OA
BRANCH  35  36
ATOM     36  C   UNL A   1      43.893  42.596  34.820  1.00  0.00     0.338 C 
ATOM     37  O   UNL A   1      42.877  43.327  34.999  1.00  0.00    -0.246 OA
BRANCH  36  38
ATOM     38  C   UNL A   1      44.285  40.474  34.680  1.00  0.00     0.060 A 
ATOM     39  C   UNL A   1      43.815  39.399  33.714  1.00  0.00     0.016 A 
ATOM     40  C   UNL A   1      44.516  39.409  35.821  1.00  0.00     0.016 A 
ATOM     41  C   UNL A   1      43.151  38.023  34.010  1.00  0.00     0.010 A 
ATOM     42  C   UNL A   1      43.868  38.038  36.115  1.00  0.00     0.010 A 
ATOM     43  C   UNL A   1      42.955  37.408  35.285  1.00  0.00    -0.014 A 
BRANCH  43  44
ATOM     44  C   UNL A   1      42.109  36.009  35.575  1.00  0.00     0.031 A 
ATOM     45  C   UNL A   1      42.719  34.986  34.743  1.00  0.00     0.074 A 
ATOM     46  C   UNL A   1      40.996  35.385  36.207  1.00  0.00     0.049 A 
ATOM     47  N   UNL A   1      42.188  34.557  33.649  1.00  0.00    -0.248 NA
ATOM     48  C   UNL A   1      44.080  34.542  35.029  1.00  0.00     0.031 C 
ATOM     49  C   UNL A   1      39.930  36.028  36.928  1.00  0.00     0.029 A 
ATOM     50  N   UNL A   1      40.420  34.048  36.289  1.00  0.00    -0.354 N 
ATOM     51  C   UNL A   1      43.008  33.524  33.300  1.00  0.00     0.074 A 
ATOM     52  C   UNL A   1      44.270  33.749  33.974  1.00  0.00     0.031 C 
ATOM     53  C   UNL A   1      39.128  35.239  37.677  1.00  0.00     0.029 A 
ATOM     54  C   UNL A   1      39.373  33.870  37.285  1.00  0.00     0.049 A 
ATOM     55  H   UNL A   1      40.720  33.312  35.708  1.00  0.00     0.167 HD
ATOM     56  C   UNL A   1      42.458  32.383  32.826  1.00  0.00     0.031 A 
ATOM     57  C   UNL A   1      38.339  32.991  37.560  1.00  0.00     0.031 A 
ATOM     58  C   UNL A   1      41.129  32.541  32.284  1.00  0.00     0.049 A 
ATOM     59  C   UNL A   1      37.932  32.212  36.381  1.00  0.00     0.074 A 
ATOM     60  C   UNL A   1      40.669  33.366  31.291  1.00  0.00     0.029 A 
ATOM     61  N   UNL A   1      40.018  32.122  32.996  1.00  0.00    -0.354 N 
ATOM     62  N   UNL A   1      37.089  32.580  35.460  1.00  0.00    -0.248 NA
ATOM     63  C   UNL A   1      38.659  30.981  36.136  1.00  0.00     0.031 C 
ATOM     64  C   UNL A   1      39.297  33.559  31.571  1.00  0.00     0.029 A 
ATOM     65  C   UNL A   1      38.804  32.622  32.478  1.00  0.00     0.049 A 
ATOM     66  H   UNL A   1      40.070  31.536  33.785  1.00  0.00     0.167 HD
ATOM     67  C   UNL A   1      37.430  31.817  34.352  1.00  0.00     0.074 A 
ATOM     68  C   UNL A   1      38.356  30.807  34.853  1.00  0.00     0.031 C 
ATOM     69  C   UNL A   1      37.436  32.375  33.105  1.00  0.00     0.031 A 
BRANCH  56  70
ATOM     70  C   UNL A   1      43.124  31.088  33.086  1.00  0.00    -0.014 A 
ATOM     71  C   UNL A   1      42.883  30.356  34.271  1.00  0.00     0.010 A 
ATOM     72  C   UNL A   1      43.921  30.520  32.092  1.00  0.00     0.010 A 
ATOM     73  C   UNL A   1      43.494  29.133  34.501  1.00  0.00     0.020 A 
ATOM     74  C   UNL A   1      44.496  29.266  32.292  1.00  0.00     0.020 A 
ATOM     75  C   UNL A   1      44.298  28.596  33.503  1.00  0.00     0.054 A 
BRANCH  75  76
ATOM     76  S   UNL A   1      45.051  26.987  33.808  1.00  0.00     0.124 S 
ATOM     77  O   UNL A   1      43.875  26.134  33.964  1.00  0.00    -0.237 OA
ATOM     78  O   UNL A   1      45.830  26.773  32.592  1.00  0.00    -0.237 OA
ATOM     79  O   UNL A   1      45.833  27.202  35.022  1.00  0.00    -0.744 OA
ENDBRANCH  75  76
ENDBRANCH  56  70
BRANCH  57  80
ATOM     80  C   UNL A   1      37.792  32.569  38.937  1.00  0.00    -0.014 A 
ATOM     81  C   UNL A   1      36.599  31.834  39.029  1.00  0.00     0.010 A 
ATOM     82  C   UNL A   1      38.247  33.166  40.149  1.00  0.00     0.010 A 
ATOM     83  C   UNL A   1      35.759  31.936  40.152  1.00  0.00     0.020 A 
ATOM     84  C   UNL A   1      37.410  33.274  41.287  1.00  0.00     0.020 A 
ATOM     85  C   UNL A   1      36.124  32.744  41.227  1.00  0.00     0.054 A 
BRANCH  85  86
ATOM     86  S   UNL A   1      34.817  33.268  42.385  1.00  0.00     0.124 S 
ATOM     87  O   UNL A   1      33.963  34.077  41.517  1.00  0.00    -0.237 OA
ATOM     88  O   UNL A   1      34.237  32.001  42.821  1.00  0.00    -0.237 OA
ATOM     89  O   UNL A   1      35.534  34.011  43.418  1.00  0.00    -0.744 OA
ENDBRANCH  85  86
ENDBRANCH  57  80
BRANCH  69  90
ATOM     90  C   UNL A   1      36.070  33.040  32.587  1.00  0.00    -0.014 A 
ATOM     91  C   UNL A   1      36.138  34.148  31.718  1.00  0.00     0.010 A 
ATOM     92  C   UNL A   1      34.746  32.735  33.043  1.00  0.00     0.010 A 
ATOM     93  C   UNL A   1      35.033  35.025  31.510  1.00  0.00     0.020 A 
ATOM     94  C   UNL A   1      33.645  33.633  32.883  1.00  0.00     0.020 A 
ATOM     95  C   UNL A   1      33.817  34.814  32.167  1.00  0.00     0.054 A 
BRANCH  95  96
ATOM     96  S   UNL A   1      32.614  36.210  32.298  1.00  0.00     0.124 S 
ATOM     97  O   UNL A   1      32.591  36.766  30.944  1.00  0.00    -0.237 OA
ATOM     98  O   UNL A   1      31.382  35.538  32.697  1.00  0.00    -0.237 OA
ATOM     99  O   UNL A   1      33.199  37.091  33.306  1.00  0.00    -0.744 OA
ENDBRANCH  95  96
ENDBRANCH  69  90
ENDBRANCH  43  44
ENDBRANCH  36  38
ENDBRANCH  35  36
ENDBRANCH  34  35
ENDBRANCH   1  34
TORSDOF 21
ENDMDL
MODEL 2
REMARK VINA RESULT:      -9.4      5.596     11.524
REMARK SMILES CC(C)c1ccc2c(c1)c(SC(C)(C)C)c(CC(C)(C)C(=O)OCCOC(=O)c1ccc(-c3c4nc(c(-c5ccc(S(=O)(=O)[O-])cc5)c5ccc([nH]5)c(-c5ccc(S(=O)(=O)[O-])cc5)c5nc(c(-c6ccc(S(=O)(=O)[O-])cc6)c6ccc3[nH]6)C=C5)C=C4)cc1)n2Cc1ccc(Cl)cc1
REMARK SMILES IDX 24 1 23 2 21 3 22 4 18 5 19 6 20 7 17 8 16 9 4 10 5 11 9 12
REMARK SMILES IDX 6 13 8 14 7 15 10 16 89 17 2 18 1 19 3 20 11 21 12 22 13 23
REMARK SMILES IDX 14 24 15 25 90 26 91 27 92 28 97 29 93 30 96 31 94 32 95 33
REMARK SMILES IDX 25 34 26 35 27 36 28 37 29 38 30 39 88 40 31 41 87 42 32 43
REMARK SMILES IDX 33 44 34 45 81 46 35 47 86 48 80 49 82 50 36 51 85 52 79 53
REMARK SMILES IDX 78 54 37 56 67 57 48 58 66 59 49 60 52 61 65 62 83 63 50 64
REMARK SMILES IDX 51 65 64 67 84 68 53 69 38 70 39 71 47 72 40 73 46 74 41 75
REMARK SMILES IDX 42 76 43 77 44 78 45 79 68 80 69 81 77 82 70 83 76 84 71 85
REMARK SMILES IDX 72 86 73 87 74 88 75 89 54 90 55 91 63 92 56 93 62 94 57 95
REMARK SMILES IDX 58 96 59 97 60 98 61 99
REMARK H PARENT 82 55 52 66
REMARK Flexibility Score: inf
ROOT
ATOM      1  C   UNL A   1      52.177  33.969  28.773  1.00  0.00     0.274 C 
ENDROOT
BRANCH   1   2
ATOM      2  O   UNL A   1      51.105  33.495  29.597  1.00  0.00    -0.462 OA
BRANCH   2   3
ATOM      3  C   UNL A   1      50.478  32.415  29.087  1.00  0.00     0.312 C 
ATOM      4  O   UNL A   1      50.752  31.946  27.986  1.00  0.00    -0.252 OA
BRANCH   3   5
ATOM      5  C   UNL A   1      49.317  31.909  29.937  1.00  0.00     0.068 C 
ATOM      6  C   UNL A   1      48.298  31.720  28.791  1.00  0.00     0.024 C 
ATOM      7  C   UNL A   1      48.751  32.905  30.973  1.00  0.00     0.024 C 
BRANCH   5   8
ATOM      8  C   UNL A   1      49.680  30.613  30.714  1.00  0.00     0.073 C 
BRANCH   8   9
ATOM      9  C   UNL A   1      48.752  29.526  30.507  1.00  0.00     0.034 A 
ATOM     10  C   UNL A   1      46.141  25.799  30.426  1.00  0.00    -0.045 A 
ATOM     11  C   UNL A   1      45.195  26.698  30.906  1.00  0.00     0.006 A 
ATOM     12  C   UNL A   1      47.536  26.139  30.170  1.00  0.00     0.015 A 
ATOM     13  C   UNL A   1      45.523  28.008  30.840  1.00  0.00     0.027 A 
ATOM     14  C   UNL A   1      47.911  27.489  30.182  1.00  0.00     0.014 A 
ATOM     15  C   UNL A   1      46.869  28.327  30.588  1.00  0.00     0.050 A 
ATOM     16  C   UNL A   1      48.997  28.409  29.756  1.00  0.00     0.037 A 
ATOM     17  N   UNL A   1      47.564  29.355  31.161  1.00  0.00    -0.339 N 
BRANCH  10  18
ATOM     18  C   UNL A   1      45.566  24.799  29.446  1.00  0.00     0.013 C 
ATOM     19  C   UNL A   1      44.202  24.184  29.804  1.00  0.00     0.012 C 
ATOM     20  C   UNL A   1      45.609  25.708  28.187  1.00  0.00     0.012 C 
ENDBRANCH  10  18
BRANCH  16  21
ATOM     21  S   UNL A   1      50.423  28.270  28.603  1.00  0.00    -0.118 SA
BRANCH  21  22
ATOM     22  C   UNL A   1      50.395  26.597  27.412  1.00  0.00     0.012 C 
ATOM     23  C   UNL A   1      50.375  25.165  28.035  1.00  0.00     0.023 C 
ATOM     24  C   UNL A   1      49.323  26.624  26.276  1.00  0.00     0.023 C 
ATOM     25  C   UNL A   1      51.698  26.687  26.575  1.00  0.00     0.023 C 
ENDBRANCH  21  22
ENDBRANCH  16  21
BRANCH  17  26
ATOM     26  C   UNL A   1      47.202  29.509  32.547  1.00  0.00     0.158 C 
BRANCH  26  27
ATOM     27  C   UNL A   1      46.766  30.823  32.972  1.00  0.00    -0.028 A 
ATOM     28  C   UNL A   1      45.343  31.862  32.473  1.00  0.00     0.007 A 
ATOM     29  C   UNL A   1      47.848  31.412  34.350  1.00  0.00     0.007 A 
ATOM     30  C   UNL A   1      44.851  33.271  33.510  1.00  0.00     0.021 A 
ATOM     31  C   UNL A   1      47.355  32.846  35.298  1.00  0.00     0.021 A 
ATOM     32  C   UNL A   1      45.847  33.716  34.928  1.00  0.00     0.041 A 
ATOM     33  Cl  UNL A   1      45.707  35.351  35.509  1.00  0.00    -0.084 Cl
ENDBRANCH  26  27
ENDBRANCH  17  26
ENDBRANCH   8   9
ENDBRANCH   5   8
ENDBRANCH   3   5
ENDBRANCH   2   3
ENDBRANCH   1   2
BRANCH   1  34
ATOM     34  C   UNL A   1      51.798  35.327  28.162  1.00  0.00     0.275 C 
BRANCH  34  35
ATOM     35  O   UNL A   1      50.833  36.057  28.988  1.00  0.00    -0.458 OA
BRANCH  35  36
ATOM     36  C   UNL A   1      49.625  36.922  28.424  1.00  0.00     0.338 C 
ATOM     37  O   UNL A   1      50.269  37.609  27.580  1.00  0.00    -0.246 OA
BRANCH  36  38
ATOM     38  C   UNL A   1      47.548  36.653  28.962  1.00  0.00     0.060 A 
ATOM     39  C   UNL A   1      46.865  35.950  30.124  1.00  0.00     0.016 A 
ATOM     40  C   UNL A   1      46.281  36.457  28.042  1.00  0.00     0.016 A 
ATOM     41  C   UNL A   1      45.739  34.875  30.108  1.00  0.00     0.010 A 
ATOM     42  C   UNL A   1      45.155  35.399  28.027  1.00  0.00     0.010 A 
ATOM     43  C   UNL A   1      45.004  34.403  28.977  1.00  0.00    -0.014 A 
BRANCH  43  44
ATOM     44  C   UNL A   1      43.916  33.148  28.975  1.00  0.00     0.031 A 
ATOM     45  C   UNL A   1      42.675  33.685  29.506  1.00  0.00     0.074 A 
ATOM     46  C   UNL A   1      43.682  31.758  28.768  1.00  0.00     0.049 A 
ATOM     47  N   UNL A   1      42.264  33.456  30.707  1.00  0.00    -0.248 NA
ATOM     48  C   UNL A   1      41.935  34.685  28.740  1.00  0.00     0.031 C 
ATOM     49  C   UNL A   1      44.661  30.742  28.494  1.00  0.00     0.029 A 
ATOM     50  N   UNL A   1      42.559  30.834  28.865  1.00  0.00    -0.354 N 
ATOM     51  C   UNL A   1      41.020  34.017  30.713  1.00  0.00     0.074 A 
ATOM     52  C   UNL A   1      40.996  34.986  29.636  1.00  0.00     0.031 C 
ATOM     53  C   UNL A   1      44.204  29.545  28.063  1.00  0.00     0.029 A 
ATOM     54  C   UNL A   1      42.780  29.508  28.307  1.00  0.00     0.049 A 
ATOM     55  H   UNL A   1      41.704  31.090  29.281  1.00  0.00     0.167 HD
ATOM     56  C   UNL A   1      40.008  33.359  31.323  1.00  0.00     0.031 A 
ATOM     57  C   UNL A   1      42.238  28.237  28.399  1.00  0.00     0.031 A 
ATOM     58  C   UNL A   1      40.433  32.393  32.310  1.00  0.00     0.049 A 
ATOM     59  C   UNL A   1      41.449  28.049  29.625  1.00  0.00     0.074 A 
ATOM     60  C   UNL A   1      41.218  32.550  33.422  1.00  0.00     0.029 A 
ATOM     61  N   UNL A   1      40.406  31.037  32.033  1.00  0.00    -0.354 N 
ATOM     62  N   UNL A   1      41.903  27.707  30.796  1.00  0.00    -0.248 NA
ATOM     63  C   UNL A   1      40.052  28.435  29.562  1.00  0.00     0.031 C 
ATOM     64  C   UNL A   1      41.791  31.279  33.658  1.00  0.00     0.029 A 
ATOM     65  C   UNL A   1      41.132  30.264  32.965  1.00  0.00     0.049 A 
ATOM     66  H   UNL A   1      39.929  30.651  31.263  1.00  0.00     0.167 HD
ATOM     67  C   UNL A   1      40.946  28.170  31.689  1.00  0.00     0.074 A 
ATOM     68  C   UNL A   1      39.803  28.546  30.864  1.00  0.00     0.031 C 
ATOM     69  C   UNL A   1      41.325  28.755  32.864  1.00  0.00     0.031 A 
BRANCH  56  70
ATOM     70  C   UNL A   1      38.629  33.500  30.809  1.00  0.00    -0.014 A 
ATOM     71  C   UNL A   1      38.245  32.965  29.559  1.00  0.00     0.010 A 
ATOM     72  C   UNL A   1      37.654  34.077  31.624  1.00  0.00     0.010 A 
ATOM     73  C   UNL A   1      36.946  33.083  29.091  1.00  0.00     0.020 A 
ATOM     74  C   UNL A   1      36.333  34.152  31.184  1.00  0.00     0.020 A 
ATOM     75  C   UNL A   1      35.996  33.677  29.913  1.00  0.00     0.054 A 
BRANCH  75  76
ATOM     76  S   UNL A   1      34.305  33.785  29.300  1.00  0.00     0.124 S 
ATOM     77  O   UNL A   1      34.501  34.419  27.999  1.00  0.00    -0.237 OA
ATOM     78  O   UNL A   1      33.897  32.384  29.265  1.00  0.00    -0.237 OA
ATOM     79  O   UNL A   1      33.633  34.608  30.301  1.00  0.00    -0.744 OA
ENDBRANCH  75  76
ENDBRANCH  56  70
BRANCH  57  80
ATOM     80  C   UNL A   1      42.145  27.162  27.300  1.00  0.00    -0.014 A 
ATOM     81  C   UNL A   1      41.784  25.845  27.626  1.00  0.00     0.010 A 
ATOM     82  C   UNL A   1      42.729  27.342  26.012  1.00  0.00     0.010 A 
ATOM     83  C   UNL A   1      42.243  24.750  26.875  1.00  0.00     0.020 A 
ATOM     84  C   UNL A   1      43.194  26.246  25.244  1.00  0.00     0.020 A 
ATOM     85  C   UNL A   1      43.037  24.958  25.749  1.00  0.00     0.054 A 
BRANCH  85  86
ATOM     86  S   UNL A   1      44.032  23.560  25.133  1.00  0.00     0.124 S 
ATOM     87  O   UNL A   1      43.054  22.841  24.319  1.00  0.00    -0.237 OA
ATOM     88  O   UNL A   1      45.097  24.222  24.383  1.00  0.00    -0.237 OA
ATOM     89  O   UNL A   1      44.463  22.868  26.345  1.00  0.00    -0.744 OA
ENDBRANCH  85  86
ENDBRANCH  57  80
BRANCH  69  90
ATOM     90  C   UNL A   1      42.247  27.893  33.855  1.00  0.00    -0.014 A 
ATOM     91  C   UNL A   1      43.619  28.201  33.949  1.00  0.00     0.010 A 
ATOM     92  C   UNL A   1      41.865  26.703  34.557  1.00  0.00     0.010 A 
ATOM     93  C   UNL A   1      44.573  27.287  34.486  1.00  0.00     0.020 A 
ATOM     94  C   UNL A   1      42.816  25.756  35.052  1.00  0.00     0.020 A 
ATOM     95  C   UNL A   1      44.178  26.029  34.951  1.00  0.00     0.054 A 
BRANCH  95  96
ATOM     96  S   UNL A   1      45.448  24.701  35.139  1.00  0.00     0.124 S 
ATOM     97  O   UNL A   1      44.851  23.798  36.122  1.00  0.00    -0.237 OA
ATOM     98  O   UNL A   1      45.542  24.152  33.790  1.00  0.00    -0.237 OA
ATOM     99  O   UNL A   1      46.637  25.409  35.607  1.00  0.00    -0.744 OA
ENDBRANCH  95  96
ENDBRANCH  69  90
ENDBRANCH  43  44
ENDBRANCH  36  38
ENDBRANCH  35  36
ENDBRANCH  34  35
ENDBRANCH   1  34
TORSDOF 21
ENDMDL
MODEL 3
REMARK VINA RESULT:      -9.2      7.475     15.080
REMARK SMILES CC(C)c1ccc2c(c1)c(SC(C)(C)C)c(CC(C)(C)C(=O)OCCOC(=O)c1ccc(-c3c4nc(c(-c5ccc(S(=O)(=O)[O-])cc5)c5ccc([nH]5)c(-c5ccc(S(=O)(=O)[O-])cc5)c5nc(c(-c6ccc(S(=O)(=O)[O-])cc6)c6ccc3[nH]6)C=C5)C=C4)cc1)n2Cc1ccc(Cl)cc1
REMARK SMILES IDX 24 1 23 2 21 3 22 4 18 5 19 6 20 7 17 8 16 9 4 10 5 11 9 12
REMARK SMILES IDX 6 13 8 14 7 15 10 16 89 17 2 18 1 19 3 20 11 21 12 22 13 23
REMARK SMILES IDX 14 24 15 25 90 26 91 27 92 28 97 29 93 30 96 31 94 32 95 33
REMARK SMILES IDX 25 34 26 35 27 36 28 37 29 38 30 39 88 40 31 41 87 42 32 43
REMARK SMILES IDX 33 44 34 45 81 46 35 47 86 48 80 49 82 50 36 51 85 52 79 53
REMARK SMILES IDX 78 54 37 56 67 57 48 58 66 59 49 60 52 61 65 62 83 63 50 64
REMARK SMILES IDX 51 65 64 67 84 68 53 69 38 70 39 71 47 72 40 73 46 74 41 75
REMARK SMILES IDX 42 76 43 77 44 78 45 79 68 80 69 81 77 82 70 83 76 84 71 85
REMARK SMILES IDX 72 86 73 87 74 88 75 89 54 90 55 91 63 92 56 93 62 94 57 95
REMARK SMILES IDX 58 96 59 97 60 98 61 99
REMARK H PARENT 82 55 52 66
REMARK Flexibility Score: inf
ROOT
ATOM      1  C   UNL A   1      45.941  22.804  39.401  1.00  0.00     0.274 C 
ENDROOT
BRANCH   1   2
ATOM      2  O   UNL A   1      46.059  22.535  37.999  1.00  0.00    -0.462 OA
BRANCH   2   3
ATOM      3  C   UNL A   1      46.548  21.307  37.731  1.00  0.00     0.312 C 
ATOM      4  O   UNL A   1      46.057  20.282  38.192  1.00  0.00    -0.252 OA
BRANCH   3   5
ATOM      5  C   UNL A   1      47.836  21.314  36.913  1.00  0.00     0.068 C 
ATOM      6  C   UNL A   1      48.239  19.843  37.164  1.00  0.00     0.024 C 
ATOM      7  C   UNL A   1      48.955  22.250  37.419  1.00  0.00     0.024 C 
BRANCH   5   8
ATOM      8  C   UNL A   1      47.584  21.681  35.424  1.00  0.00     0.073 C 
BRANCH   8   9
ATOM      9  C   UNL A   1      48.513  22.651  34.893  1.00  0.00     0.034 A 
ATOM     10  C   UNL A   1      51.028  25.695  32.633  1.00  0.00    -0.045 A 
ATOM     11  C   UNL A   1      50.426  26.563  33.536  1.00  0.00     0.006 A 
ATOM     12  C   UNL A   1      50.734  24.270  32.547  1.00  0.00     0.015 A 
ATOM     13  C   UNL A   1      49.767  25.992  34.569  1.00  0.00     0.027 A 
ATOM     14  C   UNL A   1      49.978  23.677  33.567  1.00  0.00     0.014 A 
ATOM     15  C   UNL A   1      49.491  24.616  34.481  1.00  0.00     0.050 A 
ATOM     16  C   UNL A   1      49.623  22.358  34.149  1.00  0.00     0.037 A 
ATOM     17  N   UNL A   1      48.340  24.006  34.897  1.00  0.00    -0.339 N 
BRANCH  10  18
ATOM     18  C   UNL A   1      52.477  26.037  32.358  1.00  0.00     0.013 C 
ATOM     19  C   UNL A   1      53.130  27.079  33.283  1.00  0.00     0.012 C 
ATOM     20  C   UNL A   1      53.040  24.591  32.435  1.00  0.00     0.012 C 
ENDBRANCH  10  18
BRANCH  16  21
ATOM     21  S   UNL A   1      50.305  20.656  33.994  1.00  0.00    -0.118 SA
BRANCH  21  22
ATOM     22  C   UNL A   1      51.995  20.312  35.108  1.00  0.00     0.012 C 
ATOM     23  C   UNL A   1      52.757  21.486  35.799  1.00  0.00     0.023 C 
ATOM     24  C   UNL A   1      51.858  19.165  36.159  1.00  0.00     0.023 C 
ATOM     25  C   UNL A   1      52.997  19.669  34.114  1.00  0.00     0.023 C 
ENDBRANCH  21  22
ENDBRANCH  16  21
BRANCH  17  26
ATOM     26  C   UNL A   1      47.192  24.827  34.610  1.00  0.00     0.158 C 
BRANCH  26  27
ATOM     27  C   UNL A   1      46.391  24.461  33.461  1.00  0.00    -0.028 A 
ATOM     28  C   UNL A   1      45.016  23.269  33.255  1.00  0.00     0.007 A 
ATOM     29  C   UNL A   1      46.850  25.535  32.027  1.00  0.00     0.007 A 
ATOM     30  C   UNL A   1      43.954  23.366  31.783  1.00  0.00     0.021 A 
ATOM     31  C   UNL A   1      45.809  25.544  30.573  1.00  0.00     0.021 A 
ATOM     32  C   UNL A   1      44.350  24.530  30.483  1.00  0.00     0.041 A 
ATOM     33  Cl  UNL A   1      43.711  24.190  28.899  1.00  0.00    -0.084 Cl
ENDBRANCH  26  27
ENDBRANCH  17  26
ENDBRANCH   8   9
ENDBRANCH   5   8
ENDBRANCH   3   5
ENDBRANCH   2   3
ENDBRANCH   1   2
BRANCH   1  34
ATOM     34  C   UNL A   1      45.107  24.076  39.616  1.00  0.00     0.275 C 
BRANCH  34  35
ATOM     35  O   UNL A   1      45.895  25.295  39.417  1.00  0.00    -0.458 OA
BRANCH  35  36
ATOM     36  C   UNL A   1      45.947  26.133  38.069  1.00  0.00     0.338 C 
ATOM     37  O   UNL A   1      47.197  26.318  38.015  1.00  0.00    -0.246 OA
BRANCH  36  38
ATOM     38  C   UNL A   1      44.254  26.520  36.780  1.00  0.00     0.060 A 
ATOM     39  C   UNL A   1      43.735  25.837  35.525  1.00  0.00     0.016 A 
ATOM     40  C   UNL A   1      43.592  27.890  36.361  1.00  0.00     0.016 A 
ATOM     41  C   UNL A   1      43.384  26.448  34.138  1.00  0.00     0.010 A 
ATOM     42  C   UNL A   1      43.233  28.498  34.988  1.00  0.00     0.010 A 
ATOM     43  C   UNL A   1      43.354  27.832  33.779  1.00  0.00    -0.014 A 
BRANCH  43  44
ATOM     44  C   UNL A   1      43.122  28.439  32.251  1.00  0.00     0.031 A 
ATOM     45  C   UNL A   1      41.688  28.610  32.095  1.00  0.00     0.074 A 
ATOM     46  C   UNL A   1      43.695  28.783  30.993  1.00  0.00     0.049 A 
ATOM     47  N   UNL A   1      40.952  27.805  31.407  1.00  0.00    -0.248 NA
ATOM     48  C   UNL A   1      40.991  29.616  32.894  1.00  0.00     0.031 C 
ATOM     49  C   UNL A   1      45.043  28.543  30.556  1.00  0.00     0.029 A 
ATOM     50  N   UNL A   1      43.236  29.314  29.715  1.00  0.00    -0.354 N 
ATOM     51  C   UNL A   1      39.737  28.427  31.414  1.00  0.00     0.074 A 
ATOM     52  C   UNL A   1      39.736  29.327  32.549  1.00  0.00     0.031 C 
ATOM     53  C   UNL A   1      45.454  29.188  29.441  1.00  0.00     0.029 A 
ATOM     54  C   UNL A   1      44.280  29.719  28.787  1.00  0.00     0.049 A 
ATOM     55  H   UNL A   1      42.279  29.393  29.494  1.00  0.00     0.167 HD
ATOM     56  C   UNL A   1      39.009  28.452  30.274  1.00  0.00     0.031 A 
ATOM     57  C   UNL A   1      44.429  29.964  27.432  1.00  0.00     0.031 A 
ATOM     58  C   UNL A   1      39.352  27.420  29.323  1.00  0.00     0.049 A 
ATOM     59  C   UNL A   1      43.375  29.332  26.625  1.00  0.00     0.074 A 
ATOM     60  C   UNL A   1      39.383  26.058  29.466  1.00  0.00     0.029 A 
ATOM     61  N   UNL A   1      40.097  27.716  28.195  1.00  0.00    -0.354 N 
ATOM     62  N   UNL A   1      43.364  28.107  26.185  1.00  0.00    -0.248 NA
ATOM     63  C   UNL A   1      42.157  30.097  26.436  1.00  0.00     0.031 C 
ATOM     64  C   UNL A   1      40.316  25.602  28.507  1.00  0.00     0.029 A 
ATOM     65  C   UNL A   1      40.604  26.569  27.546  1.00  0.00     0.049 A 
ATOM     66  H   UNL A   1      40.259  28.634  27.877  1.00  0.00     0.167 HD
ATOM     67  C   UNL A   1      42.020  27.825  25.976  1.00  0.00     0.074 A 
ATOM     68  C   UNL A   1      41.339  29.110  26.084  1.00  0.00     0.031 C 
ATOM     69  C   UNL A   1      41.510  26.605  26.320  1.00  0.00     0.031 A 
BRANCH  56  70
ATOM     70  C   UNL A   1      38.120  29.601  30.000  1.00  0.00    -0.014 A 
ATOM     71  C   UNL A   1      38.478  30.611  29.078  1.00  0.00     0.010 A 
ATOM     72  C   UNL A   1      36.850  29.634  30.577  1.00  0.00     0.010 A 
ATOM     73  C   UNL A   1      37.633  31.676  28.809  1.00  0.00     0.020 A 
ATOM     74  C   UNL A   1      35.973  30.673  30.271  1.00  0.00     0.020 A 
ATOM     75  C   UNL A   1      36.380  31.697  29.411  1.00  0.00     0.054 A 
BRANCH  75  76
ATOM     76  S   UNL A   1      35.282  33.070  29.016  1.00  0.00     0.124 S 
ATOM     77  O   UNL A   1      35.427  33.159  27.566  1.00  0.00    -0.237 OA
ATOM     78  O   UNL A   1      33.992  32.584  29.493  1.00  0.00    -0.237 OA
ATOM     79  O   UNL A   1      35.849  34.185  29.770  1.00  0.00    -0.744 OA
ENDBRANCH  75  76
ENDBRANCH  56  70
BRANCH  57  80
ATOM     80  C   UNL A   1      45.355  30.988  26.748  1.00  0.00    -0.014 A 
ATOM     81  C   UNL A   1      46.750  30.851  26.837  1.00  0.00     0.010 A 
ATOM     82  C   UNL A   1      44.885  32.260  26.307  1.00  0.00     0.010 A 
ATOM     83  C   UNL A   1      47.602  31.967  26.795  1.00  0.00     0.020 A 
ATOM     84  C   UNL A   1      45.735  33.393  26.258  1.00  0.00     0.020 A 
ATOM     85  C   UNL A   1      47.073  33.244  26.614  1.00  0.00     0.054 A 
BRANCH  85  86
ATOM     86  S   UNL A   1      48.101  34.672  27.091  1.00  0.00     0.124 S 
ATOM     87  O   UNL A   1      47.797  35.622  26.021  1.00  0.00    -0.237 OA
ATOM     88  O   UNL A   1      47.576  35.029  28.406  1.00  0.00    -0.237 OA
ATOM     89  O   UNL A   1      49.464  34.147  27.087  1.00  0.00    -0.744 OA
ENDBRANCH  85  86
ENDBRANCH  57  80
BRANCH  69  90
ATOM     90  C   UNL A   1      42.182  25.309  25.653  1.00  0.00    -0.014 A 
ATOM     91  C   UNL A   1      41.661  24.036  25.963  1.00  0.00     0.010 A 
ATOM     92  C   UNL A   1      43.390  25.275  24.883  1.00  0.00     0.010 A 
ATOM     93  C   UNL A   1      42.396  22.835  25.739  1.00  0.00     0.020 A 
ATOM     94  C   UNL A   1      44.159  24.084  24.698  1.00  0.00     0.020 A 
ATOM     95  C   UNL A   1      43.682  22.873  25.192  1.00  0.00     0.054 A 
BRANCH  95  96
ATOM     96  S   UNL A   1      44.789  21.408  25.400  1.00  0.00     0.124 S 
ATOM     97  O   UNL A   1      45.291  21.168  24.047  1.00  0.00    -0.237 OA
ATOM     98  O   UNL A   1      45.794  21.894  26.340  1.00  0.00    -0.237 OA
ATOM     99  O   UNL A   1      43.906  20.364  25.915  1.00  0.00    -0.744 OA
ENDBRANCH  95  96
ENDBRANCH  69  90
ENDBRANCH  43  44
ENDBRANCH  36  38
ENDBRANCH  35  36
ENDBRANCH  34  35
ENDBRANCH   1  34
TORSDOF 21
ENDMDL
