MODEL 1
REMARK VINA RESULT:      -9.7      0.000      0.000
REMARK SMILES CS(=O)(=O)Nc1ccc(-c2cc(Cl)cc3c2O[C@H](C(F)(F)F)C(C(=O)OCCOC(=O)c2ccc(-c4c5nc(c(-c6ccc(S(=O)(=O)[O-])cc6)c6ccc([nH]6)c(-c6ccc(S(=O)(=O)[O-])cc6)c6nc(c(-c7ccc(S(=O)(=O)[O-])cc7)c7ccc4[nH]7)C=C6)C=C5)cc2)=C3)cc1
REMARK SMILES IDX 27 1 26 2 24 3 25 4 23 5 10 6 11 7 16 8 12 9 15 10 17 11
REMARK SMILES IDX 13 12 14 13 92 14 18 15 9 16 6 17 7 18 94 19 8 20 93 21 5 22
REMARK SMILES IDX 2 24 1 25 3 26 4 27 19 28 20 29 21 30 22 31 28 32 29 33
REMARK SMILES IDX 30 34 31 35 32 36 33 37 91 38 34 39 90 40 35 41 36 42 37 43
REMARK SMILES IDX 84 44 38 45 89 46 83 47 85 48 39 49 88 50 82 51 81 52 40 54
REMARK SMILES IDX 70 55 51 56 69 57 52 58 55 59 68 60 86 61 53 62 54 63 67 65
REMARK SMILES IDX 87 66 56 67 41 68 42 69 50 70 43 71 49 72 44 73 45 74 46 75
REMARK SMILES IDX 47 76 48 77 71 78 72 79 80 80 73 81 79 82 74 83 75 84 76 85
REMARK SMILES IDX 77 86 78 87 57 88 58 89 66 90 59 91 65 92 60 93 61 94 62 95
REMARK SMILES IDX 63 96 64 97
REMARK H PARENT 5 23 85 53 55 64
REMARK Flexibility Score: inf
ROOT
ATOM      1  C   UNL A   1      43.535  25.630  25.038  1.00  0.00     0.275 C 
ENDROOT
BRANCH   1   2
ATOM      2  O   UNL A   1      44.073  26.669  25.898  1.00  0.00    -0.459 OA
BRANCH   2   3
ATOM      3  C   UNL A   1      45.004  26.212  26.778  1.00  0.00     0.338 C 
ATOM      4  O   UNL A   1      45.841  25.359  26.507  1.00  0.00    -0.246 OA
BRANCH   3   5
ATOM      5  C   UNL A   1      44.943  26.836  28.128  1.00  0.00     0.087 C 
ATOM      6  C   UNL A   1      44.320  24.379  31.279  1.00  0.00     0.026 A 
ATOM      7  C   UNL A   1      43.703  23.304  30.589  1.00  0.00     0.033 A 
ATOM      8  C   UNL A   1      44.440  25.541  30.507  1.00  0.00     0.135 A 
ATOM      9  C   UNL A   1      43.084  23.436  29.341  1.00  0.00     0.042 A 
ATOM     10  C   UNL A   1      43.570  25.729  29.400  1.00  0.00     0.019 A 
ATOM     11  O   UNL A   1      45.529  26.413  30.560  1.00  0.00    -0.475 OA
ATOM     12  Cl  UNL A   1      42.623  22.128  28.331  1.00  0.00    -0.084 Cl
ATOM     13  C   UNL A   1      42.879  24.683  28.822  1.00  0.00     0.032 A 
ATOM     14  C   UNL A   1      43.692  26.962  28.602  1.00  0.00     0.027 C 
ATOM     15  C   UNL A   1      46.040  26.780  29.177  1.00  0.00     0.316 C 
BRANCH   6  16
ATOM     16  C   UNL A   1      44.489  24.148  32.760  1.00  0.00    -0.014 A 
ATOM     17  C   UNL A   1      45.320  22.601  35.057  1.00  0.00     0.048 A 
ATOM     18  C   UNL A   1      46.094  23.657  34.570  1.00  0.00     0.027 A 
ATOM     19  C   UNL A   1      44.069  22.409  34.485  1.00  0.00     0.027 A 
ATOM     20  C   UNL A   1      45.655  24.455  33.480  1.00  0.00     0.011 A 
ATOM     21  C   UNL A   1      43.668  23.163  33.356  1.00  0.00     0.011 A 
BRANCH  17  22
ATOM     22  N   UNL A   1      45.907  21.686  35.984  1.00  0.00    -0.284 N 
ATOM     23  H   UNL A   1      46.085  22.017  36.893  1.00  0.00     0.180 HD
BRANCH  22  24
ATOM     24  S   UNL A   1      46.317  20.101  35.655  1.00  0.00     0.229 S 
ATOM     25  C   UNL A   1      46.825  19.470  37.238  1.00  0.00     0.183 C 
ATOM     26  O   UNL A   1      47.450  20.067  34.760  1.00  0.00    -0.207 OA
ATOM     27  O   UNL A   1      45.077  19.427  35.315  1.00  0.00    -0.207 OA
ENDBRANCH  22  24
ENDBRANCH  17  22
ENDBRANCH   6  16
BRANCH  15  28
ATOM     28  C   UNL A   1      46.660  28.185  29.169  1.00  0.00     0.430 C 
ATOM     29  F   UNL A   1      45.742  29.142  29.454  1.00  0.00    -0.167 F 
ATOM     30  F   UNL A   1      47.673  28.314  30.047  1.00  0.00    -0.167 F 
ATOM     31  F   UNL A   1      47.162  28.487  27.941  1.00  0.00    -0.167 F 
ENDBRANCH  15  28
ENDBRANCH   3   5
ENDBRANCH   2   3
ENDBRANCH   1   2
BRANCH   1  32
ATOM     32  C   UNL A   1      42.154  25.123  25.465  1.00  0.00     0.275 C 
BRANCH  32  33
ATOM     33  O   UNL A   1      41.210  26.197  25.631  1.00  0.00    -0.458 OA
BRANCH  33  34
ATOM     34  C   UNL A   1      40.173  25.891  26.450  1.00  0.00     0.338 C 
ATOM     35  O   UNL A   1      39.433  24.924  26.329  1.00  0.00    -0.246 OA
BRANCH  34  36
ATOM     36  C   UNL A   1      40.108  26.804  27.621  1.00  0.00     0.060 A 
ATOM     37  C   UNL A   1      39.590  26.261  28.789  1.00  0.00     0.016 A 
ATOM     38  C   UNL A   1      40.510  28.147  27.624  1.00  0.00     0.016 A 
ATOM     39  C   UNL A   1      39.536  27.036  29.948  1.00  0.00     0.010 A 
ATOM     40  C   UNL A   1      40.464  28.918  28.817  1.00  0.00     0.010 A 
ATOM     41  C   UNL A   1      40.013  28.357  30.018  1.00  0.00    -0.014 A 
BRANCH  41  42
ATOM     42  C   UNL A   1      39.945  29.053  31.363  1.00  0.00     0.031 A 
ATOM     43  C   UNL A   1      41.164  29.015  32.243  1.00  0.00     0.074 A 
ATOM     44  C   UNL A   1      38.943  29.890  31.734  1.00  0.00     0.049 A 
ATOM     45  N   UNL A   1      41.434  29.728  33.306  1.00  0.00    -0.248 NA
ATOM     46  C   UNL A   1      42.221  28.064  31.864  1.00  0.00     0.031 C 
ATOM     47  C   UNL A   1      37.728  30.107  30.976  1.00  0.00     0.029 A 
ATOM     48  N   UNL A   1      38.811  30.794  32.772  1.00  0.00    -0.354 N 
ATOM     49  C   UNL A   1      42.682  29.302  33.732  1.00  0.00     0.074 A 
ATOM     50  C   UNL A   1      43.141  28.309  32.784  1.00  0.00     0.031 C 
ATOM     51  C   UNL A   1      37.087  31.200  31.416  1.00  0.00     0.029 A 
ATOM     52  C   UNL A   1      37.723  31.648  32.646  1.00  0.00     0.049 A 
ATOM     53  H   UNL A   1      39.434  30.829  33.534  1.00  0.00     0.167 HD
ATOM     54  C   UNL A   1      43.367  29.660  34.841  1.00  0.00     0.031 A 
ATOM     55  C   UNL A   1      37.252  32.640  33.438  1.00  0.00     0.031 A 
ATOM     56  C   UNL A   1      42.879  30.554  35.852  1.00  0.00     0.049 A 
ATOM     57  C   UNL A   1      37.943  32.864  34.760  1.00  0.00     0.074 A 
ATOM     58  C   UNL A   1      43.504  30.929  37.027  1.00  0.00     0.029 A 
ATOM     59  N   UNL A   1      41.639  31.171  35.844  1.00  0.00    -0.354 N 
ATOM     60  N   UNL A   1      39.104  32.408  35.165  1.00  0.00    -0.248 NA
ATOM     61  C   UNL A   1      37.255  33.718  35.741  1.00  0.00     0.031 C 
ATOM     62  C   UNL A   1      42.618  31.726  37.757  1.00  0.00     0.029 A 
ATOM     63  C   UNL A   1      41.479  31.925  36.995  1.00  0.00     0.049 A 
ATOM     64  H   UNL A   1      40.970  31.086  35.126  1.00  0.00     0.167 HD
ATOM     65  C   UNL A   1      39.289  32.930  36.442  1.00  0.00     0.074 A 
ATOM     66  C   UNL A   1      38.140  33.763  36.727  1.00  0.00     0.031 C 
ATOM     67  C   UNL A   1      40.326  32.738  37.294  1.00  0.00     0.031 A 
BRANCH  54  68
ATOM     68  C   UNL A   1      44.678  28.966  35.067  1.00  0.00    -0.014 A 
ATOM     69  C   UNL A   1      44.750  27.728  35.728  1.00  0.00     0.010 A 
ATOM     70  C   UNL A   1      45.860  29.588  34.627  1.00  0.00     0.010 A 
ATOM     71  C   UNL A   1      45.992  27.145  35.986  1.00  0.00     0.020 A 
ATOM     72  C   UNL A   1      47.100  28.996  34.861  1.00  0.00     0.020 A 
ATOM     73  C   UNL A   1      47.159  27.788  35.558  1.00  0.00     0.054 A 
BRANCH  73  74
ATOM     74  S   UNL A   1      48.759  27.022  35.928  1.00  0.00     0.124 S 
ATOM     75  O   UNL A   1      48.633  26.743  37.357  1.00  0.00    -0.237 OA
ATOM     76  O   UNL A   1      48.762  25.852  35.056  1.00  0.00    -0.237 OA
ATOM     77  O   UNL A   1      49.728  28.059  35.582  1.00  0.00    -0.744 OA
ENDBRANCH  73  74
ENDBRANCH  54  68
BRANCH  55  78
ATOM     78  C   UNL A   1      36.043  33.465  33.079  1.00  0.00    -0.014 A 
ATOM     79  C   UNL A   1      36.173  34.785  32.596  1.00  0.00     0.010 A 
ATOM     80  C   UNL A   1      34.739  32.973  33.273  1.00  0.00     0.010 A 
ATOM     81  C   UNL A   1      35.052  35.581  32.321  1.00  0.00     0.020 A 
ATOM     82  C   UNL A   1      33.613  33.747  32.964  1.00  0.00     0.020 A 
ATOM     83  C   UNL A   1      33.776  35.053  32.503  1.00  0.00     0.054 A 
BRANCH  83  84
ATOM     84  S   UNL A   1      32.337  36.089  32.112  1.00  0.00     0.124 S 
ATOM     85  O   UNL A   1      32.625  37.304  32.866  1.00  0.00    -0.237 OA
ATOM     86  O   UNL A   1      32.425  36.210  30.659  1.00  0.00    -0.237 OA
ATOM     87  O   UNL A   1      31.207  35.300  32.599  1.00  0.00    -0.744 OA
ENDBRANCH  83  84
ENDBRANCH  55  78
BRANCH  67  88
ATOM     88  C   UNL A   1      40.306  33.480  38.606  1.00  0.00    -0.014 A 
ATOM     89  C   UNL A   1      39.769  32.910  39.775  1.00  0.00     0.010 A 
ATOM     90  C   UNL A   1      40.895  34.756  38.679  1.00  0.00     0.010 A 
ATOM     91  C   UNL A   1      39.805  33.610  40.985  1.00  0.00     0.020 A 
ATOM     92  C   UNL A   1      40.967  35.444  39.893  1.00  0.00     0.020 A 
ATOM     93  C   UNL A   1      40.410  34.871  41.037  1.00  0.00     0.054 A 
BRANCH  93  94
ATOM     94  S   UNL A   1      40.506  35.729  42.633  1.00  0.00     0.124 S 
ATOM     95  O   UNL A   1      39.300  36.553  42.608  1.00  0.00    -0.237 OA
ATOM     96  O   UNL A   1      40.490  34.626  43.591  1.00  0.00    -0.237 OA
ATOM     97  O   UNL A   1      41.765  36.465  42.559  1.00  0.00    -0.744 OA
ENDBRANCH  93  94
ENDBRANCH  67  88
ENDBRANCH  41  42
ENDBRANCH  34  36
ENDBRANCH  33  34
ENDBRANCH  32  33
ENDBRANCH   1  32
TORSDOF 18
ENDMDL
MODEL 2
REMARK VINA RESULT:      -9.6      6.026     12.403
REMARK SMILES CS(=O)(=O)Nc1ccc(-c2cc(Cl)cc3c2O[C@H](C(F)(F)F)C(C(=O)OCCOC(=O)c2ccc(-c4c5nc(c(-c6ccc(S(=O)(=O)[O-])cc6)c6ccc([nH]6)c(-c6ccc(S(=O)(=O)[O-])cc6)c6nc(c(-c7ccc(S(=O)(=O)[O-])cc7)c7ccc4[nH]7)C=C6)C=C5)cc2)=C3)cc1
REMARK SMILES IDX 27 1 26 2 24 3 25 4 23 5 10 6 11 7 16 8 12 9 15 10 17 11
REMARK SMILES IDX 13 12 14 13 92 14 18 15 9 16 6 17 7 18 94 19 8 20 93 21 5 22
REMARK SMILES IDX 2 24 1 25 3 26 4 27 19 28 20 29 21 30 22 31 28 32 29 33
REMARK SMILES IDX 30 34 31 35 32 36 33 37 91 38 34 39 90 40 35 41 36 42 37 43
REMARK SMILES IDX 84 44 38 45 89 46 83 47 85 48 39 49 88 50 82 51 81 52 40 54
REMARK SMILES IDX 70 55 51 56 69 57 52 58 55 59 68 60 86 61 53 62 54 63 67 65
REMARK SMILES IDX 87 66 56 67 41 68 42 69 50 70 43 71 49 72 44 73 45 74 46 75
REMARK SMILES IDX 47 76 48 77 71 78 72 79 80 80 73 81 79 82 74 83 75 84 76 85
REMARK SMILES IDX 77 86 78 87 57 88 58 89 66 90 59 91 65 92 60 93 61 94 62 95
REMARK SMILES IDX 63 96 64 97
REMARK H PARENT 5 23 85 53 55 64
REMARK Flexibility Score: inf
ROOT
ATOM      1  C   UNL A   1      36.785  22.529  25.786  1.00  0.00     0.275 C 
ENDROOT
BRANCH   1   2
ATOM      2  O   UNL A   1      35.588  23.325  25.577  1.00  0.00    -0.459 OA
BRANCH   2   3
ATOM      3  C   UNL A   1      34.614  23.086  26.496  1.00  0.00     0.338 C 
ATOM      4  O   UNL A   1      34.822  22.959  27.697  1.00  0.00    -0.246 OA
BRANCH   3   5
ATOM      5  C   UNL A   1      33.239  22.991  25.933  1.00  0.00     0.087 C 
ATOM      6  C   UNL A   1      31.665  26.343  24.309  1.00  0.00     0.026 A 
ATOM      7  C   UNL A   1      32.457  27.301  24.993  1.00  0.00     0.033 A 
ATOM      8  C   UNL A   1      31.776  25.050  24.835  1.00  0.00     0.135 A 
ATOM      9  C   UNL A   1      33.121  27.041  26.198  1.00  0.00     0.042 A 
ATOM     10  C   UNL A   1      32.200  24.886  26.180  1.00  0.00     0.019 A 
ATOM     11  O   UNL A   1      31.771  23.885  24.067  1.00  0.00    -0.475 OA
ATOM     12  Cl  UNL A   1      34.335  28.039  26.884  1.00  0.00    -0.084 Cl
ATOM     13  C   UNL A   1      32.860  25.881  26.871  1.00  0.00     0.032 A 
ATOM     14  C   UNL A   1      32.298  23.522  26.732  1.00  0.00     0.027 C 
ATOM     15  C   UNL A   1      32.892  22.935  24.456  1.00  0.00     0.316 C 
BRANCH   6  16
ATOM     16  C   UNL A   1      30.681  26.938  23.332  1.00  0.00    -0.014 A 
ATOM     17  C   UNL A   1      28.787  28.945  22.470  1.00  0.00     0.048 A 
ATOM     18  C   UNL A   1      30.098  28.927  21.992  1.00  0.00     0.027 A 
ATOM     19  C   UNL A   1      28.383  27.882  23.268  1.00  0.00     0.027 A 
ATOM     20  C   UNL A   1      31.010  27.905  22.369  1.00  0.00     0.011 A 
ATOM     21  C   UNL A   1      29.315  26.905  23.694  1.00  0.00     0.011 A 
BRANCH  17  22
ATOM     22  N   UNL A   1      27.991  30.113  22.259  1.00  0.00    -0.284 N 
ATOM     23  H   UNL A   1      27.345  30.090  21.517  1.00  0.00     0.180 HD
BRANCH  22  24
ATOM     24  S   UNL A   1      28.063  31.513  23.166  1.00  0.00     0.229 S 
ATOM     25  C   UNL A   1      28.052  32.800  21.939  1.00  0.00     0.183 C 
ATOM     26  O   UNL A   1      29.319  31.567  23.879  1.00  0.00    -0.207 OA
ATOM     27  O   UNL A   1      26.800  31.599  23.874  1.00  0.00    -0.207 OA
ENDBRANCH  22  24
ENDBRANCH  17  22
ENDBRANCH   6  16
BRANCH  15  28
ATOM     28  C   UNL A   1      32.493  21.473  24.204  1.00  0.00     0.430 C 
ATOM     29  F   UNL A   1      33.512  20.620  24.476  1.00  0.00    -0.167 F 
ATOM     30  F   UNL A   1      31.428  21.089  24.934  1.00  0.00    -0.167 F 
ATOM     31  F   UNL A   1      32.166  21.278  22.898  1.00  0.00    -0.167 F 
ENDBRANCH  15  28
ENDBRANCH   3   5
ENDBRANCH   2   3
ENDBRANCH   1   2
BRANCH   1  32
ATOM     32  C   UNL A   1      38.085  23.258  25.431  1.00  0.00     0.275 C 
BRANCH  32  33
ATOM     33  O   UNL A   1      38.357  24.350  26.329  1.00  0.00    -0.458 OA
BRANCH  33  34
ATOM     34  C   UNL A   1      39.607  24.326  26.855  1.00  0.00     0.338 C 
ATOM     35  O   UNL A   1      40.481  23.517  26.574  1.00  0.00    -0.246 OA
BRANCH  34  36
ATOM     36  C   UNL A   1      39.857  25.498  27.733  1.00  0.00     0.060 A 
ATOM     37  C   UNL A   1      39.056  25.596  28.863  1.00  0.00     0.016 A 
ATOM     38  C   UNL A   1      40.814  26.497  27.498  1.00  0.00     0.016 A 
ATOM     39  C   UNL A   1      39.256  26.641  29.765  1.00  0.00     0.010 A 
ATOM     40  C   UNL A   1      41.015  27.546  28.435  1.00  0.00     0.010 A 
ATOM     41  C   UNL A   1      40.263  27.611  29.615  1.00  0.00    -0.014 A 
BRANCH  41  42
ATOM     42  C   UNL A   1      40.399  28.650  30.709  1.00  0.00     0.031 A 
ATOM     43  C   UNL A   1      39.379  29.754  30.770  1.00  0.00     0.074 A 
ATOM     44  C   UNL A   1      41.243  28.534  31.766  1.00  0.00     0.049 A 
ATOM     45  N   UNL A   1      39.139  30.601  31.738  1.00  0.00    -0.248 NA
ATOM     46  C   UNL A   1      38.504  29.908  29.596  1.00  0.00     0.031 C 
ATOM     47  C   UNL A   1      42.241  27.495  31.911  1.00  0.00     0.029 A 
ATOM     48  N   UNL A   1      41.345  29.214  32.965  1.00  0.00    -0.354 N 
ATOM     49  C   UNL A   1      38.100  31.398  31.284  1.00  0.00     0.074 A 
ATOM     50  C   UNL A   1      37.718  30.901  29.979  1.00  0.00     0.031 C 
ATOM     51  C   UNL A   1      42.694  27.449  33.173  1.00  0.00     0.029 A 
ATOM     52  C   UNL A   1      42.187  28.610  33.890  1.00  0.00     0.049 A 
ATOM     53  H   UNL A   1      40.863  30.053  33.148  1.00  0.00     0.167 HD
ATOM     54  C   UNL A   1      37.546  32.482  31.870  1.00  0.00     0.031 A 
ATOM     55  C   UNL A   1      42.556  28.959  35.145  1.00  0.00     0.031 A 
ATOM     56  C   UNL A   1      37.988  33.060  33.107  1.00  0.00     0.049 A 
ATOM     57  C   UNL A   1      42.060  30.282  35.675  1.00  0.00     0.074 A 
ATOM     58  C   UNL A   1      37.498  34.189  33.741  1.00  0.00     0.029 A 
ATOM     59  N   UNL A   1      39.047  32.601  33.872  1.00  0.00    -0.354 N 
ATOM     60  N   UNL A   1      41.108  31.049  35.200  1.00  0.00    -0.248 NA
ATOM     61  C   UNL A   1      42.699  30.799  36.895  1.00  0.00     0.031 C 
ATOM     62  C   UNL A   1      38.299  34.444  34.858  1.00  0.00     0.029 A 
ATOM     63  C   UNL A   1      39.227  33.423  34.973  1.00  0.00     0.049 A 
ATOM     64  H   UNL A   1      39.591  31.806  33.665  1.00  0.00     0.167 HD
ATOM     65  C   UNL A   1      41.027  32.131  36.071  1.00  0.00     0.074 A 
ATOM     66  C   UNL A   1      41.999  31.903  37.119  1.00  0.00     0.031 C 
ATOM     67  C   UNL A   1      40.210  33.212  36.007  1.00  0.00     0.031 A 
BRANCH  54  68
ATOM     68  C   UNL A   1      36.471  33.183  31.093  1.00  0.00    -0.014 A 
ATOM     69  C   UNL A   1      36.757  33.879  29.907  1.00  0.00     0.010 A 
ATOM     70  C   UNL A   1      35.153  33.161  31.584  1.00  0.00     0.010 A 
ATOM     71  C   UNL A   1      35.747  34.581  29.247  1.00  0.00     0.020 A 
ATOM     72  C   UNL A   1      34.137  33.840  30.914  1.00  0.00     0.020 A 
ATOM     73  C   UNL A   1      34.445  34.563  29.761  1.00  0.00     0.054 A 
BRANCH  73  74
ATOM     74  S   UNL A   1      33.157  35.504  28.899  1.00  0.00     0.124 S 
ATOM     75  O   UNL A   1      32.487  34.457  28.130  1.00  0.00    -0.237 OA
ATOM     76  O   UNL A   1      32.384  36.068  30.001  1.00  0.00    -0.237 OA
ATOM     77  O   UNL A   1      33.908  36.473  28.105  1.00  0.00    -0.744 OA
ENDBRANCH  73  74
ENDBRANCH  54  68
BRANCH  55  78
ATOM     78  C   UNL A   1      43.483  28.119  35.987  1.00  0.00    -0.014 A 
ATOM     79  C   UNL A   1      42.992  27.070  36.793  1.00  0.00     0.010 A 
ATOM     80  C   UNL A   1      44.862  28.392  36.048  1.00  0.00     0.010 A 
ATOM     81  C   UNL A   1      43.838  26.327  37.627  1.00  0.00     0.020 A 
ATOM     82  C   UNL A   1      45.722  27.629  36.849  1.00  0.00     0.020 A 
ATOM     83  C   UNL A   1      45.202  26.609  37.646  1.00  0.00     0.054 A 
BRANCH  83  84
ATOM     84  S   UNL A   1      46.287  25.614  38.709  1.00  0.00     0.124 S 
ATOM     85  O   UNL A   1      46.708  26.590  39.710  1.00  0.00    -0.237 OA
ATOM     86  O   UNL A   1      45.384  24.570  39.185  1.00  0.00    -0.237 OA
ATOM     87  O   UNL A   1      47.334  25.159  37.797  1.00  0.00    -0.744 OA
ENDBRANCH  83  84
ENDBRANCH  55  78
BRANCH  67  88
ATOM     88  C   UNL A   1      40.284  34.218  37.127  1.00  0.00    -0.014 A 
ATOM     89  C   UNL A   1      39.455  34.133  38.260  1.00  0.00     0.010 A 
ATOM     90  C   UNL A   1      41.253  35.237  37.067  1.00  0.00     0.010 A 
ATOM     91  C   UNL A   1      39.580  35.059  39.300  1.00  0.00     0.020 A 
ATOM     92  C   UNL A   1      41.408  36.142  38.120  1.00  0.00     0.020 A 
ATOM     93  C   UNL A   1      40.562  36.055  39.226  1.00  0.00     0.054 A 
BRANCH  93  94
ATOM     94  S   UNL A   1      40.750  37.201  40.619  1.00  0.00     0.124 S 
ATOM     95  O   UNL A   1      39.505  37.963  40.556  1.00  0.00    -0.237 OA
ATOM     96  O   UNL A   1      40.874  36.300  41.762  1.00  0.00    -0.237 OA
ATOM     97  O   UNL A   1      41.958  37.954  40.292  1.00  0.00    -0.744 OA
ENDBRANCH  93  94
ENDBRANCH  67  88
ENDBRANCH  41  42
ENDBRANCH  34  36
ENDBRANCH  33  34
ENDBRANCH  32  33
ENDBRANCH   1  32
TORSDOF 18
ENDMDL
MODEL 3
REMARK VINA RESULT:      -9.4      6.234     12.751
REMARK SMILES CS(=O)(=O)Nc1ccc(-c2cc(Cl)cc3c2O[C@H](C(F)(F)F)C(C(=O)OCCOC(=O)c2ccc(-c4c5nc(c(-c6ccc(S(=O)(=O)[O-])cc6)c6ccc([nH]6)c(-c6ccc(S(=O)(=O)[O-])cc6)c6nc(c(-c7ccc(S(=O)(=O)[O-])cc7)c7ccc4[nH]7)C=C6)C=C5)cc2)=C3)cc1
REMARK SMILES IDX 27 1 26 2 24 3 25 4 23 5 10 6 11 7 16 8 12 9 15 10 17 11
REMARK SMILES IDX 13 12 14 13 92 14 18 15 9 16 6 17 7 18 94 19 8 20 93 21 5 22
REMARK SMILES IDX 2 24 1 25 3 26 4 27 19 28 20 29 21 30 22 31 28 32 29 33
REMARK SMILES IDX 30 34 31 35 32 36 33 37 91 38 34 39 90 40 35 41 36 42 37 43
REMARK SMILES IDX 84 44 38 45 89 46 83 47 85 48 39 49 88 50 82 51 81 52 40 54
REMARK SMILES IDX 70 55 51 56 69 57 52 58 55 59 68 60 86 61 53 62 54 63 67 65
REMARK SMILES IDX 87 66 56 67 41 68 42 69 50 70 43 71 49 72 44 73 45 74 46 75
REMARK SMILES IDX 47 76 48 77 71 78 72 79 80 80 73 81 79 82 74 83 75 84 76 85
REMARK SMILES IDX 77 86 78 87 57 88 58 89 66 90 59 91 65 92 60 93 61 94 62 95
REMARK SMILES IDX 63 96 64 97
REMARK H PARENT 5 23 85 53 55 64
REMARK Flexibility Score: inf
ROOT
ATOM      1  C   UNL A   1      36.117  22.252  25.734  1.00  0.00     0.275 C 
ENDROOT
BRANCH   1   2
ATOM      2  O   UNL A   1      35.081  23.190  25.341  1.00  0.00    -0.459 OA
BRANCH   2   3
ATOM      3  C   UNL A   1      34.022  23.213  26.194  1.00  0.00     0.338 C 
ATOM      4  O   UNL A   1      34.127  23.201  27.416  1.00  0.00    -0.246 OA
BRANCH   3   5
ATOM      5  C   UNL A   1      32.690  23.261  25.531  1.00  0.00     0.087 C 
ATOM      6  C   UNL A   1      31.501  26.816  24.016  1.00  0.00     0.026 A 
ATOM      7  C   UNL A   1      32.309  27.667  24.814  1.00  0.00     0.033 A 
ATOM      8  C   UNL A   1      31.474  25.491  24.465  1.00  0.00     0.135 A 
ATOM      9  C   UNL A   1      32.859  27.286  26.043  1.00  0.00     0.042 A 
ATOM     10  C   UNL A   1      31.781  25.215  25.824  1.00  0.00     0.019 A 
ATOM     11  O   UNL A   1      31.438  24.376  23.626  1.00  0.00    -0.475 OA
ATOM     12  Cl  UNL A   1      34.090  28.142  26.875  1.00  0.00    -0.084 Cl
ATOM     13  C   UNL A   1      32.461  26.113  26.621  1.00  0.00     0.032 A 
ATOM     14  C   UNL A   1      31.734  23.819  26.293  1.00  0.00     0.027 C 
ATOM     15  C   UNL A   1      32.452  23.318  24.033  1.00  0.00     0.316 C 
BRANCH   6  16
ATOM     16  C   UNL A   1      30.642  27.544  23.011  1.00  0.00    -0.014 A 
ATOM     17  C   UNL A   1      29.015  29.765  22.129  1.00  0.00     0.048 A 
ATOM     18  C   UNL A   1      30.344  29.628  21.722  1.00  0.00     0.027 A 
ATOM     19  C   UNL A   1      28.459  28.724  22.860  1.00  0.00     0.027 A 
ATOM     20  C   UNL A   1      31.123  28.504  22.107  1.00  0.00     0.011 A 
ATOM     21  C   UNL A   1      29.260  27.641  23.297  1.00  0.00     0.011 A 
BRANCH  17  22
ATOM     22  N   UNL A   1      28.357  31.017  21.922  1.00  0.00    -0.284 N 
ATOM     23  H   UNL A   1      28.066  31.227  21.006  1.00  0.00     0.180 HD
BRANCH  22  24
ATOM     24  S   UNL A   1      28.038  32.152  23.104  1.00  0.00     0.229 S 
ATOM     25  C   UNL A   1      29.440  32.019  24.191  1.00  0.00     0.183 C 
ATOM     26  O   UNL A   1      26.852  31.775  23.835  1.00  0.00    -0.207 OA
ATOM     27  O   UNL A   1      28.135  33.446  22.455  1.00  0.00    -0.207 OA
ENDBRANCH  22  24
ENDBRANCH  17  22
ENDBRANCH   6  16
BRANCH  15  28
ATOM     28  C   UNL A   1      31.965  21.911  23.660  1.00  0.00     0.430 C 
ATOM     29  F   UNL A   1      31.467  21.250  24.735  1.00  0.00    -0.167 F 
ATOM     30  F   UNL A   1      31.011  21.923  22.708  1.00  0.00    -0.167 F 
ATOM     31  F   UNL A   1      32.989  21.153  23.182  1.00  0.00    -0.167 F 
ENDBRANCH  15  28
ENDBRANCH   3   5
ENDBRANCH   2   3
ENDBRANCH   1   2
BRANCH   1  32
ATOM     32  C   UNL A   1      37.512  22.612  25.212  1.00  0.00     0.275 C 
BRANCH  32  33
ATOM     33  O   UNL A   1      38.024  23.814  25.816  1.00  0.00    -0.458 OA
BRANCH  33  34
ATOM     34  C   UNL A   1      39.240  23.658  26.396  1.00  0.00     0.338 C 
ATOM     35  O   UNL A   1      39.971  22.687  26.263  1.00  0.00    -0.246 OA
BRANCH  34  36
ATOM     36  C   UNL A   1      39.663  24.883  27.123  1.00  0.00     0.060 A 
ATOM     37  C   UNL A   1      39.231  24.991  28.438  1.00  0.00     0.016 A 
ATOM     38  C   UNL A   1      40.439  25.919  26.583  1.00  0.00     0.016 A 
ATOM     39  C   UNL A   1      39.622  26.087  29.208  1.00  0.00     0.010 A 
ATOM     40  C   UNL A   1      40.841  27.020  27.385  1.00  0.00     0.010 A 
ATOM     41  C   UNL A   1      40.473  27.101  28.733  1.00  0.00    -0.014 A 
BRANCH  41  42
ATOM     42  C   UNL A   1      40.861  28.198  29.705  1.00  0.00     0.031 A 
ATOM     43  C   UNL A   1      39.884  29.317  29.939  1.00  0.00     0.074 A 
ATOM     44  C   UNL A   1      41.927  28.127  30.542  1.00  0.00     0.049 A 
ATOM     45  N   UNL A   1      39.877  30.220  30.885  1.00  0.00    -0.248 NA
ATOM     46  C   UNL A   1      38.761  29.419  28.993  1.00  0.00     0.031 C 
ATOM     47  C   UNL A   1      42.931  27.083  30.511  1.00  0.00     0.029 A 
ATOM     48  N   UNL A   1      42.307  28.871  31.644  1.00  0.00    -0.354 N 
ATOM     49  C   UNL A   1      38.762  31.005  30.640  1.00  0.00     0.074 A 
ATOM     50  C   UNL A   1      38.086  30.442  29.491  1.00  0.00     0.031 C 
ATOM     51  C   UNL A   1      43.665  27.101  31.633  1.00  0.00     0.029 A 
ATOM     52  C   UNL A   1      43.340  28.307  32.381  1.00  0.00     0.049 A 
ATOM     53  H   UNL A   1      41.882  29.726  31.885  1.00  0.00     0.167 HD
ATOM     54  C   UNL A   1      38.361  32.128  31.277  1.00  0.00     0.031 A 
ATOM     55  C   UNL A   1      43.991  28.720  33.494  1.00  0.00     0.031 A 
ATOM     56  C   UNL A   1      39.079  32.767  32.342  1.00  0.00     0.049 A 
ATOM     57  C   UNL A   1      43.633  30.077  34.048  1.00  0.00     0.074 A 
ATOM     58  C   UNL A   1      38.751  33.936  33.006  1.00  0.00     0.029 A 
ATOM     59  N   UNL A   1      40.286  32.335  32.865  1.00  0.00    -0.354 N 
ATOM     60  N   UNL A   1      42.598  30.830  33.764  1.00  0.00    -0.248 NA
ATOM     61  C   UNL A   1      44.539  30.651  35.055  1.00  0.00     0.031 C 
ATOM     62  C   UNL A   1      39.790  34.241  33.891  1.00  0.00     0.029 A 
ATOM     63  C   UNL A   1      40.718  33.214  33.845  1.00  0.00     0.049 A 
ATOM     64  H   UNL A   1      40.766  31.523  32.583  1.00  0.00     0.167 HD
ATOM     65  C   UNL A   1      42.723  31.960  34.567  1.00  0.00     0.074 A 
ATOM     66  C   UNL A   1      43.912  31.775  35.372  1.00  0.00     0.031 C 
ATOM     67  C   UNL A   1      41.915  33.046  34.633  1.00  0.00     0.031 A 
BRANCH  54  68
ATOM     68  C   UNL A   1      37.135  32.801  30.732  1.00  0.00    -0.014 A 
ATOM     69  C   UNL A   1      35.859  32.542  31.260  1.00  0.00     0.010 A 
ATOM     70  C   UNL A   1      37.272  33.691  29.652  1.00  0.00     0.010 A 
ATOM     71  C   UNL A   1      34.732  33.129  30.682  1.00  0.00     0.020 A 
ATOM     72  C   UNL A   1      36.151  34.299  29.089  1.00  0.00     0.020 A 
ATOM     73  C   UNL A   1      34.885  33.997  29.595  1.00  0.00     0.054 A 
BRANCH  73  74
ATOM     74  S   UNL A   1      33.404  34.727  28.849  1.00  0.00     0.124 S 
ATOM     75  O   UNL A   1      32.567  34.969  30.022  1.00  0.00    -0.237 OA
ATOM     76  O   UNL A   1      33.931  35.920  28.195  1.00  0.00    -0.237 OA
ATOM     77  O   UNL A   1      32.921  33.684  27.947  1.00  0.00    -0.744 OA
ENDBRANCH  73  74
ENDBRANCH  54  68
BRANCH  55  78
ATOM     78  C   UNL A   1      45.087  27.914  34.144  1.00  0.00    -0.014 A 
ATOM     79  C   UNL A   1      44.813  27.025  35.204  1.00  0.00     0.010 A 
ATOM     80  C   UNL A   1      46.432  28.068  33.759  1.00  0.00     0.010 A 
ATOM     81  C   UNL A   1      45.835  26.321  35.857  1.00  0.00     0.020 A 
ATOM     82  C   UNL A   1      47.456  27.339  34.379  1.00  0.00     0.020 A 
ATOM     83  C   UNL A   1      47.152  26.479  35.435  1.00  0.00     0.054 A 
BRANCH  83  84
ATOM     84  S   UNL A   1      48.459  25.536  36.272  1.00  0.00     0.124 S 
ATOM     85  O   UNL A   1      49.543  25.590  35.297  1.00  0.00    -0.237 OA
ATOM     86  O   UNL A   1      48.667  26.308  37.494  1.00  0.00    -0.237 OA
ATOM     87  O   UNL A   1      47.856  24.219  36.467  1.00  0.00    -0.744 OA
ENDBRANCH  83  84
ENDBRANCH  55  78
BRANCH  67  88
ATOM     88  C   UNL A   1      42.249  34.112  35.646  1.00  0.00    -0.014 A 
ATOM     89  C   UNL A   1      43.029  35.235  35.314  1.00  0.00     0.010 A 
ATOM     90  C   UNL A   1      41.716  34.012  36.944  1.00  0.00     0.010 A 
ATOM     91  C   UNL A   1      43.284  36.226  36.267  1.00  0.00     0.020 A 
ATOM     92  C   UNL A   1      41.936  35.018  37.889  1.00  0.00     0.020 A 
ATOM     93  C   UNL A   1      42.730  36.114  37.548  1.00  0.00     0.054 A 
BRANCH  93  94
ATOM     94  S   UNL A   1      43.019  37.447  38.744  1.00  0.00     0.124 S 
ATOM     95  O   UNL A   1      43.674  36.736  39.839  1.00  0.00    -0.237 OA
ATOM     96  O   UNL A   1      43.872  38.369  37.998  1.00  0.00    -0.237 OA
ATOM     97  O   UNL A   1      41.679  37.948  39.039  1.00  0.00    -0.744 OA
ENDBRANCH  93  94
ENDBRANCH  67  88
ENDBRANCH  41  42
ENDBRANCH  34  36
ENDBRANCH  33  34
ENDBRANCH  32  33
ENDBRANCH   1  32
TORSDOF 18
ENDMDL
