MODEL 1
REMARK VINA RESULT:     -10.4      0.000      0.000
REMARK SMILES CC(C)CCc1cc2c(cc1Cl)C=C(C(=O)OCCOC(=O)c1ccc(-c3c4nc(c(-c5ccc(S(=O)(=O)[O-])cc5)c5ccc([nH]5)c(-c5ccc(S(=O)(=O)[O-])cc5)c5nc(c(-c6ccc(S(=O)(=O)[O-])cc6)c6ccc3[nH]6)C=C5)C=C4)cc1)[C@@H](C(F)(F)F)O2
REMARK SMILES IDX 18 1 17 2 15 3 16 4 14 5 6 6 7 7 11 8 8 9 10 10 12 11 9 12
REMARK SMILES IDX 88 13 13 14 83 15 5 16 4 17 2 18 1 19 3 20 84 21 85 22 86 23
REMARK SMILES IDX 87 24 19 25 20 26 21 27 22 28 23 29 24 30 82 31 25 32 81 33
REMARK SMILES IDX 26 34 27 35 28 36 75 37 29 38 80 39 74 40 76 41 30 42 79 43
REMARK SMILES IDX 73 44 72 45 31 47 61 48 42 49 60 50 43 51 46 52 59 53 77 54
REMARK SMILES IDX 44 55 45 56 58 58 78 59 47 60 32 61 33 62 41 63 34 64 40 65
REMARK SMILES IDX 35 66 36 67 37 68 38 69 39 70 62 71 63 72 71 73 64 74 70 75
REMARK SMILES IDX 65 76 66 77 67 78 68 79 69 80 48 81 49 82 57 83 50 84 56 85
REMARK SMILES IDX 51 86 52 87 53 88 54 89 55 90
REMARK H PARENT 76 46 46 57
REMARK Flexibility Score: inf
ROOT
ATOM      1  C   UNL A   1      40.909  19.537  26.402  1.00  0.00     0.275 C 
ENDROOT
BRANCH   1   2
ATOM      2  O   UNL A   1      41.928  19.576  25.380  1.00  0.00    -0.459 OA
BRANCH   2   3
ATOM      3  C   UNL A   1      43.196  19.354  25.797  1.00  0.00     0.338 C 
ATOM      4  O   UNL A   1      43.678  18.276  26.116  1.00  0.00    -0.246 OA
BRANCH   3   5
ATOM      5  C   UNL A   1      43.974  20.608  25.750  1.00  0.00     0.087 C 
ATOM      6  C   UNL A   1      45.571  25.357  25.294  1.00  0.00    -0.026 A 
ATOM      7  C   UNL A   1      46.186  24.134  25.617  1.00  0.00     0.052 A 
ATOM      8  C   UNL A   1      44.164  25.387  25.244  1.00  0.00     0.045 A 
ATOM      9  C   UNL A   1      45.452  22.953  25.701  1.00  0.00     0.128 A 
ATOM     10  C   UNL A   1      43.420  24.219  25.400  1.00  0.00     0.032 A 
ATOM     11  Cl  UNL A   1      43.290  26.854  24.969  1.00  0.00    -0.084 Cl
ATOM     12  C   UNL A   1      44.071  22.996  25.571  1.00  0.00     0.019 A 
ATOM     13  O   UNL A   1      46.160  21.801  25.906  1.00  0.00    -0.475 OA
ATOM     14  C   UNL A   1      43.315  21.764  25.616  1.00  0.00     0.027 C 
ATOM     15  C   UNL A   1      45.473  20.531  25.725  1.00  0.00     0.316 C 
BRANCH   6  16
ATOM     16  C   UNL A   1      46.364  26.601  24.950  1.00  0.00     0.037 C 
BRANCH  16  17
ATOM     17  C   UNL A   1      47.568  26.970  25.830  1.00  0.00     0.008 C 
BRANCH  17  18
ATOM     18  C   UNL A   1      48.959  26.909  25.159  1.00  0.00    -0.017 C 
ATOM     19  C   UNL A   1      49.918  25.945  25.852  1.00  0.00     0.007 C 
ATOM     20  C   UNL A   1      48.787  26.535  23.686  1.00  0.00     0.007 C 
ENDBRANCH  17  18
ENDBRANCH  16  17
ENDBRANCH   6  16
BRANCH  15  21
ATOM     21  C   UNL A   1      45.926  19.871  24.410  1.00  0.00     0.430 C 
ATOM     22  F   UNL A   1      46.024  18.526  24.531  1.00  0.00    -0.167 F 
ATOM     23  F   UNL A   1      45.038  20.103  23.411  1.00  0.00    -0.167 F 
ATOM     24  F   UNL A   1      47.128  20.328  23.991  1.00  0.00    -0.167 F 
ENDBRANCH  15  21
ENDBRANCH   3   5
ENDBRANCH   2   3
ENDBRANCH   1   2
BRANCH   1  25
ATOM     25  C   UNL A   1      39.717  20.421  26.030  1.00  0.00     0.275 C 
BRANCH  25  26
ATOM     26  O   UNL A   1      39.997  21.806  26.301  1.00  0.00    -0.458 OA
BRANCH  26  27
ATOM     27  C   UNL A   1      38.982  22.659  26.029  1.00  0.00     0.338 C 
ATOM     28  O   UNL A   1      37.955  22.415  25.419  1.00  0.00    -0.246 OA
BRANCH  27  29
ATOM     29  C   UNL A   1      39.212  23.934  26.722  1.00  0.00     0.060 A 
ATOM     30  C   UNL A   1      38.945  24.112  28.071  1.00  0.00     0.016 A 
ATOM     31  C   UNL A   1      39.873  24.925  26.013  1.00  0.00     0.016 A 
ATOM     32  C   UNL A   1      39.339  25.312  28.684  1.00  0.00     0.010 A 
ATOM     33  C   UNL A   1      40.422  26.024  26.659  1.00  0.00     0.010 A 
ATOM     34  C   UNL A   1      40.121  26.268  27.999  1.00  0.00    -0.014 A 
BRANCH  34  35
ATOM     35  C   UNL A   1      40.606  27.519  28.657  1.00  0.00     0.031 A 
ATOM     36  C   UNL A   1      42.057  27.677  29.068  1.00  0.00     0.074 A 
ATOM     37  C   UNL A   1      39.732  28.517  28.917  1.00  0.00     0.049 A 
ATOM     38  N   UNL A   1      42.648  28.710  29.615  1.00  0.00    -0.248 NA
ATOM     39  C   UNL A   1      42.957  26.522  28.885  1.00  0.00     0.031 C 
ATOM     40  C   UNL A   1      38.290  28.459  28.668  1.00  0.00     0.029 A 
ATOM     41  N   UNL A   1      39.926  29.783  29.416  1.00  0.00    -0.354 N 
ATOM     42  C   UNL A   1      43.965  28.321  29.848  1.00  0.00     0.074 A 
ATOM     43  C   UNL A   1      44.069  26.933  29.477  1.00  0.00     0.031 C 
ATOM     44  C   UNL A   1      37.750  29.661  28.914  1.00  0.00     0.029 A 
ATOM     45  C   UNL A   1      38.789  30.563  29.400  1.00  0.00     0.049 A 
ATOM     46  H   UNL A   1      40.794  30.104  29.751  1.00  0.00     0.167 HD
ATOM     47  C   UNL A   1      45.012  29.066  30.274  1.00  0.00     0.031 A 
ATOM     48  C   UNL A   1      38.601  31.861  29.717  1.00  0.00     0.031 A 
ATOM     49  C   UNL A   1      44.919  30.468  30.578  1.00  0.00     0.049 A 
ATOM     50  C   UNL A   1      39.782  32.681  30.154  1.00  0.00     0.074 A 
ATOM     51  C   UNL A   1      45.937  31.334  30.935  1.00  0.00     0.029 A 
ATOM     52  N   UNL A   1      43.750  31.213  30.543  1.00  0.00    -0.354 N 
ATOM     53  N   UNL A   1      41.036  32.314  30.273  1.00  0.00    -0.248 NA
ATOM     54  C   UNL A   1      39.534  34.092  30.484  1.00  0.00     0.031 C 
ATOM     55  C   UNL A   1      45.373  32.585  31.186  1.00  0.00     0.029 A 
ATOM     56  C   UNL A   1      44.018  32.522  30.900  1.00  0.00     0.049 A 
ATOM     57  H   UNL A   1      42.863  30.862  30.300  1.00  0.00     0.167 HD
ATOM     58  C   UNL A   1      41.728  33.451  30.675  1.00  0.00     0.074 A 
ATOM     59  C   UNL A   1      40.760  34.524  30.755  1.00  0.00     0.031 C 
ATOM     60  C   UNL A   1      43.046  33.587  30.961  1.00  0.00     0.031 A 
BRANCH  47  61
ATOM     61  C   UNL A   1      46.373  28.416  30.375  1.00  0.00    -0.014 A 
ATOM     62  C   UNL A   1      47.281  28.504  29.302  1.00  0.00     0.010 A 
ATOM     63  C   UNL A   1      46.700  27.597  31.473  1.00  0.00     0.010 A 
ATOM     64  C   UNL A   1      48.462  27.755  29.305  1.00  0.00     0.020 A 
ATOM     65  C   UNL A   1      47.898  26.878  31.498  1.00  0.00     0.020 A 
ATOM     66  C   UNL A   1      48.757  26.937  30.399  1.00  0.00     0.054 A 
BRANCH  66  67
ATOM     67  S   UNL A   1      50.262  25.926  30.359  1.00  0.00     0.124 S 
ATOM     68  O   UNL A   1      50.300  25.376  31.712  1.00  0.00    -0.237 OA
ATOM     69  O   UNL A   1      49.975  24.968  29.294  1.00  0.00    -0.237 OA
ATOM     70  O   UNL A   1      51.315  26.890  30.049  1.00  0.00    -0.744 OA
ENDBRANCH  66  67
ENDBRANCH  47  61
BRANCH  48  71
ATOM     71  C   UNL A   1      37.245  32.462  29.547  1.00  0.00    -0.014 A 
ATOM     72  C   UNL A   1      36.888  33.104  28.345  1.00  0.00     0.010 A 
ATOM     73  C   UNL A   1      36.339  32.488  30.623  1.00  0.00     0.010 A 
ATOM     74  C   UNL A   1      35.689  33.815  28.246  1.00  0.00     0.020 A 
ATOM     75  C   UNL A   1      35.119  33.168  30.515  1.00  0.00     0.020 A 
ATOM     76  C   UNL A   1      34.820  33.856  29.338  1.00  0.00     0.054 A 
BRANCH  76  77
ATOM     77  S   UNL A   1      33.306  34.848  29.208  1.00  0.00     0.124 S 
ATOM     78  O   UNL A   1      33.814  36.099  28.650  1.00  0.00    -0.237 OA
ATOM     79  O   UNL A   1      32.477  34.049  28.310  1.00  0.00    -0.237 OA
ATOM     80  O   UNL A   1      32.828  34.929  30.587  1.00  0.00    -0.744 OA
ENDBRANCH  76  77
ENDBRANCH  48  71
BRANCH  60  81
ATOM     81  C   UNL A   1      43.554  34.938  31.393  1.00  0.00    -0.014 A 
ATOM     82  C   UNL A   1      43.516  35.293  32.755  1.00  0.00     0.010 A 
ATOM     83  C   UNL A   1      43.899  35.912  30.440  1.00  0.00     0.010 A 
ATOM     84  C   UNL A   1      43.756  36.609  33.152  1.00  0.00     0.020 A 
ATOM     85  C   UNL A   1      44.177  37.223  30.837  1.00  0.00     0.020 A 
ATOM     86  C   UNL A   1      44.070  37.569  32.186  1.00  0.00     0.054 A 
BRANCH  86  87
ATOM     87  S   UNL A   1      44.308  39.289  32.713  1.00  0.00     0.124 S 
ATOM     88  O   UNL A   1      44.984  39.874  31.559  1.00  0.00    -0.237 OA
ATOM     89  O   UNL A   1      42.939  39.746  32.940  1.00  0.00    -0.237 OA
ATOM     90  O   UNL A   1      45.124  39.169  33.920  1.00  0.00    -0.744 OA
ENDBRANCH  86  87
ENDBRANCH  60  81
ENDBRANCH  34  35
ENDBRANCH  27  29
ENDBRANCH  26  27
ENDBRANCH  25  26
ENDBRANCH   1  25
TORSDOF 18
ENDMDL
MODEL 2
REMARK VINA RESULT:     -10.2      5.818      8.517
REMARK SMILES CC(C)CCc1cc2c(cc1Cl)C=C(C(=O)OCCOC(=O)c1ccc(-c3c4nc(c(-c5ccc(S(=O)(=O)[O-])cc5)c5ccc([nH]5)c(-c5ccc(S(=O)(=O)[O-])cc5)c5nc(c(-c6ccc(S(=O)(=O)[O-])cc6)c6ccc3[nH]6)C=C5)C=C4)cc1)[C@@H](C(F)(F)F)O2
REMARK SMILES IDX 18 1 17 2 15 3 16 4 14 5 6 6 7 7 11 8 8 9 10 10 12 11 9 12
REMARK SMILES IDX 88 13 13 14 83 15 5 16 4 17 2 18 1 19 3 20 84 21 85 22 86 23
REMARK SMILES IDX 87 24 19 25 20 26 21 27 22 28 23 29 24 30 82 31 25 32 81 33
REMARK SMILES IDX 26 34 27 35 28 36 75 37 29 38 80 39 74 40 76 41 30 42 79 43
REMARK SMILES IDX 73 44 72 45 31 47 61 48 42 49 60 50 43 51 46 52 59 53 77 54
REMARK SMILES IDX 44 55 45 56 58 58 78 59 47 60 32 61 33 62 41 63 34 64 40 65
REMARK SMILES IDX 35 66 36 67 37 68 38 69 39 70 62 71 63 72 71 73 64 74 70 75
REMARK SMILES IDX 65 76 66 77 67 78 68 79 69 80 48 81 49 82 57 83 50 84 56 85
REMARK SMILES IDX 51 86 52 87 53 88 54 89 55 90
REMARK H PARENT 76 46 46 57
REMARK Flexibility Score: inf
ROOT
ATOM      1  C   UNL A   1      37.934  22.510  25.726  1.00  0.00     0.275 C 
ENDROOT
BRANCH   1   2
ATOM      2  O   UNL A   1      37.075  23.590  25.302  1.00  0.00    -0.459 OA
BRANCH   2   3
ATOM      3  C   UNL A   1      35.770  23.478  25.642  1.00  0.00     0.338 C 
ATOM      4  O   UNL A   1      35.304  22.754  26.509  1.00  0.00    -0.246 OA
BRANCH   3   5
ATOM      5  C   UNL A   1      34.957  24.426  24.854  1.00  0.00     0.087 C 
ATOM      6  C   UNL A   1      31.962  28.133  23.240  1.00  0.00    -0.026 A 
ATOM      7  C   UNL A   1      32.666  27.087  22.614  1.00  0.00     0.052 A 
ATOM      8  C   UNL A   1      32.238  28.386  24.597  1.00  0.00     0.045 A 
ATOM      9  C   UNL A   1      33.465  26.212  23.346  1.00  0.00     0.128 A 
ATOM     10  C   UNL A   1      33.095  27.555  25.317  1.00  0.00     0.032 A 
ATOM     11  Cl  UNL A   1      31.522  29.713  25.444  1.00  0.00    -0.084 Cl
ATOM     12  C   UNL A   1      33.661  26.436  24.702  1.00  0.00     0.019 A 
ATOM     13  O   UNL A   1      34.013  25.162  22.664  1.00  0.00    -0.475 OA
ATOM     14  C   UNL A   1      34.456  25.504  25.468  1.00  0.00     0.027 C 
ATOM     15  C   UNL A   1      34.617  24.084  23.432  1.00  0.00     0.316 C 
BRANCH   6  16
ATOM     16  C   UNL A   1      30.898  28.939  22.523  1.00  0.00     0.037 C 
BRANCH  16  17
ATOM     17  C   UNL A   1      29.422  28.600  22.779  1.00  0.00     0.008 C 
BRANCH  17  18
ATOM     18  C   UNL A   1      28.450  29.795  22.900  1.00  0.00    -0.017 C 
ATOM     19  C   UNL A   1      29.061  30.996  23.617  1.00  0.00     0.007 C 
ATOM     20  C   UNL A   1      27.965  30.188  21.503  1.00  0.00     0.007 C 
ENDBRANCH  17  18
ENDBRANCH  16  17
ENDBRANCH   6  16
BRANCH  15  21
ATOM     21  C   UNL A   1      33.701  22.847  23.414  1.00  0.00     0.430 C 
ATOM     22  F   UNL A   1      32.703  22.948  24.324  1.00  0.00    -0.167 F 
ATOM     23  F   UNL A   1      33.105  22.692  22.205  1.00  0.00    -0.167 F 
ATOM     24  F   UNL A   1      34.374  21.703  23.677  1.00  0.00    -0.167 F 
ENDBRANCH  15  21
ENDBRANCH   3   5
ENDBRANCH   2   3
ENDBRANCH   1   2
BRANCH   1  25
ATOM     25  C   UNL A   1      39.191  23.041  26.419  1.00  0.00     0.275 C 
BRANCH  25  26
ATOM     26  O   UNL A   1      39.219  24.480  26.405  1.00  0.00    -0.458 OA
BRANCH  26  27
ATOM     27  C   UNL A   1      40.452  25.029  26.494  1.00  0.00     0.338 C 
ATOM     28  O   UNL A   1      41.353  24.960  25.675  1.00  0.00    -0.246 OA
BRANCH  27  29
ATOM     29  C   UNL A   1      40.525  25.885  27.685  1.00  0.00     0.060 A 
ATOM     30  C   UNL A   1      41.361  26.989  27.766  1.00  0.00     0.016 A 
ATOM     31  C   UNL A   1      39.594  25.651  28.686  1.00  0.00     0.016 A 
ATOM     32  C   UNL A   1      41.252  27.838  28.878  1.00  0.00     0.010 A 
ATOM     33  C   UNL A   1      39.365  26.587  29.685  1.00  0.00     0.010 A 
ATOM     34  C   UNL A   1      40.224  27.675  29.834  1.00  0.00    -0.014 A 
BRANCH  34  35
ATOM     35  C   UNL A   1      40.054  28.610  30.986  1.00  0.00     0.031 A 
ATOM     36  C   UNL A   1      40.951  28.522  32.207  1.00  0.00     0.074 A 
ATOM     37  C   UNL A   1      39.068  29.534  30.955  1.00  0.00     0.049 A 
ATOM     38  N   UNL A   1      40.961  29.280  33.275  1.00  0.00    -0.248 NA
ATOM     39  C   UNL A   1      41.935  27.425  32.263  1.00  0.00     0.031 C 
ATOM     40  C   UNL A   1      38.069  29.663  29.891  1.00  0.00     0.029 A 
ATOM     41  N   UNL A   1      38.757  30.556  31.821  1.00  0.00    -0.354 N 
ATOM     42  C   UNL A   1      41.929  28.742  34.120  1.00  0.00     0.074 A 
ATOM     43  C   UNL A   1      42.419  27.541  33.491  1.00  0.00     0.031 C 
ATOM     44  C   UNL A   1      37.330  30.759  30.110  1.00  0.00     0.029 A 
ATOM     45  C   UNL A   1      37.751  31.380  31.362  1.00  0.00     0.049 A 
ATOM     46  H   UNL A   1      39.209  30.688  32.684  1.00  0.00     0.167 HD
ATOM     47  C   UNL A   1      42.413  29.232  35.285  1.00  0.00     0.031 A 
ATOM     48  C   UNL A   1      37.237  32.518  31.872  1.00  0.00     0.031 A 
ATOM     49  C   UNL A   1      41.968  30.466  35.873  1.00  0.00     0.049 A 
ATOM     50  C   UNL A   1      37.812  33.067  33.148  1.00  0.00     0.074 A 
ATOM     51  C   UNL A   1      42.453  31.095  37.006  1.00  0.00     0.029 A 
ATOM     52  N   UNL A   1      40.953  31.267  35.371  1.00  0.00    -0.354 N 
ATOM     53  N   UNL A   1      38.794  32.591  33.877  1.00  0.00    -0.248 NA
ATOM     54  C   UNL A   1      37.227  34.312  33.667  1.00  0.00     0.031 C 
ATOM     55  C   UNL A   1      41.685  32.238  37.228  1.00  0.00     0.029 A 
ATOM     56  C   UNL A   1      40.779  32.369  36.187  1.00  0.00     0.049 A 
ATOM     57  H   UNL A   1      40.435  31.078  34.555  1.00  0.00     0.167 HD
ATOM     58  C   UNL A   1      38.955  33.485  34.929  1.00  0.00     0.074 A 
ATOM     59  C   UNL A   1      37.988  34.545  34.730  1.00  0.00     0.031 C 
ATOM     60  C   UNL A   1      39.821  33.426  35.970  1.00  0.00     0.031 A 
BRANCH  47  61
ATOM     61  C   UNL A   1      43.529  28.487  35.979  1.00  0.00    -0.014 A 
ATOM     62  C   UNL A   1      43.231  27.448  36.883  1.00  0.00     0.010 A 
ATOM     63  C   UNL A   1      44.867  28.906  35.848  1.00  0.00     0.010 A 
ATOM     64  C   UNL A   1      44.237  26.878  37.669  1.00  0.00     0.020 A 
ATOM     65  C   UNL A   1      45.881  28.312  36.604  1.00  0.00     0.020 A 
ATOM     66  C   UNL A   1      45.555  27.323  37.533  1.00  0.00     0.054 A 
BRANCH  66  67
ATOM     67  S   UNL A   1      46.836  26.616  38.604  1.00  0.00     0.124 S 
ATOM     68  O   UNL A   1      46.403  27.047  39.930  1.00  0.00    -0.237 OA
ATOM     69  O   UNL A   1      46.722  25.184  38.335  1.00  0.00    -0.237 OA
ATOM     70  O   UNL A   1      48.069  27.235  38.119  1.00  0.00    -0.744 OA
ENDBRANCH  66  67
ENDBRANCH  47  61
BRANCH  48  71
ATOM     71  C   UNL A   1      36.172  33.240  31.115  1.00  0.00    -0.014 A 
ATOM     72  C   UNL A   1      36.436  33.784  29.844  1.00  0.00     0.010 A 
ATOM     73  C   UNL A   1      34.917  33.477  31.706  1.00  0.00     0.010 A 
ATOM     74  C   UNL A   1      35.498  34.605  29.211  1.00  0.00     0.020 A 
ATOM     75  C   UNL A   1      33.960  34.268  31.058  1.00  0.00     0.020 A 
ATOM     76  C   UNL A   1      34.272  34.855  29.831  1.00  0.00     0.054 A 
BRANCH  76  77
ATOM     77  S   UNL A   1      33.103  35.984  29.023  1.00  0.00     0.124 S 
ATOM     78  O   UNL A   1      34.002  36.871  28.288  1.00  0.00    -0.237 OA
ATOM     79  O   UNL A   1      32.302  35.081  28.203  1.00  0.00    -0.237 OA
ATOM     80  O   UNL A   1      32.393  36.602  30.141  1.00  0.00    -0.744 OA
ENDBRANCH  76  77
ENDBRANCH  48  71
BRANCH  60  81
ATOM     81  C   UNL A   1      39.789  34.527  36.998  1.00  0.00    -0.014 A 
ATOM     82  C   UNL A   1      40.662  35.625  36.869  1.00  0.00     0.010 A 
ATOM     83  C   UNL A   1      39.030  34.389  38.172  1.00  0.00     0.010 A 
ATOM     84  C   UNL A   1      40.819  36.533  37.917  1.00  0.00     0.020 A 
ATOM     85  C   UNL A   1      39.157  35.316  39.210  1.00  0.00     0.020 A 
ATOM     86  C   UNL A   1      40.075  36.362  39.088  1.00  0.00     0.054 A 
BRANCH  86  87
ATOM     87  S   UNL A   1      40.347  37.510  40.467  1.00  0.00     0.124 S 
ATOM     88  O   UNL A   1      40.909  36.633  41.490  1.00  0.00    -0.237 OA
ATOM     89  O   UNL A   1      41.273  38.484  39.894  1.00  0.00    -0.237 OA
ATOM     90  O   UNL A   1      39.010  38.026  40.753  1.00  0.00    -0.744 OA
ENDBRANCH  86  87
ENDBRANCH  60  81
ENDBRANCH  34  35
ENDBRANCH  27  29
ENDBRANCH  26  27
ENDBRANCH  25  26
ENDBRANCH   1  25
TORSDOF 18
ENDMDL
MODEL 3
REMARK VINA RESULT:     -10.1      5.305     12.948
REMARK SMILES CC(C)CCc1cc2c(cc1Cl)C=C(C(=O)OCCOC(=O)c1ccc(-c3c4nc(c(-c5ccc(S(=O)(=O)[O-])cc5)c5ccc([nH]5)c(-c5ccc(S(=O)(=O)[O-])cc5)c5nc(c(-c6ccc(S(=O)(=O)[O-])cc6)c6ccc3[nH]6)C=C5)C=C4)cc1)[C@@H](C(F)(F)F)O2
REMARK SMILES IDX 18 1 17 2 15 3 16 4 14 5 6 6 7 7 11 8 8 9 10 10 12 11 9 12
REMARK SMILES IDX 88 13 13 14 83 15 5 16 4 17 2 18 1 19 3 20 84 21 85 22 86 23
REMARK SMILES IDX 87 24 19 25 20 26 21 27 22 28 23 29 24 30 82 31 25 32 81 33
REMARK SMILES IDX 26 34 27 35 28 36 75 37 29 38 80 39 74 40 76 41 30 42 79 43
REMARK SMILES IDX 73 44 72 45 31 47 61 48 42 49 60 50 43 51 46 52 59 53 77 54
REMARK SMILES IDX 44 55 45 56 58 58 78 59 47 60 32 61 33 62 41 63 34 64 40 65
REMARK SMILES IDX 35 66 36 67 37 68 38 69 39 70 62 71 63 72 71 73 64 74 70 75
REMARK SMILES IDX 65 76 66 77 67 78 68 79 69 80 48 81 49 82 57 83 50 84 56 85
REMARK SMILES IDX 51 86 52 87 53 88 54 89 55 90
REMARK H PARENT 76 46 46 57
REMARK Flexibility Score: inf
ROOT
ATOM      1  C   UNL A   1      33.461  33.976  28.137  1.00  0.00     0.275 C 
ENDROOT
BRANCH   1   2
ATOM      2  O   UNL A   1      32.881  34.121  29.452  1.00  0.00    -0.459 OA
BRANCH   2   3
ATOM      3  C   UNL A   1      33.239  35.231  30.139  1.00  0.00     0.338 C 
ATOM      4  O   UNL A   1      32.742  36.343  30.032  1.00  0.00    -0.246 OA
BRANCH   3   5
ATOM      5  C   UNL A   1      34.294  34.904  31.118  1.00  0.00     0.087 C 
ATOM      6  C   UNL A   1      37.657  32.671  34.121  1.00  0.00    -0.026 A 
ATOM      7  C   UNL A   1      37.270  34.004  33.889  1.00  0.00     0.052 A 
ATOM      8  C   UNL A   1      37.178  31.688  33.234  1.00  0.00     0.045 A 
ATOM      9  C   UNL A   1      36.302  34.323  32.940  1.00  0.00     0.128 A 
ATOM     10  C   UNL A   1      36.264  32.015  32.234  1.00  0.00     0.032 A 
ATOM     11  Cl  UNL A   1      37.673  30.035  33.346  1.00  0.00    -0.084 Cl
ATOM     12  C   UNL A   1      35.785  33.323  32.128  1.00  0.00     0.019 A 
ATOM     13  O   UNL A   1      35.913  35.632  32.873  1.00  0.00    -0.475 OA
ATOM     14  C   UNL A   1      34.751  33.648  31.172  1.00  0.00     0.027 C 
ATOM     15  C   UNL A   1      34.723  35.956  32.100  1.00  0.00     0.316 C 
BRANCH   6  16
ATOM     16  C   UNL A   1      38.511  32.267  35.305  1.00  0.00     0.037 C 
BRANCH  16  17
ATOM     17  C   UNL A   1      37.816  31.927  36.631  1.00  0.00     0.008 C 
BRANCH  17  18
ATOM     18  C   UNL A   1      37.645  33.086  37.638  1.00  0.00    -0.017 C 
ATOM     19  C   UNL A   1      37.551  32.613  39.087  1.00  0.00     0.007 C 
ATOM     20  C   UNL A   1      38.800  34.073  37.466  1.00  0.00     0.007 C 
ENDBRANCH  17  18
ENDBRANCH  16  17
ENDBRANCH   6  16
BRANCH  15  21
ATOM     21  C   UNL A   1      33.552  36.275  33.046  1.00  0.00     0.430 C 
ATOM     22  F   UNL A   1      32.904  37.407  32.679  1.00  0.00    -0.167 F 
ATOM     23  F   UNL A   1      32.627  35.283  33.038  1.00  0.00    -0.167 F 
ATOM     24  F   UNL A   1      33.953  36.437  34.328  1.00  0.00    -0.167 F 
ENDBRANCH  15  21
ENDBRANCH   3   5
ENDBRANCH   2   3
ENDBRANCH   1   2
BRANCH   1  25
ATOM     25  C   UNL A   1      34.561  32.912  28.131  1.00  0.00     0.275 C 
BRANCH  25  26
ATOM     26  O   UNL A   1      34.287  31.893  27.153  1.00  0.00    -0.458 OA
BRANCH  26  27
ATOM     27  C   UNL A   1      34.147  30.643  27.652  1.00  0.00     0.338 C 
ATOM     28  O   UNL A   1      33.116  30.000  27.757  1.00  0.00    -0.246 OA
BRANCH  27  29
ATOM     29  C   UNL A   1      35.472  30.071  27.925  1.00  0.00     0.060 A 
ATOM     30  C   UNL A   1      36.511  30.115  27.007  1.00  0.00     0.016 A 
ATOM     31  C   UNL A   1      35.711  29.623  29.215  1.00  0.00     0.016 A 
ATOM     32  C   UNL A   1      37.785  29.684  27.408  1.00  0.00     0.010 A 
ATOM     33  C   UNL A   1      37.002  29.373  29.660  1.00  0.00     0.010 A 
ATOM     34  C   UNL A   1      38.061  29.347  28.752  1.00  0.00    -0.014 A 
BRANCH  34  35
ATOM     35  C   UNL A   1      39.427  28.951  29.210  1.00  0.00     0.031 A 
ATOM     36  C   UNL A   1      40.225  29.832  30.151  1.00  0.00     0.074 A 
ATOM     37  C   UNL A   1      39.974  27.801  28.757  1.00  0.00     0.049 A 
ATOM     38  N   UNL A   1      41.407  29.618  30.673  1.00  0.00    -0.248 NA
ATOM     39  C   UNL A   1      39.651  31.138  30.528  1.00  0.00     0.031 C 
ATOM     40  C   UNL A   1      39.361  26.909  27.769  1.00  0.00     0.029 A 
ATOM     41  N   UNL A   1      41.149  27.167  29.084  1.00  0.00    -0.354 N 
ATOM     42  C   UNL A   1      41.713  30.757  31.414  1.00  0.00     0.074 A 
ATOM     43  C   UNL A   1      40.644  31.700  31.202  1.00  0.00     0.031 C 
ATOM     44  C   UNL A   1      40.107  25.802  27.650  1.00  0.00     0.029 A 
ATOM     45  C   UNL A   1      41.287  25.925  28.501  1.00  0.00     0.049 A 
ATOM     46  H   UNL A   1      41.827  27.561  29.678  1.00  0.00     0.167 HD
ATOM     47  C   UNL A   1      42.757  30.979  32.247  1.00  0.00     0.031 A 
ATOM     48  C   UNL A   1      42.238  24.979  28.645  1.00  0.00     0.031 A 
ATOM     49  C   UNL A   1      43.785  30.008  32.507  1.00  0.00     0.049 A 
ATOM     50  C   UNL A   1      43.371  25.228  29.601  1.00  0.00     0.074 A 
ATOM     51  C   UNL A   1      44.839  30.100  33.399  1.00  0.00     0.029 A 
ATOM     52  N   UNL A   1      43.879  28.766  31.899  1.00  0.00    -0.354 N 
ATOM     53  N   UNL A   1      43.585  26.274  30.364  1.00  0.00    -0.248 NA
ATOM     54  C   UNL A   1      44.383  24.170  29.733  1.00  0.00     0.031 C 
ATOM     55  C   UNL A   1      45.611  28.945  33.277  1.00  0.00     0.029 A 
ATOM     56  C   UNL A   1      44.991  28.094  32.375  1.00  0.00     0.049 A 
ATOM     57  H   UNL A   1      43.248  28.415  31.229  1.00  0.00     0.167 HD
ATOM     58  C   UNL A   1      44.745  25.993  31.077  1.00  0.00     0.074 A 
ATOM     59  C   UNL A   1      45.173  24.670  30.676  1.00  0.00     0.031 C 
ATOM     60  C   UNL A   1      45.399  26.769  31.977  1.00  0.00     0.031 A 
BRANCH  47  61
ATOM     61  C   UNL A   1      42.820  32.287  33.000  1.00  0.00    -0.014 A 
ATOM     62  C   UNL A   1      42.064  32.465  34.175  1.00  0.00     0.010 A 
ATOM     63  C   UNL A   1      43.516  33.391  32.470  1.00  0.00     0.010 A 
ATOM     64  C   UNL A   1      41.967  33.724  34.776  1.00  0.00     0.020 A 
ATOM     65  C   UNL A   1      43.452  34.642  33.089  1.00  0.00     0.020 A 
ATOM     66  C   UNL A   1      42.653  34.808  34.221  1.00  0.00     0.054 A 
BRANCH  66  67
ATOM     67  S   UNL A   1      42.467  36.446  34.977  1.00  0.00     0.124 S 
ATOM     68  O   UNL A   1      43.453  36.403  36.053  1.00  0.00    -0.237 OA
ATOM     69  O   UNL A   1      42.778  37.345  33.869  1.00  0.00    -0.237 OA
ATOM     70  O   UNL A   1      41.071  36.467  35.411  1.00  0.00    -0.744 OA
ENDBRANCH  66  67
ENDBRANCH  47  61
BRANCH  48  71
ATOM     71  C   UNL A   1      42.095  23.685  27.916  1.00  0.00    -0.014 A 
ATOM     72  C   UNL A   1      41.366  22.619  28.477  1.00  0.00     0.010 A 
ATOM     73  C   UNL A   1      42.774  23.475  26.701  1.00  0.00     0.010 A 
ATOM     74  C   UNL A   1      41.375  21.356  27.880  1.00  0.00     0.020 A 
ATOM     75  C   UNL A   1      42.754  22.220  26.079  1.00  0.00     0.020 A 
ATOM     76  C   UNL A   1      42.084  21.161  26.692  1.00  0.00     0.054 A 
BRANCH  76  77
ATOM     77  S   UNL A   1      42.141  19.494  25.977  1.00  0.00     0.124 S 
ATOM     78  O   UNL A   1      42.673  18.709  27.089  1.00  0.00    -0.237 OA
ATOM     79  O   UNL A   1      40.743  19.242  25.642  1.00  0.00    -0.237 OA
ATOM     80  O   UNL A   1      43.037  19.641  24.832  1.00  0.00    -0.744 OA
ENDBRANCH  76  77
ENDBRANCH  48  71
BRANCH  60  81
ATOM     81  C   UNL A   1      46.657  26.233  32.610  1.00  0.00    -0.014 A 
ATOM     82  C   UNL A   1      47.888  26.379  31.942  1.00  0.00     0.010 A 
ATOM     83  C   UNL A   1      46.594  25.438  33.767  1.00  0.00     0.010 A 
ATOM     84  C   UNL A   1      49.021  25.695  32.386  1.00  0.00     0.020 A 
ATOM     85  C   UNL A   1      47.735  24.780  34.236  1.00  0.00     0.020 A 
ATOM     86  C   UNL A   1      48.931  24.887  33.522  1.00  0.00     0.054 A 
BRANCH  86  87
ATOM     87  S   UNL A   1      50.395  23.949  34.040  1.00  0.00     0.124 S 
ATOM     88  O   UNL A   1      51.120  23.791  32.783  1.00  0.00    -0.237 OA
ATOM     89  O   UNL A   1      51.016  24.839  35.018  1.00  0.00    -0.237 OA
ATOM     90  O   UNL A   1      49.836  22.718  34.596  1.00  0.00    -0.744 OA
ENDBRANCH  86  87
ENDBRANCH  60  81
ENDBRANCH  34  35
ENDBRANCH  27  29
ENDBRANCH  26  27
ENDBRANCH  25  26
ENDBRANCH   1  25
TORSDOF 18
ENDMDL
