MODEL 1
REMARK VINA RESULT:     -13.1      0.000      0.000
REMARK SMILES Cc1ccc(-c2cc(OCC(=O)OCCOC(=O)c3ccc(-c4c5nc(c(-c6ccc(S(=O)(=O)[O-])cc6)c6ccc([nH]6)c(-c6ccc(S(=O)(=O)[O-])cc6)c6nc(c(-c7ccc(S(=O)(=O)[O-])cc7)c7ccc4[nH]7)C=C6)C=C5)cc3)nc(NCc3ccc4c(c3)OCO4)n2)cc1
REMARK SMILES IDX 14 1 13 2 11 3 12 4 10 5 9 6 8 7 6 8 7 9 92 10 80 11 79 12
REMARK SMILES IDX 5 13 1 14 2 15 3 16 94 17 4 18 93 19 81 20 82 22 83 23 84 24
REMARK SMILES IDX 88 25 85 26 87 27 86 28 89 29 91 30 90 31 15 32 16 33 17 34
REMARK SMILES IDX 18 35 19 36 20 37 78 38 21 39 77 40 22 41 23 42 24 43 71 44
REMARK SMILES IDX 25 45 76 46 70 47 72 48 26 49 75 50 69 51 68 52 27 54 57 55
REMARK SMILES IDX 38 56 56 57 39 58 42 59 55 60 73 61 40 62 41 63 54 65 74 66
REMARK SMILES IDX 43 67 28 68 29 69 37 70 30 71 36 72 31 73 32 74 33 75 34 76
REMARK SMILES IDX 35 77 58 78 59 79 67 80 60 81 66 82 61 83 62 84 63 85 64 86
REMARK SMILES IDX 65 87 44 88 45 89 53 90 46 91 52 92 47 93 48 94 49 95 50 96
REMARK SMILES IDX 51 97
REMARK H PARENT 81 21 72 53 42 64
REMARK Flexibility Score: inf
ROOT
ATOM      1  C   UNL A   1      42.536  19.761  26.457  1.00  0.00     0.274 C 
ENDROOT
BRANCH   1   2
ATOM      2  O   UNL A   1      41.232  19.776  25.827  1.00  0.00    -0.460 OA
BRANCH   2   3
ATOM      3  C   UNL A   1      40.192  20.510  26.537  1.00  0.00     0.344 C 
ATOM      4  O   UNL A   1      40.630  20.625  27.721  1.00  0.00    -0.248 OA
BRANCH   3   5
ATOM      5  C   UNL A   1      38.405  21.347  25.602  1.00  0.00     0.353 C 
BRANCH   5   6
ATOM      6  O   UNL A   1      36.978  21.934  26.013  1.00  0.00    -0.466 OA
BRANCH   6   7
ATOM      7  C   UNL A   1      35.799  21.751  25.282  1.00  0.00     0.219 A 
ATOM      8  C   UNL A   1      34.249  20.192  24.502  1.00  0.00     0.080 A 
ATOM      9  C   UNL A   1      35.562  20.475  24.807  1.00  0.00     0.097 A 
ATOM     10  N   UNL A   1      33.349  21.169  24.337  1.00  0.00    -0.213 NA
ATOM     11  C   UNL A   1      33.733  22.426  24.584  1.00  0.00     0.226 A 
ATOM     12  N   UNL A   1      34.918  22.765  25.143  1.00  0.00    -0.177 NA
BRANCH   8  13
ATOM     13  C   UNL A   1      33.701  18.830  24.596  1.00  0.00     0.000 A 
ATOM     14  C   UNL A   1      32.727  14.718  25.508  1.00  0.00     0.044 C 
ATOM     15  C   UNL A   1      32.952  16.147  25.120  1.00  0.00    -0.051 A 
ATOM     16  C   UNL A   1      33.705  16.476  23.985  1.00  0.00     0.004 A 
ATOM     17  C   UNL A   1      32.471  17.177  25.925  1.00  0.00     0.004 A 
ATOM     18  C   UNL A   1      34.091  17.801  23.736  1.00  0.00     0.010 A 
ATOM     19  C   UNL A   1      32.828  18.498  25.648  1.00  0.00     0.010 A 
ENDBRANCH   8  13
BRANCH  11  20
ATOM     20  N   UNL A   1      32.862  23.430  24.217  1.00  0.00    -0.350 N 
ATOM     21  H   UNL A   1      32.032  23.578  24.725  1.00  0.00     0.164 HD
BRANCH  20  22
ATOM     22  C   UNL A   1      33.177  24.267  23.072  1.00  0.00     0.152 C 
BRANCH  22  23
ATOM     23  C   UNL A   1      32.694  25.705  23.228  1.00  0.00    -0.025 A 
ATOM     24  C   UNL A   1      33.238  26.525  24.254  1.00  0.00     0.009 A 
ATOM     25  C   UNL A   1      31.683  26.229  22.407  1.00  0.00     0.056 A 
ATOM     26  C   UNL A   1      32.725  27.805  24.514  1.00  0.00     0.051 A 
ATOM     27  C   UNL A   1      31.165  27.463  22.720  1.00  0.00     0.166 A 
ATOM     28  C   UNL A   1      31.657  28.224  23.755  1.00  0.00     0.165 A 
ATOM     29  O   UNL A   1      30.080  28.036  22.129  1.00  0.00    -0.454 OA
ATOM     30  O   UNL A   1      30.920  29.355  23.946  1.00  0.00    -0.454 OA
ATOM     31  C   UNL A   1      29.779  29.036  23.117  1.00  0.00     0.468 C 
ENDBRANCH  22  23
ENDBRANCH  20  22
ENDBRANCH  11  20
ENDBRANCH   6   7
ENDBRANCH   5   6
ENDBRANCH   3   5
ENDBRANCH   2   3
ENDBRANCH   1   2
BRANCH   1  32
ATOM     32  C   UNL A   1      43.501  20.675  25.679  1.00  0.00     0.275 C 
BRANCH  32  33
ATOM     33  O   UNL A   1      42.951  21.988  25.449  1.00  0.00    -0.458 OA
BRANCH  33  34
ATOM     34  C   UNL A   1      43.223  22.872  26.443  1.00  0.00     0.338 C 
ATOM     35  O   UNL A   1      44.318  23.089  26.930  1.00  0.00    -0.246 OA
BRANCH  34  36
ATOM     36  C   UNL A   1      42.154  23.879  26.397  1.00  0.00     0.060 A 
ATOM     37  C   UNL A   1      42.208  25.308  25.266  1.00  0.00     0.016 A 
ATOM     38  C   UNL A   1      41.418  24.049  28.022  1.00  0.00     0.016 A 
ATOM     39  C   UNL A   1      41.666  26.937  25.833  1.00  0.00     0.010 A 
ATOM     40  C   UNL A   1      40.939  25.695  28.591  1.00  0.00     0.010 A 
ATOM     41  C   UNL A   1      41.151  27.129  27.533  1.00  0.00    -0.014 A 
BRANCH  41  42
ATOM     42  C   UNL A   1      41.533  28.314  28.316  1.00  0.00     0.031 A 
ATOM     43  C   UNL A   1      40.492  29.336  28.505  1.00  0.00     0.074 A 
ATOM     44  C   UNL A   1      42.657  28.265  29.084  1.00  0.00     0.049 A 
ATOM     45  N   UNL A   1      40.703  30.481  29.037  1.00  0.00    -0.248 NA
ATOM     46  C   UNL A   1      39.105  29.179  28.056  1.00  0.00     0.031 C 
ATOM     47  C   UNL A   1      42.960  28.975  30.332  1.00  0.00     0.029 A 
ATOM     48  N   UNL A   1      43.834  27.556  28.898  1.00  0.00    -0.354 N 
ATOM     49  C   UNL A   1      39.475  31.014  29.356  1.00  0.00     0.074 A 
ATOM     50  C   UNL A   1      38.520  30.249  28.602  1.00  0.00     0.031 C 
ATOM     51  C   UNL A   1      44.279  28.876  30.599  1.00  0.00     0.029 A 
ATOM     52  C   UNL A   1      44.907  28.225  29.463  1.00  0.00     0.049 A 
ATOM     53  H   UNL A   1      43.899  26.694  28.428  1.00  0.00     0.167 HD
ATOM     54  C   UNL A   1      39.425  31.924  30.366  1.00  0.00     0.031 A 
ATOM     55  C   UNL A   1      45.903  28.749  28.688  1.00  0.00     0.031 A 
ATOM     56  C   UNL A   1      40.784  32.268  30.796  1.00  0.00     0.049 A 
ATOM     57  C   UNL A   1      45.818  30.261  28.674  1.00  0.00     0.074 A 
ATOM     58  C   UNL A   1      41.564  31.880  31.872  1.00  0.00     0.029 A 
ATOM     59  N   UNL A   1      41.656  32.795  29.851  1.00  0.00    -0.354 N 
ATOM     60  N   UNL A   1      44.772  30.923  29.089  1.00  0.00    -0.248 NA
ATOM     61  C   UNL A   1      46.890  31.145  28.239  1.00  0.00     0.031 C 
ATOM     62  C   UNL A   1      42.928  32.120  31.525  1.00  0.00     0.029 A 
ATOM     63  C   UNL A   1      42.972  32.680  30.258  1.00  0.00     0.049 A 
ATOM     64  H   UNL A   1      41.372  33.200  29.000  1.00  0.00     0.167 HD
ATOM     65  C   UNL A   1      44.997  32.266  29.016  1.00  0.00     0.074 A 
ATOM     66  C   UNL A   1      46.347  32.353  28.484  1.00  0.00     0.031 C 
ATOM     67  C   UNL A   1      44.046  33.174  29.392  1.00  0.00     0.031 A 
BRANCH  54  68
ATOM     68  C   UNL A   1      38.184  32.319  31.129  1.00  0.00    -0.014 A 
ATOM     69  C   UNL A   1      38.101  33.635  31.630  1.00  0.00     0.010 A 
ATOM     70  C   UNL A   1      37.096  31.473  31.425  1.00  0.00     0.010 A 
ATOM     71  C   UNL A   1      37.013  34.079  32.390  1.00  0.00     0.020 A 
ATOM     72  C   UNL A   1      35.998  31.904  32.190  1.00  0.00     0.020 A 
ATOM     73  C   UNL A   1      35.961  33.211  32.662  1.00  0.00     0.054 A 
BRANCH  73  74
ATOM     74  S   UNL A   1      34.545  33.832  33.602  1.00  0.00     0.124 S 
ATOM     75  O   UNL A   1      34.970  33.623  34.984  1.00  0.00    -0.237 OA
ATOM     76  O   UNL A   1      34.470  35.223  33.169  1.00  0.00    -0.237 OA
ATOM     77  O   UNL A   1      33.437  32.985  33.162  1.00  0.00    -0.744 OA
ENDBRANCH  73  74
ENDBRANCH  54  68
BRANCH  55  78
ATOM     78  C   UNL A   1      46.330  27.865  27.562  1.00  0.00    -0.014 A 
ATOM     79  C   UNL A   1      45.579  27.964  26.370  1.00  0.00     0.010 A 
ATOM     80  C   UNL A   1      47.622  27.307  27.496  1.00  0.00     0.010 A 
ATOM     81  C   UNL A   1      46.161  27.687  25.132  1.00  0.00     0.020 A 
ATOM     82  C   UNL A   1      48.201  27.002  26.248  1.00  0.00     0.020 A 
ATOM     83  C   UNL A   1      47.481  27.244  25.075  1.00  0.00     0.054 A 
BRANCH  83  84
ATOM     84  S   UNL A   1      48.282  27.254  23.445  1.00  0.00     0.124 S 
ATOM     85  O   UNL A   1      49.562  27.899  23.718  1.00  0.00    -0.237 OA
ATOM     86  O   UNL A   1      48.348  25.823  23.164  1.00  0.00    -0.237 OA
ATOM     87  O   UNL A   1      47.355  28.008  22.602  1.00  0.00    -0.744 OA
ENDBRANCH  83  84
ENDBRANCH  55  78
BRANCH  67  88
ATOM     88  C   UNL A   1      44.040  34.641  29.012  1.00  0.00    -0.014 A 
ATOM     89  C   UNL A   1      43.809  35.119  27.717  1.00  0.00     0.010 A 
ATOM     90  C   UNL A   1      44.175  35.624  30.026  1.00  0.00     0.010 A 
ATOM     91  C   UNL A   1      43.809  36.486  27.430  1.00  0.00     0.020 A 
ATOM     92  C   UNL A   1      44.092  36.991  29.769  1.00  0.00     0.020 A 
ATOM     93  C   UNL A   1      43.952  37.413  28.458  1.00  0.00     0.054 A 
BRANCH  93  94
ATOM     94  S   UNL A   1      43.946  39.168  28.050  1.00  0.00     0.124 S 
ATOM     95  O   UNL A   1      45.375  39.452  27.947  1.00  0.00    -0.237 OA
ATOM     96  O   UNL A   1      43.207  39.196  26.790  1.00  0.00    -0.237 OA
ATOM     97  O   UNL A   1      43.264  39.788  29.183  1.00  0.00    -0.744 OA
ENDBRANCH  93  94
ENDBRANCH  67  88
ENDBRANCH  41  42
ENDBRANCH  34  36
ENDBRANCH  33  34
ENDBRANCH  32  33
ENDBRANCH   1  32
TORSDOF 20
ENDMDL
MODEL 2
REMARK VINA RESULT:     -13.0      1.821      4.893
REMARK SMILES Cc1ccc(-c2cc(OCC(=O)OCCOC(=O)c3ccc(-c4c5nc(c(-c6ccc(S(=O)(=O)[O-])cc6)c6ccc([nH]6)c(-c6ccc(S(=O)(=O)[O-])cc6)c6nc(c(-c7ccc(S(=O)(=O)[O-])cc7)c7ccc4[nH]7)C=C6)C=C5)cc3)nc(NCc3ccc4c(c3)OCO4)n2)cc1
REMARK SMILES IDX 14 1 13 2 11 3 12 4 10 5 9 6 8 7 6 8 7 9 92 10 80 11 79 12
REMARK SMILES IDX 5 13 1 14 2 15 3 16 94 17 4 18 93 19 81 20 82 22 83 23 84 24
REMARK SMILES IDX 88 25 85 26 87 27 86 28 89 29 91 30 90 31 15 32 16 33 17 34
REMARK SMILES IDX 18 35 19 36 20 37 78 38 21 39 77 40 22 41 23 42 24 43 71 44
REMARK SMILES IDX 25 45 76 46 70 47 72 48 26 49 75 50 69 51 68 52 27 54 57 55
REMARK SMILES IDX 38 56 56 57 39 58 42 59 55 60 73 61 40 62 41 63 54 65 74 66
REMARK SMILES IDX 43 67 28 68 29 69 37 70 30 71 36 72 31 73 32 74 33 75 34 76
REMARK SMILES IDX 35 77 58 78 59 79 67 80 60 81 66 82 61 83 62 84 63 85 64 86
REMARK SMILES IDX 65 87 44 88 45 89 53 90 46 91 52 92 47 93 48 94 49 95 50 96
REMARK SMILES IDX 51 97
REMARK H PARENT 81 21 72 53 42 64
REMARK Flexibility Score: inf
ROOT
ATOM      1  C   UNL A   1      41.887  20.149  26.697  1.00  0.00     0.274 C 
ENDROOT
BRANCH   1   2
ATOM      2  O   UNL A   1      40.779  20.393  25.797  1.00  0.00    -0.460 OA
BRANCH   2   3
ATOM      3  C   UNL A   1      39.668  21.159  26.349  1.00  0.00     0.344 C 
ATOM      4  O   UNL A   1      40.062  21.511  27.502  1.00  0.00    -0.248 OA
BRANCH   3   5
ATOM      5  C   UNL A   1      37.855  21.683  25.253  1.00  0.00     0.353 C 
BRANCH   5   6
ATOM      6  O   UNL A   1      36.933  22.955  24.960  1.00  0.00    -0.466 OA
BRANCH   6   7
ATOM      7  C   UNL A   1      35.574  23.046  25.278  1.00  0.00     0.219 A 
ATOM      8  C   UNL A   1      33.774  24.493  25.607  1.00  0.00     0.080 A 
ATOM      9  C   UNL A   1      35.128  24.275  25.729  1.00  0.00     0.097 A 
ATOM     10  N   UNL A   1      32.922  23.480  25.409  1.00  0.00    -0.213 NA
ATOM     11  C   UNL A   1      33.432  22.257  25.224  1.00  0.00     0.226 A 
ATOM     12  N   UNL A   1      34.750  21.998  25.060  1.00  0.00    -0.177 NA
BRANCH   8  13
ATOM     13  C   UNL A   1      33.214  25.841  25.425  1.00  0.00     0.000 A 
ATOM     14  C   UNL A   1      30.948  29.374  24.387  1.00  0.00     0.044 C 
ATOM     15  C   UNL A   1      31.800  28.225  24.835  1.00  0.00    -0.051 A 
ATOM     16  C   UNL A   1      32.998  27.917  24.178  1.00  0.00     0.004 A 
ATOM     17  C   UNL A   1      31.375  27.400  25.873  1.00  0.00     0.004 A 
ATOM     18  C   UNL A   1      33.688  26.728  24.457  1.00  0.00     0.010 A 
ATOM     19  C   UNL A   1      32.089  26.238  26.172  1.00  0.00     0.010 A 
ENDBRANCH   8  13
BRANCH  11  20
ATOM     20  N   UNL A   1      32.544  21.202  25.225  1.00  0.00    -0.350 N 
ATOM     21  H   UNL A   1      32.006  21.007  26.025  1.00  0.00     0.164 HD
BRANCH  20  22
ATOM     22  C   UNL A   1      32.408  20.381  24.034  1.00  0.00     0.152 C 
BRANCH  22  23
ATOM     23  C   UNL A   1      32.808  18.927  24.258  1.00  0.00    -0.025 A 
ATOM     24  C   UNL A   1      33.471  18.211  23.224  1.00  0.00     0.009 A 
ATOM     25  C   UNL A   1      32.495  18.258  25.451  1.00  0.00     0.056 A 
ATOM     26  C   UNL A   1      33.735  16.838  23.341  1.00  0.00     0.051 A 
ATOM     27  C   UNL A   1      32.717  16.903  25.515  1.00  0.00     0.166 A 
ATOM     28  C   UNL A   1      33.303  16.206  24.484  1.00  0.00     0.165 A 
ATOM     29  O   UNL A   1      32.320  16.086  26.530  1.00  0.00    -0.454 OA
ATOM     30  O   UNL A   1      33.321  14.865  24.726  1.00  0.00    -0.454 OA
ATOM     31  C   UNL A   1      32.426  14.818  25.861  1.00  0.00     0.468 C 
ENDBRANCH  22  23
ENDBRANCH  20  22
ENDBRANCH  11  20
ENDBRANCH   6   7
ENDBRANCH   5   6
ENDBRANCH   3   5
ENDBRANCH   2   3
ENDBRANCH   1   2
BRANCH   1  32
ATOM     32  C   UNL A   1      43.145  20.872  26.182  1.00  0.00     0.275 C 
BRANCH  32  33
ATOM     33  O   UNL A   1      42.882  22.240  25.812  1.00  0.00    -0.458 OA
BRANCH  33  34
ATOM     34  C   UNL A   1      43.144  23.130  26.803  1.00  0.00     0.338 C 
ATOM     35  O   UNL A   1      44.227  23.324  27.326  1.00  0.00    -0.246 OA
BRANCH  34  36
ATOM     36  C   UNL A   1      42.107  24.166  26.705  1.00  0.00     0.060 A 
ATOM     37  C   UNL A   1      42.172  25.497  25.460  1.00  0.00     0.016 A 
ATOM     38  C   UNL A   1      41.427  24.492  28.330  1.00  0.00     0.016 A 
ATOM     39  C   UNL A   1      41.701  27.184  25.907  1.00  0.00     0.010 A 
ATOM     40  C   UNL A   1      41.019  26.194  28.776  1.00  0.00     0.010 A 
ATOM     41  C   UNL A   1      41.244  27.531  27.599  1.00  0.00    -0.014 A 
BRANCH  41  42
ATOM     42  C   UNL A   1      41.688  28.761  28.272  1.00  0.00     0.031 A 
ATOM     43  C   UNL A   1      40.636  29.725  28.631  1.00  0.00     0.074 A 
ATOM     44  C   UNL A   1      42.936  28.803  28.817  1.00  0.00     0.049 A 
ATOM     45  N   UNL A   1      40.869  30.898  29.090  1.00  0.00    -0.248 NA
ATOM     46  C   UNL A   1      39.203  29.472  28.452  1.00  0.00     0.031 C 
ATOM     47  C   UNL A   1      43.418  29.571  29.971  1.00  0.00     0.029 A 
ATOM     48  N   UNL A   1      44.101  28.160  28.429  1.00  0.00    -0.354 N 
ATOM     49  C   UNL A   1      39.689  31.367  29.621  1.00  0.00     0.074 A 
ATOM     50  C   UNL A   1      38.662  30.523  29.075  1.00  0.00     0.031 C 
ATOM     51  C   UNL A   1      44.768  29.559  29.989  1.00  0.00     0.029 A 
ATOM     52  C   UNL A   1      45.215  28.909  28.770  1.00  0.00     0.049 A 
ATOM     53  H   UNL A   1      44.133  27.288  27.973  1.00  0.00     0.167 HD
ATOM     54  C   UNL A   1      39.769  32.305  30.603  1.00  0.00     0.031 A 
ATOM     55  C   UNL A   1      46.014  29.465  27.811  1.00  0.00     0.031 A 
ATOM     56  C   UNL A   1      41.159  32.742  30.765  1.00  0.00     0.049 A 
ATOM     57  C   UNL A   1      45.831  30.969  27.782  1.00  0.00     0.074 A 
ATOM     58  C   UNL A   1      42.148  32.436  31.684  1.00  0.00     0.029 A 
ATOM     59  N   UNL A   1      41.805  33.289  29.663  1.00  0.00    -0.354 N 
ATOM     60  N   UNL A   1      44.840  31.581  28.370  1.00  0.00    -0.248 NA
ATOM     61  C   UNL A   1      46.745  31.900  27.135  1.00  0.00     0.031 C 
ATOM     62  C   UNL A   1      43.406  32.745  31.083  1.00  0.00     0.029 A 
ATOM     63  C   UNL A   1      43.178  33.265  29.819  1.00  0.00     0.049 A 
ATOM     64  H   UNL A   1      41.343  33.648  28.871  1.00  0.00     0.167 HD
ATOM     65  C   UNL A   1      44.960  32.931  28.229  1.00  0.00     0.074 A 
ATOM     66  C   UNL A   1      46.180  33.081  27.452  1.00  0.00     0.031 C 
ATOM     67  C   UNL A   1      44.039  33.794  28.757  1.00  0.00     0.031 A 
BRANCH  54  68
ATOM     68  C   UNL A   1      38.668  32.651  31.577  1.00  0.00    -0.014 A 
ATOM     69  C   UNL A   1      37.904  33.810  31.334  1.00  0.00     0.010 A 
ATOM     70  C   UNL A   1      38.348  31.931  32.747  1.00  0.00     0.010 A 
ATOM     71  C   UNL A   1      36.895  34.238  32.205  1.00  0.00     0.020 A 
ATOM     72  C   UNL A   1      37.340  32.350  33.632  1.00  0.00     0.020 A 
ATOM     73  C   UNL A   1      36.613  33.500  33.350  1.00  0.00     0.054 A 
BRANCH  73  74
ATOM     74  S   UNL A   1      35.268  34.052  34.427  1.00  0.00     0.124 S 
ATOM     75  O   UNL A   1      35.169  35.472  34.104  1.00  0.00    -0.237 OA
ATOM     76  O   UNL A   1      34.152  33.224  33.979  1.00  0.00    -0.237 OA
ATOM     77  O   UNL A   1      35.758  33.757  35.773  1.00  0.00    -0.744 OA
ENDBRANCH  73  74
ENDBRANCH  54  68
BRANCH  55  78
ATOM     78  C   UNL A   1      46.281  28.572  26.644  1.00  0.00    -0.014 A 
ATOM     79  C   UNL A   1      47.493  27.848  26.676  1.00  0.00     0.010 A 
ATOM     80  C   UNL A   1      45.252  28.120  25.795  1.00  0.00     0.010 A 
ATOM     81  C   UNL A   1      47.610  26.617  26.026  1.00  0.00     0.020 A 
ATOM     82  C   UNL A   1      45.379  26.891  25.118  1.00  0.00     0.020 A 
ATOM     83  C   UNL A   1      46.538  26.127  25.282  1.00  0.00     0.054 A 
BRANCH  83  84
ATOM     84  S   UNL A   1      46.617  24.386  24.775  1.00  0.00     0.124 S 
ATOM     85  O   UNL A   1      45.256  24.119  24.324  1.00  0.00    -0.237 OA
ATOM     86  O   UNL A   1      47.625  24.452  23.722  1.00  0.00    -0.237 OA
ATOM     87  O   UNL A   1      47.036  23.685  25.989  1.00  0.00    -0.744 OA
ENDBRANCH  83  84
ENDBRANCH  55  78
BRANCH  67  88
ATOM     88  C   UNL A   1      43.869  35.245  28.354  1.00  0.00    -0.014 A 
ATOM     89  C   UNL A   1      44.508  36.318  28.985  1.00  0.00     0.010 A 
ATOM     90  C   UNL A   1      43.098  35.563  27.206  1.00  0.00     0.010 A 
ATOM     91  C   UNL A   1      44.317  37.635  28.562  1.00  0.00     0.020 A 
ATOM     92  C   UNL A   1      42.967  36.863  26.721  1.00  0.00     0.020 A 
ATOM     93  C   UNL A   1      43.546  37.899  27.433  1.00  0.00     0.054 A 
BRANCH  93  94
ATOM     94  S   UNL A   1      43.322  39.610  26.917  1.00  0.00     0.124 S 
ATOM     95  O   UNL A   1      44.400  39.770  25.944  1.00  0.00    -0.237 OA
ATOM     96  O   UNL A   1      41.971  39.598  26.361  1.00  0.00    -0.237 OA
ATOM     97  O   UNL A   1      43.477  40.371  28.153  1.00  0.00    -0.744 OA
ENDBRANCH  93  94
ENDBRANCH  67  88
ENDBRANCH  41  42
ENDBRANCH  34  36
ENDBRANCH  33  34
ENDBRANCH  32  33
ENDBRANCH   1  32
TORSDOF 20
ENDMDL
MODEL 3
REMARK VINA RESULT:     -12.8      1.646      4.779
REMARK SMILES Cc1ccc(-c2cc(OCC(=O)OCCOC(=O)c3ccc(-c4c5nc(c(-c6ccc(S(=O)(=O)[O-])cc6)c6ccc([nH]6)c(-c6ccc(S(=O)(=O)[O-])cc6)c6nc(c(-c7ccc(S(=O)(=O)[O-])cc7)c7ccc4[nH]7)C=C6)C=C5)cc3)nc(NCc3ccc4c(c3)OCO4)n2)cc1
REMARK SMILES IDX 14 1 13 2 11 3 12 4 10 5 9 6 8 7 6 8 7 9 92 10 80 11 79 12
REMARK SMILES IDX 5 13 1 14 2 15 3 16 94 17 4 18 93 19 81 20 82 22 83 23 84 24
REMARK SMILES IDX 88 25 85 26 87 27 86 28 89 29 91 30 90 31 15 32 16 33 17 34
REMARK SMILES IDX 18 35 19 36 20 37 78 38 21 39 77 40 22 41 23 42 24 43 71 44
REMARK SMILES IDX 25 45 76 46 70 47 72 48 26 49 75 50 69 51 68 52 27 54 57 55
REMARK SMILES IDX 38 56 56 57 39 58 42 59 55 60 73 61 40 62 41 63 54 65 74 66
REMARK SMILES IDX 43 67 28 68 29 69 37 70 30 71 36 72 31 73 32 74 33 75 34 76
REMARK SMILES IDX 35 77 58 78 59 79 67 80 60 81 66 82 61 83 62 84 63 85 64 86
REMARK SMILES IDX 65 87 44 88 45 89 53 90 46 91 52 92 47 93 48 94 49 95 50 96
REMARK SMILES IDX 51 97
REMARK H PARENT 81 21 72 53 42 64
REMARK Flexibility Score: inf
ROOT
ATOM      1  C   UNL A   1      42.255  20.085  26.388  1.00  0.00     0.274 C 
ENDROOT
BRANCH   1   2
ATOM      2  O   UNL A   1      41.029  20.209  25.629  1.00  0.00    -0.460 OA
BRANCH   2   3
ATOM      3  C   UNL A   1      39.909  20.827  26.328  1.00  0.00     0.344 C 
ATOM      4  O   UNL A   1      40.357  21.092  27.484  1.00  0.00    -0.248 OA
BRANCH   3   5
ATOM      5  C   UNL A   1      37.990  21.317  25.409  1.00  0.00     0.353 C 
BRANCH   5   6
ATOM      6  O   UNL A   1      37.074  22.590  25.107  1.00  0.00    -0.466 OA
BRANCH   6   7
ATOM      7  C   UNL A   1      35.707  22.677  25.395  1.00  0.00     0.219 A 
ATOM      8  C   UNL A   1      33.924  24.122  25.810  1.00  0.00     0.080 A 
ATOM      9  C   UNL A   1      35.270  23.867  25.947  1.00  0.00     0.097 A 
ATOM     10  N   UNL A   1      33.061  23.148  25.496  1.00  0.00    -0.213 NA
ATOM     11  C   UNL A   1      33.556  21.938  25.210  1.00  0.00     0.226 A 
ATOM     12  N   UNL A   1      34.873  21.670  25.058  1.00  0.00    -0.177 NA
BRANCH   8  13
ATOM     13  C   UNL A   1      33.391  25.492  25.740  1.00  0.00     0.000 A 
ATOM     14  C   UNL A   1      31.304  29.178  24.877  1.00  0.00     0.044 C 
ATOM     15  C   UNL A   1      32.078  27.961  25.284  1.00  0.00    -0.051 A 
ATOM     16  C   UNL A   1      33.372  27.733  24.798  1.00  0.00     0.004 A 
ATOM     17  C   UNL A   1      31.492  26.999  26.102  1.00  0.00     0.004 A 
ATOM     18  C   UNL A   1      34.014  26.504  25.008  1.00  0.00     0.010 A 
ATOM     19  C   UNL A   1      32.154  25.792  26.340  1.00  0.00     0.010 A 
ENDBRANCH   8  13
BRANCH  11  20
ATOM     20  N   UNL A   1      32.650  20.905  25.089  1.00  0.00    -0.350 N 
ATOM     21  H   UNL A   1      31.900  20.825  25.722  1.00  0.00     0.164 HD
BRANCH  20  22
ATOM     22  C   UNL A   1      32.812  19.935  24.020  1.00  0.00     0.152 C 
BRANCH  22  23
ATOM     23  C   UNL A   1      33.236  18.558  24.518  1.00  0.00    -0.025 A 
ATOM     24  C   UNL A   1      34.546  18.080  24.241  1.00  0.00     0.009 A 
ATOM     25  C   UNL A   1      32.343  17.723  25.208  1.00  0.00     0.056 A 
ATOM     26  C   UNL A   1      34.928  16.769  24.564  1.00  0.00     0.051 A 
ATOM     27  C   UNL A   1      32.727  16.428  25.463  1.00  0.00     0.166 A 
ATOM     28  C   UNL A   1      33.977  15.956  25.135  1.00  0.00     0.165 A 
ATOM     29  O   UNL A   1      31.924  15.454  25.973  1.00  0.00    -0.454 OA
ATOM     30  O   UNL A   1      34.093  14.620  25.382  1.00  0.00    -0.454 OA
ATOM     31  C   UNL A   1      32.701  14.299  25.608  1.00  0.00     0.468 C 
ENDBRANCH  22  23
ENDBRANCH  20  22
ENDBRANCH  11  20
ENDBRANCH   6   7
ENDBRANCH   5   6
ENDBRANCH   3   5
ENDBRANCH   2   3
ENDBRANCH   1   2
BRANCH   1  32
ATOM     32  C   UNL A   1      43.357  20.945  25.742  1.00  0.00     0.275 C 
BRANCH  32  33
ATOM     33  O   UNL A   1      42.941  22.310  25.539  1.00  0.00    -0.458 OA
BRANCH  33  34
ATOM     34  C   UNL A   1      43.206  23.122  26.595  1.00  0.00     0.338 C 
ATOM     35  O   UNL A   1      44.307  23.353  27.063  1.00  0.00    -0.246 OA
BRANCH  34  36
ATOM     36  C   UNL A   1      42.090  24.073  26.669  1.00  0.00     0.060 A 
ATOM     37  C   UNL A   1      41.886  25.433  25.472  1.00  0.00     0.016 A 
ATOM     38  C   UNL A   1      41.610  24.306  28.380  1.00  0.00     0.016 A 
ATOM     39  C   UNL A   1      41.351  27.066  26.033  1.00  0.00     0.010 A 
ATOM     40  C   UNL A   1      41.137  25.959  28.932  1.00  0.00     0.010 A 
ATOM     41  C   UNL A   1      41.100  27.336  27.781  1.00  0.00    -0.014 A 
BRANCH  41  42
ATOM     42  C   UNL A   1      41.534  28.582  28.430  1.00  0.00     0.031 A 
ATOM     43  C   UNL A   1      40.499  29.609  28.633  1.00  0.00     0.074 A 
ATOM     44  C   UNL A   1      42.723  28.602  29.094  1.00  0.00     0.049 A 
ATOM     45  N   UNL A   1      40.742  30.794  29.051  1.00  0.00    -0.248 NA
ATOM     46  C   UNL A   1      39.080  29.406  28.325  1.00  0.00     0.031 C 
ATOM     47  C   UNL A   1      43.127  29.411  30.249  1.00  0.00     0.029 A 
ATOM     48  N   UNL A   1      43.889  27.889  28.858  1.00  0.00    -0.354 N 
ATOM     49  C   UNL A   1      39.540  31.342  29.438  1.00  0.00     0.074 A 
ATOM     50  C   UNL A   1      38.531  30.513  28.836  1.00  0.00     0.031 C 
ATOM     51  C   UNL A   1      44.467  29.344  30.402  1.00  0.00     0.029 A 
ATOM     52  C   UNL A   1      44.998  28.608  29.269  1.00  0.00     0.049 A 
ATOM     53  H   UNL A   1      43.923  26.992  28.453  1.00  0.00     0.167 HD
ATOM     54  C   UNL A   1      39.569  32.329  30.373  1.00  0.00     0.031 A 
ATOM     55  C   UNL A   1      45.913  29.075  28.368  1.00  0.00     0.031 A 
ATOM     56  C   UNL A   1      40.956  32.715  30.650  1.00  0.00     0.049 A 
ATOM     57  C   UNL A   1      45.806  30.581  28.243  1.00  0.00     0.074 A 
ATOM     58  C   UNL A   1      41.835  32.420  31.677  1.00  0.00     0.029 A 
ATOM     59  N   UNL A   1      41.731  33.172  29.591  1.00  0.00    -0.354 N 
ATOM     60  N   UNL A   1      44.792  31.267  28.697  1.00  0.00    -0.248 NA
ATOM     61  C   UNL A   1      46.821  31.435  27.642  1.00  0.00     0.031 C 
ATOM     62  C   UNL A   1      43.159  32.641  31.189  1.00  0.00     0.029 A 
ATOM     63  C   UNL A   1      43.080  33.099  29.884  1.00  0.00     0.049 A 
ATOM     64  H   UNL A   1      41.366  33.505  28.739  1.00  0.00     0.167 HD
ATOM     65  C   UNL A   1      44.990  32.601  28.499  1.00  0.00     0.074 A 
ATOM     66  C   UNL A   1      46.286  32.655  27.841  1.00  0.00     0.031 C 
ATOM     67  C   UNL A   1      44.064  33.530  28.887  1.00  0.00     0.031 A 
BRANCH  54  68
ATOM     68  C   UNL A   1      38.396  32.775  31.213  1.00  0.00    -0.014 A 
ATOM     69  C   UNL A   1      37.364  31.848  31.461  1.00  0.00     0.010 A 
ATOM     70  C   UNL A   1      38.214  34.065  31.753  1.00  0.00     0.010 A 
ATOM     71  C   UNL A   1      36.215  32.183  32.188  1.00  0.00     0.020 A 
ATOM     72  C   UNL A   1      37.065  34.417  32.482  1.00  0.00     0.020 A 
ATOM     73  C   UNL A   1      36.074  33.468  32.701  1.00  0.00     0.054 A 
BRANCH  73  74
ATOM     74  S   UNL A   1      34.602  33.854  33.680  1.00  0.00     0.124 S 
ATOM     75  O   UNL A   1      35.069  33.639  35.047  1.00  0.00    -0.237 OA
ATOM     76  O   UNL A   1      34.341  35.243  33.315  1.00  0.00    -0.237 OA
ATOM     77  O   UNL A   1      33.608  32.891  33.207  1.00  0.00    -0.744 OA
ENDBRANCH  73  74
ENDBRANCH  54  68
BRANCH  55  78
ATOM     78  C   UNL A   1      46.249  28.107  27.280  1.00  0.00    -0.014 A 
ATOM     79  C   UNL A   1      45.632  28.332  26.030  1.00  0.00     0.010 A 
ATOM     80  C   UNL A   1      47.407  27.307  27.322  1.00  0.00     0.010 A 
ATOM     81  C   UNL A   1      46.247  27.928  24.844  1.00  0.00     0.020 A 
ATOM     82  C   UNL A   1      48.015  26.876  26.126  1.00  0.00     0.020 A 
ATOM     83  C   UNL A   1      47.455  27.235  24.897  1.00  0.00     0.054 A 
BRANCH  83  84
ATOM     84  S   UNL A   1      48.373  27.063  23.339  1.00  0.00     0.124 S 
ATOM     85  O   UNL A   1      48.172  25.658  23.001  1.00  0.00    -0.237 OA
ATOM     86  O   UNL A   1      47.663  28.018  22.496  1.00  0.00    -0.237 OA
ATOM     87  O   UNL A   1      49.740  27.445  23.693  1.00  0.00    -0.744 OA
ENDBRANCH  83  84
ENDBRANCH  55  78
BRANCH  67  88
ATOM     88  C   UNL A   1      44.003  34.961  28.395  1.00  0.00    -0.014 A 
ATOM     89  C   UNL A   1      43.183  35.401  27.350  1.00  0.00     0.010 A 
ATOM     90  C   UNL A   1      44.737  35.965  29.079  1.00  0.00     0.010 A 
ATOM     91  C   UNL A   1      43.165  36.738  26.945  1.00  0.00     0.020 A 
ATOM     92  C   UNL A   1      44.665  37.315  28.742  1.00  0.00     0.020 A 
ATOM     93  C   UNL A   1      43.908  37.686  27.645  1.00  0.00     0.054 A 
BRANCH  93  94
ATOM     94  S   UNL A   1      43.860  39.402  27.095  1.00  0.00     0.124 S 
ATOM     95  O   UNL A   1      45.011  39.457  26.198  1.00  0.00    -0.237 OA
ATOM     96  O   UNL A   1      42.553  39.488  26.446  1.00  0.00    -0.237 OA
ATOM     97  O   UNL A   1      43.991  40.168  28.331  1.00  0.00    -0.744 OA
ENDBRANCH  93  94
ENDBRANCH  67  88
ENDBRANCH  41  42
ENDBRANCH  34  36
ENDBRANCH  33  34
ENDBRANCH  32  33
ENDBRANCH   1  32
TORSDOF 20
ENDMDL
