MODEL 1
REMARK VINA RESULT:      -9.7      0.000      0.000
REMARK SMILES C=CCOC(=O)N[C@@H](Cc1ccccc1)C(=O)OCCOC(=O)c1ccc(-c2c3nc(c(-c4ccc(S(=O)(=O)[O-])cc4)c4ccc([nH]4)c(-c4ccc(S(=O)(=O)[O-])cc4)c4nc(c(-c5ccc(S(=O)(=O)[O-])cc5)c5ccc2[nH]5)C=C4)C=C3)cc1
REMARK SMILES IDX 19 1 18 2 16 3 17 4 8 5 7 6 5 7 6 8 4 10 3 11 2 12 1 13 9 14
REMARK SMILES IDX 10 15 11 16 15 17 12 18 14 19 13 20 20 21 21 22 22 23 23 24
REMARK SMILES IDX 24 25 25 26 83 27 26 28 82 29 27 30 28 31 29 32 76 33 30 34
REMARK SMILES IDX 81 35 75 36 77 37 31 38 80 39 74 40 73 41 32 43 62 44 43 45
REMARK SMILES IDX 61 46 44 47 47 48 60 49 78 50 45 51 46 52 59 54 79 55 48 56
REMARK SMILES IDX 33 57 34 58 42 59 35 60 41 61 36 62 37 63 38 64 39 65 40 66
REMARK SMILES IDX 63 67 64 68 72 69 65 70 71 71 66 72 67 73 68 74 69 75 70 76
REMARK SMILES IDX 49 77 50 78 58 79 51 80 57 81 52 82 53 83 54 84 55 85 56 86
REMARK H PARENT 7 9 77 42 47 53
REMARK Flexibility Score: inf
ROOT
ATOM      1  C   UNL A   1      37.177  23.459  24.677  1.00  0.00     0.274 C 
ENDROOT
BRANCH   1   2
ATOM      2  O   UNL A   1      35.871  23.956  25.025  1.00  0.00    -0.461 OA
BRANCH   2   3
ATOM      3  C   UNL A   1      34.977  24.065  24.002  1.00  0.00     0.329 C 
ATOM      4  O   UNL A   1      35.120  23.561  22.893  1.00  0.00    -0.250 OA
BRANCH   3   5
ATOM      5  C   UNL A   1      33.789  24.975  24.349  1.00  0.00     0.199 C 
BRANCH   5   6
ATOM      6  N   UNL A   1      32.487  24.451  23.935  1.00  0.00    -0.308 N 
ATOM      7  C   UNL A   1      31.479  25.135  23.321  1.00  0.00     0.408 C 
ATOM      8  O   UNL A   1      30.370  24.637  23.188  1.00  0.00    -0.225 OA
ATOM      9  H   UNL A   1      32.318  23.500  24.122  1.00  0.00     0.168 HD
BRANCH   7  10
ATOM     10  O   UNL A   1      31.842  26.384  22.945  1.00  0.00    -0.445 OA
BRANCH  10  11
ATOM     11  C   UNL A   1      30.784  27.259  22.528  1.00  0.00     0.262 C 
BRANCH  11  12
ATOM     12  C   UNL A   1      30.565  28.379  23.500  1.00  0.00     0.006 C 
ATOM     13  C   UNL A   1      29.751  29.416  23.262  1.00  0.00     0.007 C 
ENDBRANCH  11  12
ENDBRANCH  10  11
ENDBRANCH   7  10
ENDBRANCH   5   6
BRANCH   5  14
ATOM     14  C   UNL A   1      33.815  25.310  25.850  1.00  0.00     0.072 C 
BRANCH  14  15
ATOM     15  C   UNL A   1      33.248  26.674  26.164  1.00  0.00    -0.045 A 
ATOM     16  C   UNL A   1      31.958  26.803  26.694  1.00  0.00     0.004 A 
ATOM     17  C   UNL A   1      34.039  27.821  26.003  1.00  0.00     0.004 A 
ATOM     18  C   UNL A   1      31.479  28.053  27.081  1.00  0.00     0.000 A 
ATOM     19  C   UNL A   1      33.558  29.069  26.392  1.00  0.00     0.000 A 
ATOM     20  C   UNL A   1      32.281  29.184  26.936  1.00  0.00     0.000 A 
ENDBRANCH  14  15
ENDBRANCH   5  14
ENDBRANCH   3   5
ENDBRANCH   2   3
ENDBRANCH   1   2
BRANCH   1  21
ATOM     21  C   UNL A   1      38.050  23.305  25.921  1.00  0.00     0.275 C 
BRANCH  21  22
ATOM     22  O   UNL A   1      38.690  24.548  26.259  1.00  0.00    -0.458 OA
BRANCH  22  23
ATOM     23  C   UNL A   1      39.912  24.421  26.828  1.00  0.00     0.338 C 
ATOM     24  O   UNL A   1      40.802  23.650  26.515  1.00  0.00    -0.246 OA
BRANCH  23  25
ATOM     25  C   UNL A   1      40.078  25.464  27.845  1.00  0.00     0.060 A 
ATOM     26  C   UNL A   1      39.154  25.520  28.887  1.00  0.00     0.016 A 
ATOM     27  C   UNL A   1      41.073  26.431  27.728  1.00  0.00     0.016 A 
ATOM     28  C   UNL A   1      39.197  26.552  29.814  1.00  0.00     0.010 A 
ATOM     29  C   UNL A   1      41.141  27.452  28.681  1.00  0.00     0.010 A 
ATOM     30  C   UNL A   1      40.198  27.522  29.724  1.00  0.00    -0.014 A 
BRANCH  30  31
ATOM     31  C   UNL A   1      40.247  28.619  30.718  1.00  0.00     0.031 A 
ATOM     32  C   UNL A   1      41.231  28.559  31.849  1.00  0.00     0.074 A 
ATOM     33  C   UNL A   1      39.412  29.668  30.590  1.00  0.00     0.049 A 
ATOM     34  N   UNL A   1      41.336  29.343  32.890  1.00  0.00    -0.248 NA
ATOM     35  C   UNL A   1      42.224  27.473  31.806  1.00  0.00     0.031 C 
ATOM     36  C   UNL A   1      38.461  29.865  29.494  1.00  0.00     0.029 A 
ATOM     37  N   UNL A   1      39.226  30.764  31.393  1.00  0.00    -0.354 N 
ATOM     38  C   UNL A   1      42.382  28.828  33.646  1.00  0.00     0.074 A 
ATOM     39  C   UNL A   1      42.876  27.660  32.946  1.00  0.00     0.031 C 
ATOM     40  C   UNL A   1      37.796  31.014  29.691  1.00  0.00     0.029 A 
ATOM     41  C   UNL A   1      38.223  31.596  30.958  1.00  0.00     0.049 A 
ATOM     42  H   UNL A   1      39.760  30.938  32.201  1.00  0.00     0.167 HD
ATOM     43  C   UNL A   1      42.876  29.286  34.821  1.00  0.00     0.031 A 
ATOM     44  C   UNL A   1      37.674  32.681  31.538  1.00  0.00     0.031 A 
ATOM     45  C   UNL A   1      42.376  30.451  35.502  1.00  0.00     0.049 A 
ATOM     46  C   UNL A   1      38.189  33.125  32.878  1.00  0.00     0.074 A 
ATOM     47  C   UNL A   1      42.811  31.005  36.693  1.00  0.00     0.029 A 
ATOM     48  N   UNL A   1      41.328  31.242  35.052  1.00  0.00    -0.354 N 
ATOM     49  N   UNL A   1      39.161  32.614  33.595  1.00  0.00    -0.248 NA
ATOM     50  C   UNL A   1      37.525  34.281  33.493  1.00  0.00     0.031 C 
ATOM     51  C   UNL A   1      41.990  32.100  36.990  1.00  0.00     0.029 A 
ATOM     52  C   UNL A   1      41.082  32.262  35.956  1.00  0.00     0.049 A 
ATOM     53  H   UNL A   1      40.832  31.098  34.214  1.00  0.00     0.167 HD
ATOM     54  C   UNL A   1      39.235  33.394  34.743  1.00  0.00     0.074 A 
ATOM     55  C   UNL A   1      38.222  34.424  34.612  1.00  0.00     0.031 C 
ATOM     56  C   UNL A   1      40.061  33.268  35.811  1.00  0.00     0.031 A 
BRANCH  43  57
ATOM     57  C   UNL A   1      43.983  28.495  35.467  1.00  0.00    -0.014 A 
ATOM     58  C   UNL A   1      45.329  28.679  35.100  1.00  0.00     0.010 A 
ATOM     59  C   UNL A   1      43.670  27.572  36.481  1.00  0.00     0.010 A 
ATOM     60  C   UNL A   1      46.335  27.927  35.712  1.00  0.00     0.020 A 
ATOM     61  C   UNL A   1      44.677  26.836  37.113  1.00  0.00     0.020 A 
ATOM     62  C   UNL A   1      46.003  27.007  36.712  1.00  0.00     0.054 A 
BRANCH  62  63
ATOM     63  S   UNL A   1      47.331  26.057  37.502  1.00  0.00     0.124 S 
ATOM     64  O   UNL A   1      48.010  25.473  36.348  1.00  0.00    -0.237 OA
ATOM     65  O   UNL A   1      48.081  27.086  38.217  1.00  0.00    -0.237 OA
ATOM     66  O   UNL A   1      46.620  25.106  38.352  1.00  0.00    -0.744 OA
ENDBRANCH  62  63
ENDBRANCH  43  57
BRANCH  44  67
ATOM     67  C   UNL A   1      36.542  33.383  30.875  1.00  0.00    -0.014 A 
ATOM     68  C   UNL A   1      35.279  33.444  31.486  1.00  0.00     0.010 A 
ATOM     69  C   UNL A   1      36.733  34.019  29.634  1.00  0.00     0.010 A 
ATOM     70  C   UNL A   1      34.224  34.118  30.864  1.00  0.00     0.020 A 
ATOM     71  C   UNL A   1      35.689  34.719  29.022  1.00  0.00     0.020 A 
ATOM     72  C   UNL A   1      34.437  34.755  29.637  1.00  0.00     0.054 A 
BRANCH  72  73
ATOM     73  S   UNL A   1      33.071  35.677  28.877  1.00  0.00     0.124 S 
ATOM     74  O   UNL A   1      32.353  36.173  30.046  1.00  0.00    -0.237 OA
ATOM     75  O   UNL A   1      33.773  36.688  28.088  1.00  0.00    -0.237 OA
ATOM     76  O   UNL A   1      32.371  34.663  28.092  1.00  0.00    -0.744 OA
ENDBRANCH  72  73
ENDBRANCH  44  67
BRANCH  56  77
ATOM     77  C   UNL A   1      39.915  34.283  36.912  1.00  0.00    -0.014 A 
ATOM     78  C   UNL A   1      40.688  35.457  36.923  1.00  0.00     0.010 A 
ATOM     79  C   UNL A   1      38.962  34.076  37.926  1.00  0.00     0.010 A 
ATOM     80  C   UNL A   1      40.530  36.395  37.947  1.00  0.00     0.020 A 
ATOM     81  C   UNL A   1      38.782  35.024  38.936  1.00  0.00     0.020 A 
ATOM     82  C   UNL A   1      39.579  36.171  38.947  1.00  0.00     0.054 A 
BRANCH  82  83
ATOM     83  S   UNL A   1      39.364  37.422  40.243  1.00  0.00     0.124 S 
ATOM     84  O   UNL A   1      40.699  38.009  40.322  1.00  0.00    -0.237 OA
ATOM     85  O   UNL A   1      38.329  38.289  39.685  1.00  0.00    -0.237 OA
ATOM     86  O   UNL A   1      38.955  36.644  41.410  1.00  0.00    -0.744 OA
ENDBRANCH  82  83
ENDBRANCH  56  77
ENDBRANCH  30  31
ENDBRANCH  23  25
ENDBRANCH  22  23
ENDBRANCH  21  22
ENDBRANCH   1  21
TORSDOF 20
ENDMDL
MODEL 2
REMARK VINA RESULT:      -9.3      5.200      6.594
REMARK SMILES C=CCOC(=O)N[C@@H](Cc1ccccc1)C(=O)OCCOC(=O)c1ccc(-c2c3nc(c(-c4ccc(S(=O)(=O)[O-])cc4)c4ccc([nH]4)c(-c4ccc(S(=O)(=O)[O-])cc4)c4nc(c(-c5ccc(S(=O)(=O)[O-])cc5)c5ccc2[nH]5)C=C4)C=C3)cc1
REMARK SMILES IDX 19 1 18 2 16 3 17 4 8 5 7 6 5 7 6 8 4 10 3 11 2 12 1 13 9 14
REMARK SMILES IDX 10 15 11 16 15 17 12 18 14 19 13 20 20 21 21 22 22 23 23 24
REMARK SMILES IDX 24 25 25 26 83 27 26 28 82 29 27 30 28 31 29 32 76 33 30 34
REMARK SMILES IDX 81 35 75 36 77 37 31 38 80 39 74 40 73 41 32 43 62 44 43 45
REMARK SMILES IDX 61 46 44 47 47 48 60 49 78 50 45 51 46 52 59 54 79 55 48 56
REMARK SMILES IDX 33 57 34 58 42 59 35 60 41 61 36 62 37 63 38 64 39 65 40 66
REMARK SMILES IDX 63 67 64 68 72 69 65 70 71 71 66 72 67 73 68 74 69 75 70 76
REMARK SMILES IDX 49 77 50 78 58 79 51 80 57 81 52 82 53 83 54 84 55 85 56 86
REMARK H PARENT 7 9 77 42 47 53
REMARK Flexibility Score: inf
ROOT
ATOM      1  C   UNL A   1      36.329  21.056  25.516  1.00  0.00     0.274 C 
ENDROOT
BRANCH   1   2
ATOM      2  O   UNL A   1      35.386  22.133  25.363  1.00  0.00    -0.461 OA
BRANCH   2   3
ATOM      3  C   UNL A   1      34.157  21.938  25.918  1.00  0.00     0.329 C 
ATOM      4  O   UNL A   1      33.957  21.673  27.098  1.00  0.00    -0.250 OA
BRANCH   3   5
ATOM      5  C   UNL A   1      33.025  21.994  24.881  1.00  0.00     0.199 C 
BRANCH   5   6
ATOM      6  N   UNL A   1      33.475  22.206  23.505  1.00  0.00    -0.308 N 
ATOM      7  C   UNL A   1      33.383  23.353  22.773  1.00  0.00     0.408 C 
ATOM      8  O   UNL A   1      33.629  23.356  21.575  1.00  0.00    -0.225 OA
ATOM      9  H   UNL A   1      33.891  21.434  23.057  1.00  0.00     0.168 HD
BRANCH   7  10
ATOM     10  O   UNL A   1      32.961  24.411  23.503  1.00  0.00    -0.445 OA
BRANCH  10  11
ATOM     11  C   UNL A   1      33.638  25.656  23.276  1.00  0.00     0.262 C 
BRANCH  11  12
ATOM     12  C   UNL A   1      33.501  26.590  24.439  1.00  0.00     0.006 C 
ATOM     13  C   UNL A   1      33.847  26.265  25.693  1.00  0.00     0.007 C 
ENDBRANCH  11  12
ENDBRANCH  10  11
ENDBRANCH   7  10
ENDBRANCH   5   6
BRANCH   5  14
ATOM     14  C   UNL A   1      32.149  20.735  25.003  1.00  0.00     0.072 C 
BRANCH  14  15
ATOM     15  C   UNL A   1      32.706  19.548  24.253  1.00  0.00    -0.045 A 
ATOM     16  C   UNL A   1      33.741  18.782  24.804  1.00  0.00     0.004 A 
ATOM     17  C   UNL A   1      32.139  19.155  23.032  1.00  0.00     0.004 A 
ATOM     18  C   UNL A   1      34.180  17.627  24.159  1.00  0.00     0.000 A 
ATOM     19  C   UNL A   1      32.579  18.000  22.391  1.00  0.00     0.000 A 
ATOM     20  C   UNL A   1      33.595  17.233  22.957  1.00  0.00     0.000 A 
ENDBRANCH  14  15
ENDBRANCH   5  14
ENDBRANCH   3   5
ENDBRANCH   2   3
ENDBRANCH   1   2
BRANCH   1  21
ATOM     21  C   UNL A   1      37.714  21.470  25.020  1.00  0.00     0.275 C 
BRANCH  21  22
ATOM     22  O   UNL A   1      38.215  22.592  25.767  1.00  0.00    -0.458 OA
BRANCH  22  23
ATOM     23  C   UNL A   1      39.312  22.330  26.516  1.00  0.00     0.338 C 
ATOM     24  O   UNL A   1      39.771  21.240  26.810  1.00  0.00    -0.246 OA
BRANCH  23  25
ATOM     25  C   UNL A   1      39.979  23.594  26.847  1.00  0.00     0.060 A 
ATOM     26  C   UNL A   1      40.605  23.702  28.088  1.00  0.00     0.016 A 
ATOM     27  C   UNL A   1      39.913  24.688  25.989  1.00  0.00     0.016 A 
ATOM     28  C   UNL A   1      41.153  24.909  28.498  1.00  0.00     0.010 A 
ATOM     29  C   UNL A   1      40.496  25.896  26.385  1.00  0.00     0.010 A 
ATOM     30  C   UNL A   1      41.112  26.014  27.645  1.00  0.00    -0.014 A 
BRANCH  30  31
ATOM     31  C   UNL A   1      41.704  27.299  28.081  1.00  0.00     0.031 A 
ATOM     32  C   UNL A   1      43.193  27.485  28.050  1.00  0.00     0.074 A 
ATOM     33  C   UNL A   1      40.898  28.295  28.495  1.00  0.00     0.049 A 
ATOM     34  N   UNL A   1      43.909  28.475  28.516  1.00  0.00    -0.248 NA
ATOM     35  C   UNL A   1      43.981  26.417  27.413  1.00  0.00     0.031 C 
ATOM     36  C   UNL A   1      39.434  28.250  28.505  1.00  0.00     0.029 A 
ATOM     37  N   UNL A   1      41.197  29.538  28.990  1.00  0.00    -0.354 N 
ATOM     38  C   UNL A   1      45.232  28.136  28.263  1.00  0.00     0.074 A 
ATOM     39  C   UNL A   1      45.220  26.845  27.606  1.00  0.00     0.031 C 
ATOM     40  C   UNL A   1      38.963  29.415  28.979  1.00  0.00     0.029 A 
ATOM     41  C   UNL A   1      40.088  30.257  29.369  1.00  0.00     0.049 A 
ATOM     42  H   UNL A   1      42.115  29.883  29.067  1.00  0.00     0.167 HD
ATOM     43  C   UNL A   1      46.352  28.837  28.561  1.00  0.00     0.031 A 
ATOM     44  C   UNL A   1      39.988  31.440  30.003  1.00  0.00     0.031 A 
ATOM     45  C   UNL A   1      46.346  30.121  29.211  1.00  0.00     0.049 A 
ATOM     46  C   UNL A   1      41.246  32.163  30.392  1.00  0.00     0.074 A 
ATOM     47  C   UNL A   1      47.424  30.919  29.553  1.00  0.00     0.029 A 
ATOM     48  N   UNL A   1      45.204  30.795  29.621  1.00  0.00    -0.354 N 
ATOM     49  N   UNL A   1      42.493  31.819  30.171  1.00  0.00    -0.248 NA
ATOM     50  C   UNL A   1      41.087  33.424  31.127  1.00  0.00     0.031 C 
ATOM     51  C   UNL A   1      46.935  32.051  30.215  1.00  0.00     0.029 A 
ATOM     52  C   UNL A   1      45.551  31.986  30.236  1.00  0.00     0.049 A 
ATOM     53  H   UNL A   1      44.282  30.474  29.493  1.00  0.00     0.167 HD
ATOM     54  C   UNL A   1      43.268  32.829  30.729  1.00  0.00     0.074 A 
ATOM     55  C   UNL A   1      42.347  33.805  31.279  1.00  0.00     0.031 C 
ATOM     56  C   UNL A   1      44.619  32.937  30.786  1.00  0.00     0.031 A 
BRANCH  43  57
ATOM     57  C   UNL A   1      47.678  28.205  28.231  1.00  0.00    -0.014 A 
ATOM     58  C   UNL A   1      48.328  27.345  29.135  1.00  0.00     0.010 A 
ATOM     59  C   UNL A   1      48.268  28.453  26.978  1.00  0.00     0.010 A 
ATOM     60  C   UNL A   1      49.562  26.777  28.805  1.00  0.00     0.020 A 
ATOM     61  C   UNL A   1      49.489  27.866  26.635  1.00  0.00     0.020 A 
ATOM     62  C   UNL A   1      50.137  27.044  27.559  1.00  0.00     0.054 A 
BRANCH  62  63
ATOM     63  S   UNL A   1      51.730  26.278  27.149  1.00  0.00     0.124 S 
ATOM     64  O   UNL A   1      52.196  27.124  26.053  1.00  0.00    -0.237 OA
ATOM     65  O   UNL A   1      52.476  26.400  28.398  1.00  0.00    -0.237 OA
ATOM     66  O   UNL A   1      51.372  24.913  26.772  1.00  0.00    -0.744 OA
ENDBRANCH  62  63
ENDBRANCH  43  57
BRANCH  44  67
ATOM     67  C   UNL A   1      38.647  31.983  30.355  1.00  0.00    -0.014 A 
ATOM     68  C   UNL A   1      38.040  31.659  31.579  1.00  0.00     0.010 A 
ATOM     69  C   UNL A   1      37.980  32.850  29.469  1.00  0.00     0.010 A 
ATOM     70  C   UNL A   1      36.787  32.183  31.909  1.00  0.00     0.020 A 
ATOM     71  C   UNL A   1      36.740  33.400  29.807  1.00  0.00     0.020 A 
ATOM     72  C   UNL A   1      36.147  33.055  31.021  1.00  0.00     0.054 A 
BRANCH  72  73
ATOM     73  S   UNL A   1      34.549  33.774  31.496  1.00  0.00     0.124 S 
ATOM     74  O   UNL A   1      33.976  32.718  32.324  1.00  0.00    -0.237 OA
ATOM     75  O   UNL A   1      34.948  34.989  32.204  1.00  0.00    -0.237 OA
ATOM     76  O   UNL A   1      33.884  34.000  30.215  1.00  0.00    -0.744 OA
ENDBRANCH  72  73
ENDBRANCH  44  67
BRANCH  56  77
ATOM     77  C   UNL A   1      45.179  34.165  31.451  1.00  0.00    -0.014 A 
ATOM     78  C   UNL A   1      45.498  34.166  32.820  1.00  0.00     0.010 A 
ATOM     79  C   UNL A   1      45.426  35.318  30.685  1.00  0.00     0.010 A 
ATOM     80  C   UNL A   1      46.030  35.310  33.419  1.00  0.00     0.020 A 
ATOM     81  C   UNL A   1      45.982  36.456  31.275  1.00  0.00     0.020 A 
ATOM     82  C   UNL A   1      46.267  36.449  32.643  1.00  0.00     0.054 A 
BRANCH  82  83
ATOM     83  S   UNL A   1      46.995  37.909  33.434  1.00  0.00     0.124 S 
ATOM     84  O   UNL A   1      48.015  37.313  34.292  1.00  0.00    -0.237 OA
ATOM     85  O   UNL A   1      47.499  38.674  32.296  1.00  0.00    -0.237 OA
ATOM     86  O   UNL A   1      45.868  38.520  34.136  1.00  0.00    -0.744 OA
ENDBRANCH  82  83
ENDBRANCH  56  77
ENDBRANCH  30  31
ENDBRANCH  23  25
ENDBRANCH  22  23
ENDBRANCH  21  22
ENDBRANCH   1  21
TORSDOF 20
ENDMDL
MODEL 3
REMARK VINA RESULT:      -9.2      2.467      3.064
REMARK SMILES C=CCOC(=O)N[C@@H](Cc1ccccc1)C(=O)OCCOC(=O)c1ccc(-c2c3nc(c(-c4ccc(S(=O)(=O)[O-])cc4)c4ccc([nH]4)c(-c4ccc(S(=O)(=O)[O-])cc4)c4nc(c(-c5ccc(S(=O)(=O)[O-])cc5)c5ccc2[nH]5)C=C4)C=C3)cc1
REMARK SMILES IDX 19 1 18 2 16 3 17 4 8 5 7 6 5 7 6 8 4 10 3 11 2 12 1 13 9 14
REMARK SMILES IDX 10 15 11 16 15 17 12 18 14 19 13 20 20 21 21 22 22 23 23 24
REMARK SMILES IDX 24 25 25 26 83 27 26 28 82 29 27 30 28 31 29 32 76 33 30 34
REMARK SMILES IDX 81 35 75 36 77 37 31 38 80 39 74 40 73 41 32 43 62 44 43 45
REMARK SMILES IDX 61 46 44 47 47 48 60 49 78 50 45 51 46 52 59 54 79 55 48 56
REMARK SMILES IDX 33 57 34 58 42 59 35 60 41 61 36 62 37 63 38 64 39 65 40 66
REMARK SMILES IDX 63 67 64 68 72 69 65 70 71 71 66 72 67 73 68 74 69 75 70 76
REMARK SMILES IDX 49 77 50 78 58 79 51 80 57 81 52 82 53 83 54 84 55 85 56 86
REMARK H PARENT 7 9 77 42 47 53
REMARK Flexibility Score: inf
ROOT
ATOM      1  C   UNL A   1      35.451  23.089  24.004  1.00  0.00     0.274 C 
ENDROOT
BRANCH   1   2
ATOM      2  O   UNL A   1      34.464  23.781  24.792  1.00  0.00    -0.461 OA
BRANCH   2   3
ATOM      3  C   UNL A   1      33.252  23.977  24.200  1.00  0.00     0.329 C 
ATOM      4  O   UNL A   1      32.776  23.257  23.329  1.00  0.00    -0.250 OA
BRANCH   3   5
ATOM      5  C   UNL A   1      32.565  25.267  24.673  1.00  0.00     0.199 C 
BRANCH   5   6
ATOM      6  N   UNL A   1      31.107  25.258  24.538  1.00  0.00    -0.308 N 
ATOM      7  C   UNL A   1      30.342  26.109  23.797  1.00  0.00     0.408 C 
ATOM      8  O   UNL A   1      29.124  26.117  23.905  1.00  0.00    -0.225 OA
ATOM      9  H   UNL A   1      30.625  24.561  25.039  1.00  0.00     0.168 HD
BRANCH   7  10
ATOM     10  O   UNL A   1      31.076  26.926  23.007  1.00  0.00    -0.445 OA
BRANCH  10  11
ATOM     11  C   UNL A   1      30.353  27.923  22.269  1.00  0.00     0.262 C 
BRANCH  11  12
ATOM     12  C   UNL A   1      30.648  29.308  22.759  1.00  0.00     0.006 C 
ATOM     13  C   UNL A   1      30.349  29.736  23.993  1.00  0.00     0.007 C 
ENDBRANCH  11  12
ENDBRANCH  10  11
ENDBRANCH   7  10
ENDBRANCH   5   6
BRANCH   5  14
ATOM     14  C   UNL A   1      32.999  25.586  26.115  1.00  0.00     0.072 C 
BRANCH  14  15
ATOM     15  C   UNL A   1      32.897  27.054  26.454  1.00  0.00    -0.045 A 
ATOM     16  C   UNL A   1      33.836  27.965  25.956  1.00  0.00     0.004 A 
ATOM     17  C   UNL A   1      31.814  27.530  27.208  1.00  0.00     0.004 A 
ATOM     18  C   UNL A   1      33.679  29.331  26.184  1.00  0.00     0.000 A 
ATOM     19  C   UNL A   1      31.659  28.896  27.433  1.00  0.00     0.000 A 
ATOM     20  C   UNL A   1      32.588  29.797  26.916  1.00  0.00     0.000 A 
ENDBRANCH  14  15
ENDBRANCH   5  14
ENDBRANCH   3   5
ENDBRANCH   2   3
ENDBRANCH   1   2
BRANCH   1  21
ATOM     21  C   UNL A   1      36.570  22.544  24.890  1.00  0.00     0.275 C 
BRANCH  21  22
ATOM     22  O   UNL A   1      37.416  23.605  25.364  1.00  0.00    -0.458 OA
BRANCH  22  23
ATOM     23  C   UNL A   1      38.577  23.196  25.928  1.00  0.00     0.338 C 
ATOM     24  O   UNL A   1      39.146  22.130  25.772  1.00  0.00    -0.246 OA
BRANCH  23  25
ATOM     25  C   UNL A   1      39.151  24.303  26.700  1.00  0.00     0.060 A 
ATOM     26  C   UNL A   1      38.738  24.469  28.020  1.00  0.00     0.016 A 
ATOM     27  C   UNL A   1      40.013  25.221  26.108  1.00  0.00     0.016 A 
ATOM     28  C   UNL A   1      39.162  25.563  28.761  1.00  0.00     0.010 A 
ATOM     29  C   UNL A   1      40.471  26.306  26.862  1.00  0.00     0.010 A 
ATOM     30  C   UNL A   1      40.041  26.486  28.190  1.00  0.00    -0.014 A 
BRANCH  30  31
ATOM     31  C   UNL A   1      40.499  27.649  28.984  1.00  0.00     0.031 A 
ATOM     32  C   UNL A   1      41.841  27.614  29.657  1.00  0.00     0.074 A 
ATOM     33  C   UNL A   1      39.710  28.735  29.086  1.00  0.00     0.049 A 
ATOM     34  N   UNL A   1      42.360  28.466  30.501  1.00  0.00    -0.248 NA
ATOM     35  C   UNL A   1      42.710  26.469  29.340  1.00  0.00     0.031 C 
ATOM     36  C   UNL A   1      38.416  28.907  28.421  1.00  0.00     0.029 A 
ATOM     37  N   UNL A   1      39.877  29.898  29.794  1.00  0.00    -0.354 N 
ATOM     38  C   UNL A   1      43.601  27.946  30.847  1.00  0.00     0.074 A 
ATOM     39  C   UNL A   1      43.754  26.701  30.124  1.00  0.00     0.031 C 
ATOM     40  C   UNL A   1      37.911  30.107  28.749  1.00  0.00     0.029 A 
ATOM     41  C   UNL A   1      38.808  30.756  29.698  1.00  0.00     0.049 A 
ATOM     42  H   UNL A   1      40.685  30.099  30.319  1.00  0.00     0.167 HD
ATOM     43  C   UNL A   1      44.521  28.460  31.697  1.00  0.00     0.031 A 
ATOM     44  C   UNL A   1      38.555  31.912  30.339  1.00  0.00     0.031 A 
ATOM     45  C   UNL A   1      44.354  29.702  32.406  1.00  0.00     0.049 A 
ATOM     46  C   UNL A   1      39.557  32.423  31.335  1.00  0.00     0.074 A 
ATOM     47  C   UNL A   1      45.228  30.316  33.285  1.00  0.00     0.029 A 
ATOM     48  N   UNL A   1      43.236  30.519  32.317  1.00  0.00    -0.354 N 
ATOM     49  N   UNL A   1      40.715  31.909  31.673  1.00  0.00    -0.248 NA
ATOM     50  C   UNL A   1      39.213  33.661  32.046  1.00  0.00     0.031 C 
ATOM     51  C   UNL A   1      44.616  31.478  33.768  1.00  0.00     0.029 A 
ATOM     52  C   UNL A   1      43.385  31.617  33.147  1.00  0.00     0.049 A 
ATOM     53  H   UNL A   1      42.452  30.343  31.748  1.00  0.00     0.167 HD
ATOM     54  C   UNL A   1      41.246  32.767  32.628  1.00  0.00     0.074 A 
ATOM     55  C   UNL A   1      40.290  33.844  32.797  1.00  0.00     0.031 C 
ATOM     56  C   UNL A   1      42.416  32.671  33.308  1.00  0.00     0.031 A 
BRANCH  43  57
ATOM     57  C   UNL A   1      45.768  27.653  31.944  1.00  0.00    -0.014 A 
ATOM     58  C   UNL A   1      46.972  27.937  31.274  1.00  0.00     0.010 A 
ATOM     59  C   UNL A   1      45.740  26.611  32.889  1.00  0.00     0.010 A 
ATOM     60  C   UNL A   1      48.114  27.167  31.519  1.00  0.00     0.020 A 
ATOM     61  C   UNL A   1      46.886  25.856  33.154  1.00  0.00     0.020 A 
ATOM     62  C   UNL A   1      48.062  26.129  32.454  1.00  0.00     0.054 A 
BRANCH  62  63
ATOM     63  S   UNL A   1      49.564  25.158  32.765  1.00  0.00     0.124 S 
ATOM     64  O   UNL A   1      49.943  24.752  31.414  1.00  0.00    -0.237 OA
ATOM     65  O   UNL A   1      50.449  26.131  33.399  1.00  0.00    -0.237 OA
ATOM     66  O   UNL A   1      49.105  24.078  33.634  1.00  0.00    -0.744 OA
ENDBRANCH  62  63
ENDBRANCH  43  57
BRANCH  44  67
ATOM     67  C   UNL A   1      37.275  32.631  30.094  1.00  0.00    -0.014 A 
ATOM     68  C   UNL A   1      36.175  32.449  30.948  1.00  0.00     0.010 A 
ATOM     69  C   UNL A   1      37.160  33.524  29.012  1.00  0.00     0.010 A 
ATOM     70  C   UNL A   1      34.980  33.139  30.720  1.00  0.00     0.020 A 
ATOM     71  C   UNL A   1      35.978  34.239  28.798  1.00  0.00     0.020 A 
ATOM     72  C   UNL A   1      34.892  34.033  29.648  1.00  0.00     0.054 A 
BRANCH  72  73
ATOM     73  S   UNL A   1      33.353  34.966  29.407  1.00  0.00     0.124 S 
ATOM     74  O   UNL A   1      32.653  34.146  28.424  1.00  0.00    -0.237 OA
ATOM     75  O   UNL A   1      32.776  34.976  30.750  1.00  0.00    -0.237 OA
ATOM     76  O   UNL A   1      33.814  36.267  28.927  1.00  0.00    -0.744 OA
ENDBRANCH  72  73
ENDBRANCH  44  67
BRANCH  56  77
ATOM     77  C   UNL A   1      42.732  33.773  34.283  1.00  0.00    -0.014 A 
ATOM     78  C   UNL A   1      43.163  35.035  33.836  1.00  0.00     0.010 A 
ATOM     79  C   UNL A   1      42.556  33.553  35.661  1.00  0.00     0.010 A 
ATOM     80  C   UNL A   1      43.440  36.050  34.754  1.00  0.00     0.020 A 
ATOM     81  C   UNL A   1      42.807  34.575  36.580  1.00  0.00     0.020 A 
ATOM     82  C   UNL A   1      43.262  35.813  36.120  1.00  0.00     0.054 A 
BRANCH  82  83
ATOM     83  S   UNL A   1      43.590  37.160  37.290  1.00  0.00     0.124 S 
ATOM     84  O   UNL A   1      44.236  38.153  36.436  1.00  0.00    -0.237 OA
ATOM     85  O   UNL A   1      42.252  37.511  37.760  1.00  0.00    -0.237 OA
ATOM     86  O   UNL A   1      44.454  36.543  38.294  1.00  0.00    -0.744 OA
ENDBRANCH  82  83
ENDBRANCH  56  77
ENDBRANCH  30  31
ENDBRANCH  23  25
ENDBRANCH  22  23
ENDBRANCH  21  22
ENDBRANCH   1  21
TORSDOF 20
ENDMDL
