MODEL 1
REMARK VINA RESULT:     -12.2      0.000      0.000
REMARK SMILES Cc1c(NC(=S)NC(=O)CSc2ccc(Cl)cc2)cccc1C(=O)OCCOC(=O)c1ccc(-c2c3nc(c(-c4ccc(S(=O)(=O)[O-])cc4)c4ccc([nH]4)c(-c4ccc(S(=O)(=O)[O-])cc4)c4nc(c(-c5ccc(S(=O)(=O)[O-])cc5)c5ccc2[nH]5)C=C4)C=C3)cc1
REMARK SMILES IDX 25 1 23 2 24 3 22 4 1 5 2 6 3 7 19 8 21 9 20 10 4 11 5 13
REMARK SMILES IDX 6 14 7 15 8 16 9 18 10 19 11 20 12 21 13 22 18 23 14 24
REMARK SMILES IDX 17 25 15 26 16 27 26 28 27 29 28 30 29 31 30 32 31 33 32 34
REMARK SMILES IDX 90 35 33 36 89 37 34 38 35 39 36 40 83 41 37 42 88 43 82 44
REMARK SMILES IDX 84 45 38 46 87 47 81 48 80 49 39 51 69 52 50 53 68 54 51 55
REMARK SMILES IDX 54 56 67 57 85 58 52 59 53 60 66 62 86 63 55 64 40 65 41 66
REMARK SMILES IDX 49 67 42 68 48 69 43 70 44 71 45 72 46 73 47 74 70 75 71 76
REMARK SMILES IDX 79 77 72 78 78 79 73 80 74 81 75 82 76 83 77 84 56 85 57 86
REMARK SMILES IDX 65 87 58 88 64 89 59 90 60 91 61 92 62 93 63 94
REMARK H PARENT 4 12 7 17 84 50 54 61
REMARK Flexibility Score: inf
ROOT
ATOM      1  O   UNL A   1      33.276  27.399  26.647  1.00  0.00    -0.458 OA
ENDROOT
BRANCH   1   2
ATOM      2  C   UNL A   1      32.040  27.044  26.231  1.00  0.00     0.338 C 
ATOM      3  O   UNL A   1      31.126  27.818  25.972  1.00  0.00    -0.246 OA
BRANCH   2   4
ATOM      4  C   UNL A   1      31.858  25.579  26.267  1.00  0.00     0.065 A 
ATOM      5  C   UNL A   1      34.282  25.302  25.557  1.00  0.00     0.047 C 
ATOM      6  C   UNL A   1      32.955  24.736  26.004  1.00  0.00    -0.013 A 
ATOM      7  C   UNL A   1      32.792  23.344  26.196  1.00  0.00     0.044 A 
ATOM      8  C   UNL A   1      31.527  22.815  26.457  1.00  0.00     0.026 A 
ATOM      9  C   UNL A   1      30.624  25.037  26.645  1.00  0.00     0.016 A 
ATOM     10  C   UNL A   1      30.453  23.659  26.719  1.00  0.00     0.003 A 
BRANCH   7  11
ATOM     11  N   UNL A   1      33.932  22.530  26.111  1.00  0.00    -0.332 N 
ATOM     12  H   UNL A   1      34.613  22.756  26.785  1.00  0.00     0.169 HD
BRANCH  11  13
ATOM     13  C   UNL A   1      34.303  21.518  25.322  1.00  0.00     0.177 C 
ATOM     14  S   UNL A   1      35.952  21.201  25.226  1.00  0.00    -0.040 S 
BRANCH  13  15
ATOM     15  N   UNL A   1      33.483  20.692  24.605  1.00  0.00    -0.302 N 
ATOM     16  C   UNL A   1      32.603  20.605  23.536  1.00  0.00     0.236 C 
ATOM     17  H   UNL A   1      33.538  19.798  25.014  1.00  0.00     0.172 HD
ATOM     18  O   UNL A   1      32.313  19.444  23.198  1.00  0.00    -0.274 OA
BRANCH  16  19
ATOM     19  C   UNL A   1      32.017  21.765  22.761  1.00  0.00     0.175 C 
BRANCH  19  20
ATOM     20  S   UNL A   1      33.185  23.078  22.323  1.00  0.00    -0.116 SA
BRANCH  20  21
ATOM     21  C   UNL A   1      32.135  24.481  22.589  1.00  0.00     0.008 A 
ATOM     22  C   UNL A   1      32.571  25.772  22.280  1.00  0.00     0.016 A 
ATOM     23  C   UNL A   1      30.847  24.277  23.088  1.00  0.00     0.016 A 
ATOM     24  C   UNL A   1      31.706  26.857  22.448  1.00  0.00     0.021 A 
ATOM     25  C   UNL A   1      29.984  25.358  23.254  1.00  0.00     0.021 A 
ATOM     26  C   UNL A   1      30.414  26.643  22.926  1.00  0.00     0.041 A 
ATOM     27  Cl  UNL A   1      29.331  27.967  23.096  1.00  0.00    -0.084 Cl
ENDBRANCH  20  21
ENDBRANCH  19  20
ENDBRANCH  16  19
ENDBRANCH  13  15
ENDBRANCH  11  13
ENDBRANCH   7  11
ENDBRANCH   2   4
ENDBRANCH   1   2
BRANCH   1  28
ATOM     28  C   UNL A   1      33.365  28.739  27.154  1.00  0.00     0.275 C 
BRANCH  28  29
ATOM     29  C   UNL A   1      34.820  29.240  27.165  1.00  0.00     0.275 C 
BRANCH  29  30
ATOM     30  O   UNL A   1      35.399  29.677  28.416  1.00  0.00    -0.458 OA
BRANCH  30  31
ATOM     31  C   UNL A   1      36.541  30.420  28.353  1.00  0.00     0.338 C 
ATOM     32  O   UNL A   1      36.578  31.614  28.580  1.00  0.00    -0.246 OA
BRANCH  31  33
ATOM     33  C   UNL A   1      37.701  29.481  28.323  1.00  0.00     0.060 A 
ATOM     34  C   UNL A   1      38.696  29.601  27.340  1.00  0.00     0.016 A 
ATOM     35  C   UNL A   1      37.941  28.747  29.487  1.00  0.00     0.016 A 
ATOM     36  C   UNL A   1      39.965  29.078  27.566  1.00  0.00     0.010 A 
ATOM     37  C   UNL A   1      39.229  28.428  29.802  1.00  0.00     0.010 A 
ATOM     38  C   UNL A   1      40.221  28.529  28.817  1.00  0.00    -0.014 A 
BRANCH  38  39
ATOM     39  C   UNL A   1      41.360  27.688  29.126  1.00  0.00     0.031 A 
ATOM     40  C   UNL A   1      41.414  26.281  28.701  1.00  0.00     0.074 A 
ATOM     41  C   UNL A   1      42.358  28.459  29.622  1.00  0.00     0.049 A 
ATOM     42  N   UNL A   1      42.362  25.490  29.043  1.00  0.00    -0.248 NA
ATOM     43  C   UNL A   1      40.417  25.602  27.872  1.00  0.00     0.031 C 
ATOM     44  C   UNL A   1      43.783  28.267  29.791  1.00  0.00     0.029 A 
ATOM     45  N   UNL A   1      42.132  29.691  30.253  1.00  0.00    -0.354 N 
ATOM     46  C   UNL A   1      42.284  24.350  28.266  1.00  0.00     0.074 A 
ATOM     47  C   UNL A   1      41.004  24.422  27.617  1.00  0.00     0.031 C 
ATOM     48  C   UNL A   1      44.218  29.132  30.736  1.00  0.00     0.029 A 
ATOM     49  C   UNL A   1      43.046  29.824  31.281  1.00  0.00     0.049 A 
ATOM     50  H   UNL A   1      41.442  30.348  30.006  1.00  0.00     0.167 HD
ATOM     51  C   UNL A   1      43.404  23.579  28.183  1.00  0.00     0.031 A 
ATOM     52  C   UNL A   1      42.530  29.665  32.539  1.00  0.00     0.031 A 
ATOM     53  C   UNL A   1      44.381  24.073  29.153  1.00  0.00     0.049 A 
ATOM     54  C   UNL A   1      43.011  28.339  33.082  1.00  0.00     0.074 A 
ATOM     55  C   UNL A   1      45.422  24.977  29.025  1.00  0.00     0.029 A 
ATOM     56  N   UNL A   1      44.053  24.019  30.503  1.00  0.00    -0.354 N 
ATOM     57  N   UNL A   1      43.136  27.237  32.384  1.00  0.00    -0.248 NA
ATOM     58  C   UNL A   1      43.586  28.247  34.418  1.00  0.00     0.031 C 
ATOM     59  C   UNL A   1      45.610  25.578  30.303  1.00  0.00     0.029 A 
ATOM     60  C   UNL A   1      44.686  25.040  31.189  1.00  0.00     0.049 A 
ATOM     61  H   UNL A   1      43.457  23.351  30.910  1.00  0.00     0.167 HD
ATOM     62  C   UNL A   1      43.924  26.364  33.091  1.00  0.00     0.074 A 
ATOM     63  C   UNL A   1      44.139  27.025  34.371  1.00  0.00     0.031 C 
ATOM     64  C   UNL A   1      44.461  25.200  32.616  1.00  0.00     0.031 A 
BRANCH  51  65
ATOM     65  C   UNL A   1      43.759  22.582  27.103  1.00  0.00    -0.014 A 
ATOM     66  C   UNL A   1      42.897  21.475  26.927  1.00  0.00     0.010 A 
ATOM     67  C   UNL A   1      44.917  22.599  26.302  1.00  0.00     0.010 A 
ATOM     68  C   UNL A   1      43.186  20.422  26.051  1.00  0.00     0.020 A 
ATOM     69  C   UNL A   1      45.215  21.548  25.407  1.00  0.00     0.020 A 
ATOM     70  C   UNL A   1      44.352  20.459  25.297  1.00  0.00     0.054 A 
BRANCH  70  71
ATOM     71  S   UNL A   1      44.703  19.065  24.190  1.00  0.00     0.124 S 
ATOM     72  O   UNL A   1      43.702  18.081  24.597  1.00  0.00    -0.237 OA
ATOM     73  O   UNL A   1      44.502  19.652  22.868  1.00  0.00    -0.237 OA
ATOM     74  O   UNL A   1      46.083  18.707  24.506  1.00  0.00    -0.744 OA
ENDBRANCH  70  71
ENDBRANCH  51  65
BRANCH  52  75
ATOM     75  C   UNL A   1      41.168  30.299  32.747  1.00  0.00    -0.014 A 
ATOM     76  C   UNL A   1      40.223  29.576  33.524  1.00  0.00     0.010 A 
ATOM     77  C   UNL A   1      40.862  31.639  32.453  1.00  0.00     0.010 A 
ATOM     78  C   UNL A   1      39.094  30.189  34.086  1.00  0.00     0.020 A 
ATOM     79  C   UNL A   1      39.708  32.256  32.994  1.00  0.00     0.020 A 
ATOM     80  C   UNL A   1      38.851  31.536  33.835  1.00  0.00     0.054 A 
BRANCH  80  81
ATOM     81  S   UNL A   1      37.534  32.365  34.791  1.00  0.00     0.124 S 
ATOM     82  O   UNL A   1      36.358  32.154  33.951  1.00  0.00    -0.237 OA
ATOM     83  O   UNL A   1      37.549  31.619  36.047  1.00  0.00    -0.237 OA
ATOM     84  O   UNL A   1      38.000  33.748  34.881  1.00  0.00    -0.744 OA
ENDBRANCH  80  81
ENDBRANCH  52  75
BRANCH  64  85
ATOM     85  C   UNL A   1      44.934  24.091  33.515  1.00  0.00    -0.014 A 
ATOM     86  C   UNL A   1      44.131  22.991  33.847  1.00  0.00     0.010 A 
ATOM     87  C   UNL A   1      46.291  24.049  33.916  1.00  0.00     0.010 A 
ATOM     88  C   UNL A   1      44.620  21.956  34.643  1.00  0.00     0.020 A 
ATOM     89  C   UNL A   1      46.812  22.982  34.641  1.00  0.00     0.020 A 
ATOM     90  C   UNL A   1      45.956  21.964  35.041  1.00  0.00     0.054 A 
BRANCH  90  91
ATOM     91  S   UNL A   1      46.572  20.618  36.068  1.00  0.00     0.124 S 
ATOM     92  O   UNL A   1      46.334  19.462  35.208  1.00  0.00    -0.237 OA
ATOM     93  O   UNL A   1      47.976  20.975  36.264  1.00  0.00    -0.237 OA
ATOM     94  O   UNL A   1      45.742  20.692  37.267  1.00  0.00    -0.744 OA
ENDBRANCH  90  91
ENDBRANCH  64  85
ENDBRANCH  38  39
ENDBRANCH  31  33
ENDBRANCH  30  31
ENDBRANCH  29  30
ENDBRANCH  28  29
ENDBRANCH   1  28
TORSDOF 20
ENDMDL
MODEL 2
REMARK VINA RESULT:     -11.0      5.494      8.213
REMARK SMILES Cc1c(NC(=S)NC(=O)CSc2ccc(Cl)cc2)cccc1C(=O)OCCOC(=O)c1ccc(-c2c3nc(c(-c4ccc(S(=O)(=O)[O-])cc4)c4ccc([nH]4)c(-c4ccc(S(=O)(=O)[O-])cc4)c4nc(c(-c5ccc(S(=O)(=O)[O-])cc5)c5ccc2[nH]5)C=C4)C=C3)cc1
REMARK SMILES IDX 25 1 23 2 24 3 22 4 1 5 2 6 3 7 19 8 21 9 20 10 4 11 5 13
REMARK SMILES IDX 6 14 7 15 8 16 9 18 10 19 11 20 12 21 13 22 18 23 14 24
REMARK SMILES IDX 17 25 15 26 16 27 26 28 27 29 28 30 29 31 30 32 31 33 32 34
REMARK SMILES IDX 90 35 33 36 89 37 34 38 35 39 36 40 83 41 37 42 88 43 82 44
REMARK SMILES IDX 84 45 38 46 87 47 81 48 80 49 39 51 69 52 50 53 68 54 51 55
REMARK SMILES IDX 54 56 67 57 85 58 52 59 53 60 66 62 86 63 55 64 40 65 41 66
REMARK SMILES IDX 49 67 42 68 48 69 43 70 44 71 45 72 46 73 47 74 70 75 71 76
REMARK SMILES IDX 79 77 72 78 78 79 73 80 74 81 75 82 76 83 77 84 56 85 57 86
REMARK SMILES IDX 65 87 58 88 64 89 59 90 60 91 61 92 62 93 63 94
REMARK H PARENT 4 12 7 17 84 50 54 61
REMARK Flexibility Score: inf
ROOT
ATOM      1  O   UNL A   1      35.832  33.017  30.449  1.00  0.00    -0.458 OA
ENDROOT
BRANCH   1   2
ATOM      2  C   UNL A   1      35.235  32.345  31.457  1.00  0.00     0.338 C 
ATOM      3  O   UNL A   1      34.082  32.509  31.838  1.00  0.00    -0.246 OA
BRANCH   2   4
ATOM      4  C   UNL A   1      36.193  31.476  32.169  1.00  0.00     0.065 A 
ATOM      5  C   UNL A   1      36.445  33.277  33.943  1.00  0.00     0.047 C 
ATOM      6  C   UNL A   1      36.730  31.897  33.401  1.00  0.00    -0.013 A 
ATOM      7  C   UNL A   1      37.523  30.983  34.135  1.00  0.00     0.044 A 
ATOM      8  C   UNL A   1      37.909  29.771  33.561  1.00  0.00     0.026 A 
ATOM      9  C   UNL A   1      36.495  30.207  31.663  1.00  0.00     0.016 A 
ATOM     10  C   UNL A   1      37.367  29.366  32.345  1.00  0.00     0.003 A 
BRANCH   7  11
ATOM     11  N   UNL A   1      37.901  31.339  35.438  1.00  0.00    -0.332 N 
ATOM     12  H   UNL A   1      37.190  31.814  35.926  1.00  0.00     0.169 HD
BRANCH  11  13
ATOM     13  C   UNL A   1      39.010  31.180  36.168  1.00  0.00     0.177 C 
ATOM     14  S   UNL A   1      39.457  32.468  37.151  1.00  0.00    -0.040 S 
BRANCH  13  15
ATOM     15  N   UNL A   1      39.805  30.070  36.222  1.00  0.00    -0.302 N 
ATOM     16  C   UNL A   1      40.888  29.412  35.657  1.00  0.00     0.236 C 
ATOM     17  H   UNL A   1      39.474  29.509  36.960  1.00  0.00     0.172 HD
ATOM     18  O   UNL A   1      41.328  28.465  36.330  1.00  0.00    -0.274 OA
BRANCH  16  19
ATOM     19  C   UNL A   1      41.568  29.764  34.351  1.00  0.00     0.175 C 
BRANCH  19  20
ATOM     20  S   UNL A   1      43.377  29.818  34.405  1.00  0.00    -0.116 SA
BRANCH  20  21
ATOM     21  C   UNL A   1      43.724  28.310  33.540  1.00  0.00     0.008 A 
ATOM     22  C   UNL A   1      44.330  27.232  34.191  1.00  0.00     0.016 A 
ATOM     23  C   UNL A   1      43.355  28.200  32.198  1.00  0.00     0.016 A 
ATOM     24  C   UNL A   1      44.544  26.035  33.503  1.00  0.00     0.021 A 
ATOM     25  C   UNL A   1      43.566  27.006  31.512  1.00  0.00     0.021 A 
ATOM     26  C   UNL A   1      44.152  25.926  32.169  1.00  0.00     0.041 A 
ATOM     27  Cl  UNL A   1      44.374  24.443  31.328  1.00  0.00    -0.084 Cl
ENDBRANCH  20  21
ENDBRANCH  19  20
ENDBRANCH  16  19
ENDBRANCH  13  15
ENDBRANCH  11  13
ENDBRANCH   7  11
ENDBRANCH   2   4
ENDBRANCH   1   2
BRANCH   1  28
ATOM     28  C   UNL A   1      35.193  32.856  29.173  1.00  0.00     0.275 C 
BRANCH  28  29
ATOM     29  C   UNL A   1      36.199  32.417  28.094  1.00  0.00     0.275 C 
BRANCH  29  30
ATOM     30  O   UNL A   1      37.248  31.487  28.454  1.00  0.00    -0.458 OA
BRANCH  30  31
ATOM     31  C   UNL A   1      36.931  30.161  28.470  1.00  0.00     0.338 C 
ATOM     32  O   UNL A   1      35.789  29.744  28.490  1.00  0.00    -0.246 OA
BRANCH  31  33
ATOM     33  C   UNL A   1      38.156  29.390  28.104  1.00  0.00     0.060 A 
ATOM     34  C   UNL A   1      38.711  29.495  26.818  1.00  0.00     0.016 A 
ATOM     35  C   UNL A   1      38.909  28.875  29.160  1.00  0.00     0.016 A 
ATOM     36  C   UNL A   1      40.052  29.183  26.612  1.00  0.00     0.010 A 
ATOM     37  C   UNL A   1      40.261  28.779  29.012  1.00  0.00     0.010 A 
ATOM     38  C   UNL A   1      40.817  28.865  27.728  1.00  0.00    -0.014 A 
BRANCH  38  39
ATOM     39  C   UNL A   1      42.122  28.237  27.674  1.00  0.00     0.031 A 
ATOM     40  C   UNL A   1      42.283  26.782  27.815  1.00  0.00     0.074 A 
ATOM     41  C   UNL A   1      43.036  29.151  27.266  1.00  0.00     0.049 A 
ATOM     42  N   UNL A   1      43.429  26.214  27.869  1.00  0.00    -0.248 NA
ATOM     43  C   UNL A   1      41.192  25.812  27.932  1.00  0.00     0.031 C 
ATOM     44  C   UNL A   1      44.376  29.057  26.724  1.00  0.00     0.029 A 
ATOM     45  N   UNL A   1      42.866  30.533  27.436  1.00  0.00    -0.354 N 
ATOM     46  C   UNL A   1      43.251  24.853  27.711  1.00  0.00     0.074 A 
ATOM     47  C   UNL A   1      41.837  24.638  27.848  1.00  0.00     0.031 C 
ATOM     48  C   UNL A   1      44.999  30.241  26.925  1.00  0.00     0.029 A 
ATOM     49  C   UNL A   1      44.100  31.090  27.712  1.00  0.00     0.049 A 
ATOM     50  H   UNL A   1      42.014  31.022  27.370  1.00  0.00     0.167 HD
ATOM     51  C   UNL A   1      44.340  24.125  27.338  1.00  0.00     0.031 A 
ATOM     52  C   UNL A   1      44.285  31.471  29.014  1.00  0.00     0.031 A 
ATOM     53  C   UNL A   1      45.521  24.986  27.407  1.00  0.00     0.049 A 
ATOM     54  C   UNL A   1      45.248  30.498  29.656  1.00  0.00     0.074 A 
ATOM     55  C   UNL A   1      46.148  25.759  26.446  1.00  0.00     0.029 A 
ATOM     56  N   UNL A   1      45.887  25.501  28.645  1.00  0.00    -0.354 N 
ATOM     57  N   UNL A   1      45.272  29.205  29.441  1.00  0.00    -0.248 NA
ATOM     58  C   UNL A   1      46.387  30.977  30.427  1.00  0.00     0.031 C 
ATOM     59  C   UNL A   1      46.776  26.841  27.127  1.00  0.00     0.029 A 
ATOM     60  C   UNL A   1      46.523  26.718  28.486  1.00  0.00     0.049 A 
ATOM     61  H   UNL A   1      45.718  25.061  29.510  1.00  0.00     0.167 HD
ATOM     62  C   UNL A   1      46.472  28.714  29.890  1.00  0.00     0.074 A 
ATOM     63  C   UNL A   1      47.110  29.852  30.537  1.00  0.00     0.031 C 
ATOM     64  C   UNL A   1      46.966  27.461  29.655  1.00  0.00     0.031 A 
BRANCH  51  65
ATOM     65  C   UNL A   1      44.358  22.769  26.668  1.00  0.00    -0.014 A 
ATOM     66  C   UNL A   1      45.564  22.362  26.050  1.00  0.00     0.010 A 
ATOM     67  C   UNL A   1      43.263  21.896  26.524  1.00  0.00     0.010 A 
ATOM     68  C   UNL A   1      45.668  21.191  25.291  1.00  0.00     0.020 A 
ATOM     69  C   UNL A   1      43.357  20.706  25.769  1.00  0.00     0.020 A 
ATOM     70  C   UNL A   1      44.558  20.368  25.146  1.00  0.00     0.054 A 
BRANCH  70  71
ATOM     71  S   UNL A   1      44.725  18.870  24.137  1.00  0.00     0.124 S 
ATOM     72  O   UNL A   1      44.529  19.381  22.782  1.00  0.00    -0.237 OA
ATOM     73  O   UNL A   1      46.082  18.427  24.449  1.00  0.00    -0.237 OA
ATOM     74  O   UNL A   1      43.661  17.998  24.627  1.00  0.00    -0.744 OA
ENDBRANCH  70  71
ENDBRANCH  51  65
BRANCH  52  75
ATOM     75  C   UNL A   1      43.080  32.125  29.659  1.00  0.00    -0.014 A 
ATOM     76  C   UNL A   1      42.369  31.371  30.631  1.00  0.00     0.010 A 
ATOM     77  C   UNL A   1      42.769  33.492  29.558  1.00  0.00     0.010 A 
ATOM     78  C   UNL A   1      41.488  31.971  31.543  1.00  0.00     0.020 A 
ATOM     79  C   UNL A   1      41.858  34.099  30.457  1.00  0.00     0.020 A 
ATOM     80  C   UNL A   1      41.251  33.339  31.465  1.00  0.00     0.054 A 
BRANCH  80  81
ATOM     81  S   UNL A   1      40.316  34.129  32.822  1.00  0.00     0.124 S 
ATOM     82  O   UNL A   1      39.105  34.582  32.145  1.00  0.00    -0.237 OA
ATOM     83  O   UNL A   1      40.135  33.020  33.756  1.00  0.00    -0.237 OA
ATOM     84  O   UNL A   1      41.214  35.189  33.279  1.00  0.00    -0.744 OA
ENDBRANCH  80  81
ENDBRANCH  52  75
BRANCH  64  85
ATOM     85  C   UNL A   1      48.040  26.834  30.501  1.00  0.00    -0.014 A 
ATOM     86  C   UNL A   1      47.758  26.108  31.667  1.00  0.00     0.010 A 
ATOM     87  C   UNL A   1      49.376  26.818  30.034  1.00  0.00     0.010 A 
ATOM     88  C   UNL A   1      48.775  25.498  32.399  1.00  0.00     0.020 A 
ATOM     89  C   UNL A   1      50.386  26.144  30.712  1.00  0.00     0.020 A 
ATOM     90  C   UNL A   1      50.084  25.528  31.920  1.00  0.00     0.054 A 
BRANCH  90  91
ATOM     91  S   UNL A   1      51.386  24.733  32.878  1.00  0.00     0.124 S 
ATOM     92  O   UNL A   1      50.941  24.991  34.246  1.00  0.00    -0.237 OA
ATOM     93  O   UNL A   1      51.305  23.339  32.445  1.00  0.00    -0.237 OA
ATOM     94  O   UNL A   1      52.596  25.438  32.467  1.00  0.00    -0.744 OA
ENDBRANCH  90  91
ENDBRANCH  64  85
ENDBRANCH  38  39
ENDBRANCH  31  33
ENDBRANCH  30  31
ENDBRANCH  29  30
ENDBRANCH  28  29
ENDBRANCH   1  28
TORSDOF 20
ENDMDL
MODEL 3
REMARK VINA RESULT:     -10.7      4.209      6.419
REMARK SMILES Cc1c(NC(=S)NC(=O)CSc2ccc(Cl)cc2)cccc1C(=O)OCCOC(=O)c1ccc(-c2c3nc(c(-c4ccc(S(=O)(=O)[O-])cc4)c4ccc([nH]4)c(-c4ccc(S(=O)(=O)[O-])cc4)c4nc(c(-c5ccc(S(=O)(=O)[O-])cc5)c5ccc2[nH]5)C=C4)C=C3)cc1
REMARK SMILES IDX 25 1 23 2 24 3 22 4 1 5 2 6 3 7 19 8 21 9 20 10 4 11 5 13
REMARK SMILES IDX 6 14 7 15 8 16 9 18 10 19 11 20 12 21 13 22 18 23 14 24
REMARK SMILES IDX 17 25 15 26 16 27 26 28 27 29 28 30 29 31 30 32 31 33 32 34
REMARK SMILES IDX 90 35 33 36 89 37 34 38 35 39 36 40 83 41 37 42 88 43 82 44
REMARK SMILES IDX 84 45 38 46 87 47 81 48 80 49 39 51 69 52 50 53 68 54 51 55
REMARK SMILES IDX 54 56 67 57 85 58 52 59 53 60 66 62 86 63 55 64 40 65 41 66
REMARK SMILES IDX 49 67 42 68 48 69 43 70 44 71 45 72 46 73 47 74 70 75 71 76
REMARK SMILES IDX 79 77 72 78 78 79 73 80 74 81 75 82 76 83 77 84 56 85 57 86
REMARK SMILES IDX 65 87 58 88 64 89 59 90 60 91 61 92 62 93 63 94
REMARK H PARENT 4 12 7 17 84 50 54 61
REMARK Flexibility Score: inf
ROOT
ATOM      1  O   UNL A   1      38.045  32.608  31.310  1.00  0.00    -0.458 OA
ENDROOT
BRANCH   1   2
ATOM      2  C   UNL A   1      37.567  32.969  30.099  1.00  0.00     0.338 C 
ATOM      3  O   UNL A   1      37.392  34.120  29.717  1.00  0.00    -0.246 OA
BRANCH   2   4
ATOM      4  C   UNL A   1      37.123  31.795  29.321  1.00  0.00     0.065 A 
ATOM      5  C   UNL A   1      34.713  32.436  29.805  1.00  0.00     0.047 C 
ATOM      6  C   UNL A   1      35.748  31.571  29.125  1.00  0.00    -0.013 A 
ATOM      7  C   UNL A   1      35.355  30.530  28.250  1.00  0.00     0.044 A 
ATOM      8  C   UNL A   1      36.305  29.640  27.748  1.00  0.00     0.026 A 
ATOM      9  C   UNL A   1      38.069  30.962  28.712  1.00  0.00     0.016 A 
ATOM     10  C   UNL A   1      37.662  29.876  27.946  1.00  0.00     0.003 A 
BRANCH   7  11
ATOM     11  N   UNL A   1      33.996  30.430  27.915  1.00  0.00    -0.332 N 
ATOM     12  H   UNL A   1      33.410  30.390  28.705  1.00  0.00     0.169 HD
BRANCH  11  13
ATOM     13  C   UNL A   1      33.316  30.374  26.765  1.00  0.00     0.177 C 
ATOM     14  S   UNL A   1      31.882  31.249  26.694  1.00  0.00    -0.040 S 
BRANCH  13  15
ATOM     15  N   UNL A   1      33.678  29.705  25.630  1.00  0.00    -0.302 N 
ATOM     16  C   UNL A   1      33.587  28.510  24.932  1.00  0.00     0.236 C 
ATOM     17  H   UNL A   1      34.224  30.320  25.089  1.00  0.00     0.172 HD
ATOM     18  O   UNL A   1      33.963  28.571  23.748  1.00  0.00    -0.274 OA
BRANCH  16  19
ATOM     19  C   UNL A   1      33.058  27.196  25.468  1.00  0.00     0.175 C 
BRANCH  19  20
ATOM     20  S   UNL A   1      32.443  26.038  24.219  1.00  0.00    -0.116 SA
BRANCH  20  21
ATOM     21  C   UNL A   1      33.799  24.896  24.211  1.00  0.00     0.008 A 
ATOM     22  C   UNL A   1      34.832  25.001  25.146  1.00  0.00     0.016 A 
ATOM     23  C   UNL A   1      33.809  23.864  23.270  1.00  0.00     0.016 A 
ATOM     24  C   UNL A   1      35.862  24.058  25.154  1.00  0.00     0.021 A 
ATOM     25  C   UNL A   1      34.835  22.922  23.278  1.00  0.00     0.021 A 
ATOM     26  C   UNL A   1      35.853  23.018  24.225  1.00  0.00     0.041 A 
ATOM     27  Cl  UNL A   1      37.095  21.829  24.255  1.00  0.00    -0.084 Cl
ENDBRANCH  20  21
ENDBRANCH  19  20
ENDBRANCH  16  19
ENDBRANCH  13  15
ENDBRANCH  11  13
ENDBRANCH   7  11
ENDBRANCH   2   4
ENDBRANCH   1   2
BRANCH   1  28
ATOM     28  C   UNL A   1      37.030  32.311  32.281  1.00  0.00     0.275 C 
BRANCH  28  29
ATOM     29  C   UNL A   1      37.188  30.886  32.841  1.00  0.00     0.275 C 
BRANCH  29  30
ATOM     30  O   UNL A   1      38.388  30.142  32.528  1.00  0.00    -0.458 OA
BRANCH  30  31
ATOM     31  C   UNL A   1      38.322  28.782  32.610  1.00  0.00     0.338 C 
ATOM     32  O   UNL A   1      37.396  28.186  33.124  1.00  0.00    -0.246 OA
BRANCH  31  33
ATOM     33  C   UNL A   1      39.344  28.214  31.683  1.00  0.00     0.060 A 
ATOM     34  C   UNL A   1      38.968  27.685  30.438  1.00  0.00     0.016 A 
ATOM     35  C   UNL A   1      40.675  28.558  31.933  1.00  0.00     0.016 A 
ATOM     36  C   UNL A   1      39.899  27.598  29.408  1.00  0.00     0.010 A 
ATOM     37  C   UNL A   1      41.527  28.678  30.875  1.00  0.00     0.010 A 
ATOM     38  C   UNL A   1      41.162  28.135  29.636  1.00  0.00    -0.014 A 
BRANCH  38  39
ATOM     39  C   UNL A   1      42.324  27.874  28.810  1.00  0.00     0.031 A 
ATOM     40  C   UNL A   1      42.907  26.528  28.704  1.00  0.00     0.074 A 
ATOM     41  C   UNL A   1      42.580  28.966  28.049  1.00  0.00     0.049 A 
ATOM     42  N   UNL A   1      43.988  26.290  28.061  1.00  0.00    -0.248 NA
ATOM     43  C   UNL A   1      42.363  25.314  29.316  1.00  0.00     0.031 C 
ATOM     44  C   UNL A   1      43.359  29.192  26.850  1.00  0.00     0.029 A 
ATOM     45  N   UNL A   1      42.182  30.261  28.411  1.00  0.00    -0.354 N 
ATOM     46  C   UNL A   1      44.113  24.923  27.904  1.00  0.00     0.074 A 
ATOM     47  C   UNL A   1      43.129  24.350  28.782  1.00  0.00     0.031 C 
ATOM     48  C   UNL A   1      43.655  30.511  26.779  1.00  0.00     0.029 A 
ATOM     49  C   UNL A   1      43.164  31.145  28.006  1.00  0.00     0.049 A 
ATOM     50  H   UNL A   1      41.346  30.500  28.873  1.00  0.00     0.167 HD
ATOM     51  C   UNL A   1      44.953  24.486  26.925  1.00  0.00     0.031 A 
ATOM     52  C   UNL A   1      43.938  31.653  29.015  1.00  0.00     0.031 A 
ATOM     53  C   UNL A   1      45.699  25.632  26.407  1.00  0.00     0.049 A 
ATOM     54  C   UNL A   1      45.307  31.019  28.924  1.00  0.00     0.074 A 
ATOM     55  C   UNL A   1      45.458  26.473  25.335  1.00  0.00     0.029 A 
ATOM     56  N   UNL A   1      46.544  26.313  27.275  1.00  0.00    -0.354 N 
ATOM     57  N   UNL A   1      45.541  29.767  28.614  1.00  0.00    -0.248 NA
ATOM     58  C   UNL A   1      46.511  31.838  28.974  1.00  0.00     0.031 C 
ATOM     59  C   UNL A   1      46.051  27.729  25.649  1.00  0.00     0.029 A 
ATOM     60  C   UNL A   1      46.641  27.641  26.903  1.00  0.00     0.049 A 
ATOM     61  H   UNL A   1      47.007  25.907  28.043  1.00  0.00     0.167 HD
ATOM     62  C   UNL A   1      46.866  29.646  28.275  1.00  0.00     0.074 A 
ATOM     63  C   UNL A   1      47.434  30.956  28.561  1.00  0.00     0.031 C 
ATOM     64  C   UNL A   1      47.449  28.556  27.692  1.00  0.00     0.031 A 
BRANCH  51  65
ATOM     65  C   UNL A   1      44.946  23.139  26.237  1.00  0.00    -0.014 A 
ATOM     66  C   UNL A   1      43.697  22.495  26.076  1.00  0.00     0.010 A 
ATOM     67  C   UNL A   1      46.076  22.415  25.810  1.00  0.00     0.010 A 
ATOM     68  C   UNL A   1      43.575  21.195  25.571  1.00  0.00     0.020 A 
ATOM     69  C   UNL A   1      45.966  21.106  25.290  1.00  0.00     0.020 A 
ATOM     70  C   UNL A   1      44.715  20.500  25.187  1.00  0.00     0.054 A 
BRANCH  70  71
ATOM     71  S   UNL A   1      44.519  18.809  24.560  1.00  0.00     0.124 S 
ATOM     72  O   UNL A   1      45.709  18.140  25.082  1.00  0.00    -0.237 OA
ATOM     73  O   UNL A   1      43.253  18.393  25.159  1.00  0.00    -0.237 OA
ATOM     74  O   UNL A   1      44.492  18.976  23.109  1.00  0.00    -0.744 OA
ENDBRANCH  70  71
ENDBRANCH  51  65
BRANCH  52  75
ATOM     75  C   UNL A   1      43.176  32.008  30.277  1.00  0.00    -0.014 A 
ATOM     76  C   UNL A   1      43.656  31.472  31.502  1.00  0.00     0.010 A 
ATOM     77  C   UNL A   1      42.202  33.018  30.359  1.00  0.00     0.010 A 
ATOM     78  C   UNL A   1      43.281  32.000  32.746  1.00  0.00     0.020 A 
ATOM     79  C   UNL A   1      41.797  33.536  31.614  1.00  0.00     0.020 A 
ATOM     80  C   UNL A   1      42.366  33.047  32.796  1.00  0.00     0.054 A 
BRANCH  80  81
ATOM     81  S   UNL A   1      42.104  33.884  34.398  1.00  0.00     0.124 S 
ATOM     82  O   UNL A   1      41.513  35.156  33.993  1.00  0.00    -0.237 OA
ATOM     83  O   UNL A   1      41.200  32.963  35.083  1.00  0.00    -0.237 OA
ATOM     84  O   UNL A   1      43.451  33.969  34.961  1.00  0.00    -0.744 OA
ENDBRANCH  80  81
ENDBRANCH  52  75
BRANCH  64  85
ATOM     85  C   UNL A   1      48.931  28.299  27.739  1.00  0.00    -0.014 A 
ATOM     86  C   UNL A   1      49.629  28.112  28.940  1.00  0.00     0.010 A 
ATOM     87  C   UNL A   1      49.636  28.065  26.534  1.00  0.00     0.010 A 
ATOM     88  C   UNL A   1      50.993  27.826  28.943  1.00  0.00     0.020 A 
ATOM     89  C   UNL A   1      50.979  27.699  26.526  1.00  0.00     0.020 A 
ATOM     90  C   UNL A   1      51.660  27.630  27.735  1.00  0.00     0.054 A 
BRANCH  90  91
ATOM     91  S   UNL A   1      53.423  27.260  27.757  1.00  0.00     0.124 S 
ATOM     92  O   UNL A   1      53.991  28.562  28.097  1.00  0.00    -0.237 OA
ATOM     93  O   UNL A   1      53.528  26.239  28.798  1.00  0.00    -0.237 OA
ATOM     94  O   UNL A   1      53.694  26.790  26.402  1.00  0.00    -0.744 OA
ENDBRANCH  90  91
ENDBRANCH  64  85
ENDBRANCH  38  39
ENDBRANCH  31  33
ENDBRANCH  30  31
ENDBRANCH  29  30
ENDBRANCH  28  29
ENDBRANCH   1  28
TORSDOF 20
ENDMDL
