MODEL 1
REMARK VINA RESULT:      -8.4      0.000      0.000
REMARK SMILES CC(C)C[C@H](NC(=O)CNC(=O)[C@@H](NC(=O)OCc1ccccc1)C(C)C)C(=O)OCCOC(=O)c1ccc(-c2c3nc(c(-c4ccc(S(=O)(=O)[O-])cc4)c4ccc([nH]4)c(-c4ccc(S(=O)(=O)[O-])cc4)c4nc(c(-c5ccc(S(=O)(=O)[O-])cc5)c5ccc2[nH]5)C=C4)C=C3)cc1
REMARK SMILES IDX 28 1 29 2 5 3 4 4 2 5 1 6 3 7 6 8 7 9 8 11 9 12 10 13 11 14
REMARK SMILES IDX 12 16 13 17 14 18 15 19 16 21 17 22 18 23 19 24 20 25 24 26
REMARK SMILES IDX 21 27 23 28 22 29 25 30 26 31 27 32 30 33 31 34 32 35 33 36
REMARK SMILES IDX 34 37 35 38 36 39 37 40 95 41 38 42 94 43 39 44 40 45 41 46
REMARK SMILES IDX 88 47 42 48 93 49 87 50 89 51 43 52 92 53 86 54 85 55 44 57
REMARK SMILES IDX 74 58 55 59 73 60 56 61 59 62 72 63 90 64 57 65 58 66 71 68
REMARK SMILES IDX 91 69 60 70 45 71 46 72 54 73 47 74 53 75 48 76 49 77 50 78
REMARK SMILES IDX 51 79 52 80 75 81 76 82 84 83 77 84 83 85 78 86 79 87 80 88
REMARK SMILES IDX 81 89 82 90 61 91 62 92 70 93 63 94 69 95 64 96 65 97 66 98
REMARK SMILES IDX 67 99 68 100
REMARK H PARENT 6 10 10 15 14 20 89 56 59 67
REMARK Flexibility Score: inf
ROOT
ATOM      1  C   UNL A   1      35.997  31.321  28.002  1.00  0.00     0.328 C 
ATOM      2  O   UNL A   1      36.895  32.149  28.074  1.00  0.00    -0.250 OA
ENDROOT
BRANCH   1   3
ATOM      3  C   UNL A   1      34.523  31.692  27.927  1.00  0.00     0.192 C 
BRANCH   3   4
ATOM      4  C   UNL A   1      34.198  32.812  28.926  1.00  0.00     0.040 C 
BRANCH   4   5
ATOM      5  C   UNL A   1      33.562  34.174  28.565  1.00  0.00    -0.015 C 
ATOM      6  C   UNL A   1      33.175  35.072  29.745  1.00  0.00     0.007 C 
ATOM      7  C   UNL A   1      34.614  34.949  27.748  1.00  0.00     0.007 C 
ENDBRANCH   4   5
ENDBRANCH   3   4
BRANCH   3   8
ATOM      8  N   UNL A   1      33.696  30.477  28.099  1.00  0.00    -0.341 N 
ATOM      9  C   UNL A   1      32.891  29.776  27.254  1.00  0.00     0.240 C 
ATOM     10  H   UNL A   1      33.736  30.099  29.008  1.00  0.00     0.164 HD
ATOM     11  O   UNL A   1      32.590  28.621  27.575  1.00  0.00    -0.273 OA
BRANCH   9  12
ATOM     12  C   UNL A   1      32.377  30.353  25.932  1.00  0.00     0.216 C 
BRANCH  12  13
ATOM     13  N   UNL A   1      33.023  29.767  24.775  1.00  0.00    -0.345 N 
ATOM     14  C   UNL A   1      32.866  28.630  24.062  1.00  0.00     0.243 C 
ATOM     15  H   UNL A   1      33.750  30.331  24.426  1.00  0.00     0.164 HD
ATOM     16  O   UNL A   1      33.731  28.461  23.189  1.00  0.00    -0.273 OA
BRANCH  14  17
ATOM     17  C   UNL A   1      31.714  27.584  24.213  1.00  0.00     0.177 C 
BRANCH  17  18
ATOM     18  N   UNL A   1      31.684  26.799  25.453  1.00  0.00    -0.309 N 
ATOM     19  C   UNL A   1      32.017  25.514  25.723  1.00  0.00     0.408 C 
ATOM     20  H   UNL A   1      31.360  27.301  26.236  1.00  0.00     0.167 HD
ATOM     21  O   UNL A   1      31.672  25.017  26.790  1.00  0.00    -0.225 OA
BRANCH  19  22
ATOM     22  O   UNL A   1      32.668  24.891  24.721  1.00  0.00    -0.445 OA
BRANCH  22  23
ATOM     23  C   UNL A   1      34.090  25.097  24.680  1.00  0.00     0.270 C 
BRANCH  23  24
ATOM     24  C   UNL A   1      34.884  23.815  24.762  1.00  0.00    -0.011 A 
ATOM     25  C   UNL A   1      35.810  23.470  23.768  1.00  0.00     0.007 A 
ATOM     26  C   UNL A   1      34.733  22.969  25.871  1.00  0.00     0.007 A 
ATOM     27  C   UNL A   1      36.595  22.324  23.899  1.00  0.00     0.000 A 
ATOM     28  C   UNL A   1      35.511  21.819  25.996  1.00  0.00     0.000 A 
ATOM     29  C   UNL A   1      36.446  21.500  25.014  1.00  0.00     0.000 A 
ENDBRANCH  23  24
ENDBRANCH  22  23
ENDBRANCH  19  22
ENDBRANCH  17  18
BRANCH  17  30
ATOM     30  C   UNL A   1      30.348  28.134  23.732  1.00  0.00     0.015 C 
ATOM     31  C   UNL A   1      30.427  28.749  22.325  1.00  0.00     0.010 C 
ATOM     32  C   UNL A   1      29.282  27.031  23.677  1.00  0.00     0.010 C 
ENDBRANCH  17  30
ENDBRANCH  14  17
ENDBRANCH  12  13
ENDBRANCH   9  12
ENDBRANCH   3   8
ENDBRANCH   1   3
BRANCH   1  33
ATOM     33  O   UNL A   1      36.175  29.971  28.083  1.00  0.00    -0.461 OA
BRANCH  33  34
ATOM     34  C   UNL A   1      37.240  29.548  28.947  1.00  0.00     0.274 C 
BRANCH  34  35
ATOM     35  C   UNL A   1      36.967  29.878  30.419  1.00  0.00     0.275 C 
BRANCH  35  36
ATOM     36  O   UNL A   1      38.006  30.675  31.022  1.00  0.00    -0.458 OA
BRANCH  36  37
ATOM     37  C   UNL A   1      38.122  30.556  32.370  1.00  0.00     0.338 C 
ATOM     38  O   UNL A   1      37.248  30.786  33.192  1.00  0.00    -0.246 OA
BRANCH  37  39
ATOM     39  C   UNL A   1      39.408  29.917  32.723  1.00  0.00     0.060 A 
ATOM     40  C   UNL A   1      40.548  30.727  32.803  1.00  0.00     0.016 A 
ATOM     41  C   UNL A   1      39.512  28.541  32.923  1.00  0.00     0.016 A 
ATOM     42  C   UNL A   1      41.794  30.170  33.085  1.00  0.00     0.010 A 
ATOM     43  C   UNL A   1      40.766  27.979  33.192  1.00  0.00     0.010 A 
ATOM     44  C   UNL A   1      41.916  28.788  33.261  1.00  0.00    -0.014 A 
BRANCH  44  45
ATOM     45  C   UNL A   1      43.258  28.177  33.426  1.00  0.00     0.031 A 
ATOM     46  C   UNL A   1      43.849  28.062  34.803  1.00  0.00     0.074 A 
ATOM     47  C   UNL A   1      43.937  27.718  32.358  1.00  0.00     0.049 A 
ATOM     48  N   UNL A   1      45.039  27.656  35.163  1.00  0.00    -0.248 NA
ATOM     49  C   UNL A   1      42.983  28.460  35.926  1.00  0.00     0.031 C 
ATOM     50  C   UNL A   1      43.445  27.715  30.979  1.00  0.00     0.029 A 
ATOM     51  N   UNL A   1      45.191  27.169  32.266  1.00  0.00    -0.354 N 
ATOM     52  C   UNL A   1      45.074  27.772  36.548  1.00  0.00     0.074 A 
ATOM     53  C   UNL A   1      43.794  28.304  36.962  1.00  0.00     0.031 C 
ATOM     54  C   UNL A   1      44.390  27.194  30.179  1.00  0.00     0.029 A 
ATOM     55  C   UNL A   1      45.571  26.874  30.978  1.00  0.00     0.049 A 
ATOM     56  H   UNL A   1      45.765  27.001  33.049  1.00  0.00     0.167 HD
ATOM     57  C   UNL A   1      46.085  27.461  37.396  1.00  0.00     0.031 A 
ATOM     58  C   UNL A   1      46.747  26.429  30.492  1.00  0.00     0.031 A 
ATOM     59  C   UNL A   1      47.356  26.933  36.975  1.00  0.00     0.049 A 
ATOM     60  C   UNL A   1      47.881  26.166  31.449  1.00  0.00     0.074 A 
ATOM     61  C   UNL A   1      48.442  26.578  37.758  1.00  0.00     0.029 A 
ATOM     62  N   UNL A   1      47.715  26.686  35.658  1.00  0.00    -0.354 N 
ATOM     63  N   UNL A   1      47.903  26.280  32.756  1.00  0.00    -0.248 NA
ATOM     64  C   UNL A   1      49.152  25.712  30.864  1.00  0.00     0.031 C 
ATOM     65  C   UNL A   1      49.478  26.173  36.910  1.00  0.00     0.029 A 
ATOM     66  C   UNL A   1      49.015  26.208  35.604  1.00  0.00     0.049 A 
ATOM     67  H   UNL A   1      47.134  26.828  34.878  1.00  0.00     0.167 HD
ATOM     68  C   UNL A   1      49.178  25.886  33.151  1.00  0.00     0.074 A 
ATOM     69  C   UNL A   1      49.890  25.511  31.946  1.00  0.00     0.031 C 
ATOM     70  C   UNL A   1      49.711  25.839  34.397  1.00  0.00     0.031 A 
BRANCH  57  71
ATOM     71  C   UNL A   1      45.870  27.721  38.865  1.00  0.00    -0.014 A 
ATOM     72  C   UNL A   1      46.241  28.943  39.456  1.00  0.00     0.010 A 
ATOM     73  C   UNL A   1      45.238  26.744  39.656  1.00  0.00     0.010 A 
ATOM     74  C   UNL A   1      46.013  29.169  40.816  1.00  0.00     0.020 A 
ATOM     75  C   UNL A   1      44.981  26.978  41.010  1.00  0.00     0.020 A 
ATOM     76  C   UNL A   1      45.382  28.184  41.584  1.00  0.00     0.054 A 
BRANCH  76  77
ATOM     77  S   UNL A   1      45.067  28.520  43.339  1.00  0.00     0.124 S 
ATOM     78  O   UNL A   1      44.737  29.944  43.319  1.00  0.00    -0.237 OA
ATOM     79  O   UNL A   1      43.954  27.623  43.641  1.00  0.00    -0.237 OA
ATOM     80  O   UNL A   1      46.329  28.183  43.991  1.00  0.00    -0.744 OA
ENDBRANCH  76  77
ENDBRANCH  57  71
BRANCH  58  81
ATOM     81  C   UNL A   1      46.931  26.240  29.025  1.00  0.00    -0.014 A 
ATOM     82  C   UNL A   1      46.720  24.984  28.429  1.00  0.00     0.010 A 
ATOM     83  C   UNL A   1      47.336  27.318  28.216  1.00  0.00     0.010 A 
ATOM     84  C   UNL A   1      46.933  24.805  27.058  1.00  0.00     0.020 A 
ATOM     85  C   UNL A   1      47.518  27.152  26.841  1.00  0.00     0.020 A 
ATOM     86  C   UNL A   1      47.329  25.891  26.273  1.00  0.00     0.054 A 
BRANCH  86  87
ATOM     87  S   UNL A   1      47.563  25.644  24.490  1.00  0.00     0.124 S 
ATOM     88  O   UNL A   1      49.014  25.737  24.358  1.00  0.00    -0.237 OA
ATOM     89  O   UNL A   1      46.991  24.317  24.278  1.00  0.00    -0.237 OA
ATOM     90  O   UNL A   1      46.808  26.743  23.891  1.00  0.00    -0.744 OA
ENDBRANCH  86  87
ENDBRANCH  58  81
BRANCH  70  91
ATOM     91  C   UNL A   1      51.121  25.324  34.529  1.00  0.00    -0.014 A 
ATOM     92  C   UNL A   1      51.391  23.950  34.666  1.00  0.00     0.010 A 
ATOM     93  C   UNL A   1      52.197  26.230  34.471  1.00  0.00     0.010 A 
ATOM     94  C   UNL A   1      52.708  23.497  34.783  1.00  0.00     0.020 A 
ATOM     95  C   UNL A   1      53.517  25.778  34.555  1.00  0.00     0.020 A 
ATOM     96  C   UNL A   1      53.763  24.414  34.728  1.00  0.00     0.054 A 
BRANCH  96  97
ATOM     97  S   UNL A   1      55.463  23.797  34.851  1.00  0.00     0.124 S 
ATOM     98  O   UNL A   1      56.240  24.952  34.410  1.00  0.00    -0.237 OA
ATOM     99  O   UNL A   1      55.583  23.463  36.269  1.00  0.00    -0.237 OA
ATOM    100  O   UNL A   1      55.484  22.652  33.943  1.00  0.00    -0.744 OA
ENDBRANCH  96  97
ENDBRANCH  70  91
ENDBRANCH  44  45
ENDBRANCH  37  39
ENDBRANCH  36  37
ENDBRANCH  35  36
ENDBRANCH  34  35
ENDBRANCH  33  34
ENDBRANCH   1  33
TORSDOF 25
ENDMDL
MODEL 2
REMARK VINA RESULT:      -8.4      8.419     12.826
REMARK SMILES CC(C)C[C@H](NC(=O)CNC(=O)[C@@H](NC(=O)OCc1ccccc1)C(C)C)C(=O)OCCOC(=O)c1ccc(-c2c3nc(c(-c4ccc(S(=O)(=O)[O-])cc4)c4ccc([nH]4)c(-c4ccc(S(=O)(=O)[O-])cc4)c4nc(c(-c5ccc(S(=O)(=O)[O-])cc5)c5ccc2[nH]5)C=C4)C=C3)cc1
REMARK SMILES IDX 28 1 29 2 5 3 4 4 2 5 1 6 3 7 6 8 7 9 8 11 9 12 10 13 11 14
REMARK SMILES IDX 12 16 13 17 14 18 15 19 16 21 17 22 18 23 19 24 20 25 24 26
REMARK SMILES IDX 21 27 23 28 22 29 25 30 26 31 27 32 30 33 31 34 32 35 33 36
REMARK SMILES IDX 34 37 35 38 36 39 37 40 95 41 38 42 94 43 39 44 40 45 41 46
REMARK SMILES IDX 88 47 42 48 93 49 87 50 89 51 43 52 92 53 86 54 85 55 44 57
REMARK SMILES IDX 74 58 55 59 73 60 56 61 59 62 72 63 90 64 57 65 58 66 71 68
REMARK SMILES IDX 91 69 60 70 45 71 46 72 54 73 47 74 53 75 48 76 49 77 50 78
REMARK SMILES IDX 51 79 52 80 75 81 76 82 84 83 77 84 83 85 78 86 79 87 80 88
REMARK SMILES IDX 81 89 82 90 61 91 62 92 70 93 63 94 69 95 64 96 65 97 66 98
REMARK SMILES IDX 67 99 68 100
REMARK H PARENT 6 10 10 15 14 20 89 56 59 67
REMARK Flexibility Score: inf
ROOT
ATOM      1  C   UNL A   1      35.898  31.127  27.903  1.00  0.00     0.328 C 
ATOM      2  O   UNL A   1      36.766  31.988  27.941  1.00  0.00    -0.250 OA
ENDROOT
BRANCH   1   3
ATOM      3  C   UNL A   1      34.426  31.436  27.665  1.00  0.00     0.192 C 
BRANCH   3   4
ATOM      4  C   UNL A   1      33.983  32.633  28.518  1.00  0.00     0.040 C 
BRANCH   4   5
ATOM      5  C   UNL A   1      34.813  33.276  29.652  1.00  0.00    -0.015 C 
ATOM      6  C   UNL A   1      34.339  34.650  30.139  1.00  0.00     0.007 C 
ATOM      7  C   UNL A   1      34.720  32.325  30.861  1.00  0.00     0.007 C 
ENDBRANCH   4   5
ENDBRANCH   3   4
BRANCH   3   8
ATOM      8  N   UNL A   1      33.621  30.213  27.885  1.00  0.00    -0.341 N 
ATOM      9  C   UNL A   1      32.799  29.487  27.077  1.00  0.00     0.240 C 
ATOM     10  H   UNL A   1      33.695  29.851  28.798  1.00  0.00     0.164 HD
ATOM     11  O   UNL A   1      32.525  28.334  27.428  1.00  0.00    -0.273 OA
BRANCH   9  12
ATOM     12  C   UNL A   1      32.236  30.035  25.763  1.00  0.00     0.216 C 
BRANCH  12  13
ATOM     13  N   UNL A   1      33.126  29.821  24.640  1.00  0.00    -0.345 N 
ATOM     14  C   UNL A   1      33.446  28.767  23.857  1.00  0.00     0.243 C 
ATOM     15  H   UNL A   1      33.613  30.638  24.386  1.00  0.00     0.164 HD
ATOM     16  O   UNL A   1      34.367  28.997  23.057  1.00  0.00    -0.273 OA
BRANCH  14  17
ATOM     17  C   UNL A   1      32.756  27.364  23.849  1.00  0.00     0.177 C 
BRANCH  17  18
ATOM     18  N   UNL A   1      32.924  26.531  25.045  1.00  0.00    -0.309 N 
ATOM     19  C   UNL A   1      33.374  25.264  25.214  1.00  0.00     0.408 C 
ATOM     20  H   UNL A   1      32.661  26.977  25.882  1.00  0.00     0.167 HD
ATOM     21  O   UNL A   1      33.190  24.701  26.288  1.00  0.00    -0.225 OA
BRANCH  19  22
ATOM     22  O   UNL A   1      33.944  24.731  24.115  1.00  0.00    -0.445 OA
BRANCH  22  23
ATOM     23  C   UNL A   1      33.670  23.339  23.885  1.00  0.00     0.270 C 
BRANCH  23  24
ATOM     24  C   UNL A   1      34.845  22.439  24.187  1.00  0.00    -0.011 A 
ATOM     25  C   UNL A   1      36.163  22.886  24.022  1.00  0.00     0.007 A 
ATOM     26  C   UNL A   1      34.624  21.146  24.684  1.00  0.00     0.007 A 
ATOM     27  C   UNL A   1      37.237  22.071  24.384  1.00  0.00     0.000 A 
ATOM     28  C   UNL A   1      35.698  20.329  25.036  1.00  0.00     0.000 A 
ATOM     29  C   UNL A   1      37.004  20.794  24.891  1.00  0.00     0.000 A 
ENDBRANCH  23  24
ENDBRANCH  22  23
ENDBRANCH  19  22
ENDBRANCH  17  18
BRANCH  17  30
ATOM     30  C   UNL A   1      31.323  27.413  23.259  1.00  0.00     0.015 C 
ATOM     31  C   UNL A   1      31.164  26.501  22.032  1.00  0.00     0.010 C 
ATOM     32  C   UNL A   1      30.275  26.965  24.285  1.00  0.00     0.010 C 
ENDBRANCH  17  30
ENDBRANCH  14  17
ENDBRANCH  12  13
ENDBRANCH   9  12
ENDBRANCH   3   8
ENDBRANCH   1   3
BRANCH   1  33
ATOM     33  O   UNL A   1      36.101  29.805  28.166  1.00  0.00    -0.461 OA
BRANCH  33  34
ATOM     34  C   UNL A   1      37.215  29.519  29.023  1.00  0.00     0.274 C 
BRANCH  34  35
ATOM     35  C   UNL A   1      36.793  29.298  30.481  1.00  0.00     0.275 C 
BRANCH  35  36
ATOM     36  O   UNL A   1      37.657  29.960  31.426  1.00  0.00    -0.458 OA
BRANCH  36  37
ATOM     37  C   UNL A   1      37.583  29.501  32.702  1.00  0.00     0.338 C 
ATOM     38  O   UNL A   1      37.331  28.355  33.042  1.00  0.00    -0.246 OA
BRANCH  37  39
ATOM     39  C   UNL A   1      38.041  30.537  33.651  1.00  0.00     0.060 A 
ATOM     40  C   UNL A   1      39.149  30.250  34.460  1.00  0.00     0.016 A 
ATOM     41  C   UNL A   1      37.372  31.753  33.789  1.00  0.00     0.016 A 
ATOM     42  C   UNL A   1      39.593  31.171  35.406  1.00  0.00     0.010 A 
ATOM     43  C   UNL A   1      37.810  32.673  34.748  1.00  0.00     0.010 A 
ATOM     44  C   UNL A   1      38.914  32.382  35.572  1.00  0.00    -0.014 A 
BRANCH  44  45
ATOM     45  C   UNL A   1      39.301  33.305  36.667  1.00  0.00     0.031 A 
ATOM     46  C   UNL A   1      40.393  34.310  36.430  1.00  0.00     0.074 A 
ATOM     47  C   UNL A   1      38.674  33.256  37.858  1.00  0.00     0.049 A 
ATOM     48  N   UNL A   1      40.954  35.139  37.272  1.00  0.00    -0.248 NA
ATOM     49  C   UNL A   1      40.928  34.390  35.060  1.00  0.00     0.031 C 
ATOM     50  C   UNL A   1      37.558  32.369  38.190  1.00  0.00     0.029 A 
ATOM     51  N   UNL A   1      38.892  33.965  39.012  1.00  0.00    -0.354 N 
ATOM     52  C   UNL A   1      41.922  35.821  36.544  1.00  0.00     0.074 A 
ATOM     53  C   UNL A   1      41.885  35.296  35.196  1.00  0.00     0.031 C 
ATOM     54  C   UNL A   1      37.193  32.585  39.465  1.00  0.00     0.029 A 
ATOM     55  C   UNL A   1      38.080  33.586  40.054  1.00  0.00     0.049 A 
ATOM     56  H   UNL A   1      39.567  34.679  39.087  1.00  0.00     0.167 HD
ATOM     57  C   UNL A   1      42.763  36.797  36.963  1.00  0.00     0.031 A 
ATOM     58  C   UNL A   1      38.072  33.975  41.344  1.00  0.00     0.031 A 
ATOM     59  C   UNL A   1      42.793  37.313  38.307  1.00  0.00     0.049 A 
ATOM     60  C   UNL A   1      39.071  35.006  41.804  1.00  0.00     0.074 A 
ATOM     61  C   UNL A   1      43.603  38.307  38.829  1.00  0.00     0.029 A 
ATOM     62  N   UNL A   1      41.980  36.875  39.342  1.00  0.00    -0.354 N 
ATOM     63  N   UNL A   1      39.981  35.643  41.105  1.00  0.00    -0.248 NA
ATOM     64  C   UNL A   1      39.041  35.372  43.227  1.00  0.00     0.031 C 
ATOM     65  C   UNL A   1      43.321  38.429  40.193  1.00  0.00     0.029 A 
ATOM     66  C   UNL A   1      42.288  37.560  40.506  1.00  0.00     0.049 A 
ATOM     67  H   UNL A   1      41.288  36.181  39.262  1.00  0.00     0.167 HD
ATOM     68  C   UNL A   1      40.612  36.503  41.999  1.00  0.00     0.074 A 
ATOM     69  C   UNL A   1      39.966  36.320  43.281  1.00  0.00     0.031 C 
ATOM     70  C   UNL A   1      41.634  37.367  41.778  1.00  0.00     0.031 A 
BRANCH  57  71
ATOM     71  C   UNL A   1      43.750  37.346  35.965  1.00  0.00    -0.014 A 
ATOM     72  C   UNL A   1      43.420  38.425  35.124  1.00  0.00     0.010 A 
ATOM     73  C   UNL A   1      45.048  36.806  35.905  1.00  0.00     0.010 A 
ATOM     74  C   UNL A   1      44.359  38.931  34.221  1.00  0.00     0.020 A 
ATOM     75  C   UNL A   1      45.999  37.328  35.024  1.00  0.00     0.020 A 
ATOM     76  C   UNL A   1      45.643  38.379  34.178  1.00  0.00     0.054 A 
BRANCH  76  77
ATOM     77  S   UNL A   1      46.852  39.080  33.020  1.00  0.00     0.124 S 
ATOM     78  O   UNL A   1      45.988  39.743  32.046  1.00  0.00    -0.237 OA
ATOM     79  O   UNL A   1      47.633  39.970  33.875  1.00  0.00    -0.237 OA
ATOM     80  O   UNL A   1      47.572  37.912  32.520  1.00  0.00    -0.744 OA
ENDBRANCH  76  77
ENDBRANCH  57  71
BRANCH  58  81
ATOM     81  C   UNL A   1      37.114  33.363  42.308  1.00  0.00    -0.014 A 
ATOM     82  C   UNL A   1      37.417  32.149  42.951  1.00  0.00     0.010 A 
ATOM     83  C   UNL A   1      35.881  33.987  42.576  1.00  0.00     0.010 A 
ATOM     84  C   UNL A   1      36.495  31.561  43.824  1.00  0.00     0.020 A 
ATOM     85  C   UNL A   1      34.972  33.419  43.472  1.00  0.00     0.020 A 
ATOM     86  C   UNL A   1      35.279  32.201  44.080  1.00  0.00     0.054 A 
BRANCH  86  87
ATOM     87  S   UNL A   1      34.116  31.438  45.245  1.00  0.00     0.124 S 
ATOM     88  O   UNL A   1      34.884  31.439  46.487  1.00  0.00    -0.237 OA
ATOM     89  O   UNL A   1      32.979  32.353  45.201  1.00  0.00    -0.237 OA
ATOM     90  O   UNL A   1      33.867  30.119  44.665  1.00  0.00    -0.744 OA
ENDBRANCH  86  87
ENDBRANCH  58  81
BRANCH  70  91
ATOM     91  C   UNL A   1      42.091  38.213  42.938  1.00  0.00    -0.014 A 
ATOM     92  C   UNL A   1      41.498  39.458  43.216  1.00  0.00     0.010 A 
ATOM     93  C   UNL A   1      43.104  37.732  43.789  1.00  0.00     0.010 A 
ATOM     94  C   UNL A   1      41.936  40.223  44.301  1.00  0.00     0.020 A 
ATOM     95  C   UNL A   1      43.523  38.479  44.893  1.00  0.00     0.020 A 
ATOM     96  C   UNL A   1      42.948  39.729  45.132  1.00  0.00     0.054 A 
BRANCH  96  97
ATOM     97  S   UNL A   1      43.476  40.727  46.550  1.00  0.00     0.124 S 
ATOM     98  O   UNL A   1      43.370  39.773  47.651  1.00  0.00    -0.237 OA
ATOM     99  O   UNL A   1      44.837  41.112  46.183  1.00  0.00    -0.237 OA
ATOM    100  O   UNL A   1      42.512  41.824  46.583  1.00  0.00    -0.744 OA
ENDBRANCH  96  97
ENDBRANCH  70  91
ENDBRANCH  44  45
ENDBRANCH  37  39
ENDBRANCH  36  37
ENDBRANCH  35  36
ENDBRANCH  34  35
ENDBRANCH  33  34
ENDBRANCH   1  33
TORSDOF 25
ENDMDL
MODEL 3
REMARK VINA RESULT:      -8.2      6.118      9.059
REMARK SMILES CC(C)C[C@H](NC(=O)CNC(=O)[C@@H](NC(=O)OCc1ccccc1)C(C)C)C(=O)OCCOC(=O)c1ccc(-c2c3nc(c(-c4ccc(S(=O)(=O)[O-])cc4)c4ccc([nH]4)c(-c4ccc(S(=O)(=O)[O-])cc4)c4nc(c(-c5ccc(S(=O)(=O)[O-])cc5)c5ccc2[nH]5)C=C4)C=C3)cc1
REMARK SMILES IDX 28 1 29 2 5 3 4 4 2 5 1 6 3 7 6 8 7 9 8 11 9 12 10 13 11 14
REMARK SMILES IDX 12 16 13 17 14 18 15 19 16 21 17 22 18 23 19 24 20 25 24 26
REMARK SMILES IDX 21 27 23 28 22 29 25 30 26 31 27 32 30 33 31 34 32 35 33 36
REMARK SMILES IDX 34 37 35 38 36 39 37 40 95 41 38 42 94 43 39 44 40 45 41 46
REMARK SMILES IDX 88 47 42 48 93 49 87 50 89 51 43 52 92 53 86 54 85 55 44 57
REMARK SMILES IDX 74 58 55 59 73 60 56 61 59 62 72 63 90 64 57 65 58 66 71 68
REMARK SMILES IDX 91 69 60 70 45 71 46 72 54 73 47 74 53 75 48 76 49 77 50 78
REMARK SMILES IDX 51 79 52 80 75 81 76 82 84 83 77 84 83 85 78 86 79 87 80 88
REMARK SMILES IDX 81 89 82 90 61 91 62 92 70 93 63 94 69 95 64 96 65 97 66 98
REMARK SMILES IDX 67 99 68 100
REMARK H PARENT 6 10 10 15 14 20 89 56 59 67
REMARK Flexibility Score: inf
ROOT
ATOM      1  C   UNL A   1      35.756  30.127  27.829  1.00  0.00     0.328 C 
ATOM      2  O   UNL A   1      36.765  30.053  27.140  1.00  0.00    -0.250 OA
ENDROOT
BRANCH   1   3
ATOM      3  C   UNL A   1      34.593  31.056  27.510  1.00  0.00     0.192 C 
BRANCH   3   4
ATOM      4  C   UNL A   1      34.750  32.390  28.255  1.00  0.00     0.040 C 
BRANCH   4   5
ATOM      5  C   UNL A   1      34.117  33.732  27.824  1.00  0.00    -0.015 C 
ATOM      6  C   UNL A   1      32.585  33.774  27.784  1.00  0.00     0.007 C 
ATOM      7  C   UNL A   1      34.559  34.782  28.862  1.00  0.00     0.007 C 
ENDBRANCH   4   5
ENDBRANCH   3   4
BRANCH   3   8
ATOM      8  N   UNL A   1      33.314  30.363  27.787  1.00  0.00    -0.341 N 
ATOM      9  C   UNL A   1      32.478  29.617  27.012  1.00  0.00     0.240 C 
ATOM     10  H   UNL A   1      33.007  30.460  28.717  1.00  0.00     0.164 HD
ATOM     11  O   UNL A   1      31.661  28.890  27.587  1.00  0.00    -0.273 OA
BRANCH   9  12
ATOM     12  C   UNL A   1      32.535  29.632  25.482  1.00  0.00     0.216 C 
BRANCH  12  13
ATOM     13  N   UNL A   1      31.270  30.000  24.878  1.00  0.00    -0.345 N 
ATOM     14  C   UNL A   1      30.531  29.539  23.845  1.00  0.00     0.243 C 
ATOM     15  H   UNL A   1      30.849  30.767  25.327  1.00  0.00     0.164 HD
ATOM     16  O   UNL A   1      29.536  30.235  23.590  1.00  0.00    -0.273 OA
BRANCH  14  17
ATOM     17  C   UNL A   1      30.792  28.240  23.015  1.00  0.00     0.177 C 
BRANCH  17  18
ATOM     18  N   UNL A   1      32.133  28.070  22.447  1.00  0.00    -0.309 N 
ATOM     19  C   UNL A   1      32.857  26.966  22.138  1.00  0.00     0.408 C 
ATOM     20  H   UNL A   1      32.596  28.917  22.253  1.00  0.00     0.167 HD
ATOM     21  O   UNL A   1      34.054  27.081  21.901  1.00  0.00    -0.225 OA
BRANCH  19  22
ATOM     22  O   UNL A   1      32.155  25.816  22.185  1.00  0.00    -0.445 OA
BRANCH  22  23
ATOM     23  C   UNL A   1      32.924  24.627  22.425  1.00  0.00     0.270 C 
BRANCH  23  24
ATOM     24  C   UNL A   1      32.800  24.107  23.838  1.00  0.00    -0.011 A 
ATOM     25  C   UNL A   1      31.795  23.197  24.191  1.00  0.00     0.007 A 
ATOM     26  C   UNL A   1      33.731  24.500  24.810  1.00  0.00     0.007 A 
ATOM     27  C   UNL A   1      31.744  22.663  25.479  1.00  0.00     0.000 A 
ATOM     28  C   UNL A   1      33.674  23.973  26.100  1.00  0.00     0.000 A 
ATOM     29  C   UNL A   1      32.684  23.050  26.432  1.00  0.00     0.000 A 
ENDBRANCH  23  24
ENDBRANCH  22  23
ENDBRANCH  19  22
ENDBRANCH  17  18
BRANCH  17  30
ATOM     30  C   UNL A   1      30.177  26.981  23.677  1.00  0.00     0.015 C 
ATOM     31  C   UNL A   1      30.659  26.786  25.124  1.00  0.00     0.010 C 
ATOM     32  C   UNL A   1      28.645  27.059  23.725  1.00  0.00     0.010 C 
ENDBRANCH  17  30
ENDBRANCH  14  17
ENDBRANCH  12  13
ENDBRANCH   9  12
ENDBRANCH   3   8
ENDBRANCH   1   3
BRANCH   1  33
ATOM     33  O   UNL A   1      35.574  29.478  29.015  1.00  0.00    -0.461 OA
BRANCH  33  34
ATOM     34  C   UNL A   1      36.567  29.749  30.015  1.00  0.00     0.274 C 
BRANCH  34  35
ATOM     35  C   UNL A   1      37.596  28.618  30.141  1.00  0.00     0.275 C 
BRANCH  35  36
ATOM     36  O   UNL A   1      38.014  28.384  31.501  1.00  0.00    -0.458 OA
BRANCH  36  37
ATOM     37  C   UNL A   1      39.010  29.190  31.950  1.00  0.00     0.338 C 
ATOM     38  O   UNL A   1      38.990  29.857  32.974  1.00  0.00    -0.246 OA
BRANCH  37  39
ATOM     39  C   UNL A   1      40.226  29.016  31.129  1.00  0.00     0.060 A 
ATOM     40  C   UNL A   1      41.395  28.574  31.762  1.00  0.00     0.016 A 
ATOM     41  C   UNL A   1      40.243  29.328  29.769  1.00  0.00     0.016 A 
ATOM     42  C   UNL A   1      42.582  28.440  31.045  1.00  0.00     0.010 A 
ATOM     43  C   UNL A   1      41.438  29.206  29.051  1.00  0.00     0.010 A 
ATOM     44  C   UNL A   1      42.618  28.774  29.688  1.00  0.00    -0.014 A 
BRANCH  44  45
ATOM     45  C   UNL A   1      43.908  28.762  28.955  1.00  0.00     0.031 A 
ATOM     46  C   UNL A   1      44.277  27.555  28.137  1.00  0.00     0.074 A 
ATOM     47  C   UNL A   1      44.736  29.822  29.009  1.00  0.00     0.049 A 
ATOM     48  N   UNL A   1      45.390  27.293  27.503  1.00  0.00    -0.248 NA
ATOM     49  C   UNL A   1      43.254  26.502  28.021  1.00  0.00     0.031 C 
ATOM     50  C   UNL A   1      44.463  31.074  29.716  1.00  0.00     0.029 A 
ATOM     51  N   UNL A   1      45.980  30.011  28.462  1.00  0.00    -0.354 N 
ATOM     52  C   UNL A   1      45.213  26.037  26.933  1.00  0.00     0.074 A 
ATOM     53  C   UNL A   1      43.893  25.582  27.312  1.00  0.00     0.031 C 
ATOM     54  C   UNL A   1      45.512  31.899  29.563  1.00  0.00     0.029 A 
ATOM     55  C   UNL A   1      46.550  31.218  28.792  1.00  0.00     0.049 A 
ATOM     56  H   UNL A   1      46.424  29.345  27.886  1.00  0.00     0.167 HD
ATOM     57  C   UNL A   1      46.075  25.330  26.162  1.00  0.00     0.031 A 
ATOM     58  C   UNL A   1      47.779  31.705  28.532  1.00  0.00     0.031 A 
ATOM     59  C   UNL A   1      47.387  25.791  25.791  1.00  0.00     0.049 A 
ATOM     60  C   UNL A   1      48.748  30.866  27.740  1.00  0.00     0.074 A 
ATOM     61  C   UNL A   1      48.333  25.153  25.006  1.00  0.00     0.029 A 
ATOM     62  N   UNL A   1      47.941  27.003  26.178  1.00  0.00    -0.354 N 
ATOM     63  N   UNL A   1      48.569  29.680  27.207  1.00  0.00    -0.248 NA
ATOM     64  C   UNL A   1      50.085  31.431  27.512  1.00  0.00     0.031 C 
ATOM     65  C   UNL A   1      49.480  25.951  24.969  1.00  0.00     0.029 A 
ATOM     66  C   UNL A   1      49.225  27.118  25.671  1.00  0.00     0.049 A 
ATOM     67  H   UNL A   1      47.490  27.679  26.730  1.00  0.00     0.167 HD
ATOM     68  C   UNL A   1      49.761  29.371  26.558  1.00  0.00     0.074 A 
ATOM     69  C   UNL A   1      50.644  30.503  26.748  1.00  0.00     0.031 C 
ATOM     70  C   UNL A   1      50.094  28.252  25.868  1.00  0.00     0.031 A 
BRANCH  57  71
ATOM     71  C   UNL A   1      45.640  23.964  25.700  1.00  0.00    -0.014 A 
ATOM     72  C   UNL A   1      45.086  23.763  24.423  1.00  0.00     0.010 A 
ATOM     73  C   UNL A   1      45.837  22.853  26.541  1.00  0.00     0.010 A 
ATOM     74  C   UNL A   1      44.709  22.482  24.008  1.00  0.00     0.020 A 
ATOM     75  C   UNL A   1      45.489  21.567  26.119  1.00  0.00     0.020 A 
ATOM     76  C   UNL A   1      44.915  21.392  24.860  1.00  0.00     0.054 A 
BRANCH  76  77
ATOM     77  S   UNL A   1      44.449  19.737  24.280  1.00  0.00     0.124 S 
ATOM     78  O   UNL A   1      45.499  18.906  24.866  1.00  0.00    -0.237 OA
ATOM     79  O   UNL A   1      43.117  19.561  24.853  1.00  0.00    -0.237 OA
ATOM     80  O   UNL A   1      44.488  19.853  22.825  1.00  0.00    -0.744 OA
ENDBRANCH  76  77
ENDBRANCH  57  71
BRANCH  58  81
ATOM     81  C   UNL A   1      48.185  33.040  29.058  1.00  0.00    -0.014 A 
ATOM     82  C   UNL A   1      48.830  33.158  30.302  1.00  0.00     0.010 A 
ATOM     83  C   UNL A   1      47.910  34.207  28.320  1.00  0.00     0.010 A 
ATOM     84  C   UNL A   1      49.171  34.417  30.807  1.00  0.00     0.020 A 
ATOM     85  C   UNL A   1      48.279  35.464  28.805  1.00  0.00     0.020 A 
ATOM     86  C   UNL A   1      48.895  35.562  30.054  1.00  0.00     0.054 A 
BRANCH  86  87
ATOM     87  S   UNL A   1      49.381  37.182  30.712  1.00  0.00     0.124 S 
ATOM     88  O   UNL A   1      49.698  36.863  32.101  1.00  0.00    -0.237 OA
ATOM     89  O   UNL A   1      50.518  37.537  29.867  1.00  0.00    -0.237 OA
ATOM     90  O   UNL A   1      48.188  38.003  30.516  1.00  0.00    -0.744 OA
ENDBRANCH  86  87
ENDBRANCH  58  81
BRANCH  70  91
ATOM     91  C   UNL A   1      51.458  28.212  25.229  1.00  0.00    -0.014 A 
ATOM     92  C   UNL A   1      51.674  28.704  23.929  1.00  0.00     0.010 A 
ATOM     93  C   UNL A   1      52.551  27.711  25.961  1.00  0.00     0.010 A 
ATOM     94  C   UNL A   1      52.949  28.658  23.359  1.00  0.00     0.020 A 
ATOM     95  C   UNL A   1      53.834  27.695  25.407  1.00  0.00     0.020 A 
ATOM     96  C   UNL A   1      54.021  28.153  24.102  1.00  0.00     0.054 A 
BRANCH  96  97
ATOM     97  S   UNL A   1      55.672  28.135  23.351  1.00  0.00     0.124 S 
ATOM     98  O   UNL A   1      55.639  26.901  22.571  1.00  0.00    -0.237 OA
ATOM     99  O   UNL A   1      55.683  29.371  22.570  1.00  0.00    -0.237 OA
ATOM    100  O   UNL A   1      56.576  28.122  24.498  1.00  0.00    -0.744 OA
ENDBRANCH  96  97
ENDBRANCH  70  91
ENDBRANCH  44  45
ENDBRANCH  37  39
ENDBRANCH  36  37
ENDBRANCH  35  36
ENDBRANCH  34  35
ENDBRANCH  33  34
ENDBRANCH   1  33
TORSDOF 25
ENDMDL
