MODEL 1
REMARK VINA RESULT:     -10.7      0.000      0.000
REMARK SMILES CCC[C@H](NC(=O)Cn1cccc1C(=O)OCCOC(=O)c1ccc(-c2c3nc(c(-c4ccc(S(=O)(=O)[O-])cc4)c4ccc([nH]4)c(-c4ccc(S(=O)(=O)[O-])cc4)c4nc(c(-c5ccc(S(=O)(=O)[O-])cc5)c5ccc2[nH]5)C=C4)C=C3)cc1)c1cccs1
REMARK SMILES IDX 17 1 16 2 14 3 15 4 13 5 9 6 10 7 11 8 12 9 8 10 6 11 5 12
REMARK SMILES IDX 7 14 4 15 3 16 2 17 1 18 82 19 83 20 86 21 84 22 85 23 18 24
REMARK SMILES IDX 19 25 20 26 21 27 22 28 23 29 81 30 24 31 80 32 25 33 26 34
REMARK SMILES IDX 27 35 74 36 28 37 79 38 73 39 75 40 29 41 78 42 72 43 71 44
REMARK SMILES IDX 30 46 60 47 41 48 59 49 42 50 45 51 58 52 76 53 43 54 44 55
REMARK SMILES IDX 57 57 77 58 46 59 31 60 32 61 40 62 33 63 39 64 34 65 35 66
REMARK SMILES IDX 36 67 37 68 38 69 61 70 62 71 70 72 63 73 69 74 64 75 65 76
REMARK SMILES IDX 66 77 67 78 68 79 47 80 48 81 56 82 49 83 55 84 50 85 51 86
REMARK SMILES IDX 52 87 53 88 54 89
REMARK H PARENT 5 13 75 45 45 56
REMARK Flexibility Score: inf
ROOT
ATOM      1  C   UNL A   1      38.081  19.922  24.682  1.00  0.00     0.275 C 
ENDROOT
BRANCH   1   2
ATOM      2  O   UNL A   1      36.670  19.879  25.017  1.00  0.00    -0.457 OA
BRANCH   2   3
ATOM      3  C   UNL A   1      36.055  21.068  25.266  1.00  0.00     0.355 C 
ATOM      4  O   UNL A   1      36.580  21.985  25.886  1.00  0.00    -0.244 OA
BRANCH   3   5
ATOM      5  C   UNL A   1      34.698  21.131  24.746  1.00  0.00     0.128 A 
ATOM      6  N   UNL A   1      34.098  21.992  23.832  1.00  0.00    -0.333 N 
ATOM      7  C   UNL A   1      32.777  21.618  23.662  1.00  0.00     0.087 A 
ATOM      8  C   UNL A   1      32.528  20.500  24.417  1.00  0.00     0.020 A 
ATOM      9  C   UNL A   1      33.728  20.185  25.076  1.00  0.00     0.035 A 
BRANCH   6  10
ATOM     10  C   UNL A   1      34.634  23.195  23.193  1.00  0.00     0.222 C 
BRANCH  10  11
ATOM     11  C   UNL A   1      33.599  24.082  22.479  1.00  0.00     0.240 C 
ATOM     12  N   UNL A   1      32.845  25.011  23.166  1.00  0.00    -0.347 N 
ATOM     13  H   UNL A   1      32.001  25.299  22.748  1.00  0.00     0.164 HD
ATOM     14  O   UNL A   1      33.365  23.947  21.274  1.00  0.00    -0.273 OA
BRANCH  12  15
ATOM     15  C   UNL A   1      33.181  25.600  24.444  1.00  0.00     0.122 C 
BRANCH  15  16
ATOM     16  C   UNL A   1      33.342  27.146  24.391  1.00  0.00     0.030 C 
BRANCH  16  17
ATOM     17  C   UNL A   1      33.076  28.111  25.553  1.00  0.00    -0.001 C 
ATOM     18  C   UNL A   1      34.092  28.198  26.690  1.00  0.00     0.004 C 
ENDBRANCH  16  17
ENDBRANCH  15  16
BRANCH  15  19
ATOM     19  C   UNL A   1      32.634  24.849  25.640  1.00  0.00     0.027 A 
ATOM     20  C   UNL A   1      33.238  24.053  26.596  1.00  0.00     0.017 A 
ATOM     21  S   UNL A   1      30.904  24.717  25.821  1.00  0.00    -0.147 S 
ATOM     22  C   UNL A   1      32.338  23.066  27.120  1.00  0.00     0.012 A 
ATOM     23  C   UNL A   1      31.041  23.271  26.713  1.00  0.00     0.065 A 
ENDBRANCH  15  19
ENDBRANCH  12  15
ENDBRANCH  10  11
ENDBRANCH   6  10
ENDBRANCH   3   5
ENDBRANCH   2   3
ENDBRANCH   1   2
BRANCH   1  24
ATOM     24  C   UNL A   1      38.953  19.252  25.735  1.00  0.00     0.275 C 
BRANCH  24  25
ATOM     25  O   UNL A   1      40.271  19.697  25.529  1.00  0.00    -0.458 OA
BRANCH  25  26
ATOM     26  C   UNL A   1      40.619  20.594  26.480  1.00  0.00     0.338 C 
ATOM     27  O   UNL A   1      39.842  21.293  27.119  1.00  0.00    -0.246 OA
BRANCH  26  28
ATOM     28  C   UNL A   1      42.108  20.478  26.690  1.00  0.00     0.060 A 
ATOM     29  C   UNL A   1      42.357  20.913  27.986  1.00  0.00     0.016 A 
ATOM     30  C   UNL A   1      42.726  21.111  25.614  1.00  0.00     0.016 A 
ATOM     31  C   UNL A   1      42.474  22.270  28.123  1.00  0.00     0.010 A 
ATOM     32  C   UNL A   1      42.686  22.477  25.669  1.00  0.00     0.010 A 
ATOM     33  C   UNL A   1      42.557  23.039  26.946  1.00  0.00    -0.014 A 
BRANCH  33  34
ATOM     34  C   UNL A   1      43.012  24.401  27.117  1.00  0.00     0.031 A 
ATOM     35  C   UNL A   1      41.701  25.233  27.259  1.00  0.00     0.074 A 
ATOM     36  C   UNL A   1      44.368  24.587  27.008  1.00  0.00     0.049 A 
ATOM     37  N   UNL A   1      41.408  26.378  26.738  1.00  0.00    -0.248 NA
ATOM     38  C   UNL A   1      40.453  24.637  27.871  1.00  0.00     0.031 C 
ATOM     39  C   UNL A   1      45.399  23.523  26.842  1.00  0.00     0.029 A 
ATOM     40  N   UNL A   1      45.169  25.701  27.017  1.00  0.00    -0.354 N 
ATOM     41  C   UNL A   1      40.139  26.734  27.236  1.00  0.00     0.074 A 
ATOM     42  C   UNL A   1      39.503  25.545  27.673  1.00  0.00     0.031 C 
ATOM     43  C   UNL A   1      46.636  24.057  26.661  1.00  0.00     0.029 A 
ATOM     44  C   UNL A   1      46.552  25.503  26.733  1.00  0.00     0.049 A 
ATOM     45  H   UNL A   1      44.805  26.595  27.209  1.00  0.00     0.167 HD
ATOM     46  C   UNL A   1      39.817  28.015  27.560  1.00  0.00     0.031 A 
ATOM     47  C   UNL A   1      47.511  26.472  26.538  1.00  0.00     0.031 A 
ATOM     48  C   UNL A   1      40.930  28.858  27.260  1.00  0.00     0.049 A 
ATOM     49  C   UNL A   1      46.827  27.718  26.928  1.00  0.00     0.074 A 
ATOM     50  C   UNL A   1      41.518  29.144  26.054  1.00  0.00     0.029 A 
ATOM     51  N   UNL A   1      41.854  29.007  28.277  1.00  0.00    -0.354 N 
ATOM     52  N   UNL A   1      46.497  28.037  28.143  1.00  0.00    -0.248 NA
ATOM     53  C   UNL A   1      46.349  28.616  25.869  1.00  0.00     0.031 C 
ATOM     54  C   UNL A   1      42.880  28.911  26.327  1.00  0.00     0.029 A 
ATOM     55  C   UNL A   1      43.099  28.899  27.711  1.00  0.00     0.049 A 
ATOM     56  H   UNL A   1      41.656  29.161  29.230  1.00  0.00     0.167 HD
ATOM     57  C   UNL A   1      45.452  28.901  27.940  1.00  0.00     0.074 A 
ATOM     58  C   UNL A   1      45.640  29.462  26.612  1.00  0.00     0.031 C 
ATOM     59  C   UNL A   1      44.253  28.659  28.544  1.00  0.00     0.031 A 
BRANCH  46  60
ATOM     60  C   UNL A   1      38.736  28.556  28.435  1.00  0.00    -0.014 A 
ATOM     61  C   UNL A   1      38.100  29.724  27.961  1.00  0.00     0.010 A 
ATOM     62  C   UNL A   1      38.535  28.193  29.777  1.00  0.00     0.010 A 
ATOM     63  C   UNL A   1      37.395  30.566  28.813  1.00  0.00     0.020 A 
ATOM     64  C   UNL A   1      37.786  29.015  30.633  1.00  0.00     0.020 A 
ATOM     65  C   UNL A   1      37.261  30.217  30.152  1.00  0.00     0.054 A 
BRANCH  65  66
ATOM     66  S   UNL A   1      36.437  31.397  31.249  1.00  0.00     0.124 S 
ATOM     67  O   UNL A   1      36.330  30.639  32.491  1.00  0.00    -0.237 OA
ATOM     68  O   UNL A   1      37.384  32.510  31.271  1.00  0.00    -0.237 OA
ATOM     69  O   UNL A   1      35.175  31.676  30.568  1.00  0.00    -0.744 OA
ENDBRANCH  65  66
ENDBRANCH  46  60
BRANCH  47  70
ATOM     70  C   UNL A   1      48.914  26.671  25.980  1.00  0.00    -0.014 A 
ATOM     71  C   UNL A   1      49.444  26.160  24.789  1.00  0.00     0.010 A 
ATOM     72  C   UNL A   1      49.759  27.605  26.659  1.00  0.00     0.010 A 
ATOM     73  C   UNL A   1      50.651  26.689  24.239  1.00  0.00     0.020 A 
ATOM     74  C   UNL A   1      50.905  28.179  26.104  1.00  0.00     0.020 A 
ATOM     75  C   UNL A   1      51.332  27.742  24.868  1.00  0.00     0.054 A 
BRANCH  75  76
ATOM     76  S   UNL A   1      52.664  28.655  24.024  1.00  0.00     0.124 S 
ATOM     77  O   UNL A   1      52.586  29.975  24.642  1.00  0.00    -0.237 OA
ATOM     78  O   UNL A   1      53.849  27.870  24.358  1.00  0.00    -0.237 OA
ATOM     79  O   UNL A   1      52.279  28.604  22.614  1.00  0.00    -0.744 OA
ENDBRANCH  75  76
ENDBRANCH  47  70
BRANCH  59  80
ATOM     80  C   UNL A   1      44.294  27.857  29.845  1.00  0.00    -0.014 A 
ATOM     81  C   UNL A   1      44.077  26.466  29.793  1.00  0.00     0.010 A 
ATOM     82  C   UNL A   1      44.467  28.418  31.128  1.00  0.00     0.010 A 
ATOM     83  C   UNL A   1      44.042  25.670  30.949  1.00  0.00     0.020 A 
ATOM     84  C   UNL A   1      44.420  27.631  32.302  1.00  0.00     0.020 A 
ATOM     85  C   UNL A   1      44.222  26.255  32.201  1.00  0.00     0.054 A 
BRANCH  85  86
ATOM     86  S   UNL A   1      44.218  25.179  33.671  1.00  0.00     0.124 S 
ATOM     87  O   UNL A   1      44.108  23.840  33.097  1.00  0.00    -0.237 OA
ATOM     88  O   UNL A   1      45.505  25.487  34.288  1.00  0.00    -0.237 OA
ATOM     89  O   UNL A   1      43.047  25.621  34.428  1.00  0.00    -0.744 OA
ENDBRANCH  85  86
ENDBRANCH  59  80
ENDBRANCH  33  34
ENDBRANCH  26  28
ENDBRANCH  25  26
ENDBRANCH  24  25
ENDBRANCH   1  24
TORSDOF 20
ENDMDL
MODEL 2
REMARK VINA RESULT:     -10.4      1.127      2.016
REMARK SMILES CCC[C@H](NC(=O)Cn1cccc1C(=O)OCCOC(=O)c1ccc(-c2c3nc(c(-c4ccc(S(=O)(=O)[O-])cc4)c4ccc([nH]4)c(-c4ccc(S(=O)(=O)[O-])cc4)c4nc(c(-c5ccc(S(=O)(=O)[O-])cc5)c5ccc2[nH]5)C=C4)C=C3)cc1)c1cccs1
REMARK SMILES IDX 17 1 16 2 14 3 15 4 13 5 9 6 10 7 11 8 12 9 8 10 6 11 5 12
REMARK SMILES IDX 7 14 4 15 3 16 2 17 1 18 82 19 83 20 86 21 84 22 85 23 18 24
REMARK SMILES IDX 19 25 20 26 21 27 22 28 23 29 81 30 24 31 80 32 25 33 26 34
REMARK SMILES IDX 27 35 74 36 28 37 79 38 73 39 75 40 29 41 78 42 72 43 71 44
REMARK SMILES IDX 30 46 60 47 41 48 59 49 42 50 45 51 58 52 76 53 43 54 44 55
REMARK SMILES IDX 57 57 77 58 46 59 31 60 32 61 40 62 33 63 39 64 34 65 35 66
REMARK SMILES IDX 36 67 37 68 38 69 61 70 62 71 70 72 63 73 69 74 64 75 65 76
REMARK SMILES IDX 66 77 67 78 68 79 47 80 48 81 56 82 49 83 55 84 50 85 51 86
REMARK SMILES IDX 52 87 53 88 54 89
REMARK H PARENT 5 13 75 45 45 56
REMARK Flexibility Score: inf
ROOT
ATOM      1  C   UNL A   1      38.039  20.172  24.765  1.00  0.00     0.275 C 
ENDROOT
BRANCH   1   2
ATOM      2  O   UNL A   1      36.616  20.018  25.006  1.00  0.00    -0.457 OA
BRANCH   2   3
ATOM      3  C   UNL A   1      35.926  21.132  25.379  1.00  0.00     0.355 C 
ATOM      4  O   UNL A   1      36.453  22.120  25.875  1.00  0.00    -0.244 OA
BRANCH   3   5
ATOM      5  C   UNL A   1      34.493  21.019  25.154  1.00  0.00     0.128 A 
ATOM      6  N   UNL A   1      33.462  21.944  25.286  1.00  0.00    -0.333 N 
ATOM      7  C   UNL A   1      32.268  21.340  24.935  1.00  0.00     0.087 A 
ATOM      8  C   UNL A   1      32.519  20.052  24.535  1.00  0.00     0.020 A 
ATOM      9  C   UNL A   1      33.906  19.859  24.653  1.00  0.00     0.035 A 
BRANCH   6  10
ATOM     10  C   UNL A   1      33.495  23.310  25.812  1.00  0.00     0.222 C 
BRANCH  10  11
ATOM     11  C   UNL A   1      32.380  23.660  26.814  1.00  0.00     0.240 C 
ATOM     12  N   UNL A   1      31.653  24.827  26.709  1.00  0.00    -0.347 N 
ATOM     13  H   UNL A   1      31.208  25.152  27.525  1.00  0.00     0.164 HD
ATOM     14  O   UNL A   1      32.144  22.934  27.785  1.00  0.00    -0.273 OA
BRANCH  12  15
ATOM     15  C   UNL A   1      31.484  25.617  25.509  1.00  0.00     0.122 C 
BRANCH  15  16
ATOM     16  C   UNL A   1      30.713  24.873  24.380  1.00  0.00     0.030 C 
BRANCH  16  17
ATOM     17  C   UNL A   1      31.286  24.494  23.008  1.00  0.00    -0.001 C 
ATOM     18  C   UNL A   1      31.717  25.606  22.055  1.00  0.00     0.004 C 
ENDBRANCH  16  17
ENDBRANCH  15  16
BRANCH  15  19
ATOM     19  C   UNL A   1      31.392  27.109  25.752  1.00  0.00     0.027 A 
ATOM     20  C   UNL A   1      31.323  28.190  24.892  1.00  0.00     0.017 A 
ATOM     21  S   UNL A   1      31.623  27.704  27.375  1.00  0.00    -0.147 S 
ATOM     22  C   UNL A   1      31.882  29.376  25.476  1.00  0.00     0.012 A 
ATOM     23  C   UNL A   1      32.159  29.221  26.814  1.00  0.00     0.065 A 
ENDBRANCH  15  19
ENDBRANCH  12  15
ENDBRANCH  10  11
ENDBRANCH   6  10
ENDBRANCH   3   5
ENDBRANCH   2   3
ENDBRANCH   1   2
BRANCH   1  24
ATOM     24  C   UNL A   1      38.888  19.366  25.738  1.00  0.00     0.275 C 
BRANCH  24  25
ATOM     25  O   UNL A   1      40.227  19.736  25.528  1.00  0.00    -0.458 OA
BRANCH  25  26
ATOM     26  C   UNL A   1      40.671  20.501  26.552  1.00  0.00     0.338 C 
ATOM     27  O   UNL A   1      39.964  21.065  27.379  1.00  0.00    -0.246 OA
BRANCH  26  28
ATOM     28  C   UNL A   1      42.177  20.422  26.558  1.00  0.00     0.060 A 
ATOM     29  C   UNL A   1      42.586  20.814  27.827  1.00  0.00     0.016 A 
ATOM     30  C   UNL A   1      42.630  21.115  25.437  1.00  0.00     0.016 A 
ATOM     31  C   UNL A   1      42.686  22.166  28.005  1.00  0.00     0.010 A 
ATOM     32  C   UNL A   1      42.563  22.477  25.556  1.00  0.00     0.010 A 
ATOM     33  C   UNL A   1      42.592  22.984  26.862  1.00  0.00    -0.014 A 
BRANCH  33  34
ATOM     34  C   UNL A   1      43.032  24.351  27.029  1.00  0.00     0.031 A 
ATOM     35  C   UNL A   1      41.715  25.160  27.236  1.00  0.00     0.074 A 
ATOM     36  C   UNL A   1      44.378  24.561  26.867  1.00  0.00     0.049 A 
ATOM     37  N   UNL A   1      41.381  26.304  26.742  1.00  0.00    -0.248 NA
ATOM     38  C   UNL A   1      40.503  24.536  27.893  1.00  0.00     0.031 C 
ATOM     39  C   UNL A   1      45.419  23.516  26.645  1.00  0.00     0.029 A 
ATOM     40  N   UNL A   1      45.161  25.688  26.854  1.00  0.00    -0.354 N 
ATOM     41  C   UNL A   1      40.128  26.634  27.296  1.00  0.00     0.074 A 
ATOM     42  C   UNL A   1      39.530  25.430  27.745  1.00  0.00     0.031 C 
ATOM     43  C   UNL A   1      46.638  24.073  26.418  1.00  0.00     0.029 A 
ATOM     44  C   UNL A   1      46.534  25.517  26.510  1.00  0.00     0.049 A 
ATOM     45  H   UNL A   1      44.790  26.573  27.072  1.00  0.00     0.167 HD
ATOM     46  C   UNL A   1      39.800  27.905  27.648  1.00  0.00     0.031 A 
ATOM     47  C   UNL A   1      47.468  26.504  26.287  1.00  0.00     0.031 A 
ATOM     48  C   UNL A   1      40.884  28.771  27.312  1.00  0.00     0.049 A 
ATOM     49  C   UNL A   1      46.781  27.734  26.720  1.00  0.00     0.074 A 
ATOM     50  C   UNL A   1      41.417  29.079  26.085  1.00  0.00     0.029 A 
ATOM     51  N   UNL A   1      41.848  28.924  28.291  1.00  0.00    -0.354 N 
ATOM     52  N   UNL A   1      46.496  28.034  27.951  1.00  0.00    -0.248 NA
ATOM     53  C   UNL A   1      46.244  28.635  25.692  1.00  0.00     0.031 C 
ATOM     54  C   UNL A   1      42.792  28.866  26.299  1.00  0.00     0.029 A 
ATOM     55  C   UNL A   1      43.070  28.843  27.672  1.00  0.00     0.049 A 
ATOM     56  H   UNL A   1      41.688  29.064  29.253  1.00  0.00     0.167 HD
ATOM     57  C   UNL A   1      45.430  28.882  27.802  1.00  0.00     0.074 A 
ATOM     58  C   UNL A   1      45.553  29.461  26.474  1.00  0.00     0.031 C 
ATOM     59  C   UNL A   1      44.262  28.613  28.454  1.00  0.00     0.031 A 
BRANCH  46  60
ATOM     60  C   UNL A   1      38.748  28.419  28.574  1.00  0.00    -0.014 A 
ATOM     61  C   UNL A   1      37.987  29.504  28.086  1.00  0.00     0.010 A 
ATOM     62  C   UNL A   1      38.677  28.127  29.946  1.00  0.00     0.010 A 
ATOM     63  C   UNL A   1      37.283  30.343  28.942  1.00  0.00     0.020 A 
ATOM     64  C   UNL A   1      37.932  28.944  30.811  1.00  0.00     0.020 A 
ATOM     65  C   UNL A   1      37.278  30.070  30.305  1.00  0.00     0.054 A 
BRANCH  65  66
ATOM     66  S   UNL A   1      36.447  31.253  31.394  1.00  0.00     0.124 S 
ATOM     67  O   UNL A   1      37.452  32.303  31.530  1.00  0.00    -0.237 OA
ATOM     68  O   UNL A   1      35.265  31.612  30.613  1.00  0.00    -0.237 OA
ATOM     69  O   UNL A   1      36.176  30.477  32.602  1.00  0.00    -0.744 OA
ENDBRANCH  65  66
ENDBRANCH  46  60
BRANCH  47  70
ATOM     70  C   UNL A   1      48.843  26.732  25.673  1.00  0.00    -0.014 A 
ATOM     71  C   UNL A   1      49.275  26.392  24.385  1.00  0.00     0.010 A 
ATOM     72  C   UNL A   1      49.771  27.517  26.428  1.00  0.00     0.010 A 
ATOM     73  C   UNL A   1      50.470  26.952  23.843  1.00  0.00     0.020 A 
ATOM     74  C   UNL A   1      50.908  28.125  25.891  1.00  0.00     0.020 A 
ATOM     75  C   UNL A   1      51.238  27.868  24.577  1.00  0.00     0.054 A 
BRANCH  75  76
ATOM     76  S   UNL A   1      52.559  28.848  23.795  1.00  0.00     0.124 S 
ATOM     77  O   UNL A   1      53.381  27.825  23.156  1.00  0.00    -0.237 OA
ATOM     78  O   UNL A   1      51.817  29.720  22.888  1.00  0.00    -0.237 OA
ATOM     79  O   UNL A   1      53.190  29.538  24.920  1.00  0.00    -0.744 OA
ENDBRANCH  75  76
ENDBRANCH  47  70
BRANCH  59  80
ATOM     80  C   UNL A   1      44.370  27.798  29.742  1.00  0.00    -0.014 A 
ATOM     81  C   UNL A   1      43.795  26.512  29.783  1.00  0.00     0.010 A 
ATOM     82  C   UNL A   1      44.952  28.264  30.939  1.00  0.00     0.010 A 
ATOM     83  C   UNL A   1      43.804  25.726  30.946  1.00  0.00     0.020 A 
ATOM     84  C   UNL A   1      44.955  27.489  32.122  1.00  0.00     0.020 A 
ATOM     85  C   UNL A   1      44.391  26.214  32.111  1.00  0.00     0.054 A 
BRANCH  85  86
ATOM     86  S   UNL A   1      44.423  25.142  33.583  1.00  0.00     0.124 S 
ATOM     87  O   UNL A   1      43.200  25.518  34.289  1.00  0.00    -0.237 OA
ATOM     88  O   UNL A   1      44.416  23.805  32.997  1.00  0.00    -0.237 OA
ATOM     89  O   UNL A   1      45.664  25.513  34.263  1.00  0.00    -0.744 OA
ENDBRANCH  85  86
ENDBRANCH  59  80
ENDBRANCH  33  34
ENDBRANCH  26  28
ENDBRANCH  25  26
ENDBRANCH  24  25
ENDBRANCH   1  24
TORSDOF 20
ENDMDL
MODEL 3
REMARK VINA RESULT:     -10.4      5.124     11.350
REMARK SMILES CCC[C@H](NC(=O)Cn1cccc1C(=O)OCCOC(=O)c1ccc(-c2c3nc(c(-c4ccc(S(=O)(=O)[O-])cc4)c4ccc([nH]4)c(-c4ccc(S(=O)(=O)[O-])cc4)c4nc(c(-c5ccc(S(=O)(=O)[O-])cc5)c5ccc2[nH]5)C=C4)C=C3)cc1)c1cccs1
REMARK SMILES IDX 17 1 16 2 14 3 15 4 13 5 9 6 10 7 11 8 12 9 8 10 6 11 5 12
REMARK SMILES IDX 7 14 4 15 3 16 2 17 1 18 82 19 83 20 86 21 84 22 85 23 18 24
REMARK SMILES IDX 19 25 20 26 21 27 22 28 23 29 81 30 24 31 80 32 25 33 26 34
REMARK SMILES IDX 27 35 74 36 28 37 79 38 73 39 75 40 29 41 78 42 72 43 71 44
REMARK SMILES IDX 30 46 60 47 41 48 59 49 42 50 45 51 58 52 76 53 43 54 44 55
REMARK SMILES IDX 57 57 77 58 46 59 31 60 32 61 40 62 33 63 39 64 34 65 35 66
REMARK SMILES IDX 36 67 37 68 38 69 61 70 62 71 70 72 63 73 69 74 64 75 65 76
REMARK SMILES IDX 66 77 67 78 68 79 47 80 48 81 56 82 49 83 55 84 50 85 51 86
REMARK SMILES IDX 52 87 53 88 54 89
REMARK H PARENT 5 13 75 45 45 56
REMARK Flexibility Score: inf
ROOT
ATOM      1  C   UNL A   1      31.356  31.835  26.838  1.00  0.00     0.275 C 
ENDROOT
BRANCH   1   2
ATOM      2  O   UNL A   1      32.133  30.847  26.112  1.00  0.00    -0.457 OA
BRANCH   2   3
ATOM      3  C   UNL A   1      31.811  29.538  26.309  1.00  0.00     0.355 C 
ATOM      4  O   UNL A   1      31.796  29.004  27.411  1.00  0.00    -0.244 OA
BRANCH   3   5
ATOM      5  C   UNL A   1      31.515  28.830  25.074  1.00  0.00     0.128 A 
ATOM      6  N   UNL A   1      31.801  27.532  24.662  1.00  0.00    -0.333 N 
ATOM      7  C   UNL A   1      31.286  27.338  23.393  1.00  0.00     0.087 A 
ATOM      8  C   UNL A   1      30.633  28.478  22.997  1.00  0.00     0.020 A 
ATOM      9  C   UNL A   1      30.759  29.399  24.051  1.00  0.00     0.035 A 
BRANCH   6  10
ATOM     10  C   UNL A   1      32.605  26.500  25.320  1.00  0.00     0.222 C 
BRANCH  10  11
ATOM     11  C   UNL A   1      31.808  25.399  26.041  1.00  0.00     0.240 C 
ATOM     12  N   UNL A   1      32.081  24.061  25.844  1.00  0.00    -0.347 N 
ATOM     13  H   UNL A   1      31.361  23.423  26.053  1.00  0.00     0.164 HD
ATOM     14  O   UNL A   1      30.854  25.678  26.773  1.00  0.00    -0.273 OA
BRANCH  12  15
ATOM     15  C   UNL A   1      33.328  23.511  25.361  1.00  0.00     0.122 C 
BRANCH  15  16
ATOM     16  C   UNL A   1      34.458  23.500  26.431  1.00  0.00     0.030 C 
BRANCH  16  17
ATOM     17  C   UNL A   1      35.927  23.144  26.173  1.00  0.00    -0.001 C 
ATOM     18  C   UNL A   1      36.614  23.694  24.925  1.00  0.00     0.004 C 
ENDBRANCH  16  17
ENDBRANCH  15  16
BRANCH  15  19
ATOM     19  C   UNL A   1      33.169  22.451  24.291  1.00  0.00     0.027 A 
ATOM     20  C   UNL A   1      32.709  22.504  22.989  1.00  0.00     0.017 A 
ATOM     21  S   UNL A   1      33.374  20.777  24.740  1.00  0.00    -0.147 S 
ATOM     22  C   UNL A   1      32.135  21.256  22.571  1.00  0.00     0.012 A 
ATOM     23  C   UNL A   1      32.363  20.246  23.474  1.00  0.00     0.065 A 
ENDBRANCH  15  19
ENDBRANCH  12  15
ENDBRANCH  10  11
ENDBRANCH   6  10
ENDBRANCH   3   5
ENDBRANCH   2   3
ENDBRANCH   1   2
BRANCH   1  24
ATOM     24  C   UNL A   1      31.994  33.217  26.813  1.00  0.00     0.275 C 
BRANCH  24  25
ATOM     25  O   UNL A   1      32.419  33.503  28.122  1.00  0.00    -0.458 OA
BRANCH  25  26
ATOM     26  C   UNL A   1      33.771  33.498  28.190  1.00  0.00     0.338 C 
ATOM     27  O   UNL A   1      34.520  32.892  27.434  1.00  0.00    -0.246 OA
BRANCH  26  28
ATOM     28  C   UNL A   1      34.173  34.464  29.276  1.00  0.00     0.060 A 
ATOM     29  C   UNL A   1      35.473  34.861  28.985  1.00  0.00     0.016 A 
ATOM     30  C   UNL A   1      33.890  33.854  30.496  1.00  0.00     0.016 A 
ATOM     31  C   UNL A   1      36.447  34.007  29.426  1.00  0.00     0.010 A 
ATOM     32  C   UNL A   1      34.775  32.873  30.851  1.00  0.00     0.010 A 
ATOM     33  C   UNL A   1      36.058  32.970  30.297  1.00  0.00    -0.014 A 
BRANCH  33  34
ATOM     34  C   UNL A   1      37.133  32.305  31.001  1.00  0.00     0.031 A 
ATOM     35  C   UNL A   1      37.373  30.993  30.194  1.00  0.00     0.074 A 
ATOM     36  C   UNL A   1      37.543  32.916  32.160  1.00  0.00     0.049 A 
ATOM     37  N   UNL A   1      37.589  29.799  30.635  1.00  0.00    -0.248 NA
ATOM     38  C   UNL A   1      37.122  30.929  28.704  1.00  0.00     0.031 C 
ATOM     39  C   UNL A   1      37.069  34.226  32.689  1.00  0.00     0.029 A 
ATOM     40  N   UNL A   1      38.444  32.573  33.136  1.00  0.00    -0.354 N 
ATOM     41  C   UNL A   1      37.820  28.988  29.506  1.00  0.00     0.074 A 
ATOM     42  C   UNL A   1      37.253  29.645  28.385  1.00  0.00     0.031 C 
ATOM     43  C   UNL A   1      37.601  34.488  33.913  1.00  0.00     0.029 A 
ATOM     44  C   UNL A   1      38.501  33.413  34.286  1.00  0.00     0.049 A 
ATOM     45  H   UNL A   1      39.023  31.782  33.046  1.00  0.00     0.167 HD
ATOM     46  C   UNL A   1      38.742  27.989  29.504  1.00  0.00     0.031 A 
ATOM     47  C   UNL A   1      39.207  33.192  35.447  1.00  0.00     0.031 A 
ATOM     48  C   UNL A   1      39.337  27.910  30.799  1.00  0.00     0.049 A 
ATOM     49  C   UNL A   1      40.056  32.033  35.120  1.00  0.00     0.074 A 
ATOM     50  C   UNL A   1      38.771  27.599  32.011  1.00  0.00     0.029 A 
ATOM     51  N   UNL A   1      40.447  28.711  30.994  1.00  0.00    -0.354 N 
ATOM     52  N   UNL A   1      41.065  32.057  34.302  1.00  0.00    -0.248 NA
ATOM     53  C   UNL A   1      39.670  30.713  35.636  1.00  0.00     0.031 C 
ATOM     54  C   UNL A   1      39.218  28.658  32.825  1.00  0.00     0.029 A 
ATOM     55  C   UNL A   1      40.307  29.302  32.224  1.00  0.00     0.049 A 
ATOM     56  H   UNL A   1      41.196  28.834  30.368  1.00  0.00     0.167 HD
ATOM     57  C   UNL A   1      41.139  30.748  33.900  1.00  0.00     0.074 A 
ATOM     58  C   UNL A   1      40.536  29.961  34.962  1.00  0.00     0.031 C 
ATOM     59  C   UNL A   1      41.110  30.452  32.568  1.00  0.00     0.031 A 
BRANCH  46  60
ATOM     60  C   UNL A   1      39.419  27.291  28.372  1.00  0.00    -0.014 A 
ATOM     61  C   UNL A   1      39.493  25.885  28.484  1.00  0.00     0.010 A 
ATOM     62  C   UNL A   1      40.229  27.920  27.412  1.00  0.00     0.010 A 
ATOM     63  C   UNL A   1      40.421  25.145  27.760  1.00  0.00     0.020 A 
ATOM     64  C   UNL A   1      41.137  27.174  26.646  1.00  0.00     0.020 A 
ATOM     65  C   UNL A   1      41.255  25.799  26.860  1.00  0.00     0.054 A 
BRANCH  65  66
ATOM     66  S   UNL A   1      42.526  24.815  26.027  1.00  0.00     0.124 S 
ATOM     67  O   UNL A   1      41.936  23.479  26.039  1.00  0.00    -0.237 OA
ATOM     68  O   UNL A   1      42.602  25.456  24.716  1.00  0.00    -0.237 OA
ATOM     69  O   UNL A   1      43.706  24.992  26.870  1.00  0.00    -0.744 OA
ENDBRANCH  65  66
ENDBRANCH  46  60
BRANCH  47  70
ATOM     70  C   UNL A   1      39.302  33.655  36.896  1.00  0.00    -0.014 A 
ATOM     71  C   UNL A   1      39.587  34.942  37.368  1.00  0.00     0.010 A 
ATOM     72  C   UNL A   1      38.913  32.719  37.905  1.00  0.00     0.010 A 
ATOM     73  C   UNL A   1      39.325  35.297  38.726  1.00  0.00     0.020 A 
ATOM     74  C   UNL A   1      38.590  33.066  39.219  1.00  0.00     0.020 A 
ATOM     75  C   UNL A   1      38.763  34.374  39.620  1.00  0.00     0.054 A 
BRANCH  75  76
ATOM     76  S   UNL A   1      38.108  34.891  41.239  1.00  0.00     0.124 S 
ATOM     77  O   UNL A   1      36.720  34.443  41.179  1.00  0.00    -0.237 OA
ATOM     78  O   UNL A   1      38.965  34.169  42.176  1.00  0.00    -0.237 OA
ATOM     79  O   UNL A   1      38.293  36.342  41.240  1.00  0.00    -0.744 OA
ENDBRANCH  75  76
ENDBRANCH  47  70
BRANCH  59  80
ATOM     80  C   UNL A   1      41.612  31.537  31.616  1.00  0.00    -0.014 A 
ATOM     81  C   UNL A   1      42.987  31.840  31.596  1.00  0.00     0.010 A 
ATOM     82  C   UNL A   1      40.783  32.323  30.788  1.00  0.00     0.010 A 
ATOM     83  C   UNL A   1      43.516  32.862  30.790  1.00  0.00     0.020 A 
ATOM     84  C   UNL A   1      41.300  33.364  29.982  1.00  0.00     0.020 A 
ATOM     85  C   UNL A   1      42.672  33.616  29.979  1.00  0.00     0.054 A 
BRANCH  85  86
ATOM     86  S   UNL A   1      43.405  34.898  28.915  1.00  0.00     0.124 S 
ATOM     87  O   UNL A   1      44.170  34.120  27.942  1.00  0.00    -0.237 OA
ATOM     88  O   UNL A   1      42.226  35.575  28.381  1.00  0.00    -0.237 OA
ATOM     89  O   UNL A   1      44.215  35.699  29.833  1.00  0.00    -0.744 OA
ENDBRANCH  85  86
ENDBRANCH  59  80
ENDBRANCH  33  34
ENDBRANCH  26  28
ENDBRANCH  25  26
ENDBRANCH  24  25
ENDBRANCH   1  24
TORSDOF 20
ENDMDL
