MODEL 1
REMARK VINA RESULT:     -12.2      0.000      0.000
REMARK SMILES O=C(OCCOC(=O)c1cc(Cl)c2c(c1)[C@H]1C=CC[C@H]1[C@H](c1ccc(S(=O)(=O)N3CCOCC3)cc1)N2)c1ccc(-c2c3nc(c(-c4ccc(S(=O)(=O)[O-])cc4)c4ccc([nH]4)c(-c4ccc(S(=O)(=O)[O-])cc4)c4nc(c(-c5ccc(S(=O)(=O)[O-])cc5)c5ccc2[nH]5)C=C4)C=C3)cc1
REMARK SMILES IDX 4 1 3 2 2 3 1 4 38 5 39 6 97 7 40 8 96 9 41 10 42 11 43 12
REMARK SMILES IDX 90 13 44 14 95 15 89 16 91 17 45 18 94 19 88 20 87 21 46 23
REMARK SMILES IDX 76 24 57 25 75 26 58 27 61 28 74 29 92 30 59 31 60 32 73 34
REMARK SMILES IDX 93 35 62 36 47 37 48 38 56 39 49 40 55 41 50 42 51 43 52 44
REMARK SMILES IDX 53 45 54 46 77 47 78 48 86 49 79 50 85 51 80 52 81 53 82 54
REMARK SMILES IDX 83 55 84 56 63 57 64 58 72 59 65 60 71 61 66 62 67 63 68 64
REMARK SMILES IDX 69 65 70 66 5 67 6 68 7 69 8 70 9 71 10 72 15 73 11 74 14 75
REMARK SMILES IDX 12 76 13 77 16 78 37 79 17 80 20 81 21 82 18 84 19 85 22 86
REMARK SMILES IDX 23 87 36 88 24 89 35 90 25 91 26 92 27 93 28 94 29 95 30 96
REMARK SMILES IDX 34 97 31 98 33 99 32 100
REMARK H PARENT 91 22 61 33 37 83
REMARK Flexibility Score: inf
ROOT
ATOM      1  C   UNL A   1      43.514  20.625  25.445  1.00  0.00     0.275 C 
ENDROOT
BRANCH   1   2
ATOM      2  O   UNL A   1      42.948  21.853  24.966  1.00  0.00    -0.458 OA
BRANCH   2   3
ATOM      3  C   UNL A   1      43.514  23.079  24.892  1.00  0.00     0.338 C 
ATOM      4  O   UNL A   1      44.362  23.273  24.021  1.00  0.00    -0.246 OA
BRANCH   3   5
ATOM      5  C   UNL A   1      43.286  24.171  25.901  1.00  0.00     0.060 A 
ATOM      6  C   UNL A   1      43.662  25.512  25.801  1.00  0.00     0.016 A 
ATOM      7  C   UNL A   1      42.575  23.788  27.052  1.00  0.00     0.016 A 
ATOM      8  C   UNL A   1      43.273  26.452  26.758  1.00  0.00     0.010 A 
ATOM      9  C   UNL A   1      42.169  24.720  28.010  1.00  0.00     0.010 A 
ATOM     10  C   UNL A   1      42.530  26.061  27.868  1.00  0.00    -0.014 A 
BRANCH  10  11
ATOM     11  C   UNL A   1      42.381  26.990  29.000  1.00  0.00     0.031 A 
ATOM     12  C   UNL A   1      43.380  26.874  30.107  1.00  0.00     0.074 A 
ATOM     13  C   UNL A   1      41.453  27.960  29.012  1.00  0.00     0.049 A 
ATOM     14  N   UNL A   1      43.485  27.588  31.190  1.00  0.00    -0.248 NA
ATOM     15  C   UNL A   1      44.434  25.853  29.944  1.00  0.00     0.031 C 
ATOM     16  C   UNL A   1      40.551  28.268  27.909  1.00  0.00     0.029 A 
ATOM     17  N   UNL A   1      41.114  28.871  29.979  1.00  0.00    -0.354 N 
ATOM     18  C   UNL A   1      44.641  27.143  31.808  1.00  0.00     0.074 A 
ATOM     19  C   UNL A   1      45.172  26.054  31.023  1.00  0.00     0.031 C 
ATOM     20  C   UNL A   1      39.713  29.250  28.282  1.00  0.00     0.029 A 
ATOM     21  C   UNL A   1      40.022  29.639  29.650  1.00  0.00     0.049 A 
ATOM     22  H   UNL A   1      41.605  28.966  30.826  1.00  0.00     0.167 HD
ATOM     23  C   UNL A   1      45.228  27.631  32.920  1.00  0.00     0.031 A 
ATOM     24  C   UNL A   1      39.345  30.553  30.370  1.00  0.00     0.031 A 
ATOM     25  C   UNL A   1      44.667  28.683  33.713  1.00  0.00     0.049 A 
ATOM     26  C   UNL A   1      39.891  30.932  31.715  1.00  0.00     0.074 A 
ATOM     27  C   UNL A   1      45.149  29.217  34.891  1.00  0.00     0.029 A 
ATOM     28  N   UNL A   1      43.488  29.350  33.412  1.00  0.00    -0.354 N 
ATOM     29  N   UNL A   1      40.970  30.479  32.310  1.00  0.00    -0.248 NA
ATOM     30  C   UNL A   1      39.173  31.969  32.465  1.00  0.00     0.031 C 
ATOM     31  C   UNL A   1      44.229  30.173  35.334  1.00  0.00     0.029 A 
ATOM     32  C   UNL A   1      43.210  30.276  34.399  1.00  0.00     0.049 A 
ATOM     33  H   UNL A   1      42.934  29.188  32.614  1.00  0.00     0.167 HD
ATOM     34  C   UNL A   1      41.094  31.215  33.479  1.00  0.00     0.074 A 
ATOM     35  C   UNL A   1      39.965  32.126  33.519  1.00  0.00     0.031 C 
ATOM     36  C   UNL A   1      42.071  31.161  34.416  1.00  0.00     0.031 A 
BRANCH  23  37
ATOM     37  C   UNL A   1      46.522  27.003  33.336  1.00  0.00    -0.014 A 
ATOM     38  C   UNL A   1      46.535  25.853  34.146  1.00  0.00     0.010 A 
ATOM     39  C   UNL A   1      47.736  27.563  32.907  1.00  0.00     0.010 A 
ATOM     40  C   UNL A   1      47.747  25.277  34.527  1.00  0.00     0.020 A 
ATOM     41  C   UNL A   1      48.949  26.979  33.271  1.00  0.00     0.020 A 
ATOM     42  C   UNL A   1      48.947  25.838  34.078  1.00  0.00     0.054 A 
BRANCH  42  43
ATOM     43  S   UNL A   1      50.502  25.046  34.561  1.00  0.00     0.124 S 
ATOM     44  O   UNL A   1      50.766  25.656  35.863  1.00  0.00    -0.237 OA
ATOM     45  O   UNL A   1      50.136  23.633  34.591  1.00  0.00    -0.237 OA
ATOM     46  O   UNL A   1      51.432  25.429  33.501  1.00  0.00    -0.744 OA
ENDBRANCH  42  43
ENDBRANCH  23  37
BRANCH  24  47
ATOM     47  C   UNL A   1      38.113  31.173  29.814  1.00  0.00    -0.014 A 
ATOM     48  C   UNL A   1      36.869  30.529  29.919  1.00  0.00     0.010 A 
ATOM     49  C   UNL A   1      38.172  32.450  29.222  1.00  0.00     0.010 A 
ATOM     50  C   UNL A   1      35.707  31.151  29.449  1.00  0.00     0.020 A 
ATOM     51  C   UNL A   1      37.010  33.081  28.762  1.00  0.00     0.020 A 
ATOM     52  C   UNL A   1      35.783  32.428  28.884  1.00  0.00     0.054 A 
BRANCH  52  53
ATOM     53  S   UNL A   1      34.248  33.227  28.334  1.00  0.00     0.124 S 
ATOM     54  O   UNL A   1      33.666  33.683  29.593  1.00  0.00    -0.237 OA
ATOM     55  O   UNL A   1      34.750  34.278  27.453  1.00  0.00    -0.237 OA
ATOM     56  O   UNL A   1      33.521  32.152  27.664  1.00  0.00    -0.744 OA
ENDBRANCH  52  53
ENDBRANCH  24  47
BRANCH  36  57
ATOM     57  C   UNL A   1      41.994  32.135  35.553  1.00  0.00    -0.014 A 
ATOM     58  C   UNL A   1      41.573  31.727  36.830  1.00  0.00     0.010 A 
ATOM     59  C   UNL A   1      42.456  33.449  35.360  1.00  0.00     0.010 A 
ATOM     60  C   UNL A   1      41.605  32.628  37.895  1.00  0.00     0.020 A 
ATOM     61  C   UNL A   1      42.515  34.343  36.429  1.00  0.00     0.020 A 
ATOM     62  C   UNL A   1      42.085  33.925  37.689  1.00  0.00     0.054 A 
BRANCH  62  63
ATOM     63  S   UNL A   1      42.157  35.053  39.105  1.00  0.00     0.124 S 
ATOM     64  O   UNL A   1      41.697  34.202  40.199  1.00  0.00    -0.237 OA
ATOM     65  O   UNL A   1      43.571  35.416  39.143  1.00  0.00    -0.237 OA
ATOM     66  O   UNL A   1      41.248  36.135  38.737  1.00  0.00    -0.744 OA
ENDBRANCH  62  63
ENDBRANCH  36  57
ENDBRANCH  10  11
ENDBRANCH   3   5
ENDBRANCH   2   3
ENDBRANCH   1   2
BRANCH   1  67
ATOM     67  C   UNL A   1      42.648  19.892  26.479  1.00  0.00     0.275 C 
BRANCH  67  68
ATOM     68  O   UNL A   1      41.374  20.508  26.728  1.00  0.00    -0.458 OA
BRANCH  68  69
ATOM     69  C   UNL A   1      40.327  20.001  26.026  1.00  0.00     0.338 C 
ATOM     70  O   UNL A   1      40.219  18.869  25.589  1.00  0.00    -0.246 OA
BRANCH  69  71
ATOM     71  C   UNL A   1      39.255  21.012  25.957  1.00  0.00     0.062 A 
ATOM     72  C   UNL A   1      39.477  22.304  26.416  1.00  0.00     0.038 A 
ATOM     73  C   UNL A   1      38.038  20.679  25.350  1.00  0.00     0.022 A 
ATOM     74  C   UNL A   1      38.448  23.239  26.310  1.00  0.00     0.065 A 
ATOM     75  C   UNL A   1      36.986  21.615  25.289  1.00  0.00    -0.015 A 
ATOM     76  Cl  UNL A   1      38.821  24.888  26.686  1.00  0.00    -0.082 Cl
ATOM     77  C   UNL A   1      37.161  22.883  25.855  1.00  0.00     0.057 A 
ATOM     78  C   UNL A   1      35.739  21.300  24.514  1.00  0.00     0.049 C 
ATOM     79  N   UNL A   1      36.130  23.807  25.859  1.00  0.00    -0.376 N 
ATOM     80  C   UNL A   1      34.743  20.357  25.135  1.00  0.00    -0.023 C 
ATOM     81  C   UNL A   1      34.846  22.523  24.188  1.00  0.00     0.031 C 
ATOM     82  C   UNL A   1      34.781  23.497  25.409  1.00  0.00     0.114 C 
ATOM     83  H   UNL A   1      36.318  24.716  26.183  1.00  0.00     0.161 HD
ATOM     84  C   UNL A   1      33.499  20.647  24.738  1.00  0.00    -0.030 C 
ATOM     85  C   UNL A   1      33.523  21.817  23.812  1.00  0.00     0.034 C 
BRANCH  82  86
ATOM     86  C   UNL A   1      34.058  24.813  25.096  1.00  0.00    -0.025 A 
ATOM     87  C   UNL A   1      33.362  25.595  26.045  1.00  0.00     0.007 A 
ATOM     88  C   UNL A   1      34.071  25.281  23.786  1.00  0.00     0.007 A 
ATOM     89  C   UNL A   1      32.757  26.818  25.698  1.00  0.00     0.022 A 
ATOM     90  C   UNL A   1      33.560  26.530  23.469  1.00  0.00     0.022 A 
ATOM     91  C   UNL A   1      32.891  27.303  24.401  1.00  0.00     0.082 A 
BRANCH  91  92
ATOM     92  S   UNL A   1      32.200  28.879  23.947  1.00  0.00     0.243 S 
ATOM     93  O   UNL A   1      31.821  29.537  25.175  1.00  0.00    -0.207 OA
ATOM     94  O   UNL A   1      33.129  29.477  23.008  1.00  0.00    -0.207 OA
BRANCH  92  95
ATOM     95  N   UNL A   1      30.783  28.548  23.097  1.00  0.00    -0.193 NA
ATOM     96  C   UNL A   1      29.984  29.603  22.439  1.00  0.00     0.131 C 
ATOM     97  C   UNL A   1      30.151  27.218  23.099  1.00  0.00     0.131 C 
ATOM     98  C   UNL A   1      28.522  29.592  22.919  1.00  0.00     0.177 C 
ATOM     99  C   UNL A   1      28.723  27.305  23.640  1.00  0.00     0.177 C 
ATOM    100  O   UNL A   1      27.936  28.280  22.940  1.00  0.00    -0.379 OA
ENDBRANCH  92  95
ENDBRANCH  91  92
ENDBRANCH  82  86
ENDBRANCH  69  71
ENDBRANCH  68  69
ENDBRANCH  67  68
ENDBRANCH   1  67
TORSDOF 17
ENDMDL
MODEL 2
REMARK VINA RESULT:     -11.4      1.857      8.190
REMARK SMILES O=C(OCCOC(=O)c1cc(Cl)c2c(c1)[C@H]1C=CC[C@H]1[C@H](c1ccc(S(=O)(=O)N3CCOCC3)cc1)N2)c1ccc(-c2c3nc(c(-c4ccc(S(=O)(=O)[O-])cc4)c4ccc([nH]4)c(-c4ccc(S(=O)(=O)[O-])cc4)c4nc(c(-c5ccc(S(=O)(=O)[O-])cc5)c5ccc2[nH]5)C=C4)C=C3)cc1
REMARK SMILES IDX 4 1 3 2 2 3 1 4 38 5 39 6 97 7 40 8 96 9 41 10 42 11 43 12
REMARK SMILES IDX 90 13 44 14 95 15 89 16 91 17 45 18 94 19 88 20 87 21 46 23
REMARK SMILES IDX 76 24 57 25 75 26 58 27 61 28 74 29 92 30 59 31 60 32 73 34
REMARK SMILES IDX 93 35 62 36 47 37 48 38 56 39 49 40 55 41 50 42 51 43 52 44
REMARK SMILES IDX 53 45 54 46 77 47 78 48 86 49 79 50 85 51 80 52 81 53 82 54
REMARK SMILES IDX 83 55 84 56 63 57 64 58 72 59 65 60 71 61 66 62 67 63 68 64
REMARK SMILES IDX 69 65 70 66 5 67 6 68 7 69 8 70 9 71 10 72 15 73 11 74 14 75
REMARK SMILES IDX 12 76 13 77 16 78 37 79 17 80 20 81 21 82 18 84 19 85 22 86
REMARK SMILES IDX 23 87 36 88 24 89 35 90 25 91 26 92 27 93 28 94 29 95 30 96
REMARK SMILES IDX 34 97 31 98 33 99 32 100
REMARK H PARENT 91 22 61 33 37 83
REMARK Flexibility Score: inf
ROOT
ATOM      1  C   UNL A   1      44.944  20.433  24.763  1.00  0.00     0.275 C 
ENDROOT
BRANCH   1   2
ATOM      2  O   UNL A   1      44.718  21.479  25.718  1.00  0.00    -0.458 OA
BRANCH   2   3
ATOM      3  C   UNL A   1      43.915  22.563  25.618  1.00  0.00     0.338 C 
ATOM      4  O   UNL A   1      43.303  22.735  24.563  1.00  0.00    -0.246 OA
BRANCH   3   5
ATOM      5  C   UNL A   1      43.843  23.652  26.652  1.00  0.00     0.060 A 
ATOM      6  C   UNL A   1      44.213  24.991  26.504  1.00  0.00     0.016 A 
ATOM      7  C   UNL A   1      43.299  23.271  27.891  1.00  0.00     0.016 A 
ATOM      8  C   UNL A   1      43.973  25.930  27.509  1.00  0.00     0.010 A 
ATOM      9  C   UNL A   1      43.041  24.202  28.900  1.00  0.00     0.010 A 
ATOM     10  C   UNL A   1      43.391  25.540  28.712  1.00  0.00    -0.014 A 
BRANCH  10  11
ATOM     11  C   UNL A   1      43.413  26.467  29.857  1.00  0.00     0.031 A 
ATOM     12  C   UNL A   1      42.348  27.516  29.897  1.00  0.00     0.074 A 
ATOM     13  C   UNL A   1      44.285  26.333  30.869  1.00  0.00     0.049 A 
ATOM     14  N   UNL A   1      42.132  28.424  30.805  1.00  0.00    -0.248 NA
ATOM     15  C   UNL A   1      41.364  27.505  28.797  1.00  0.00     0.031 C 
ATOM     16  C   UNL A   1      45.242  25.242  31.009  1.00  0.00     0.029 A 
ATOM     17  N   UNL A   1      44.508  27.112  31.975  1.00  0.00    -0.354 N 
ATOM     18  C   UNL A   1      40.962  29.054  30.417  1.00  0.00     0.074 A 
ATOM     19  C   UNL A   1      40.545  28.477  29.160  1.00  0.00     0.031 C 
ATOM     20  C   UNL A   1      45.999  25.455  32.099  1.00  0.00     0.029 A 
ATOM     21  C   UNL A   1      45.577  26.695  32.732  1.00  0.00     0.049 A 
ATOM     22  H   UNL A   1      43.956  27.893  32.204  1.00  0.00     0.167 HD
ATOM     23  C   UNL A   1      40.275  30.008  31.077  1.00  0.00     0.031 A 
ATOM     24  C   UNL A   1      46.154  27.251  33.814  1.00  0.00     0.031 A 
ATOM     25  C   UNL A   1      40.724  30.601  32.301  1.00  0.00     0.049 A 
ATOM     26  C   UNL A   1      45.497  28.457  34.417  1.00  0.00     0.074 A 
ATOM     27  C   UNL A   1      40.135  31.617  33.027  1.00  0.00     0.029 A 
ATOM     28  N   UNL A   1      41.883  30.237  32.971  1.00  0.00    -0.354 N 
ATOM     29  N   UNL A   1      44.406  29.071  34.021  1.00  0.00    -0.248 NA
ATOM     30  C   UNL A   1      46.106  29.020  35.627  1.00  0.00     0.031 C 
ATOM     31  C   UNL A   1      40.969  31.907  34.110  1.00  0.00     0.029 A 
ATOM     32  C   UNL A   1      42.043  31.029  34.091  1.00  0.00     0.049 A 
ATOM     33  H   UNL A   1      42.498  29.521  32.690  1.00  0.00     0.167 HD
ATOM     34  C   UNL A   1      44.164  30.057  34.966  1.00  0.00     0.074 A 
ATOM     35  C   UNL A   1      45.236  29.974  35.939  1.00  0.00     0.031 C 
ATOM     36  C   UNL A   1      43.129  30.929  35.036  1.00  0.00     0.031 A 
BRANCH  23  37
ATOM     37  C   UNL A   1      38.991  30.470  30.460  1.00  0.00    -0.014 A 
ATOM     38  C   UNL A   1      38.974  31.556  29.567  1.00  0.00     0.010 A 
ATOM     39  C   UNL A   1      37.793  29.808  30.772  1.00  0.00     0.010 A 
ATOM     40  C   UNL A   1      37.771  31.977  28.998  1.00  0.00     0.020 A 
ATOM     41  C   UNL A   1      36.592  30.214  30.191  1.00  0.00     0.020 A 
ATOM     42  C   UNL A   1      36.588  31.297  29.307  1.00  0.00     0.054 A 
BRANCH  42  43
ATOM     43  S   UNL A   1      35.050  31.846  28.525  1.00  0.00     0.124 S 
ATOM     44  O   UNL A   1      34.566  30.615  27.902  1.00  0.00    -0.237 OA
ATOM     45  O   UNL A   1      34.272  32.320  29.667  1.00  0.00    -0.237 OA
ATOM     46  O   UNL A   1      35.484  32.882  27.591  1.00  0.00    -0.744 OA
ENDBRANCH  42  43
ENDBRANCH  23  37
BRANCH  24  47
ATOM     47  C   UNL A   1      47.386  26.650  34.391  1.00  0.00    -0.014 A 
ATOM     48  C   UNL A   1      48.659  27.071  33.973  1.00  0.00     0.010 A 
ATOM     49  C   UNL A   1      47.288  25.685  35.413  1.00  0.00     0.010 A 
ATOM     50  C   UNL A   1      49.811  26.545  34.568  1.00  0.00     0.020 A 
ATOM     51  C   UNL A   1      48.437  25.165  36.019  1.00  0.00     0.020 A 
ATOM     52  C   UNL A   1      49.692  25.603  35.596  1.00  0.00     0.054 A 
BRANCH  52  53
ATOM     53  S   UNL A   1      51.206  24.981  36.383  1.00  0.00     0.124 S 
ATOM     54  O   UNL A   1      52.221  25.900  35.874  1.00  0.00    -0.237 OA
ATOM     55  O   UNL A   1      50.890  25.113  37.802  1.00  0.00    -0.237 OA
ATOM     56  O   UNL A   1      51.308  23.608  35.896  1.00  0.00    -0.744 OA
ENDBRANCH  52  53
ENDBRANCH  24  47
BRANCH  36  57
ATOM     57  C   UNL A   1      43.076  31.847  36.220  1.00  0.00    -0.014 A 
ATOM     58  C   UNL A   1      42.351  31.503  37.373  1.00  0.00     0.010 A 
ATOM     59  C   UNL A   1      43.855  33.019  36.212  1.00  0.00     0.010 A 
ATOM     60  C   UNL A   1      42.398  32.327  38.498  1.00  0.00     0.020 A 
ATOM     61  C   UNL A   1      43.925  33.829  37.345  1.00  0.00     0.020 A 
ATOM     62  C   UNL A   1      43.192  33.478  38.479  1.00  0.00     0.054 A 
BRANCH  62  63
ATOM     63  S   UNL A   1      43.268  34.498  39.974  1.00  0.00     0.124 S 
ATOM     64  O   UNL A   1      43.047  35.840  39.442  1.00  0.00    -0.237 OA
ATOM     65  O   UNL A   1      42.178  33.953  40.779  1.00  0.00    -0.237 OA
ATOM     66  O   UNL A   1      44.609  34.253  40.498  1.00  0.00    -0.744 OA
ENDBRANCH  62  63
ENDBRANCH  36  57
ENDBRANCH  10  11
ENDBRANCH   3   5
ENDBRANCH   2   3
ENDBRANCH   1   2
BRANCH   1  67
ATOM     67  C   UNL A   1      44.323  19.082  25.148  1.00  0.00     0.275 C 
BRANCH  67  68
ATOM     68  O   UNL A   1      42.892  19.032  25.027  1.00  0.00    -0.458 OA
BRANCH  68  69
ATOM     69  C   UNL A   1      42.204  19.007  26.198  1.00  0.00     0.338 C 
ATOM     70  O   UNL A   1      42.564  18.508  27.249  1.00  0.00    -0.246 OA
BRANCH  69  71
ATOM     71  C   UNL A   1      40.962  19.790  26.047  1.00  0.00     0.062 A 
ATOM     72  C   UNL A   1      39.827  19.208  25.497  1.00  0.00     0.038 A 
ATOM     73  C   UNL A   1      40.914  21.101  26.538  1.00  0.00     0.022 A 
ATOM     74  C   UNL A   1      38.665  19.972  25.395  1.00  0.00     0.065 A 
ATOM     75  C   UNL A   1      39.751  21.882  26.388  1.00  0.00    -0.015 A 
ATOM     76  Cl  UNL A   1      37.212  19.161  24.910  1.00  0.00    -0.082 Cl
ATOM     77  C   UNL A   1      38.640  21.342  25.730  1.00  0.00     0.057 A 
ATOM     78  C   UNL A   1      39.659  23.232  27.040  1.00  0.00     0.049 C 
ATOM     79  N   UNL A   1      37.502  22.101  25.519  1.00  0.00    -0.376 N 
ATOM     80  C   UNL A   1      40.400  24.375  26.401  1.00  0.00    -0.023 C 
ATOM     81  C   UNL A   1      38.226  23.811  27.144  1.00  0.00     0.031 C 
ATOM     82  C   UNL A   1      37.419  23.518  25.837  1.00  0.00     0.114 C 
ATOM     83  H   UNL A   1      36.711  21.660  25.135  1.00  0.00     0.161 HD
ATOM     84  C   UNL A   1      39.772  25.535  26.622  1.00  0.00    -0.030 C 
ATOM     85  C   UNL A   1      38.540  25.297  27.430  1.00  0.00     0.034 C 
BRANCH  82  86
ATOM     86  C   UNL A   1      35.940  23.909  25.939  1.00  0.00    -0.025 A 
ATOM     87  C   UNL A   1      35.388  25.112  25.444  1.00  0.00     0.007 A 
ATOM     88  C   UNL A   1      35.064  23.030  26.568  1.00  0.00     0.007 A 
ATOM     89  C   UNL A   1      34.010  25.387  25.533  1.00  0.00     0.022 A 
ATOM     90  C   UNL A   1      33.697  23.259  26.566  1.00  0.00     0.022 A 
ATOM     91  C   UNL A   1      33.155  24.430  26.069  1.00  0.00     0.082 A 
BRANCH  91  92
ATOM     92  S   UNL A   1      31.400  24.717  26.129  1.00  0.00     0.243 S 
ATOM     93  O   UNL A   1      30.784  23.462  26.488  1.00  0.00    -0.207 OA
ATOM     94  O   UNL A   1      31.209  25.920  26.916  1.00  0.00    -0.207 OA
BRANCH  92  95
ATOM     95  N   UNL A   1      30.924  25.077  24.553  1.00  0.00    -0.193 NA
ATOM     96  C   UNL A   1      31.338  24.265  23.390  1.00  0.00     0.131 C 
ATOM     97  C   UNL A   1      30.214  26.319  24.206  1.00  0.00     0.131 C 
ATOM     98  C   UNL A   1      32.035  25.121  22.318  1.00  0.00     0.177 C 
ATOM     99  C   UNL A   1      31.011  27.121  23.175  1.00  0.00     0.177 C 
ATOM    100  O   UNL A   1      31.339  26.341  22.016  1.00  0.00    -0.379 OA
ENDBRANCH  92  95
ENDBRANCH  91  92
ENDBRANCH  82  86
ENDBRANCH  69  71
ENDBRANCH  68  69
ENDBRANCH  67  68
ENDBRANCH   1  67
TORSDOF 17
ENDMDL
MODEL 3
REMARK VINA RESULT:     -11.2      1.802      2.877
REMARK SMILES O=C(OCCOC(=O)c1cc(Cl)c2c(c1)[C@H]1C=CC[C@H]1[C@H](c1ccc(S(=O)(=O)N3CCOCC3)cc1)N2)c1ccc(-c2c3nc(c(-c4ccc(S(=O)(=O)[O-])cc4)c4ccc([nH]4)c(-c4ccc(S(=O)(=O)[O-])cc4)c4nc(c(-c5ccc(S(=O)(=O)[O-])cc5)c5ccc2[nH]5)C=C4)C=C3)cc1
REMARK SMILES IDX 4 1 3 2 2 3 1 4 38 5 39 6 97 7 40 8 96 9 41 10 42 11 43 12
REMARK SMILES IDX 90 13 44 14 95 15 89 16 91 17 45 18 94 19 88 20 87 21 46 23
REMARK SMILES IDX 76 24 57 25 75 26 58 27 61 28 74 29 92 30 59 31 60 32 73 34
REMARK SMILES IDX 93 35 62 36 47 37 48 38 56 39 49 40 55 41 50 42 51 43 52 44
REMARK SMILES IDX 53 45 54 46 77 47 78 48 86 49 79 50 85 51 80 52 81 53 82 54
REMARK SMILES IDX 83 55 84 56 63 57 64 58 72 59 65 60 71 61 66 62 67 63 68 64
REMARK SMILES IDX 69 65 70 66 5 67 6 68 7 69 8 70 9 71 10 72 15 73 11 74 14 75
REMARK SMILES IDX 12 76 13 77 16 78 37 79 17 80 20 81 21 82 18 84 19 85 22 86
REMARK SMILES IDX 23 87 36 88 24 89 35 90 25 91 26 92 27 93 28 94 29 95 30 96
REMARK SMILES IDX 34 97 31 98 33 99 32 100
REMARK H PARENT 91 22 61 33 37 83
REMARK Flexibility Score: inf
ROOT
ATOM      1  C   UNL A   1      44.739  20.322  24.601  1.00  0.00     0.275 C 
ENDROOT
BRANCH   1   2
ATOM      2  O   UNL A   1      43.938  21.452  24.975  1.00  0.00    -0.458 OA
BRANCH   2   3
ATOM      3  C   UNL A   1      44.179  22.768  24.776  1.00  0.00     0.338 C 
ATOM      4  O   UNL A   1      44.692  23.108  23.710  1.00  0.00    -0.246 OA
BRANCH   3   5
ATOM      5  C   UNL A   1      44.005  23.822  25.835  1.00  0.00     0.060 A 
ATOM      6  C   UNL A   1      44.109  25.206  25.681  1.00  0.00     0.016 A 
ATOM      7  C   UNL A   1      43.654  23.344  27.109  1.00  0.00     0.016 A 
ATOM      8  C   UNL A   1      43.794  26.083  26.722  1.00  0.00     0.010 A 
ATOM      9  C   UNL A   1      43.324  24.208  28.155  1.00  0.00     0.010 A 
ATOM     10  C   UNL A   1      43.406  25.588  27.963  1.00  0.00    -0.014 A 
BRANCH  10  11
ATOM     11  C   UNL A   1      43.362  26.499  29.120  1.00  0.00     0.031 A 
ATOM     12  C   UNL A   1      44.491  26.406  30.097  1.00  0.00     0.074 A 
ATOM     13  C   UNL A   1      42.409  27.435  29.259  1.00  0.00     0.049 A 
ATOM     14  N   UNL A   1      44.700  27.111  31.171  1.00  0.00    -0.248 NA
ATOM     15  C   UNL A   1      45.551  25.425  29.792  1.00  0.00     0.031 C 
ATOM     16  C   UNL A   1      41.371  27.722  28.276  1.00  0.00     0.029 A 
ATOM     17  N   UNL A   1      42.159  28.322  30.273  1.00  0.00    -0.354 N 
ATOM     18  C   UNL A   1      45.937  26.700  31.639  1.00  0.00     0.074 A 
ATOM     19  C   UNL A   1      46.406  25.641  30.778  1.00  0.00     0.031 C 
ATOM     20  C   UNL A   1      40.551  28.669  28.763  1.00  0.00     0.029 A 
ATOM     21  C   UNL A   1      41.009  29.054  30.090  1.00  0.00     0.049 A 
ATOM     22  H   UNL A   1      42.744  28.425  31.057  1.00  0.00     0.167 HD
ATOM     23  C   UNL A   1      46.636  27.196  32.679  1.00  0.00     0.031 A 
ATOM     24  C   UNL A   1      40.393  29.934  30.900  1.00  0.00     0.031 A 
ATOM     25  C   UNL A   1      46.139  28.218  33.551  1.00  0.00     0.049 A 
ATOM     26  C   UNL A   1      41.084  30.317  32.175  1.00  0.00     0.074 A 
ATOM     27  C   UNL A   1      46.741  28.756  34.671  1.00  0.00     0.029 A 
ATOM     28  N   UNL A   1      44.910  28.846  33.404  1.00  0.00    -0.354 N 
ATOM     29  N   UNL A   1      42.241  29.897  32.629  1.00  0.00    -0.248 NA
ATOM     30  C   UNL A   1      40.426  31.319  33.022  1.00  0.00     0.031 C 
ATOM     31  C   UNL A   1      45.849  29.672  35.236  1.00  0.00     0.029 A 
ATOM     32  C   UNL A   1      44.722  29.750  34.431  1.00  0.00     0.049 A 
ATOM     33  H   UNL A   1      44.270  28.673  32.676  1.00  0.00     0.167 HD
ATOM     34  C   UNL A   1      42.479  30.623  33.787  1.00  0.00     0.074 A 
ATOM     35  C   UNL A   1      41.333  31.492  33.976  1.00  0.00     0.031 C 
ATOM     36  C   UNL A   1      43.564  30.593  34.599  1.00  0.00     0.031 A 
BRANCH  23  37
ATOM     37  C   UNL A   1      47.992  26.610  32.928  1.00  0.00    -0.014 A 
ATOM     38  C   UNL A   1      48.142  25.456  33.717  1.00  0.00     0.010 A 
ATOM     39  C   UNL A   1      49.124  27.215  32.360  1.00  0.00     0.010 A 
ATOM     40  C   UNL A   1      49.410  24.919  33.941  1.00  0.00     0.020 A 
ATOM     41  C   UNL A   1      50.392  26.670  32.566  1.00  0.00     0.020 A 
ATOM     42  C   UNL A   1      50.527  25.525  33.355  1.00  0.00     0.054 A 
BRANCH  42  43
ATOM     43  S   UNL A   1      52.155  24.783  33.636  1.00  0.00     0.124 S 
ATOM     44  O   UNL A   1      53.038  25.701  32.919  1.00  0.00    -0.237 OA
ATOM     45  O   UNL A   1      52.264  24.814  35.092  1.00  0.00    -0.237 OA
ATOM     46  O   UNL A   1      52.038  23.451  33.046  1.00  0.00    -0.744 OA
ENDBRANCH  42  43
ENDBRANCH  23  37
BRANCH  24  47
ATOM     47  C   UNL A   1      39.082  30.516  30.505  1.00  0.00    -0.014 A 
ATOM     48  C   UNL A   1      37.877  29.892  30.866  1.00  0.00     0.010 A 
ATOM     49  C   UNL A   1      39.035  31.741  29.810  1.00  0.00     0.010 A 
ATOM     50  C   UNL A   1      36.649  30.483  30.545  1.00  0.00     0.020 A 
ATOM     51  C   UNL A   1      37.810  32.340  29.498  1.00  0.00     0.020 A 
ATOM     52  C   UNL A   1      36.623  31.709  29.873  1.00  0.00     0.054 A 
BRANCH  52  53
ATOM     53  S   UNL A   1      35.014  32.472  29.519  1.00  0.00     0.124 S 
ATOM     54  O   UNL A   1      34.427  31.532  28.569  1.00  0.00    -0.237 OA
ATOM     55  O   UNL A   1      34.394  32.504  30.840  1.00  0.00    -0.237 OA
ATOM     56  O   UNL A   1      35.365  33.778  28.967  1.00  0.00    -0.744 OA
ENDBRANCH  52  53
ENDBRANCH  24  47
BRANCH  36  57
ATOM     57  C   UNL A   1      43.591  31.550  35.753  1.00  0.00    -0.014 A 
ATOM     58  C   UNL A   1      44.096  32.853  35.602  1.00  0.00     0.010 A 
ATOM     59  C   UNL A   1      43.001  31.169  36.971  1.00  0.00     0.010 A 
ATOM     60  C   UNL A   1      44.018  33.756  36.663  1.00  0.00     0.020 A 
ATOM     61  C   UNL A   1      42.898  32.079  38.023  1.00  0.00     0.020 A 
ATOM     62  C   UNL A   1      43.412  33.366  37.861  1.00  0.00     0.054 A 
BRANCH  62  63
ATOM     63  S   UNL A   1      43.286  34.580  39.200  1.00  0.00     0.124 S 
ATOM     64  O   UNL A   1      41.842  34.692  39.379  1.00  0.00    -0.237 OA
ATOM     65  O   UNL A   1      44.005  33.921  40.287  1.00  0.00    -0.237 OA
ATOM     66  O   UNL A   1      43.938  35.769  38.656  1.00  0.00    -0.744 OA
ENDBRANCH  62  63
ENDBRANCH  36  57
ENDBRANCH  10  11
ENDBRANCH   3   5
ENDBRANCH   2   3
ENDBRANCH   1   2
BRANCH   1  67
ATOM     67  C   UNL A   1      44.314  19.002  25.259  1.00  0.00     0.275 C 
BRANCH  67  68
ATOM     68  O   UNL A   1      42.897  18.759  25.239  1.00  0.00    -0.458 OA
BRANCH  68  69
ATOM     69  C   UNL A   1      42.252  18.945  26.420  1.00  0.00     0.338 C 
ATOM     70  O   UNL A   1      42.649  18.635  27.529  1.00  0.00    -0.246 OA
BRANCH  69  71
ATOM     71  C   UNL A   1      41.007  19.700  26.177  1.00  0.00     0.062 A 
ATOM     72  C   UNL A   1      39.913  19.079  25.588  1.00  0.00     0.038 A 
ATOM     73  C   UNL A   1      40.912  21.025  26.620  1.00  0.00     0.022 A 
ATOM     74  C   UNL A   1      38.746  19.818  25.400  1.00  0.00     0.065 A 
ATOM     75  C   UNL A   1      39.745  21.779  26.383  1.00  0.00    -0.015 A 
ATOM     76  Cl  UNL A   1      37.334  18.965  24.867  1.00  0.00    -0.082 Cl
ATOM     77  C   UNL A   1      38.680  21.198  25.686  1.00  0.00     0.057 A 
ATOM     78  C   UNL A   1      39.597  23.148  26.984  1.00  0.00     0.049 C 
ATOM     79  N   UNL A   1      37.543  21.928  25.390  1.00  0.00    -0.376 N 
ATOM     80  C   UNL A   1      40.351  24.282  26.346  1.00  0.00    -0.023 C 
ATOM     81  C   UNL A   1      38.151  23.704  26.992  1.00  0.00     0.031 C 
ATOM     82  C   UNL A   1      37.419  23.353  25.656  1.00  0.00     0.114 C 
ATOM     83  H   UNL A   1      36.781  21.460  24.980  1.00  0.00     0.161 HD
ATOM     84  C   UNL A   1      39.693  25.438  26.494  1.00  0.00    -0.030 C 
ATOM     85  C   UNL A   1      38.424  25.204  27.244  1.00  0.00     0.034 C 
BRANCH  82  86
ATOM     86  C   UNL A   1      35.930  23.719  25.666  1.00  0.00    -0.025 A 
ATOM     87  C   UNL A   1      35.269  24.434  24.642  1.00  0.00     0.007 A 
ATOM     88  C   UNL A   1      35.161  23.336  26.760  1.00  0.00     0.007 A 
ATOM     89  C   UNL A   1      33.887  24.699  24.696  1.00  0.00     0.022 A 
ATOM     90  C   UNL A   1      33.786  23.512  26.764  1.00  0.00     0.022 A 
ATOM     91  C   UNL A   1      33.136  24.199  25.754  1.00  0.00     0.082 A 
BRANCH  91  92
ATOM     92  S   UNL A   1      31.376  24.453  25.815  1.00  0.00     0.243 S 
ATOM     93  O   UNL A   1      30.835  23.928  24.584  1.00  0.00    -0.207 OA
ATOM     94  O   UNL A   1      30.939  23.976  27.113  1.00  0.00    -0.207 OA
BRANCH  92  95
ATOM     95  N   UNL A   1      31.138  26.121  25.797  1.00  0.00    -0.193 NA
ATOM     96  C   UNL A   1      30.365  26.804  24.738  1.00  0.00     0.131 C 
ATOM     97  C   UNL A   1      31.826  27.029  26.729  1.00  0.00     0.131 C 
ATOM     98  C   UNL A   1      31.187  27.913  24.059  1.00  0.00     0.177 C 
ATOM     99  C   UNL A   1      32.655  28.059  25.959  1.00  0.00     0.177 C 
ATOM    100  O   UNL A   1      31.872  28.769  24.988  1.00  0.00    -0.379 OA
ENDBRANCH  92  95
ENDBRANCH  91  92
ENDBRANCH  82  86
ENDBRANCH  69  71
ENDBRANCH  68  69
ENDBRANCH  67  68
ENDBRANCH   1  67
TORSDOF 17
ENDMDL
