MODEL 1
REMARK VINA RESULT:      -9.5      0.000      0.000
REMARK SMILES O=C(OCCOC(=O)c1cccc(OCC(F)F)c1)c1ccc(-c2c3nc(c(-c4ccc(S(=O)(=O)[O-])cc4)c4ccc([nH]4)c(-c4ccc(S(=O)(=O)[O-])cc4)c4nc(c(-c5ccc(S(=O)(=O)[O-])cc5)c5ccc2[nH]5)C=C4)C=C3)cc1
REMARK SMILES IDX 4 1 3 2 2 3 1 4 20 5 21 6 79 7 22 8 78 9 23 10 24 11 25 12
REMARK SMILES IDX 72 13 26 14 77 15 71 16 73 17 27 18 76 19 70 20 69 21 28 23
REMARK SMILES IDX 58 24 39 25 57 26 40 27 43 28 56 29 74 30 41 31 42 32 55 34
REMARK SMILES IDX 75 35 44 36 29 37 30 38 38 39 31 40 37 41 32 42 33 43 34 44
REMARK SMILES IDX 35 45 36 46 59 47 60 48 68 49 61 50 67 51 62 52 63 53 64 54
REMARK SMILES IDX 65 55 66 56 45 57 46 58 54 59 47 60 53 61 48 62 49 63 50 64
REMARK SMILES IDX 51 65 52 66 5 67 6 68 7 69 8 70 9 71 10 72 19 73 11 74 13 75
REMARK SMILES IDX 12 76 14 77 15 78 16 79 17 80 18 81
REMARK H PARENT 73 22 43 33
REMARK Flexibility Score: inf
ROOT
ATOM      1  C   UNL A   1      40.513  20.748  26.881  1.00  0.00     0.275 C 
ENDROOT
BRANCH   1   2
ATOM      2  O   UNL A   1      40.114  21.819  26.009  1.00  0.00    -0.458 OA
BRANCH   2   3
ATOM      3  C   UNL A   1      39.232  22.831  26.168  1.00  0.00     0.338 C 
ATOM      4  O   UNL A   1      38.077  22.640  25.782  1.00  0.00    -0.246 OA
BRANCH   3   5
ATOM      5  C   UNL A   1      39.538  24.185  26.752  1.00  0.00     0.060 A 
ATOM      6  C   UNL A   1      40.208  25.236  26.123  1.00  0.00     0.016 A 
ATOM      7  C   UNL A   1      39.117  24.396  28.083  1.00  0.00     0.016 A 
ATOM      8  C   UNL A   1      40.486  26.428  26.801  1.00  0.00     0.010 A 
ATOM      9  C   UNL A   1      39.366  25.598  28.759  1.00  0.00     0.010 A 
ATOM     10  C   UNL A   1      40.091  26.608  28.129  1.00  0.00    -0.014 A 
BRANCH  10  11
ATOM     11  C   UNL A   1      40.574  27.802  28.859  1.00  0.00     0.031 A 
ATOM     12  C   UNL A   1      42.026  27.893  29.214  1.00  0.00     0.074 A 
ATOM     13  C   UNL A   1      39.746  28.833  29.105  1.00  0.00     0.049 A 
ATOM     14  N   UNL A   1      42.691  28.910  29.691  1.00  0.00    -0.248 NA
ATOM     15  C   UNL A   1      42.834  26.680  29.007  1.00  0.00     0.031 C 
ATOM     16  C   UNL A   1      38.319  28.831  28.808  1.00  0.00     0.029 A 
ATOM     17  N   UNL A   1      39.977  30.082  29.625  1.00  0.00    -0.354 N 
ATOM     18  C   UNL A   1      43.995  28.459  29.853  1.00  0.00     0.074 A 
ATOM     19  C   UNL A   1      44.021  27.072  29.444  1.00  0.00     0.031 C 
ATOM     20  C   UNL A   1      37.806  30.036  29.105  1.00  0.00     0.029 A 
ATOM     21  C   UNL A   1      38.867  30.897  29.605  1.00  0.00     0.049 A 
ATOM     22  H   UNL A   1      40.851  30.367  29.977  1.00  0.00     0.167 HD
ATOM     23  C   UNL A   1      45.071  29.140  30.309  1.00  0.00     0.031 A 
ATOM     24  C   UNL A   1      38.729  32.200  29.923  1.00  0.00     0.031 A 
ATOM     25  C   UNL A   1      45.021  30.509  30.747  1.00  0.00     0.049 A 
ATOM     26  C   UNL A   1      39.943  32.944  30.401  1.00  0.00     0.074 A 
ATOM     27  C   UNL A   1      46.041  31.289  31.261  1.00  0.00     0.029 A 
ATOM     28  N   UNL A   1      43.880  31.299  30.729  1.00  0.00    -0.354 N 
ATOM     29  N   UNL A   1      41.174  32.506  30.529  1.00  0.00    -0.248 NA
ATOM     30  C   UNL A   1      39.755  34.349  30.781  1.00  0.00     0.031 C 
ATOM     31  C   UNL A   1      45.504  32.540  31.592  1.00  0.00     0.029 A 
ATOM     32  C   UNL A   1      44.165  32.556  31.234  1.00  0.00     0.049 A 
ATOM     33  H   UNL A   1      42.998  31.008  30.405  1.00  0.00     0.167 HD
ATOM     34  C   UNL A   1      41.911  33.584  31.003  1.00  0.00     0.074 A 
ATOM     35  C   UNL A   1      40.993  34.702  31.103  1.00  0.00     0.031 C 
ATOM     36  C   UNL A   1      43.224  33.643  31.335  1.00  0.00     0.031 A 
BRANCH  23  37
ATOM     37  C   UNL A   1      46.360  28.374  30.411  1.00  0.00    -0.014 A 
ATOM     38  C   UNL A   1      47.176  28.162  29.284  1.00  0.00     0.010 A 
ATOM     39  C   UNL A   1      46.733  27.812  31.645  1.00  0.00     0.010 A 
ATOM     40  C   UNL A   1      48.313  27.354  29.379  1.00  0.00     0.020 A 
ATOM     41  C   UNL A   1      47.883  27.026  31.748  1.00  0.00     0.020 A 
ATOM     42  C   UNL A   1      48.652  26.782  30.608  1.00  0.00     0.054 A 
BRANCH  42  43
ATOM     43  S   UNL A   1      50.118  25.718  30.701  1.00  0.00     0.124 S 
ATOM     44  O   UNL A   1      49.765  24.816  31.795  1.00  0.00    -0.237 OA
ATOM     45  O   UNL A   1      50.158  25.109  29.375  1.00  0.00    -0.237 OA
ATOM     46  O   UNL A   1      51.204  26.651  30.990  1.00  0.00    -0.744 OA
ENDBRANCH  42  43
ENDBRANCH  23  37
BRANCH  24  47
ATOM     47  C   UNL A   1      37.412  32.884  29.759  1.00  0.00    -0.014 A 
ATOM     48  C   UNL A   1      37.051  33.463  28.528  1.00  0.00     0.010 A 
ATOM     49  C   UNL A   1      36.498  32.943  30.827  1.00  0.00     0.010 A 
ATOM     50  C   UNL A   1      35.813  34.098  28.373  1.00  0.00     0.020 A 
ATOM     51  C   UNL A   1      35.247  33.549  30.668  1.00  0.00     0.020 A 
ATOM     52  C   UNL A   1      34.917  34.135  29.444  1.00  0.00     0.054 A 
BRANCH  52  53
ATOM     53  S   UNL A   1      33.290  34.908  29.212  1.00  0.00     0.124 S 
ATOM     54  O   UNL A   1      33.652  36.229  28.710  1.00  0.00    -0.237 OA
ATOM     55  O   UNL A   1      32.650  34.017  28.247  1.00  0.00    -0.237 OA
ATOM     56  O   UNL A   1      32.709  34.881  30.552  1.00  0.00    -0.744 OA
ENDBRANCH  52  53
ENDBRANCH  24  47
BRANCH  36  57
ATOM     57  C   UNL A   1      43.739  34.967  31.826  1.00  0.00    -0.014 A 
ATOM     58  C   UNL A   1      43.744  35.280  33.197  1.00  0.00     0.010 A 
ATOM     59  C   UNL A   1      44.248  35.896  30.903  1.00  0.00     0.010 A 
ATOM     60  C   UNL A   1      44.211  36.522  33.632  1.00  0.00     0.020 A 
ATOM     61  C   UNL A   1      44.739  37.128  31.338  1.00  0.00     0.020 A 
ATOM     62  C   UNL A   1      44.700  37.440  32.698  1.00  0.00     0.054 A 
BRANCH  62  63
ATOM     63  S   UNL A   1      45.320  39.039  33.286  1.00  0.00     0.124 S 
ATOM     64  O   UNL A   1      46.186  39.450  32.184  1.00  0.00    -0.237 OA
ATOM     65  O   UNL A   1      44.095  39.820  33.448  1.00  0.00    -0.237 OA
ATOM     66  O   UNL A   1      46.010  38.706  34.530  1.00  0.00    -0.744 OA
ENDBRANCH  62  63
ENDBRANCH  36  57
ENDBRANCH  10  11
ENDBRANCH   3   5
ENDBRANCH   2   3
ENDBRANCH   1   2
BRANCH   1  67
ATOM     67  C   UNL A   1      40.757  19.424  26.155  1.00  0.00     0.275 C 
BRANCH  67  68
ATOM     68  O   UNL A   1      41.899  19.469  25.291  1.00  0.00    -0.458 OA
BRANCH  68  69
ATOM     69  C   UNL A   1      42.980  18.749  25.698  1.00  0.00     0.338 C 
ATOM     70  O   UNL A   1      42.989  17.622  26.150  1.00  0.00    -0.246 OA
BRANCH  69  71
ATOM     71  C   UNL A   1      44.191  19.534  25.383  1.00  0.00     0.063 A 
ATOM     72  C   UNL A   1      45.410  18.872  25.222  1.00  0.00     0.016 A 
ATOM     73  C   UNL A   1      44.093  20.915  25.185  1.00  0.00     0.062 A 
ATOM     74  C   UNL A   1      46.522  19.591  24.794  1.00  0.00     0.005 A 
ATOM     75  C   UNL A   1      45.202  21.637  24.762  1.00  0.00     0.120 A 
ATOM     76  C   UNL A   1      46.411  20.965  24.549  1.00  0.00     0.046 A 
BRANCH  75  77
ATOM     77  O   UNL A   1      45.207  22.967  24.448  1.00  0.00    -0.488 OA
BRANCH  77  78
ATOM     78  C   UNL A   1      44.019  23.738  24.682  1.00  0.00     0.302 C 
BRANCH  78  79
ATOM     79  C   UNL A   1      44.151  24.769  25.800  1.00  0.00     0.379 C 
ATOM     80  F   UNL A   1      43.315  25.819  25.584  1.00  0.00    -0.207 F 
ATOM     81  F   UNL A   1      43.747  24.220  26.974  1.00  0.00    -0.207 F 
ENDBRANCH  78  79
ENDBRANCH  77  78
ENDBRANCH  75  77
ENDBRANCH  69  71
ENDBRANCH  68  69
ENDBRANCH  67  68
ENDBRANCH   1  67
TORSDOF 17
ENDMDL
MODEL 2
REMARK VINA RESULT:      -9.4      1.216      8.651
REMARK SMILES O=C(OCCOC(=O)c1cccc(OCC(F)F)c1)c1ccc(-c2c3nc(c(-c4ccc(S(=O)(=O)[O-])cc4)c4ccc([nH]4)c(-c4ccc(S(=O)(=O)[O-])cc4)c4nc(c(-c5ccc(S(=O)(=O)[O-])cc5)c5ccc2[nH]5)C=C4)C=C3)cc1
REMARK SMILES IDX 4 1 3 2 2 3 1 4 20 5 21 6 79 7 22 8 78 9 23 10 24 11 25 12
REMARK SMILES IDX 72 13 26 14 77 15 71 16 73 17 27 18 76 19 70 20 69 21 28 23
REMARK SMILES IDX 58 24 39 25 57 26 40 27 43 28 56 29 74 30 41 31 42 32 55 34
REMARK SMILES IDX 75 35 44 36 29 37 30 38 38 39 31 40 37 41 32 42 33 43 34 44
REMARK SMILES IDX 35 45 36 46 59 47 60 48 68 49 61 50 67 51 62 52 63 53 64 54
REMARK SMILES IDX 65 55 66 56 45 57 46 58 54 59 47 60 53 61 48 62 49 63 50 64
REMARK SMILES IDX 51 65 52 66 5 67 6 68 7 69 8 70 9 71 10 72 19 73 11 74 13 75
REMARK SMILES IDX 12 76 14 77 15 78 16 79 17 80 18 81
REMARK H PARENT 73 22 43 33
REMARK Flexibility Score: inf
ROOT
ATOM      1  C   UNL A   1      39.716  20.598  25.860  1.00  0.00     0.275 C 
ENDROOT
BRANCH   1   2
ATOM      2  O   UNL A   1      39.744  21.859  26.551  1.00  0.00    -0.458 OA
BRANCH   2   3
ATOM      3  C   UNL A   1      39.046  23.003  26.370  1.00  0.00     0.338 C 
ATOM      4  O   UNL A   1      38.020  22.938  25.692  1.00  0.00    -0.246 OA
BRANCH   3   5
ATOM      5  C   UNL A   1      39.425  24.360  26.902  1.00  0.00     0.060 A 
ATOM      6  C   UNL A   1      40.158  25.345  26.239  1.00  0.00     0.016 A 
ATOM      7  C   UNL A   1      39.006  24.648  28.220  1.00  0.00     0.016 A 
ATOM      8  C   UNL A   1      40.497  26.546  26.871  1.00  0.00     0.010 A 
ATOM      9  C   UNL A   1      39.318  25.861  28.849  1.00  0.00     0.010 A 
ATOM     10  C   UNL A   1      40.103  26.802  28.187  1.00  0.00    -0.014 A 
BRANCH  10  11
ATOM     11  C   UNL A   1      40.648  27.996  28.873  1.00  0.00     0.031 A 
ATOM     12  C   UNL A   1      39.741  29.160  29.126  1.00  0.00     0.074 A 
ATOM     13  C   UNL A   1      41.904  27.993  29.353  1.00  0.00     0.049 A 
ATOM     14  N   UNL A   1      39.955  30.223  29.854  1.00  0.00    -0.248 NA
ATOM     15  C   UNL A   1      38.422  29.125  28.475  1.00  0.00     0.031 C 
ATOM     16  C   UNL A   1      42.862  26.914  29.145  1.00  0.00     0.029 A 
ATOM     17  N   UNL A   1      42.583  28.896  30.131  1.00  0.00    -0.354 N 
ATOM     18  C   UNL A   1      38.803  30.991  29.740  1.00  0.00     0.074 A 
ATOM     19  C   UNL A   1      37.903  30.282  28.857  1.00  0.00     0.031 C 
ATOM     20  C   UNL A   1      43.991  27.191  29.818  1.00  0.00     0.029 A 
ATOM     21  C   UNL A   1      43.834  28.462  30.510  1.00  0.00     0.049 A 
ATOM     22  H   UNL A   1      42.213  29.769  30.394  1.00  0.00     0.167 HD
ATOM     23  C   UNL A   1      38.525  32.182  30.316  1.00  0.00     0.031 A 
ATOM     24  C   UNL A   1      44.738  29.010  31.346  1.00  0.00     0.031 A 
ATOM     25  C   UNL A   1      39.444  32.893  31.162  1.00  0.00     0.049 A 
ATOM     26  C   UNL A   1      44.397  30.321  31.996  1.00  0.00     0.074 A 
ATOM     27  C   UNL A   1      39.284  34.124  31.772  1.00  0.00     0.029 A 
ATOM     28  N   UNL A   1      40.707  32.433  31.511  1.00  0.00    -0.354 N 
ATOM     29  N   UNL A   1      43.293  31.024  31.892  1.00  0.00    -0.248 NA
ATOM     30  C   UNL A   1      45.417  30.917  32.867  1.00  0.00     0.031 C 
ATOM     31  C   UNL A   1      40.468  34.426  32.456  1.00  0.00     0.029 A 
ATOM     32  C   UNL A   1      41.343  33.360  32.319  1.00  0.00     0.049 A 
ATOM     33  H   UNL A   1      41.093  31.573  31.228  1.00  0.00     0.167 HD
ATOM     34  C   UNL A   1      43.483  32.145  32.688  1.00  0.00     0.074 A 
ATOM     35  C   UNL A   1      44.794  32.007  33.294  1.00  0.00     0.031 C 
ATOM     36  C   UNL A   1      42.655  33.200  32.893  1.00  0.00     0.031 A 
BRANCH  23  37
ATOM     37  C   UNL A   1      37.198  32.800  29.977  1.00  0.00    -0.014 A 
ATOM     38  C   UNL A   1      37.010  33.520  28.782  1.00  0.00     0.010 A 
ATOM     39  C   UNL A   1      36.136  32.704  30.894  1.00  0.00     0.010 A 
ATOM     40  C   UNL A   1      35.802  34.179  28.538  1.00  0.00     0.020 A 
ATOM     41  C   UNL A   1      34.918  33.340  30.641  1.00  0.00     0.020 A 
ATOM     42  C   UNL A   1      34.768  34.094  29.475  1.00  0.00     0.054 A 
BRANCH  42  43
ATOM     43  S   UNL A   1      33.218  34.978  29.148  1.00  0.00     0.124 S 
ATOM     44  O   UNL A   1      32.592  34.983  30.468  1.00  0.00    -0.237 OA
ATOM     45  O   UNL A   1      33.683  36.276  28.668  1.00  0.00    -0.237 OA
ATOM     46  O   UNL A   1      32.553  34.147  28.146  1.00  0.00    -0.744 OA
ENDBRANCH  42  43
ENDBRANCH  23  37
BRANCH  24  47
ATOM     47  C   UNL A   1      46.020  28.304  31.644  1.00  0.00    -0.014 A 
ATOM     48  C   UNL A   1      46.102  27.377  32.701  1.00  0.00     0.010 A 
ATOM     49  C   UNL A   1      47.165  28.537  30.860  1.00  0.00     0.010 A 
ATOM     50  C   UNL A   1      47.301  26.710  32.975  1.00  0.00     0.020 A 
ATOM     51  C   UNL A   1      48.357  27.849  31.111  1.00  0.00     0.020 A 
ATOM     52  C   UNL A   1      48.422  26.950  32.176  1.00  0.00     0.054 A 
BRANCH  52  53
ATOM     53  S   UNL A   1      49.955  26.033  32.504  1.00  0.00     0.124 S 
ATOM     54  O   UNL A   1      49.446  24.773  33.034  1.00  0.00    -0.237 OA
ATOM     55  O   UNL A   1      50.572  25.962  31.182  1.00  0.00    -0.237 OA
ATOM     56  O   UNL A   1      50.656  26.882  33.465  1.00  0.00    -0.744 OA
ENDBRANCH  52  53
ENDBRANCH  24  47
BRANCH  36  57
ATOM     57  C   UNL A   1      43.147  34.275  33.820  1.00  0.00    -0.014 A 
ATOM     58  C   UNL A   1      42.894  34.214  35.202  1.00  0.00     0.010 A 
ATOM     59  C   UNL A   1      43.896  35.345  33.302  1.00  0.00     0.010 A 
ATOM     60  C   UNL A   1      43.346  35.231  36.045  1.00  0.00     0.020 A 
ATOM     61  C   UNL A   1      44.372  36.350  34.146  1.00  0.00     0.020 A 
ATOM     62  C   UNL A   1      44.077  36.295  35.510  1.00  0.00     0.054 A 
BRANCH  62  63
ATOM     63  S   UNL A   1      44.671  37.596  36.624  1.00  0.00     0.124 S 
ATOM     64  O   UNL A   1      44.171  38.804  35.973  1.00  0.00    -0.237 OA
ATOM     65  O   UNL A   1      44.029  37.253  37.891  1.00  0.00    -0.237 OA
ATOM     66  O   UNL A   1      46.122  37.432  36.603  1.00  0.00    -0.744 OA
ENDBRANCH  62  63
ENDBRANCH  36  57
ENDBRANCH  10  11
ENDBRANCH   3   5
ENDBRANCH   2   3
ENDBRANCH   1   2
BRANCH   1  67
ATOM     67  C   UNL A   1      40.797  19.620  26.323  1.00  0.00     0.275 C 
BRANCH  67  68
ATOM     68  O   UNL A   1      41.855  19.473  25.369  1.00  0.00    -0.458 OA
BRANCH  68  69
ATOM     69  C   UNL A   1      42.931  18.747  25.782  1.00  0.00     0.338 C 
ATOM     70  O   UNL A   1      42.931  17.620  26.231  1.00  0.00    -0.246 OA
BRANCH  69  71
ATOM     71  C   UNL A   1      44.146  19.528  25.478  1.00  0.00     0.063 A 
ATOM     72  C   UNL A   1      45.352  18.856  25.262  1.00  0.00     0.016 A 
ATOM     73  C   UNL A   1      44.066  20.918  25.343  1.00  0.00     0.062 A 
ATOM     74  C   UNL A   1      46.466  19.578  24.843  1.00  0.00     0.005 A 
ATOM     75  C   UNL A   1      45.177  21.642  24.929  1.00  0.00     0.120 A 
ATOM     76  C   UNL A   1      46.371  20.962  24.662  1.00  0.00     0.046 A 
BRANCH  75  77
ATOM     77  O   UNL A   1      45.197  22.985  24.676  1.00  0.00    -0.488 OA
BRANCH  77  78
ATOM     78  C   UNL A   1      43.950  23.692  24.593  1.00  0.00     0.302 C 
BRANCH  78  79
ATOM     79  C   UNL A   1      43.927  25.012  25.358  1.00  0.00     0.379 C 
ATOM     80  F   UNL A   1      43.093  25.900  24.755  1.00  0.00    -0.207 F 
ATOM     81  F   UNL A   1      43.407  24.811  26.596  1.00  0.00    -0.207 F 
ENDBRANCH  78  79
ENDBRANCH  77  78
ENDBRANCH  75  77
ENDBRANCH  69  71
ENDBRANCH  68  69
ENDBRANCH  67  68
ENDBRANCH   1  67
TORSDOF 17
ENDMDL
MODEL 3
REMARK VINA RESULT:      -9.4      5.047     10.673
REMARK SMILES O=C(OCCOC(=O)c1cccc(OCC(F)F)c1)c1ccc(-c2c3nc(c(-c4ccc(S(=O)(=O)[O-])cc4)c4ccc([nH]4)c(-c4ccc(S(=O)(=O)[O-])cc4)c4nc(c(-c5ccc(S(=O)(=O)[O-])cc5)c5ccc2[nH]5)C=C4)C=C3)cc1
REMARK SMILES IDX 4 1 3 2 2 3 1 4 20 5 21 6 79 7 22 8 78 9 23 10 24 11 25 12
REMARK SMILES IDX 72 13 26 14 77 15 71 16 73 17 27 18 76 19 70 20 69 21 28 23
REMARK SMILES IDX 58 24 39 25 57 26 40 27 43 28 56 29 74 30 41 31 42 32 55 34
REMARK SMILES IDX 75 35 44 36 29 37 30 38 38 39 31 40 37 41 32 42 33 43 34 44
REMARK SMILES IDX 35 45 36 46 59 47 60 48 68 49 61 50 67 51 62 52 63 53 64 54
REMARK SMILES IDX 65 55 66 56 45 57 46 58 54 59 47 60 53 61 48 62 49 63 50 64
REMARK SMILES IDX 51 65 52 66 5 67 6 68 7 69 8 70 9 71 10 72 19 73 11 74 13 75
REMARK SMILES IDX 12 76 14 77 15 78 16 79 17 80 18 81
REMARK H PARENT 73 22 43 33
REMARK Flexibility Score: inf
ROOT
ATOM      1  C   UNL A   1      32.339  29.576  26.949  1.00  0.00     0.275 C 
ENDROOT
BRANCH   1   2
ATOM      2  O   UNL A   1      33.641  30.185  26.955  1.00  0.00    -0.458 OA
BRANCH   2   3
ATOM      3  C   UNL A   1      34.423  30.634  27.963  1.00  0.00     0.338 C 
ATOM      4  O   UNL A   1      33.991  31.569  28.640  1.00  0.00    -0.246 OA
BRANCH   3   5
ATOM      5  C   UNL A   1      35.789  30.111  28.319  1.00  0.00     0.060 A 
ATOM      6  C   UNL A   1      36.219  29.680  29.576  1.00  0.00     0.016 A 
ATOM      7  C   UNL A   1      36.733  30.075  27.270  1.00  0.00     0.016 A 
ATOM      8  C   UNL A   1      37.541  29.273  29.789  1.00  0.00     0.010 A 
ATOM      9  C   UNL A   1      38.050  29.641  27.470  1.00  0.00     0.010 A 
ATOM     10  C   UNL A   1      38.471  29.274  28.747  1.00  0.00    -0.014 A 
BRANCH  10  11
ATOM     11  C   UNL A   1      39.895  29.022  29.064  1.00  0.00     0.031 A 
ATOM     12  C   UNL A   1      40.501  27.711  28.666  1.00  0.00     0.074 A 
ATOM     13  C   UNL A   1      40.656  29.990  29.604  1.00  0.00     0.049 A 
ATOM     14  N   UNL A   1      41.756  27.349  28.688  1.00  0.00    -0.248 NA
ATOM     15  C   UNL A   1      39.577  26.673  28.184  1.00  0.00     0.031 C 
ATOM     16  C   UNL A   1      40.153  31.289  30.034  1.00  0.00     0.029 A 
ATOM     17  N   UNL A   1      42.003  30.055  29.856  1.00  0.00    -0.354 N 
ATOM     18  C   UNL A   1      41.772  26.037  28.233  1.00  0.00     0.074 A 
ATOM     19  C   UNL A   1      40.401  25.661  27.964  1.00  0.00     0.031 C 
ATOM     20  C   UNL A   1      41.181  32.043  30.453  1.00  0.00     0.029 A 
ATOM     21  C   UNL A   1      42.417  31.286  30.315  1.00  0.00     0.049 A 
ATOM     22  H   UNL A   1      42.615  29.295  29.721  1.00  0.00     0.167 HD
ATOM     23  C   UNL A   1      42.835  25.218  28.062  1.00  0.00     0.031 A 
ATOM     24  C   UNL A   1      43.653  31.760  30.565  1.00  0.00     0.031 A 
ATOM     25  C   UNL A   1      44.188  25.593  28.369  1.00  0.00     0.049 A 
ATOM     26  C   UNL A   1      44.821  30.841  30.342  1.00  0.00     0.074 A 
ATOM     27  C   UNL A   1      45.339  24.834  28.269  1.00  0.00     0.029 A 
ATOM     28  N   UNL A   1      44.569  26.840  28.848  1.00  0.00    -0.354 N 
ATOM     29  N   UNL A   1      44.819  29.608  29.892  1.00  0.00    -0.248 NA
ATOM     30  C   UNL A   1      46.153  31.369  30.663  1.00  0.00     0.031 C 
ATOM     31  C   UNL A   1      46.412  25.610  28.727  1.00  0.00     0.029 A 
ATOM     32  C   UNL A   1      45.936  26.869  29.059  1.00  0.00     0.049 A 
ATOM     33  H   UNL A   1      43.956  27.592  29.011  1.00  0.00     0.167 HD
ATOM     34  C   UNL A   1      46.150  29.212  29.871  1.00  0.00     0.074 A 
ATOM     35  C   UNL A   1      46.929  30.349  30.321  1.00  0.00     0.031 C 
ATOM     36  C   UNL A   1      46.680  28.013  29.523  1.00  0.00     0.031 A 
BRANCH  23  37
ATOM     37  C   UNL A   1      42.540  23.823  27.585  1.00  0.00    -0.014 A 
ATOM     38  C   UNL A   1      42.280  22.780  28.493  1.00  0.00     0.010 A 
ATOM     39  C   UNL A   1      42.577  23.541  26.208  1.00  0.00     0.010 A 
ATOM     40  C   UNL A   1      42.118  21.470  28.035  1.00  0.00     0.020 A 
ATOM     41  C   UNL A   1      42.389  22.237  25.745  1.00  0.00     0.020 A 
ATOM     42  C   UNL A   1      42.185  21.205  26.664  1.00  0.00     0.054 A 
BRANCH  42  43
ATOM     43  S   UNL A   1      41.995  19.494  26.094  1.00  0.00     0.124 S 
ATOM     44  O   UNL A   1      42.465  18.739  27.253  1.00  0.00    -0.237 OA
ATOM     45  O   UNL A   1      40.564  19.402  25.823  1.00  0.00    -0.237 OA
ATOM     46  O   UNL A   1      42.856  19.425  24.915  1.00  0.00    -0.744 OA
ENDBRANCH  42  43
ENDBRANCH  23  37
BRANCH  24  47
ATOM     47  C   UNL A   1      43.848  33.172  31.008  1.00  0.00    -0.014 A 
ATOM     48  C   UNL A   1      43.964  33.487  32.375  1.00  0.00     0.010 A 
ATOM     49  C   UNL A   1      43.939  34.213  30.066  1.00  0.00     0.010 A 
ATOM     50  C   UNL A   1      44.154  34.810  32.790  1.00  0.00     0.020 A 
ATOM     51  C   UNL A   1      44.161  35.533  30.473  1.00  0.00     0.020 A 
ATOM     52  C   UNL A   1      44.253  35.825  31.835  1.00  0.00     0.054 A 
BRANCH  52  53
ATOM     53  S   UNL A   1      44.560  37.530  32.383  1.00  0.00     0.124 S 
ATOM     54  O   UNL A   1      43.841  37.573  33.652  1.00  0.00    -0.237 OA
ATOM     55  O   UNL A   1      46.017  37.575  32.478  1.00  0.00    -0.237 OA
ATOM     56  O   UNL A   1      43.989  38.338  31.309  1.00  0.00    -0.744 OA
ENDBRANCH  52  53
ENDBRANCH  24  47
BRANCH  36  57
ATOM     57  C   UNL A   1      48.175  27.885  29.607  1.00  0.00    -0.014 A 
ATOM     58  C   UNL A   1      48.803  27.477  30.798  1.00  0.00     0.010 A 
ATOM     59  C   UNL A   1      48.957  28.152  28.471  1.00  0.00     0.010 A 
ATOM     60  C   UNL A   1      50.194  27.379  30.861  1.00  0.00     0.020 A 
ATOM     61  C   UNL A   1      50.346  28.031  28.523  1.00  0.00     0.020 A 
ATOM     62  C   UNL A   1      50.957  27.663  29.724  1.00  0.00     0.054 A 
BRANCH  62  63
ATOM     63  S   UNL A   1      52.761  27.512  29.822  1.00  0.00     0.124 S 
ATOM     64  O   UNL A   1      52.997  27.643  31.257  1.00  0.00    -0.237 OA
ATOM     65  O   UNL A   1      53.004  26.184  29.263  1.00  0.00    -0.237 OA
ATOM     66  O   UNL A   1      53.245  28.624  29.007  1.00  0.00    -0.744 OA
ENDBRANCH  62  63
ENDBRANCH  36  57
ENDBRANCH  10  11
ENDBRANCH   3   5
ENDBRANCH   2   3
ENDBRANCH   1   2
BRANCH   1  67
ATOM     67  C   UNL A   1      32.225  28.379  26.004  1.00  0.00     0.275 C 
BRANCH  67  68
ATOM     68  O   UNL A   1      32.226  28.762  24.624  1.00  0.00    -0.458 OA
BRANCH  68  69
ATOM     69  C   UNL A   1      31.886  27.787  23.737  1.00  0.00     0.338 C 
ATOM     70  O   UNL A   1      32.572  26.859  23.361  1.00  0.00    -0.246 OA
BRANCH  69  71
ATOM     71  C   UNL A   1      30.465  27.975  23.382  1.00  0.00     0.063 A 
ATOM     72  C   UNL A   1      29.519  27.061  23.853  1.00  0.00     0.016 A 
ATOM     73  C   UNL A   1      30.074  29.095  22.640  1.00  0.00     0.062 A 
ATOM     74  C   UNL A   1      28.167  27.310  23.634  1.00  0.00     0.005 A 
ATOM     75  C   UNL A   1      28.726  29.344  22.417  1.00  0.00     0.120 A 
ATOM     76  C   UNL A   1      27.774  28.457  22.933  1.00  0.00     0.046 A 
BRANCH  75  77
ATOM     77  O   UNL A   1      28.220  30.447  21.788  1.00  0.00    -0.488 OA
BRANCH  77  78
ATOM     78  C   UNL A   1      28.919  31.694  21.908  1.00  0.00     0.302 C 
BRANCH  78  79
ATOM     79  C   UNL A   1      28.558  32.497  23.155  1.00  0.00     0.379 C 
ATOM     80  F   UNL A   1      29.119  31.941  24.262  1.00  0.00    -0.207 F 
ATOM     81  F   UNL A   1      29.093  33.742  23.065  1.00  0.00    -0.207 F 
ENDBRANCH  78  79
ENDBRANCH  77  78
ENDBRANCH  75  77
ENDBRANCH  69  71
ENDBRANCH  68  69
ENDBRANCH  67  68
ENDBRANCH   1  67
TORSDOF 17
ENDMDL
