MODEL 1
REMARK VINA RESULT:     -12.4      0.000      0.000
REMARK SMILES Cc1ccccc1NC(=O)CSc1nc(C(=O)OCCOC(=O)c2ccc(-c3c4nc(c(-c5ccc(S(=O)(=O)[O-])cc5)c5ccc([nH]5)c(-c5ccc(S(=O)(=O)[O-])cc5)c5nc(c(-c6ccc(S(=O)(=O)[O-])cc6)c6ccc3[nH]6)C=C5)C=C4)cc2)c2ccccc2n1
REMARK SMILES IDX 19 1 18 2 16 3 17 4 15 5 13 6 14 7 90 8 89 9 84 10 88 11
REMARK SMILES IDX 85 12 87 13 86 14 12 15 11 16 9 17 8 18 10 20 7 21 1 22 2 23
REMARK SMILES IDX 3 24 4 25 6 26 5 27 20 28 21 29 22 30 23 31 24 32 25 33
REMARK SMILES IDX 83 34 26 35 82 36 27 37 28 38 29 39 76 40 30 41 81 42 75 43
REMARK SMILES IDX 77 44 31 45 80 46 74 47 73 48 32 50 62 51 43 52 61 53 44 54
REMARK SMILES IDX 47 55 60 56 78 57 45 58 46 59 59 61 79 62 48 63 33 64 34 65
REMARK SMILES IDX 42 66 35 67 41 68 36 69 37 70 38 71 39 72 40 73 63 74 64 75
REMARK SMILES IDX 72 76 65 77 71 78 66 79 67 80 68 81 69 82 70 83 49 84 50 85
REMARK SMILES IDX 58 86 51 87 57 88 52 89 53 90 54 91 55 92 56 93
REMARK H PARENT 8 19 77 49 47 60
REMARK Flexibility Score: inf
ROOT
ATOM      1  C   UNL A   1      33.517  30.000  27.186  1.00  0.00     0.275 C 
ENDROOT
BRANCH   1   2
ATOM      2  O   UNL A   1      33.221  28.647  26.823  1.00  0.00    -0.457 OA
BRANCH   2   3
ATOM      3  C   UNL A   1      31.976  28.236  27.179  1.00  0.00     0.357 C 
ATOM      4  O   UNL A   1      31.304  28.684  28.079  1.00  0.00    -0.244 OA
BRANCH   3   5
ATOM      5  C   UNL A   1      31.543  27.169  26.236  1.00  0.00     0.160 A 
ATOM      6  C   UNL A   1      31.026  24.964  25.975  1.00  0.00     0.189 A 
ATOM      7  N   UNL A   1      31.577  25.911  26.732  1.00  0.00    -0.215 NA
ATOM      8  N   UNL A   1      30.365  25.209  24.835  1.00  0.00    -0.222 NA
ATOM      9  C   UNL A   1      30.318  26.474  24.390  1.00  0.00     0.076 A 
ATOM     10  C   UNL A   1      30.957  27.534  25.031  1.00  0.00     0.034 A 
ATOM     11  C   UNL A   1      29.550  26.769  23.272  1.00  0.00     0.029 A 
ATOM     12  C   UNL A   1      30.916  28.843  24.483  1.00  0.00     0.013 A 
ATOM     13  C   UNL A   1      29.451  28.067  22.758  1.00  0.00     0.002 A 
ATOM     14  C   UNL A   1      30.163  29.103  23.345  1.00  0.00     0.001 A 
BRANCH   6  15
ATOM     15  S   UNL A   1      30.824  23.346  26.674  1.00  0.00    -0.076 SA
BRANCH  15  16
ATOM     16  C   UNL A   1      31.067  22.267  25.228  1.00  0.00     0.178 C 
BRANCH  16  17
ATOM     17  C   UNL A   1      32.503  21.810  25.055  1.00  0.00     0.234 C 
ATOM     18  N   UNL A   1      33.454  22.490  24.345  1.00  0.00    -0.325 N 
ATOM     19  H   UNL A   1      34.328  22.037  24.340  1.00  0.00     0.169 HD
ATOM     20  O   UNL A   1      32.869  20.747  25.577  1.00  0.00    -0.274 OA
BRANCH  18  21
ATOM     21  C   UNL A   1      33.458  23.699  23.617  1.00  0.00     0.044 A 
ATOM     22  C   UNL A   1      34.838  24.869  25.471  1.00  0.00     0.046 C 
ATOM     23  C   UNL A   1      34.068  24.846  24.176  1.00  0.00    -0.027 A 
ATOM     24  C   UNL A   1      33.908  26.092  23.533  1.00  0.00     0.005 A 
ATOM     25  C   UNL A   1      33.226  26.202  22.325  1.00  0.00     0.000 A 
ATOM     26  C   UNL A   1      32.870  23.820  22.354  1.00  0.00     0.026 A 
ATOM     27  C   UNL A   1      32.735  25.057  21.720  1.00  0.00     0.002 A 
ENDBRANCH  18  21
ENDBRANCH  16  17
ENDBRANCH  15  16
ENDBRANCH   6  15
ENDBRANCH   3   5
ENDBRANCH   2   3
ENDBRANCH   1   2
BRANCH   1  28
ATOM     28  C   UNL A   1      35.007  30.264  27.502  1.00  0.00     0.275 C 
BRANCH  28  29
ATOM     29  O   UNL A   1      35.697  29.303  28.351  1.00  0.00    -0.458 OA
BRANCH  29  30
ATOM     30  C   UNL A   1      36.636  29.477  29.322  1.00  0.00     0.338 C 
ATOM     31  O   UNL A   1      36.339  29.853  30.452  1.00  0.00    -0.246 OA
BRANCH  30  32
ATOM     32  C   UNL A   1      37.994  28.944  29.095  1.00  0.00     0.060 A 
ATOM     33  C   UNL A   1      38.696  29.316  27.936  1.00  0.00     0.016 A 
ATOM     34  C   UNL A   1      38.628  28.198  30.071  1.00  0.00     0.016 A 
ATOM     35  C   UNL A   1      40.038  29.002  27.805  1.00  0.00     0.010 A 
ATOM     36  C   UNL A   1      39.996  28.147  30.089  1.00  0.00     0.010 A 
ATOM     37  C   UNL A   1      40.672  28.429  28.907  1.00  0.00    -0.014 A 
BRANCH  37  38
ATOM     38  C   UNL A   1      41.943  27.739  28.787  1.00  0.00     0.031 A 
ATOM     39  C   UNL A   1      41.897  26.327  28.408  1.00  0.00     0.074 A 
ATOM     40  C   UNL A   1      43.007  28.474  29.199  1.00  0.00     0.049 A 
ATOM     41  N   UNL A   1      42.299  25.337  29.124  1.00  0.00    -0.248 NA
ATOM     42  C   UNL A   1      41.233  25.912  27.168  1.00  0.00     0.031 C 
ATOM     43  C   UNL A   1      44.388  28.093  29.408  1.00  0.00     0.029 A 
ATOM     44  N   UNL A   1      42.948  29.762  29.773  1.00  0.00    -0.354 N 
ATOM     45  C   UNL A   1      42.371  24.272  28.249  1.00  0.00     0.074 A 
ATOM     46  C   UNL A   1      41.476  24.597  27.163  1.00  0.00     0.031 C 
ATOM     47  C   UNL A   1      44.877  28.880  30.394  1.00  0.00     0.029 A 
ATOM     48  C   UNL A   1      43.803  29.757  30.862  1.00  0.00     0.049 A 
ATOM     49  H   UNL A   1      42.403  30.520  29.460  1.00  0.00     0.167 HD
ATOM     50  C   UNL A   1      43.436  23.419  28.311  1.00  0.00     0.031 A 
ATOM     51  C   UNL A   1      43.267  29.846  32.116  1.00  0.00     0.031 A 
ATOM     52  C   UNL A   1      44.376  23.878  29.339  1.00  0.00     0.049 A 
ATOM     53  C   UNL A   1      43.484  28.533  32.835  1.00  0.00     0.074 A 
ATOM     54  C   UNL A   1      45.540  24.626  29.236  1.00  0.00     0.029 A 
ATOM     55  N   UNL A   1      43.962  23.988  30.666  1.00  0.00    -0.354 N 
ATOM     56  N   UNL A   1      43.597  27.380  32.225  1.00  0.00    -0.248 NA
ATOM     57  C   UNL A   1      43.722  28.439  34.269  1.00  0.00     0.031 C 
ATOM     58  C   UNL A   1      45.757  25.276  30.480  1.00  0.00     0.029 A 
ATOM     59  C   UNL A   1      44.730  24.925  31.341  1.00  0.00     0.049 A 
ATOM     60  H   UNL A   1      43.228  23.471  31.069  1.00  0.00     0.167 HD
ATOM     61  C   UNL A   1      44.071  26.446  33.113  1.00  0.00     0.074 A 
ATOM     62  C   UNL A   1      44.094  27.152  34.387  1.00  0.00     0.031 C 
ATOM     63  C   UNL A   1      44.492  25.194  32.754  1.00  0.00     0.031 A 
BRANCH  50  64
ATOM     64  C   UNL A   1      43.803  22.515  27.148  1.00  0.00    -0.014 A 
ATOM     65  C   UNL A   1      42.977  21.425  26.808  1.00  0.00     0.010 A 
ATOM     66  C   UNL A   1      44.973  22.672  26.376  1.00  0.00     0.010 A 
ATOM     67  C   UNL A   1      43.338  20.489  25.826  1.00  0.00     0.020 A 
ATOM     68  C   UNL A   1      45.366  21.725  25.413  1.00  0.00     0.020 A 
ATOM     69  C   UNL A   1      44.546  20.633  25.147  1.00  0.00     0.054 A 
BRANCH  69  70
ATOM     70  S   UNL A   1      45.011  19.392  23.907  1.00  0.00     0.124 S 
ATOM     71  O   UNL A   1      46.467  19.366  24.013  1.00  0.00    -0.237 OA
ATOM     72  O   UNL A   1      44.323  18.197  24.389  1.00  0.00    -0.237 OA
ATOM     73  O   UNL A   1      44.495  19.943  22.655  1.00  0.00    -0.744 OA
ENDBRANCH  69  70
ENDBRANCH  50  64
BRANCH  51  74
ATOM     74  C   UNL A   1      42.166  30.866  32.312  1.00  0.00    -0.014 A 
ATOM     75  C   UNL A   1      42.444  32.170  31.828  1.00  0.00     0.010 A 
ATOM     76  C   UNL A   1      40.841  30.615  32.722  1.00  0.00     0.010 A 
ATOM     77  C   UNL A   1      41.445  33.133  31.642  1.00  0.00     0.020 A 
ATOM     78  C   UNL A   1      39.824  31.600  32.560  1.00  0.00     0.020 A 
ATOM     79  C   UNL A   1      40.129  32.835  31.976  1.00  0.00     0.054 A 
BRANCH  79  80
ATOM     80  S   UNL A   1      38.868  34.061  31.493  1.00  0.00     0.124 S 
ATOM     81  O   UNL A   1      38.680  34.822  32.726  1.00  0.00    -0.237 OA
ATOM     82  O   UNL A   1      39.564  34.775  30.420  1.00  0.00    -0.237 OA
ATOM     83  O   UNL A   1      37.721  33.261  31.091  1.00  0.00    -0.744 OA
ENDBRANCH  79  80
ENDBRANCH  51  74
BRANCH  63  84
ATOM     84  C   UNL A   1      44.858  24.088  33.712  1.00  0.00    -0.014 A 
ATOM     85  C   UNL A   1      43.955  23.123  34.173  1.00  0.00     0.010 A 
ATOM     86  C   UNL A   1      46.224  23.909  34.051  1.00  0.00     0.010 A 
ATOM     87  C   UNL A   1      44.383  22.065  34.983  1.00  0.00     0.020 A 
ATOM     88  C   UNL A   1      46.670  22.827  34.804  1.00  0.00     0.020 A 
ATOM     89  C   UNL A   1      45.738  21.922  35.291  1.00  0.00     0.054 A 
BRANCH  89  90
ATOM     90  S   UNL A   1      46.293  20.505  36.264  1.00  0.00     0.124 S 
ATOM     91  O   UNL A   1      45.753  20.821  37.584  1.00  0.00    -0.237 OA
ATOM     92  O   UNL A   1      45.666  19.375  35.583  1.00  0.00    -0.237 OA
ATOM     93  O   UNL A   1      47.748  20.561  36.150  1.00  0.00    -0.744 OA
ENDBRANCH  89  90
ENDBRANCH  63  84
ENDBRANCH  37  38
ENDBRANCH  30  32
ENDBRANCH  29  30
ENDBRANCH  28  29
ENDBRANCH   1  28
TORSDOF 18
ENDMDL
MODEL 2
REMARK VINA RESULT:     -11.9      1.511      2.286
REMARK SMILES Cc1ccccc1NC(=O)CSc1nc(C(=O)OCCOC(=O)c2ccc(-c3c4nc(c(-c5ccc(S(=O)(=O)[O-])cc5)c5ccc([nH]5)c(-c5ccc(S(=O)(=O)[O-])cc5)c5nc(c(-c6ccc(S(=O)(=O)[O-])cc6)c6ccc3[nH]6)C=C5)C=C4)cc2)c2ccccc2n1
REMARK SMILES IDX 19 1 18 2 16 3 17 4 15 5 13 6 14 7 90 8 89 9 84 10 88 11
REMARK SMILES IDX 85 12 87 13 86 14 12 15 11 16 9 17 8 18 10 20 7 21 1 22 2 23
REMARK SMILES IDX 3 24 4 25 6 26 5 27 20 28 21 29 22 30 23 31 24 32 25 33
REMARK SMILES IDX 83 34 26 35 82 36 27 37 28 38 29 39 76 40 30 41 81 42 75 43
REMARK SMILES IDX 77 44 31 45 80 46 74 47 73 48 32 50 62 51 43 52 61 53 44 54
REMARK SMILES IDX 47 55 60 56 78 57 45 58 46 59 59 61 79 62 48 63 33 64 34 65
REMARK SMILES IDX 42 66 35 67 41 68 36 69 37 70 38 71 39 72 40 73 63 74 64 75
REMARK SMILES IDX 72 76 65 77 71 78 66 79 67 80 68 81 69 82 70 83 49 84 50 85
REMARK SMILES IDX 58 86 51 87 57 88 52 89 53 90 54 91 55 92 56 93
REMARK H PARENT 8 19 77 49 47 60
REMARK Flexibility Score: inf
ROOT
ATOM      1  C   UNL A   1      33.834  30.208  26.625  1.00  0.00     0.275 C 
ENDROOT
BRANCH   1   2
ATOM      2  O   UNL A   1      33.100  29.573  25.572  1.00  0.00    -0.457 OA
BRANCH   2   3
ATOM      3  C   UNL A   1      31.840  30.053  25.405  1.00  0.00     0.357 C 
ATOM      4  O   UNL A   1      31.302  30.899  26.080  1.00  0.00    -0.244 OA
BRANCH   3   5
ATOM      5  C   UNL A   1      31.240  29.399  24.211  1.00  0.00     0.160 A 
ATOM      6  C   UNL A   1      31.174  27.535  22.900  1.00  0.00     0.189 A 
ATOM      7  N   UNL A   1      31.805  28.225  23.849  1.00  0.00    -0.215 NA
ATOM      8  N   UNL A   1      29.987  27.886  22.385  1.00  0.00    -0.222 NA
ATOM      9  C   UNL A   1      29.436  29.039  22.793  1.00  0.00     0.076 A 
ATOM     10  C   UNL A   1      30.055  29.906  23.693  1.00  0.00     0.034 A 
ATOM     11  C   UNL A   1      28.160  29.370  22.357  1.00  0.00     0.029 A 
ATOM     12  C   UNL A   1      29.446  31.138  24.048  1.00  0.00     0.013 A 
ATOM     13  C   UNL A   1      27.522  30.552  22.749  1.00  0.00     0.002 A 
ATOM     14  C   UNL A   1      28.180  31.457  23.571  1.00  0.00     0.001 A 
BRANCH   6  15
ATOM     15  S   UNL A   1      31.729  25.886  22.556  1.00  0.00    -0.076 SA
BRANCH  15  16
ATOM     16  C   UNL A   1      30.636  24.883  23.611  1.00  0.00     0.178 C 
BRANCH  16  17
ATOM     17  C   UNL A   1      30.786  25.186  25.089  1.00  0.00     0.234 C 
ATOM     18  N   UNL A   1      31.860  24.818  25.853  1.00  0.00    -0.325 N 
ATOM     19  H   UNL A   1      31.778  25.099  26.793  1.00  0.00     0.169 HD
ATOM     20  O   UNL A   1      29.886  25.804  25.677  1.00  0.00    -0.274 OA
BRANCH  18  21
ATOM     21  C   UNL A   1      33.060  24.125  25.588  1.00  0.00     0.044 A 
ATOM     22  C   UNL A   1      31.811  21.855  25.612  1.00  0.00     0.046 C 
ATOM     23  C   UNL A   1      33.048  22.712  25.528  1.00  0.00    -0.027 A 
ATOM     24  C   UNL A   1      34.275  22.017  25.449  1.00  0.00     0.005 A 
ATOM     25  C   UNL A   1      35.486  22.694  25.356  1.00  0.00     0.000 A 
ATOM     26  C   UNL A   1      34.279  24.779  25.387  1.00  0.00     0.026 A 
ATOM     27  C   UNL A   1      35.484  24.078  25.292  1.00  0.00     0.002 A 
ENDBRANCH  18  21
ENDBRANCH  16  17
ENDBRANCH  15  16
ENDBRANCH   6  15
ENDBRANCH   3   5
ENDBRANCH   2   3
ENDBRANCH   1   2
BRANCH   1  28
ATOM     28  C   UNL A   1      34.887  29.303  27.304  1.00  0.00     0.275 C 
BRANCH  28  29
ATOM     29  O   UNL A   1      35.375  29.703  28.616  1.00  0.00    -0.458 OA
BRANCH  29  30
ATOM     30  C   UNL A   1      36.495  30.383  28.987  1.00  0.00     0.338 C 
ATOM     31  O   UNL A   1      36.436  31.474  29.546  1.00  0.00    -0.246 OA
BRANCH  30  32
ATOM     32  C   UNL A   1      37.791  29.676  28.965  1.00  0.00     0.060 A 
ATOM     33  C   UNL A   1      38.074  28.724  29.959  1.00  0.00     0.016 A 
ATOM     34  C   UNL A   1      38.664  29.843  27.905  1.00  0.00     0.016 A 
ATOM     35  C   UNL A   1      39.184  27.904  29.840  1.00  0.00     0.010 A 
ATOM     36  C   UNL A   1      39.573  28.858  27.629  1.00  0.00     0.010 A 
ATOM     37  C   UNL A   1      39.911  27.979  28.652  1.00  0.00    -0.014 A 
BRANCH  37  38
ATOM     38  C   UNL A   1      41.260  27.457  28.545  1.00  0.00     0.031 A 
ATOM     39  C   UNL A   1      41.397  26.035  28.230  1.00  0.00     0.074 A 
ATOM     40  C   UNL A   1      42.221  28.343  28.910  1.00  0.00     0.049 A 
ATOM     41  N   UNL A   1      41.932  25.140  28.983  1.00  0.00    -0.248 NA
ATOM     42  C   UNL A   1      40.784  25.480  27.019  1.00  0.00     0.031 C 
ATOM     43  C   UNL A   1      43.642  28.155  29.117  1.00  0.00     0.029 A 
ATOM     44  N   UNL A   1      41.999  29.637  29.427  1.00  0.00    -0.354 N 
ATOM     45  C   UNL A   1      42.136  24.055  28.155  1.00  0.00     0.074 A 
ATOM     46  C   UNL A   1      41.198  24.210  27.068  1.00  0.00     0.031 C 
ATOM     47  C   UNL A   1      44.032  29.044  30.060  1.00  0.00     0.029 A 
ATOM     48  C   UNL A   1      42.856  29.793  30.504  1.00  0.00     0.049 A 
ATOM     49  H   UNL A   1      41.356  30.302  29.088  1.00  0.00     0.167 HD
ATOM     50  C   UNL A   1      43.305  23.352  28.240  1.00  0.00     0.031 A 
ATOM     51  C   UNL A   1      42.321  29.868  31.760  1.00  0.00     0.031 A 
ATOM     52  C   UNL A   1      44.184  23.977  29.235  1.00  0.00     0.049 A 
ATOM     53  C   UNL A   1      42.714  28.629  32.533  1.00  0.00     0.074 A 
ATOM     54  C   UNL A   1      45.239  24.865  29.083  1.00  0.00     0.029 A 
ATOM     55  N   UNL A   1      43.769  24.091  30.561  1.00  0.00    -0.354 N 
ATOM     56  N   UNL A   1      42.974  27.474  31.973  1.00  0.00    -0.248 NA
ATOM     57  C   UNL A   1      42.974  28.633  33.966  1.00  0.00     0.031 C 
ATOM     58  C   UNL A   1      45.378  25.594  30.294  1.00  0.00     0.029 A 
ATOM     59  C   UNL A   1      44.412  25.151  31.183  1.00  0.00     0.049 A 
ATOM     60  H   UNL A   1      43.112  23.502  30.996  1.00  0.00     0.167 HD
ATOM     61  C   UNL A   1      43.573  26.652  32.895  1.00  0.00     0.074 A 
ATOM     62  C   UNL A   1      43.513  27.412  34.137  1.00  0.00     0.031 C 
ATOM     63  C   UNL A   1      44.151  25.450  32.586  1.00  0.00     0.031 A 
BRANCH  50  64
ATOM     64  C   UNL A   1      43.778  22.451  27.114  1.00  0.00    -0.014 A 
ATOM     65  C   UNL A   1      42.953  21.411  26.642  1.00  0.00     0.010 A 
ATOM     66  C   UNL A   1      45.046  22.563  26.506  1.00  0.00     0.010 A 
ATOM     67  C   UNL A   1      43.396  20.476  25.693  1.00  0.00     0.020 A 
ATOM     68  C   UNL A   1      45.517  21.614  25.580  1.00  0.00     0.020 A 
ATOM     69  C   UNL A   1      44.688  20.571  25.182  1.00  0.00     0.054 A 
BRANCH  69  70
ATOM     70  S   UNL A   1      45.253  19.330  23.984  1.00  0.00     0.124 S 
ATOM     71  O   UNL A   1      46.693  19.569  23.932  1.00  0.00    -0.237 OA
ATOM     72  O   UNL A   1      44.844  18.078  24.615  1.00  0.00    -0.237 OA
ATOM     73  O   UNL A   1      44.528  19.675  22.762  1.00  0.00    -0.744 OA
ENDBRANCH  69  70
ENDBRANCH  50  64
BRANCH  51  74
ATOM     74  C   UNL A   1      41.098  30.744  31.925  1.00  0.00    -0.014 A 
ATOM     75  C   UNL A   1      40.026  30.170  32.655  1.00  0.00     0.010 A 
ATOM     76  C   UNL A   1      40.991  32.116  31.622  1.00  0.00     0.010 A 
ATOM     77  C   UNL A   1      38.969  30.933  33.164  1.00  0.00     0.020 A 
ATOM     78  C   UNL A   1      39.904  32.894  32.116  1.00  0.00     0.020 A 
ATOM     79  C   UNL A   1      38.927  32.301  32.923  1.00  0.00     0.054 A 
BRANCH  79  80
ATOM     80  S   UNL A   1      37.642  33.245  33.809  1.00  0.00     0.124 S 
ATOM     81  O   UNL A   1      36.868  32.191  34.460  1.00  0.00    -0.237 OA
ATOM     82  O   UNL A   1      38.460  34.063  34.708  1.00  0.00    -0.237 OA
ATOM     83  O   UNL A   1      36.932  33.962  32.760  1.00  0.00    -0.744 OA
ENDBRANCH  79  80
ENDBRANCH  51  74
BRANCH  63  84
ATOM     84  C   UNL A   1      44.667  24.447  33.587  1.00  0.00    -0.014 A 
ATOM     85  C   UNL A   1      43.851  23.545  34.281  1.00  0.00     0.010 A 
ATOM     86  C   UNL A   1      46.070  24.289  33.728  1.00  0.00     0.010 A 
ATOM     87  C   UNL A   1      44.405  22.573  35.122  1.00  0.00     0.020 A 
ATOM     88  C   UNL A   1      46.633  23.287  34.513  1.00  0.00     0.020 A 
ATOM     89  C   UNL A   1      45.792  22.448  35.230  1.00  0.00     0.054 A 
BRANCH  89  90
ATOM     90  S   UNL A   1      46.498  21.135  36.250  1.00  0.00     0.124 S 
ATOM     91  O   UNL A   1      45.798  19.957  35.744  1.00  0.00    -0.237 OA
ATOM     92  O   UNL A   1      47.922  21.204  35.931  1.00  0.00    -0.237 OA
ATOM     93  O   UNL A   1      46.153  21.536  37.611  1.00  0.00    -0.744 OA
ENDBRANCH  89  90
ENDBRANCH  63  84
ENDBRANCH  37  38
ENDBRANCH  30  32
ENDBRANCH  29  30
ENDBRANCH  28  29
ENDBRANCH   1  28
TORSDOF 18
ENDMDL
MODEL 3
REMARK VINA RESULT:     -11.5      4.016     10.819
REMARK SMILES Cc1ccccc1NC(=O)CSc1nc(C(=O)OCCOC(=O)c2ccc(-c3c4nc(c(-c5ccc(S(=O)(=O)[O-])cc5)c5ccc([nH]5)c(-c5ccc(S(=O)(=O)[O-])cc5)c5nc(c(-c6ccc(S(=O)(=O)[O-])cc6)c6ccc3[nH]6)C=C5)C=C4)cc2)c2ccccc2n1
REMARK SMILES IDX 19 1 18 2 16 3 17 4 15 5 13 6 14 7 90 8 89 9 84 10 88 11
REMARK SMILES IDX 85 12 87 13 86 14 12 15 11 16 9 17 8 18 10 20 7 21 1 22 2 23
REMARK SMILES IDX 3 24 4 25 6 26 5 27 20 28 21 29 22 30 23 31 24 32 25 33
REMARK SMILES IDX 83 34 26 35 82 36 27 37 28 38 29 39 76 40 30 41 81 42 75 43
REMARK SMILES IDX 77 44 31 45 80 46 74 47 73 48 32 50 62 51 43 52 61 53 44 54
REMARK SMILES IDX 47 55 60 56 78 57 45 58 46 59 59 61 79 62 48 63 33 64 34 65
REMARK SMILES IDX 42 66 35 67 41 68 36 69 37 70 38 71 39 72 40 73 63 74 64 75
REMARK SMILES IDX 72 76 65 77 71 78 66 79 67 80 68 81 69 82 70 83 49 84 50 85
REMARK SMILES IDX 58 86 51 87 57 88 52 89 53 90 54 91 55 92 56 93
REMARK H PARENT 8 19 77 49 47 60
REMARK Flexibility Score: inf
ROOT
ATOM      1  C   UNL A   1      36.494  22.779  25.985  1.00  0.00     0.275 C 
ENDROOT
BRANCH   1   2
ATOM      2  O   UNL A   1      35.380  23.666  26.137  1.00  0.00    -0.457 OA
BRANCH   2   3
ATOM      3  C   UNL A   1      34.316  23.116  26.777  1.00  0.00     0.357 C 
ATOM      4  O   UNL A   1      34.338  22.548  27.845  1.00  0.00    -0.244 OA
BRANCH   3   5
ATOM      5  C   UNL A   1      33.093  23.374  25.969  1.00  0.00     0.160 A 
ATOM      6  C   UNL A   1      31.559  24.916  25.289  1.00  0.00     0.189 A 
ATOM      7  N   UNL A   1      32.541  24.598  26.130  1.00  0.00    -0.215 NA
ATOM      8  N   UNL A   1      31.181  24.149  24.256  1.00  0.00    -0.222 NA
ATOM      9  C   UNL A   1      31.776  22.956  24.103  1.00  0.00     0.076 A 
ATOM     10  C   UNL A   1      32.733  22.460  24.987  1.00  0.00     0.034 A 
ATOM     11  C   UNL A   1      31.480  22.193  22.982  1.00  0.00     0.029 A 
ATOM     12  C   UNL A   1      33.289  21.167  24.802  1.00  0.00     0.013 A 
ATOM     13  C   UNL A   1      32.068  20.943  22.756  1.00  0.00     0.002 A 
ATOM     14  C   UNL A   1      32.951  20.412  23.686  1.00  0.00     0.001 A 
BRANCH   6  15
ATOM     15  S   UNL A   1      30.964  26.587  25.293  1.00  0.00    -0.076 SA
BRANCH  15  16
ATOM     16  C   UNL A   1      30.077  26.685  23.706  1.00  0.00     0.178 C 
BRANCH  16  17
ATOM     17  C   UNL A   1      30.886  27.348  22.607  1.00  0.00     0.234 C 
ATOM     18  N   UNL A   1      30.671  28.617  22.142  1.00  0.00    -0.325 N 
ATOM     19  H   UNL A   1      31.293  28.874  21.424  1.00  0.00     0.169 HD
ATOM     20  O   UNL A   1      31.809  26.720  22.069  1.00  0.00    -0.274 OA
BRANCH  18  21
ATOM     21  C   UNL A   1      29.754  29.639  22.468  1.00  0.00     0.044 A 
ATOM     22  C   UNL A   1      31.058  30.185  24.639  1.00  0.00     0.046 C 
ATOM     23  C   UNL A   1      29.905  30.348  23.682  1.00  0.00    -0.027 A 
ATOM     24  C   UNL A   1      28.886  31.236  24.091  1.00  0.00     0.005 A 
ATOM     25  C   UNL A   1      27.775  31.481  23.291  1.00  0.00     0.000 A 
ATOM     26  C   UNL A   1      28.683  29.982  21.638  1.00  0.00     0.026 A 
ATOM     27  C   UNL A   1      27.691  30.877  22.047  1.00  0.00     0.002 A 
ENDBRANCH  18  21
ENDBRANCH  16  17
ENDBRANCH  15  16
ENDBRANCH   6  15
ENDBRANCH   3   5
ENDBRANCH   2   3
ENDBRANCH   1   2
BRANCH   1  28
ATOM     28  C   UNL A   1      37.843  23.489  25.726  1.00  0.00     0.275 C 
BRANCH  28  29
ATOM     29  O   UNL A   1      38.723  23.702  26.866  1.00  0.00    -0.458 OA
BRANCH  29  30
ATOM     30  C   UNL A   1      39.875  24.418  26.988  1.00  0.00     0.338 C 
ATOM     31  O   UNL A   1      40.859  24.189  26.292  1.00  0.00    -0.246 OA
BRANCH  30  32
ATOM     32  C   UNL A   1      39.851  25.667  27.776  1.00  0.00     0.060 A 
ATOM     33  C   UNL A   1      40.143  26.887  27.145  1.00  0.00     0.016 A 
ATOM     34  C   UNL A   1      39.412  25.661  29.088  1.00  0.00     0.016 A 
ATOM     35  C   UNL A   1      39.923  28.083  27.806  1.00  0.00     0.010 A 
ATOM     36  C   UNL A   1      38.916  26.815  29.631  1.00  0.00     0.010 A 
ATOM     37  C   UNL A   1      39.290  28.021  29.048  1.00  0.00    -0.014 A 
BRANCH  37  38
ATOM     38  C   UNL A   1      39.324  29.130  29.982  1.00  0.00     0.031 A 
ATOM     39  C   UNL A   1      38.389  30.230  29.739  1.00  0.00     0.074 A 
ATOM     40  C   UNL A   1      40.342  29.062  30.877  1.00  0.00     0.049 A 
ATOM     41  N   UNL A   1      38.705  31.446  29.469  1.00  0.00    -0.248 NA
ATOM     42  C   UNL A   1      36.948  29.974  29.658  1.00  0.00     0.031 C 
ATOM     43  C   UNL A   1      40.820  30.040  31.832  1.00  0.00     0.029 A 
ATOM     44  N   UNL A   1      41.352  28.077  30.906  1.00  0.00    -0.354 N 
ATOM     45  C   UNL A   1      37.541  32.165  29.654  1.00  0.00     0.074 A 
ATOM     46  C   UNL A   1      36.466  31.212  29.507  1.00  0.00     0.031 C 
ATOM     47  C   UNL A   1      42.148  29.832  31.988  1.00  0.00     0.029 A 
ATOM     48  C   UNL A   1      42.552  28.738  31.105  1.00  0.00     0.049 A 
ATOM     49  H   UNL A   1      41.227  27.105  30.803  1.00  0.00     0.167 HD
ATOM     50  C   UNL A   1      37.590  33.375  30.286  1.00  0.00     0.031 A 
ATOM     51  C   UNL A   1      43.463  28.762  30.085  1.00  0.00     0.031 A 
ATOM     52  C   UNL A   1      38.965  33.655  30.711  1.00  0.00     0.049 A 
ATOM     53  C   UNL A   1      43.581  30.179  29.570  1.00  0.00     0.074 A 
ATOM     54  C   UNL A   1      39.589  33.482  31.938  1.00  0.00     0.029 A 
ATOM     55  N   UNL A   1      39.987  33.735  29.765  1.00  0.00    -0.354 N 
ATOM     56  N   UNL A   1      42.616  31.062  29.641  1.00  0.00    -0.248 NA
ATOM     57  C   UNL A   1      44.826  30.743  29.065  1.00  0.00     0.031 C 
ATOM     58  C   UNL A   1      40.984  33.344  31.706  1.00  0.00     0.029 A 
ATOM     59  C   UNL A   1      41.211  33.433  30.343  1.00  0.00     0.049 A 
ATOM     60  H   UNL A   1      39.857  33.972  28.819  1.00  0.00     0.167 HD
ATOM     61  C   UNL A   1      43.124  32.307  29.364  1.00  0.00     0.074 A 
ATOM     62  C   UNL A   1      44.503  32.045  28.971  1.00  0.00     0.031 C 
ATOM     63  C   UNL A   1      42.432  33.474  29.547  1.00  0.00     0.031 A 
BRANCH  50  64
ATOM     64  C   UNL A   1      36.352  34.006  30.899  1.00  0.00    -0.014 A 
ATOM     65  C   UNL A   1      35.189  34.187  30.123  1.00  0.00     0.010 A 
ATOM     66  C   UNL A   1      36.291  34.472  32.228  1.00  0.00     0.010 A 
ATOM     67  C   UNL A   1      34.066  34.878  30.607  1.00  0.00     0.020 A 
ATOM     68  C   UNL A   1      35.188  35.197  32.717  1.00  0.00     0.020 A 
ATOM     69  C   UNL A   1      34.081  35.399  31.898  1.00  0.00     0.054 A 
BRANCH  69  70
ATOM     70  S   UNL A   1      32.634  36.321  32.490  1.00  0.00     0.124 S 
ATOM     71  O   UNL A   1      33.093  36.844  33.774  1.00  0.00    -0.237 OA
ATOM     72  O   UNL A   1      32.444  37.314  31.437  1.00  0.00    -0.237 OA
ATOM     73  O   UNL A   1      31.589  35.303  32.579  1.00  0.00    -0.744 OA
ENDBRANCH  69  70
ENDBRANCH  50  64
BRANCH  51  74
ATOM     74  C   UNL A   1      43.690  27.461  29.348  1.00  0.00    -0.014 A 
ATOM     75  C   UNL A   1      43.530  27.516  27.940  1.00  0.00     0.010 A 
ATOM     76  C   UNL A   1      44.240  26.274  29.873  1.00  0.00     0.010 A 
ATOM     77  C   UNL A   1      43.999  26.509  27.089  1.00  0.00     0.020 A 
ATOM     78  C   UNL A   1      44.698  25.233  29.013  1.00  0.00     0.020 A 
ATOM     79  C   UNL A   1      44.614  25.384  27.625  1.00  0.00     0.054 A 
BRANCH  79  80
ATOM     80  S   UNL A   1      45.392  24.237  26.438  1.00  0.00     0.124 S 
ATOM     81  O   UNL A   1      45.453  22.990  27.197  1.00  0.00    -0.237 OA
ATOM     82  O   UNL A   1      44.416  24.255  25.346  1.00  0.00    -0.237 OA
ATOM     83  O   UNL A   1      46.686  24.839  26.149  1.00  0.00    -0.744 OA
ENDBRANCH  79  80
ENDBRANCH  51  74
BRANCH  63  84
ATOM     84  C   UNL A   1      42.889  34.840  29.100  1.00  0.00    -0.014 A 
ATOM     85  C   UNL A   1      42.692  35.346  27.810  1.00  0.00     0.010 A 
ATOM     86  C   UNL A   1      43.411  35.732  30.072  1.00  0.00     0.010 A 
ATOM     87  C   UNL A   1      43.053  36.660  27.489  1.00  0.00     0.020 A 
ATOM     88  C   UNL A   1      43.716  37.058  29.779  1.00  0.00     0.020 A 
ATOM     89  C   UNL A   1      43.559  37.508  28.476  1.00  0.00     0.054 A 
BRANCH  89  90
ATOM     90  S   UNL A   1      43.941  39.227  28.073  1.00  0.00     0.124 S 
ATOM     91  O   UNL A   1      43.061  39.950  28.988  1.00  0.00    -0.237 OA
ATOM     92  O   UNL A   1      45.368  39.323  28.368  1.00  0.00    -0.237 OA
ATOM     93  O   UNL A   1      43.598  39.331  26.657  1.00  0.00    -0.744 OA
ENDBRANCH  89  90
ENDBRANCH  63  84
ENDBRANCH  37  38
ENDBRANCH  30  32
ENDBRANCH  29  30
ENDBRANCH  28  29
ENDBRANCH   1  28
TORSDOF 18
ENDMDL
