MODEL 1
REMARK VINA RESULT:     -11.2      0.000      0.000
REMARK SMILES CC(C)N(c1cc2c(cc1Cl)C=C(C(=O)OCCOC(=O)c1ccc(-c3c4nc(c(-c5ccc(S(=O)(=O)[O-])cc5)c5ccc([nH]5)c(-c5ccc(S(=O)(=O)[O-])cc5)c5nc(c(-c6ccc(S(=O)(=O)[O-])cc6)c6ccc3[nH]6)C=C5)C=C4)cc1)[C@@H](C(F)(F)F)O2)C(C)C
REMARK SMILES IDX 18 1 17 2 16 3 14 4 15 5 13 6 5 7 6 8 10 9 7 10 9 11 11 12
REMARK SMILES IDX 8 13 87 14 12 15 82 16 4 17 2 18 1 19 3 20 88 21 89 22 90 23
REMARK SMILES IDX 83 24 84 25 85 26 86 27 19 28 20 29 21 30 22 31 23 32 81 33
REMARK SMILES IDX 24 34 80 35 25 36 26 37 27 38 74 39 28 40 79 41 73 42 75 43
REMARK SMILES IDX 29 44 78 45 72 46 71 47 30 49 60 50 41 51 59 52 42 53 45 54
REMARK SMILES IDX 58 55 76 56 43 57 44 58 57 60 77 61 46 62 31 63 32 64 40 65
REMARK SMILES IDX 33 66 39 67 34 68 35 69 36 70 37 71 38 72 61 73 62 74 70 75
REMARK SMILES IDX 63 76 69 77 64 78 65 79 66 80 67 81 68 82 47 83 48 84 56 85
REMARK SMILES IDX 49 86 55 87 50 88 51 89 52 90 53 91 54 92
REMARK H PARENT 75 48 45 59
REMARK Flexibility Score: inf
ROOT
ATOM      1  C   UNL A   1      37.891  21.568  25.039  1.00  0.00     0.275 C 
ENDROOT
BRANCH   1   2
ATOM      2  C   UNL A   1      36.486  21.044  25.340  1.00  0.00     0.275 C 
BRANCH   2   3
ATOM      3  O   UNL A   1      35.567  21.322  24.259  1.00  0.00    -0.459 OA
BRANCH   3   4
ATOM      4  C   UNL A   1      34.267  21.068  24.531  1.00  0.00     0.338 C 
ATOM      5  O   UNL A   1      33.771  19.971  24.735  1.00  0.00    -0.246 OA
BRANCH   4   6
ATOM      6  C   UNL A   1      33.484  22.316  24.598  1.00  0.00     0.087 C 
ATOM      7  C   UNL A   1      32.124  27.162  24.090  1.00  0.00     0.060 A 
ATOM      8  C   UNL A   1      31.714  26.090  24.926  1.00  0.00     0.074 A 
ATOM      9  C   UNL A   1      33.074  26.860  23.088  1.00  0.00     0.065 A 
ATOM     10  C   UNL A   1      32.248  24.803  24.807  1.00  0.00     0.130 A 
ATOM     11  C   UNL A   1      33.563  25.563  22.931  1.00  0.00     0.034 A 
ATOM     12  Cl  UNL A   1      33.816  28.043  22.063  1.00  0.00    -0.082 Cl
ATOM     13  C   UNL A   1      33.167  24.550  23.801  1.00  0.00     0.019 A 
ATOM     14  O   UNL A   1      31.832  23.847  25.695  1.00  0.00    -0.475 OA
ATOM     15  C   UNL A   1      33.776  23.249  23.688  1.00  0.00     0.027 C 
ATOM     16  C   UNL A   1      32.545  22.567  25.740  1.00  0.00     0.316 C 
BRANCH   7  17
ATOM     17  N   UNL A   1      31.599  28.453  24.317  1.00  0.00    -0.365 N 
BRANCH  17  18
ATOM     18  C   UNL A   1      30.329  28.810  23.642  1.00  0.00     0.076 C 
ATOM     19  C   UNL A   1      30.549  29.501  22.297  1.00  0.00     0.030 C 
ATOM     20  C   UNL A   1      29.360  27.638  23.489  1.00  0.00     0.030 C 
ENDBRANCH  17  18
BRANCH  17  21
ATOM     21  C   UNL A   1      32.384  29.325  25.218  1.00  0.00     0.076 C 
ATOM     22  C   UNL A   1      31.578  30.494  25.777  1.00  0.00     0.030 C 
ATOM     23  C   UNL A   1      33.094  28.552  26.324  1.00  0.00     0.030 C 
ENDBRANCH  17  21
ENDBRANCH   7  17
BRANCH  16  24
ATOM     24  C   UNL A   1      33.274  22.441  27.088  1.00  0.00     0.430 C 
ATOM     25  F   UNL A   1      34.479  23.062  27.059  1.00  0.00    -0.167 F 
ATOM     26  F   UNL A   1      32.570  23.022  28.091  1.00  0.00    -0.167 F 
ATOM     27  F   UNL A   1      33.489  21.154  27.440  1.00  0.00    -0.167 F 
ENDBRANCH  16  24
ENDBRANCH   4   6
ENDBRANCH   3   4
ENDBRANCH   2   3
ENDBRANCH   1   2
BRANCH   1  28
ATOM     28  O   UNL A   1      38.146  22.787  25.761  1.00  0.00    -0.458 OA
BRANCH  28  29
ATOM     29  C   UNL A   1      39.392  22.905  26.271  1.00  0.00     0.338 C 
ATOM     30  O   UNL A   1      40.316  22.119  26.157  1.00  0.00    -0.246 OA
BRANCH  29  31
ATOM     31  C   UNL A   1      39.536  24.212  26.929  1.00  0.00     0.060 A 
ATOM     32  C   UNL A   1      39.129  24.420  28.240  1.00  0.00     0.016 A 
ATOM     33  C   UNL A   1      40.250  25.197  26.261  1.00  0.00     0.016 A 
ATOM     34  C   UNL A   1      39.445  25.634  28.864  1.00  0.00     0.010 A 
ATOM     35  C   UNL A   1      40.715  26.319  26.939  1.00  0.00     0.010 A 
ATOM     36  C   UNL A   1      40.283  26.583  28.241  1.00  0.00    -0.014 A 
BRANCH  36  37
ATOM     37  C   UNL A   1      40.692  27.846  28.930  1.00  0.00     0.031 A 
ATOM     38  C   UNL A   1      42.112  28.044  29.420  1.00  0.00     0.074 A 
ATOM     39  C   UNL A   1      39.778  28.818  29.144  1.00  0.00     0.049 A 
ATOM     40  N   UNL A   1      42.640  29.091  30.006  1.00  0.00    -0.248 NA
ATOM     41  C   UNL A   1      43.054  26.920  29.276  1.00  0.00     0.031 C 
ATOM     42  C   UNL A   1      38.352  28.723  28.820  1.00  0.00     0.029 A 
ATOM     43  N   UNL A   1      39.912  30.087  29.657  1.00  0.00    -0.354 N 
ATOM     44  C   UNL A   1      43.950  28.737  30.316  1.00  0.00     0.074 A 
ATOM     45  C   UNL A   1      44.119  27.358  29.932  1.00  0.00     0.031 C 
ATOM     46  C   UNL A   1      37.767  29.906  29.051  1.00  0.00     0.029 A 
ATOM     47  C   UNL A   1      38.756  30.834  29.589  1.00  0.00     0.049 A 
ATOM     48  H   UNL A   1      40.753  30.429  30.038  1.00  0.00     0.167 HD
ATOM     49  C   UNL A   1      44.944  29.503  30.823  1.00  0.00     0.031 A 
ATOM     50  C   UNL A   1      38.516  32.126  29.899  1.00  0.00     0.031 A 
ATOM     51  C   UNL A   1      44.797  30.900  31.134  1.00  0.00     0.049 A 
ATOM     52  C   UNL A   1      39.649  32.981  30.397  1.00  0.00     0.074 A 
ATOM     53  C   UNL A   1      45.768  31.786  31.564  1.00  0.00     0.029 A 
ATOM     54  N   UNL A   1      43.616  31.617  31.029  1.00  0.00    -0.354 N 
ATOM     55  N   UNL A   1      40.901  32.645  30.596  1.00  0.00    -0.248 NA
ATOM     56  C   UNL A   1      39.346  34.387  30.698  1.00  0.00     0.031 C 
ATOM     57  C   UNL A   1      45.164  33.026  31.770  1.00  0.00     0.029 A 
ATOM     58  C   UNL A   1      43.830  32.931  31.402  1.00  0.00     0.049 A 
ATOM     59  H   UNL A   1      42.753  31.246  30.732  1.00  0.00     0.167 HD
ATOM     60  C   UNL A   1      41.539  33.801  31.035  1.00  0.00     0.074 A 
ATOM     61  C   UNL A   1      40.541  34.851  31.047  1.00  0.00     0.031 C 
ATOM     62  C   UNL A   1      42.832  33.971  31.402  1.00  0.00     0.031 A 
BRANCH  49  63
ATOM     63  C   UNL A   1      46.309  28.884  31.015  1.00  0.00    -0.014 A 
ATOM     64  C   UNL A   1      47.237  28.877  29.957  1.00  0.00     0.010 A 
ATOM     65  C   UNL A   1      46.621  28.193  32.200  1.00  0.00     0.010 A 
ATOM     66  C   UNL A   1      48.434  28.163  30.067  1.00  0.00     0.020 A 
ATOM     67  C   UNL A   1      47.832  27.505  32.326  1.00  0.00     0.020 A 
ATOM     68  C   UNL A   1      48.718  27.472  31.248  1.00  0.00     0.054 A 
BRANCH  68  69
ATOM     69  S   UNL A   1      50.254  26.511  31.358  1.00  0.00     0.124 S 
ATOM     70  O   UNL A   1      50.919  26.849  30.104  1.00  0.00    -0.237 OA
ATOM     71  O   UNL A   1      50.876  27.042  32.568  1.00  0.00    -0.237 OA
ATOM     72  O   UNL A   1      49.784  25.131  31.464  1.00  0.00    -0.744 OA
ENDBRANCH  68  69
ENDBRANCH  49  63
BRANCH  50  73
ATOM     73  C   UNL A   1      37.158  32.692  29.658  1.00  0.00    -0.014 A 
ATOM     74  C   UNL A   1      36.791  33.160  28.381  1.00  0.00     0.010 A 
ATOM     75  C   UNL A   1      36.258  32.854  30.726  1.00  0.00     0.010 A 
ATOM     76  C   UNL A   1      35.580  33.832  28.192  1.00  0.00     0.020 A 
ATOM     77  C   UNL A   1      35.031  33.499  30.534  1.00  0.00     0.020 A 
ATOM     78  C   UNL A   1      34.715  34.013  29.275  1.00  0.00     0.054 A 
BRANCH  78  79
ATOM     79  S   UNL A   1      33.179  34.946  29.020  1.00  0.00     0.124 S 
ATOM     80  O   UNL A   1      32.484  34.117  28.040  1.00  0.00    -0.237 OA
ATOM     81  O   UNL A   1      32.591  34.967  30.357  1.00  0.00    -0.237 OA
ATOM     82  O   UNL A   1      33.644  36.241  28.527  1.00  0.00    -0.744 OA
ENDBRANCH  78  79
ENDBRANCH  50  73
BRANCH  62  83
ATOM     83  C   UNL A   1      43.276  35.335  31.858  1.00  0.00    -0.014 A 
ATOM     84  C   UNL A   1      43.026  35.742  33.182  1.00  0.00     0.010 A 
ATOM     85  C   UNL A   1      43.785  36.266  30.937  1.00  0.00     0.010 A 
ATOM     86  C   UNL A   1      43.233  37.069  33.566  1.00  0.00     0.020 A 
ATOM     87  C   UNL A   1      44.022  37.587  31.327  1.00  0.00     0.020 A 
ATOM     88  C   UNL A   1      43.716  37.986  32.630  1.00  0.00     0.054 A 
BRANCH  88  89
ATOM     89  S   UNL A   1      43.926  39.717  33.132  1.00  0.00     0.124 S 
ATOM     90  O   UNL A   1      45.009  40.161  32.258  1.00  0.00    -0.237 OA
ATOM     91  O   UNL A   1      42.614  40.293  32.850  1.00  0.00    -0.237 OA
ATOM     92  O   UNL A   1      44.266  39.623  34.550  1.00  0.00    -0.744 OA
ENDBRANCH  88  89
ENDBRANCH  62  83
ENDBRANCH  36  37
ENDBRANCH  29  31
ENDBRANCH  28  29
ENDBRANCH   1  28
TORSDOF 18
ENDMDL
MODEL 2
REMARK VINA RESULT:     -11.0      3.884      9.715
REMARK SMILES CC(C)N(c1cc2c(cc1Cl)C=C(C(=O)OCCOC(=O)c1ccc(-c3c4nc(c(-c5ccc(S(=O)(=O)[O-])cc5)c5ccc([nH]5)c(-c5ccc(S(=O)(=O)[O-])cc5)c5nc(c(-c6ccc(S(=O)(=O)[O-])cc6)c6ccc3[nH]6)C=C5)C=C4)cc1)[C@@H](C(F)(F)F)O2)C(C)C
REMARK SMILES IDX 18 1 17 2 16 3 14 4 15 5 13 6 5 7 6 8 10 9 7 10 9 11 11 12
REMARK SMILES IDX 8 13 87 14 12 15 82 16 4 17 2 18 1 19 3 20 88 21 89 22 90 23
REMARK SMILES IDX 83 24 84 25 85 26 86 27 19 28 20 29 21 30 22 31 23 32 81 33
REMARK SMILES IDX 24 34 80 35 25 36 26 37 27 38 74 39 28 40 79 41 73 42 75 43
REMARK SMILES IDX 29 44 78 45 72 46 71 47 30 49 60 50 41 51 59 52 42 53 45 54
REMARK SMILES IDX 58 55 76 56 43 57 44 58 57 60 77 61 46 62 31 63 32 64 40 65
REMARK SMILES IDX 33 66 39 67 34 68 35 69 36 70 37 71 38 72 61 73 62 74 70 75
REMARK SMILES IDX 63 76 69 77 64 78 65 79 66 80 67 81 68 82 47 83 48 84 56 85
REMARK SMILES IDX 49 86 55 87 50 88 51 89 52 90 53 91 54 92
REMARK H PARENT 75 48 45 59
REMARK Flexibility Score: inf
ROOT
ATOM      1  C   UNL A   1      32.248  30.719  26.796  1.00  0.00     0.275 C 
ENDROOT
BRANCH   1   2
ATOM      2  C   UNL A   1      31.949  30.077  25.440  1.00  0.00     0.275 C 
BRANCH   2   3
ATOM      3  O   UNL A   1      31.180  28.861  25.581  1.00  0.00    -0.459 OA
BRANCH   3   4
ATOM      4  C   UNL A   1      30.751  28.315  24.420  1.00  0.00     0.338 C 
ATOM      5  O   UNL A   1      29.968  28.818  23.629  1.00  0.00    -0.246 OA
BRANCH   4   6
ATOM      6  C   UNL A   1      31.389  27.007  24.181  1.00  0.00     0.087 C 
ATOM      7  C   UNL A   1      33.796  22.625  24.958  1.00  0.00     0.060 A 
ATOM      8  C   UNL A   1      33.576  23.460  23.831  1.00  0.00     0.074 A 
ATOM      9  C   UNL A   1      33.157  23.001  26.162  1.00  0.00     0.065 A 
ATOM     10  C   UNL A   1      32.806  24.625  23.902  1.00  0.00     0.130 A 
ATOM     11  C   UNL A   1      32.341  24.131  26.218  1.00  0.00     0.034 A 
ATOM     12  Cl  UNL A   1      33.407  22.213  27.684  1.00  0.00    -0.082 Cl
ATOM     13  C   UNL A   1      32.188  24.947  25.100  1.00  0.00     0.019 A 
ATOM     14  O   UNL A   1      32.697  25.397  22.775  1.00  0.00    -0.475 OA
ATOM     15  C   UNL A   1      31.433  26.169  25.219  1.00  0.00     0.027 C 
ATOM     16  C   UNL A   1      32.097  26.729  22.888  1.00  0.00     0.316 C 
BRANCH   7  17
ATOM     17  N   UNL A   1      34.648  21.507  24.832  1.00  0.00    -0.365 N 
BRANCH  17  18
ATOM     18  C   UNL A   1      36.100  21.760  24.674  1.00  0.00     0.076 C 
ATOM     19  C   UNL A   1      36.424  22.573  23.421  1.00  0.00     0.030 C 
ATOM     20  C   UNL A   1      36.756  22.388  25.903  1.00  0.00     0.030 C 
ENDBRANCH  17  18
BRANCH  17  21
ATOM     21  C   UNL A   1      33.993  20.182  24.873  1.00  0.00     0.076 C 
ATOM     22  C   UNL A   1      32.773  20.085  23.962  1.00  0.00     0.030 C 
ATOM     23  C   UNL A   1      34.964  19.030  24.636  1.00  0.00     0.030 C 
ENDBRANCH  17  21
ENDBRANCH   7  17
BRANCH  16  24
ATOM     24  C   UNL A   1      33.173  27.794  22.611  1.00  0.00     0.430 C 
ATOM     25  F   UNL A   1      33.957  27.999  23.698  1.00  0.00    -0.167 F 
ATOM     26  F   UNL A   1      34.004  27.412  21.609  1.00  0.00    -0.167 F 
ATOM     27  F   UNL A   1      32.642  28.986  22.263  1.00  0.00    -0.167 F 
ENDBRANCH  16  24
ENDBRANCH   4   6
ENDBRANCH   3   4
ENDBRANCH   2   3
ENDBRANCH   1   2
BRANCH   1  28
ATOM     28  O   UNL A   1      33.611  30.472  27.188  1.00  0.00    -0.458 OA
BRANCH  28  29
ATOM     29  C   UNL A   1      34.245  31.520  27.760  1.00  0.00     0.338 C 
ATOM     30  O   UNL A   1      33.785  32.622  28.001  1.00  0.00    -0.246 OA
BRANCH  29  31
ATOM     31  C   UNL A   1      35.598  31.115  28.169  1.00  0.00     0.060 A 
ATOM     32  C   UNL A   1      36.629  32.036  28.301  1.00  0.00     0.016 A 
ATOM     33  C   UNL A   1      35.782  29.805  28.590  1.00  0.00     0.016 A 
ATOM     34  C   UNL A   1      37.846  31.618  28.855  1.00  0.00     0.010 A 
ATOM     35  C   UNL A   1      36.921  29.442  29.300  1.00  0.00     0.010 A 
ATOM     36  C   UNL A   1      37.996  30.327  29.406  1.00  0.00    -0.014 A 
BRANCH  36  37
ATOM     37  C   UNL A   1      39.265  29.898  30.072  1.00  0.00     0.031 A 
ATOM     38  C   UNL A   1      39.709  30.518  31.382  1.00  0.00     0.074 A 
ATOM     39  C   UNL A   1      40.044  28.961  29.488  1.00  0.00     0.049 A 
ATOM     40  N   UNL A   1      40.763  30.236  32.107  1.00  0.00    -0.248 NA
ATOM     41  C   UNL A   1      38.899  31.618  31.933  1.00  0.00     0.031 C 
ATOM     42  C   UNL A   1      39.795  28.354  28.177  1.00  0.00     0.029 A 
ATOM     43  N   UNL A   1      41.186  28.334  29.926  1.00  0.00    -0.354 N 
ATOM     44  C   UNL A   1      40.748  31.134  33.171  1.00  0.00     0.074 A 
ATOM     45  C   UNL A   1      39.633  32.024  32.958  1.00  0.00     0.031 C 
ATOM     46  C   UNL A   1      40.693  27.381  27.964  1.00  0.00     0.029 A 
ATOM     47  C   UNL A   1      41.617  27.326  29.092  1.00  0.00     0.049 A 
ATOM     48  H   UNL A   1      41.652  28.580  30.758  1.00  0.00     0.167 HD
ATOM     49  C   UNL A   1      41.554  31.185  34.257  1.00  0.00     0.031 A 
ATOM     50  C   UNL A   1      42.624  26.437  29.222  1.00  0.00     0.031 A 
ATOM     51  C   UNL A   1      42.618  30.250  34.507  1.00  0.00     0.049 A 
ATOM     52  C   UNL A   1      43.467  26.464  30.468  1.00  0.00     0.074 A 
ATOM     53  C   UNL A   1      43.431  30.160  35.622  1.00  0.00     0.029 A 
ATOM     54  N   UNL A   1      43.002  29.236  33.645  1.00  0.00    -0.354 N 
ATOM     55  N   UNL A   1      43.375  27.267  31.500  1.00  0.00    -0.248 NA
ATOM     56  C   UNL A   1      44.536  25.462  30.576  1.00  0.00     0.031 C 
ATOM     57  C   UNL A   1      44.342  29.124  35.412  1.00  0.00     0.029 A 
ATOM     58  C   UNL A   1      44.052  28.525  34.196  1.00  0.00     0.049 A 
ATOM     59  H   UNL A   1      42.590  29.049  32.770  1.00  0.00     0.167 HD
ATOM     60  C   UNL A   1      44.366  26.860  32.387  1.00  0.00     0.074 A 
ATOM     61  C   UNL A   1      45.029  25.723  31.781  1.00  0.00     0.031 C 
ATOM     62  C   UNL A   1      44.699  27.388  33.589  1.00  0.00     0.031 A 
BRANCH  49  63
ATOM     63  C   UNL A   1      41.288  32.237  35.307  1.00  0.00    -0.014 A 
ATOM     64  C   UNL A   1      40.350  31.996  36.328  1.00  0.00     0.010 A 
ATOM     65  C   UNL A   1      41.868  33.515  35.205  1.00  0.00     0.010 A 
ATOM     66  C   UNL A   1      39.972  33.019  37.203  1.00  0.00     0.020 A 
ATOM     67  C   UNL A   1      41.518  34.532  36.098  1.00  0.00     0.020 A 
ATOM     68  C   UNL A   1      40.552  34.284  37.075  1.00  0.00     0.054 A 
BRANCH  68  69
ATOM     69  S   UNL A   1      40.017  35.615  38.187  1.00  0.00     0.124 S 
ATOM     70  O   UNL A   1      38.827  35.040  38.806  1.00  0.00    -0.237 OA
ATOM     71  O   UNL A   1      41.171  35.778  39.067  1.00  0.00    -0.237 OA
ATOM     72  O   UNL A   1      39.771  36.736  37.282  1.00  0.00    -0.744 OA
ENDBRANCH  68  69
ENDBRANCH  49  63
BRANCH  50  73
ATOM     73  C   UNL A   1      42.820  25.399  28.168  1.00  0.00    -0.014 A 
ATOM     74  C   UNL A   1      42.281  24.108  28.324  1.00  0.00     0.010 A 
ATOM     75  C   UNL A   1      43.628  25.669  27.050  1.00  0.00     0.010 A 
ATOM     76  C   UNL A   1      42.596  23.092  27.416  1.00  0.00     0.020 A 
ATOM     77  C   UNL A   1      43.920  24.663  26.121  1.00  0.00     0.020 A 
ATOM     78  C   UNL A   1      43.428  23.373  26.329  1.00  0.00     0.054 A 
BRANCH  78  79
ATOM     79  S   UNL A   1      43.877  22.024  25.201  1.00  0.00     0.124 S 
ATOM     80  O   UNL A   1      42.791  21.073  25.425  1.00  0.00    -0.237 OA
ATOM     81  O   UNL A   1      43.877  22.682  23.897  1.00  0.00    -0.237 OA
ATOM     82  O   UNL A   1      45.190  21.599  25.680  1.00  0.00    -0.744 OA
ENDBRANCH  78  79
ENDBRANCH  50  73
BRANCH  62  83
ATOM     83  C   UNL A   1      45.834  26.765  34.357  1.00  0.00    -0.014 A 
ATOM     84  C   UNL A   1      45.562  25.776  35.321  1.00  0.00     0.010 A 
ATOM     85  C   UNL A   1      47.139  27.275  34.245  1.00  0.00     0.010 A 
ATOM     86  C   UNL A   1      46.564  25.340  36.191  1.00  0.00     0.020 A 
ATOM     87  C   UNL A   1      48.151  26.818  35.094  1.00  0.00     0.020 A 
ATOM     88  C   UNL A   1      47.849  25.876  36.080  1.00  0.00     0.054 A 
BRANCH  88  89
ATOM     89  S   UNL A   1      49.124  25.339  37.254  1.00  0.00     0.124 S 
ATOM     90  O   UNL A   1      49.913  26.555  37.428  1.00  0.00    -0.237 OA
ATOM     91  O   UNL A   1      48.338  24.928  38.414  1.00  0.00    -0.237 OA
ATOM     92  O   UNL A   1      49.799  24.250  36.551  1.00  0.00    -0.744 OA
ENDBRANCH  88  89
ENDBRANCH  62  83
ENDBRANCH  36  37
ENDBRANCH  29  31
ENDBRANCH  28  29
ENDBRANCH   1  28
TORSDOF 18
ENDMDL
MODEL 3
REMARK VINA RESULT:     -10.9      2.532      3.257
REMARK SMILES CC(C)N(c1cc2c(cc1Cl)C=C(C(=O)OCCOC(=O)c1ccc(-c3c4nc(c(-c5ccc(S(=O)(=O)[O-])cc5)c5ccc([nH]5)c(-c5ccc(S(=O)(=O)[O-])cc5)c5nc(c(-c6ccc(S(=O)(=O)[O-])cc6)c6ccc3[nH]6)C=C5)C=C4)cc1)[C@@H](C(F)(F)F)O2)C(C)C
REMARK SMILES IDX 18 1 17 2 16 3 14 4 15 5 13 6 5 7 6 8 10 9 7 10 9 11 11 12
REMARK SMILES IDX 8 13 87 14 12 15 82 16 4 17 2 18 1 19 3 20 88 21 89 22 90 23
REMARK SMILES IDX 83 24 84 25 85 26 86 27 19 28 20 29 21 30 22 31 23 32 81 33
REMARK SMILES IDX 24 34 80 35 25 36 26 37 27 38 74 39 28 40 79 41 73 42 75 43
REMARK SMILES IDX 29 44 78 45 72 46 71 47 30 49 60 50 41 51 59 52 42 53 45 54
REMARK SMILES IDX 58 55 76 56 43 57 44 58 57 60 77 61 46 62 31 63 32 64 40 65
REMARK SMILES IDX 33 66 39 67 34 68 35 69 36 70 37 71 38 72 61 73 62 74 70 75
REMARK SMILES IDX 63 76 69 77 64 78 65 79 66 80 67 81 68 82 47 83 48 84 56 85
REMARK SMILES IDX 49 86 55 87 50 88 51 89 52 90 53 91 54 92
REMARK H PARENT 75 48 45 59
REMARK Flexibility Score: inf
ROOT
ATOM      1  C   UNL A   1      37.815  20.669  25.002  1.00  0.00     0.275 C 
ENDROOT
BRANCH   1   2
ATOM      2  C   UNL A   1      36.328  20.640  25.359  1.00  0.00     0.275 C 
BRANCH   2   3
ATOM      3  O   UNL A   1      35.519  21.262  24.336  1.00  0.00    -0.459 OA
BRANCH   3   4
ATOM      4  C   UNL A   1      34.188  21.046  24.446  1.00  0.00     0.338 C 
ATOM      5  O   UNL A   1      33.629  19.961  24.452  1.00  0.00    -0.246 OA
BRANCH   4   6
ATOM      6  C   UNL A   1      33.455  22.316  24.605  1.00  0.00     0.087 C 
ATOM      7  C   UNL A   1      32.247  27.224  24.375  1.00  0.00     0.060 A 
ATOM      8  C   UNL A   1      31.841  26.130  25.184  1.00  0.00     0.074 A 
ATOM      9  C   UNL A   1      33.135  26.934  23.313  1.00  0.00     0.065 A 
ATOM     10  C   UNL A   1      32.322  24.832  24.983  1.00  0.00     0.130 A 
ATOM     11  C   UNL A   1      33.568  25.630  23.076  1.00  0.00     0.034 A 
ATOM     12  Cl  UNL A   1      33.867  28.135  22.302  1.00  0.00    -0.082 Cl
ATOM     13  C   UNL A   1      33.180  24.593  23.922  1.00  0.00     0.019 A 
ATOM     14  O   UNL A   1      31.916  23.852  25.851  1.00  0.00    -0.475 OA
ATOM     15  C   UNL A   1      33.735  23.278  23.723  1.00  0.00     0.027 C 
ATOM     16  C   UNL A   1      32.584  22.549  25.804  1.00  0.00     0.316 C 
BRANCH   7  17
ATOM     17  N   UNL A   1      31.782  28.520  24.683  1.00  0.00    -0.365 N 
BRANCH  17  18
ATOM     18  C   UNL A   1      30.778  29.126  23.776  1.00  0.00     0.076 C 
ATOM     19  C   UNL A   1      29.645  28.163  23.422  1.00  0.00     0.030 C 
ATOM     20  C   UNL A   1      30.214  30.455  24.276  1.00  0.00     0.030 C 
ENDBRANCH  17  18
BRANCH  17  21
ATOM     21  C   UNL A   1      32.353  29.146  25.895  1.00  0.00     0.076 C 
ATOM     22  C   UNL A   1      31.647  28.723  27.180  1.00  0.00     0.030 C 
ATOM     23  C   UNL A   1      33.864  28.970  25.999  1.00  0.00     0.030 C 
ENDBRANCH  17  21
ENDBRANCH   7  17
BRANCH  16  24
ATOM     24  C   UNL A   1      33.374  22.338  27.107  1.00  0.00     0.430 C 
ATOM     25  F   UNL A   1      32.697  22.817  28.179  1.00  0.00    -0.167 F 
ATOM     26  F   UNL A   1      33.590  21.022  27.350  1.00  0.00    -0.167 F 
ATOM     27  F   UNL A   1      34.580  22.947  27.083  1.00  0.00    -0.167 F 
ENDBRANCH  16  24
ENDBRANCH   4   6
ENDBRANCH   3   4
ENDBRANCH   2   3
ENDBRANCH   1   2
BRANCH   1  28
ATOM     28  O   UNL A   1      38.462  21.805  25.603  1.00  0.00    -0.458 OA
BRANCH  28  29
ATOM     29  C   UNL A   1      39.521  21.514  26.392  1.00  0.00     0.338 C 
ATOM     30  O   UNL A   1      40.057  20.431  26.542  1.00  0.00    -0.246 OA
BRANCH  29  31
ATOM     31  C   UNL A   1      40.039  22.749  27.000  1.00  0.00     0.060 A 
ATOM     32  C   UNL A   1      41.103  22.735  27.891  1.00  0.00     0.016 A 
ATOM     33  C   UNL A   1      39.547  23.959  26.527  1.00  0.00     0.016 A 
ATOM     34  C   UNL A   1      41.658  23.954  28.305  1.00  0.00     0.010 A 
ATOM     35  C   UNL A   1      40.213  25.149  26.797  1.00  0.00     0.010 A 
ATOM     36  C   UNL A   1      41.253  25.177  27.729  1.00  0.00    -0.014 A 
BRANCH  36  37
ATOM     37  C   UNL A   1      41.895  26.475  28.104  1.00  0.00     0.031 A 
ATOM     38  C   UNL A   1      43.338  26.766  27.744  1.00  0.00     0.074 A 
ATOM     39  C   UNL A   1      41.189  27.396  28.796  1.00  0.00     0.049 A 
ATOM     40  N   UNL A   1      44.036  27.853  27.965  1.00  0.00    -0.248 NA
ATOM     41  C   UNL A   1      44.116  25.697  27.093  1.00  0.00     0.031 C 
ATOM     42  C   UNL A   1      39.825  27.210  29.300  1.00  0.00     0.029 A 
ATOM     43  N   UNL A   1      41.504  28.679  29.174  1.00  0.00    -0.354 N 
ATOM     44  C   UNL A   1      45.322  27.584  27.506  1.00  0.00     0.074 A 
ATOM     45  C   UNL A   1      45.337  26.209  27.070  1.00  0.00     0.031 C 
ATOM     46  C   UNL A   1      39.390  28.361  29.831  1.00  0.00     0.029 A 
ATOM     47  C   UNL A   1      40.455  29.356  29.758  1.00  0.00     0.049 A 
ATOM     48  H   UNL A   1      42.394  29.078  29.041  1.00  0.00     0.167 HD
ATOM     49  C   UNL A   1      46.384  28.417  27.402  1.00  0.00     0.031 A 
ATOM     50  C   UNL A   1      40.346  30.637  30.169  1.00  0.00     0.031 A 
ATOM     51  C   UNL A   1      46.346  29.808  27.765  1.00  0.00     0.049 A 
ATOM     52  C   UNL A   1      41.513  31.567  29.984  1.00  0.00     0.074 A 
ATOM     53  C   UNL A   1      47.340  30.758  27.611  1.00  0.00     0.029 A 
ATOM     54  N   UNL A   1      45.258  30.452  28.332  1.00  0.00    -0.354 N 
ATOM     55  N   UNL A   1      42.690  31.310  29.464  1.00  0.00    -0.248 NA
ATOM     56  C   UNL A   1      41.339  32.958  30.424  1.00  0.00     0.031 C 
ATOM     57  C   UNL A   1      46.872  31.964  28.133  1.00  0.00     0.029 A 
ATOM     58  C   UNL A   1      45.562  31.783  28.549  1.00  0.00     0.049 A 
ATOM     59  H   UNL A   1      44.396  30.025  28.547  1.00  0.00     0.167 HD
ATOM     60  C   UNL A   1      43.392  32.509  29.503  1.00  0.00     0.074 A 
ATOM     61  C   UNL A   1      42.501  33.499  30.074  1.00  0.00     0.031 C 
ATOM     62  C   UNL A   1      44.663  32.762  29.109  1.00  0.00     0.031 A 
BRANCH  49  63
ATOM     63  C   UNL A   1      47.667  27.883  26.810  1.00  0.00    -0.014 A 
ATOM     64  C   UNL A   1      48.745  27.546  27.649  1.00  0.00     0.010 A 
ATOM     65  C   UNL A   1      47.851  27.842  25.416  1.00  0.00     0.010 A 
ATOM     66  C   UNL A   1      49.991  27.213  27.107  1.00  0.00     0.020 A 
ATOM     67  C   UNL A   1      49.084  27.477  24.869  1.00  0.00     0.020 A 
ATOM     68  C   UNL A   1      50.154  27.191  25.720  1.00  0.00     0.054 A 
BRANCH  68  69
ATOM     69  S   UNL A   1      51.788  26.803  25.032  1.00  0.00     0.124 S 
ATOM     70  O   UNL A   1      52.648  27.761  25.720  1.00  0.00    -0.237 OA
ATOM     71  O   UNL A   1      51.970  25.404  25.411  1.00  0.00    -0.237 OA
ATOM     72  O   UNL A   1      51.617  27.033  23.599  1.00  0.00    -0.744 OA
ENDBRANCH  68  69
ENDBRANCH  49  63
BRANCH  50  73
ATOM     73  C   UNL A   1      39.043  31.117  30.716  1.00  0.00    -0.014 A 
ATOM     74  C   UNL A   1      38.099  31.740  29.878  1.00  0.00     0.010 A 
ATOM     75  C   UNL A   1      38.783  31.040  32.096  1.00  0.00     0.010 A 
ATOM     76  C   UNL A   1      36.951  32.330  30.416  1.00  0.00     0.020 A 
ATOM     77  C   UNL A   1      37.620  31.601  32.635  1.00  0.00     0.020 A 
ATOM     78  C   UNL A   1      36.728  32.271  31.795  1.00  0.00     0.054 A 
BRANCH  78  79
ATOM     79  S   UNL A   1      35.266  33.101  32.479  1.00  0.00     0.124 S 
ATOM     80  O   UNL A   1      34.180  32.415  31.784  1.00  0.00    -0.237 OA
ATOM     81  O   UNL A   1      35.375  32.817  33.908  1.00  0.00    -0.237 OA
ATOM     82  O   UNL A   1      35.461  34.500  32.108  1.00  0.00    -0.744 OA
ENDBRANCH  78  79
ENDBRANCH  50  73
BRANCH  62  83
ATOM     83  C   UNL A   1      45.201  34.159  29.271  1.00  0.00    -0.014 A 
ATOM     84  C   UNL A   1      45.758  34.552  30.504  1.00  0.00     0.010 A 
ATOM     85  C   UNL A   1      45.005  35.122  28.268  1.00  0.00     0.010 A 
ATOM     86  C   UNL A   1      46.065  35.892  30.746  1.00  0.00     0.020 A 
ATOM     87  C   UNL A   1      45.341  36.459  28.497  1.00  0.00     0.020 A 
ATOM     88  C   UNL A   1      45.840  36.839  29.745  1.00  0.00     0.054 A 
BRANCH  88  89
ATOM     89  S   UNL A   1      46.193  38.584  30.097  1.00  0.00     0.124 S 
ATOM     90  O   UNL A   1      46.219  38.603  31.557  1.00  0.00    -0.237 OA
ATOM     91  O   UNL A   1      47.482  38.789  29.442  1.00  0.00    -0.237 OA
ATOM     92  O   UNL A   1      45.071  39.290  29.483  1.00  0.00    -0.744 OA
ENDBRANCH  88  89
ENDBRANCH  62  83
ENDBRANCH  36  37
ENDBRANCH  29  31
ENDBRANCH  28  29
ENDBRANCH   1  28
TORSDOF 18
ENDMDL
