MODEL 1
REMARK VINA RESULT:     -12.2      0.000      0.000
REMARK SMILES C[C@]12CC[C@H]3[C@@H](CCC4=CC(=O)C=C[C@@]43C)[C@@H]1CC[C@H]2O[C@@H]1O[C@H](C(=O)OCCOC(=O)c2ccc(-c3c4nc(c(-c5ccc(S(=O)(=O)[O-])cc5)c5ccc([nH]5)c(-c5ccc(S(=O)(=O)[O-])cc5)c5nc(c(-c6ccc(S(=O)(=O)[O-])cc6)c6ccc3[nH]6)C=C5)C=C4)cc2)[C@@H](O)[C@H](O)[C@H]1O
REMARK SMILES IDX 29 1 28 2 27 3 25 4 26 5 24 6 22 7 23 8 97 9 95 10 93 11
REMARK SMILES IDX 21 12 20 13 1 14 2 15 3 16 17 17 4 18 6 19 18 20 19 21 5 22
REMARK SMILES IDX 7 23 15 24 8 25 9 26 14 27 16 28 10 29 13 30 11 31 12 32
REMARK SMILES IDX 98 33 96 35 94 37 30 39 31 40 32 41 33 42 34 43 92 44 35 45
REMARK SMILES IDX 91 46 36 47 37 48 38 49 85 50 39 51 90 52 84 53 86 54 40 55
REMARK SMILES IDX 89 56 83 57 82 58 41 60 71 61 52 62 70 63 53 64 56 65 69 66
REMARK SMILES IDX 87 67 54 68 55 69 68 71 88 72 57 73 42 74 43 75 51 76 44 77
REMARK SMILES IDX 50 78 45 79 46 80 47 81 48 82 49 83 72 84 73 85 81 86 74 87
REMARK SMILES IDX 80 88 75 89 76 90 77 91 78 92 79 93 58 94 59 95 67 96 60 97
REMARK SMILES IDX 66 98 61 99 62 100 63 101 64 102 65 103
REMARK H PARENT 98 34 96 36 94 38 86 59 56 70
REMARK Flexibility Score: inf
ROOT
ATOM      1  C   UNL A   1      41.183  23.016  26.962  1.00  0.00     0.275 C 
ENDROOT
BRANCH   1   2
ATOM      2  C   UNL A   1      40.355  21.837  26.447  1.00  0.00     0.274 C 
BRANCH   2   3
ATOM      3  O   UNL A   1      41.183  20.962  25.654  1.00  0.00    -0.460 OA
BRANCH   3   4
ATOM      4  C   UNL A   1      42.082  20.202  26.317  1.00  0.00     0.338 C 
ATOM      5  O   UNL A   1      41.869  19.617  27.374  1.00  0.00    -0.249 OA
BRANCH   4   6
ATOM      6  C   UNL A   1      43.445  20.130  25.621  1.00  0.00     0.262 C 
ATOM      7  C   UNL A   1      45.504  21.214  24.998  1.00  0.00     0.282 C 
ATOM      8  O   UNL A   1      44.299  21.261  25.767  1.00  0.00    -0.332 OA
ATOM      9  C   UNL A   1      46.236  19.844  25.007  1.00  0.00     0.202 C 
ATOM     10  C   UNL A   1      45.298  18.631  25.052  1.00  0.00     0.180 C 
ATOM     11  C   UNL A   1      44.188  18.875  26.083  1.00  0.00     0.186 C 
BRANCH   7  12
ATOM     12  O   UNL A   1      46.354  22.354  25.221  1.00  0.00    -0.346 OA
BRANCH  12  13
ATOM     13  C   UNL A   1      46.046  23.744  25.074  1.00  0.00     0.127 C 
ATOM     14  C   UNL A   1      44.826  25.816  25.918  1.00  0.00     0.014 C 
ATOM     15  C   UNL A   1      45.626  24.543  26.343  1.00  0.00    -0.003 C 
ATOM     16  C   UNL A   1      44.806  23.800  27.393  1.00  0.00     0.010 C 
ATOM     17  C   UNL A   1      47.009  24.895  26.899  1.00  0.00     0.001 C 
ATOM     18  C   UNL A   1      44.693  24.610  28.700  1.00  0.00     0.006 C 
ATOM     19  C   UNL A   1      47.000  25.711  28.191  1.00  0.00    -0.003 C 
ATOM     20  C   UNL A   1      47.784  25.391  25.670  1.00  0.00     0.007 C 
ATOM     21  C   UNL A   1      47.125  24.664  24.467  1.00  0.00     0.033 C 
ATOM     22  C   UNL A   1      46.067  25.049  29.266  1.00  0.00     0.006 C 
ATOM     23  C   UNL A   1      48.427  25.786  28.771  1.00  0.00     0.009 C 
ATOM     24  C   UNL A   1      46.017  25.915  30.583  1.00  0.00     0.010 C 
ATOM     25  C   UNL A   1      48.490  26.540  30.096  1.00  0.00     0.032 C 
ATOM     26  C   UNL A   1      47.460  26.060  31.094  1.00  0.00    -0.056 C 
ATOM     27  C   UNL A   1      45.117  25.302  31.652  1.00  0.00    -0.012 C 
ATOM     28  C   UNL A   1      45.433  27.322  30.341  1.00  0.00     0.021 C 
ATOM     29  C   UNL A   1      47.836  25.753  32.349  1.00  0.00     0.052 C 
ATOM     30  C   UNL A   1      45.490  25.022  32.909  1.00  0.00     0.048 C 
ATOM     31  C   UNL A   1      46.883  25.228  33.347  1.00  0.00     0.178 C 
ATOM     32  O   UNL A   1      47.244  24.927  34.477  1.00  0.00    -0.290 OA
ENDBRANCH  12  13
ENDBRANCH   7  12
BRANCH   9  33
ATOM     33  O   UNL A   1      47.161  19.740  23.913  1.00  0.00    -0.385 OA
ATOM     34  H   UNL A   1      46.768  19.202  23.209  1.00  0.00     0.211 HD
ENDBRANCH   9  33
BRANCH  10  35
ATOM     35  O   UNL A   1      46.055  17.454  25.376  1.00  0.00    -0.387 OA
ATOM     36  H   UNL A   1      46.811  17.700  25.934  1.00  0.00     0.211 HD
ENDBRANCH  10  35
BRANCH  11  37
ATOM     37  O   UNL A   1      43.394  17.701  26.225  1.00  0.00    -0.387 OA
ATOM     38  H   UNL A   1      43.964  16.951  26.454  1.00  0.00     0.211 HD
ENDBRANCH  11  37
ENDBRANCH   4   6
ENDBRANCH   3   4
ENDBRANCH   2   3
ENDBRANCH   1   2
BRANCH   1  39
ATOM     39  O   UNL A   1      40.373  24.187  27.004  1.00  0.00    -0.458 OA
BRANCH  39  40
ATOM     40  C   UNL A   1      40.971  25.304  26.532  1.00  0.00     0.338 C 
ATOM     41  O   UNL A   1      41.276  25.577  25.389  1.00  0.00    -0.246 OA
BRANCH  40  42
ATOM     42  C   UNL A   1      40.899  26.253  27.639  1.00  0.00     0.060 A 
ATOM     43  C   UNL A   1      39.811  26.152  28.510  1.00  0.00     0.016 A 
ATOM     44  C   UNL A   1      41.957  27.132  27.871  1.00  0.00     0.016 A 
ATOM     45  C   UNL A   1      39.787  26.929  29.653  1.00  0.00     0.010 A 
ATOM     46  C   UNL A   1      41.926  27.924  29.004  1.00  0.00     0.010 A 
ATOM     47  C   UNL A   1      40.831  27.833  29.878  1.00  0.00    -0.014 A 
BRANCH  47  48
ATOM     48  C   UNL A   1      40.666  28.861  30.909  1.00  0.00     0.031 A 
ATOM     49  C   UNL A   1      41.557  28.759  32.109  1.00  0.00     0.074 A 
ATOM     50  C   UNL A   1      39.758  29.834  30.743  1.00  0.00     0.049 A 
ATOM     51  N   UNL A   1      41.557  29.471  33.198  1.00  0.00    -0.248 NA
ATOM     52  C   UNL A   1      42.580  27.693  32.084  1.00  0.00     0.031 C 
ATOM     53  C   UNL A   1      38.896  29.998  29.569  1.00  0.00     0.029 A 
ATOM     54  N   UNL A   1      39.407  30.866  31.566  1.00  0.00    -0.354 N 
ATOM     55  C   UNL A   1      42.552  28.922  33.998  1.00  0.00     0.074 A 
ATOM     56  C   UNL A   1      43.122  27.806  33.285  1.00  0.00     0.031 C 
ATOM     57  C   UNL A   1      38.111  31.074  29.752  1.00  0.00     0.029 A 
ATOM     58  C   UNL A   1      38.387  31.640  31.067  1.00  0.00     0.049 A 
ATOM     59  H   UNL A   1      39.843  31.039  32.430  1.00  0.00     0.167 HD
ATOM     60  C   UNL A   1      42.946  29.329  35.224  1.00  0.00     0.031 A 
ATOM     61  C   UNL A   1      37.743  32.672  31.641  1.00  0.00     0.031 A 
ATOM     62  C   UNL A   1      42.348  30.451  35.892  1.00  0.00     0.049 A 
ATOM     63  C   UNL A   1      38.191  33.091  33.018  1.00  0.00     0.074 A 
ATOM     64  C   UNL A   1      42.650  30.980  37.131  1.00  0.00     0.029 A 
ATOM     65  N   UNL A   1      41.320  31.219  35.359  1.00  0.00    -0.354 N 
ATOM     66  N   UNL A   1      39.133  32.567  33.771  1.00  0.00    -0.248 NA
ATOM     67  C   UNL A   1      37.506  34.240  33.617  1.00  0.00     0.031 C 
ATOM     68  C   UNL A   1      41.770  32.041  37.367  1.00  0.00     0.029 A 
ATOM     69  C   UNL A   1      40.968  32.216  36.247  1.00  0.00     0.049 A 
ATOM     70  H   UNL A   1      40.906  31.075  34.477  1.00  0.00     0.167 HD
ATOM     71  C   UNL A   1      39.178  33.347  34.920  1.00  0.00     0.074 A 
ATOM     72  C   UNL A   1      38.177  34.385  34.751  1.00  0.00     0.031 C 
ATOM     73  C   UNL A   1      39.969  33.228  36.017  1.00  0.00     0.031 A 
BRANCH  60  74
ATOM     74  C   UNL A   1      44.025  28.541  35.914  1.00  0.00    -0.014 A 
ATOM     75  C   UNL A   1      43.724  27.419  36.708  1.00  0.00     0.010 A 
ATOM     76  C   UNL A   1      45.370  28.916  35.746  1.00  0.00     0.010 A 
ATOM     77  C   UNL A   1      44.746  26.699  37.334  1.00  0.00     0.020 A 
ATOM     78  C   UNL A   1      46.396  28.183  36.347  1.00  0.00     0.020 A 
ATOM     79  C   UNL A   1      46.077  27.082  37.144  1.00  0.00     0.054 A 
BRANCH  79  80
ATOM     80  S   UNL A   1      47.385  26.091  37.915  1.00  0.00     0.124 S 
ATOM     81  O   UNL A   1      48.510  26.315  37.010  1.00  0.00    -0.237 OA
ATOM     82  O   UNL A   1      47.511  26.702  39.235  1.00  0.00    -0.237 OA
ATOM     83  O   UNL A   1      46.843  24.734  37.908  1.00  0.00    -0.744 OA
ENDBRANCH  79  80
ENDBRANCH  60  74
BRANCH  61  84
ATOM     84  C   UNL A   1      36.622  33.353  30.935  1.00  0.00    -0.014 A 
ATOM     85  C   UNL A   1      36.809  33.932  29.669  1.00  0.00     0.010 A 
ATOM     86  C   UNL A   1      35.348  33.422  31.532  1.00  0.00     0.010 A 
ATOM     87  C   UNL A   1      35.757  34.598  29.028  1.00  0.00     0.020 A 
ATOM     88  C   UNL A   1      34.286  34.057  30.882  1.00  0.00     0.020 A 
ATOM     89  C   UNL A   1      34.502  34.658  29.642  1.00  0.00     0.054 A 
BRANCH  89  90
ATOM     90  S   UNL A   1      33.149  35.513  28.787  1.00  0.00     0.124 S 
ATOM     91  O   UNL A   1      33.869  36.513  28.005  1.00  0.00    -0.237 OA
ATOM     92  O   UNL A   1      32.528  34.435  28.020  1.00  0.00    -0.237 OA
ATOM     93  O   UNL A   1      32.334  36.040  29.879  1.00  0.00    -0.744 OA
ENDBRANCH  89  90
ENDBRANCH  61  84
BRANCH  73  94
ATOM     94  C   UNL A   1      39.822  34.284  37.074  1.00  0.00    -0.014 A 
ATOM     95  C   UNL A   1      40.478  35.522  36.969  1.00  0.00     0.010 A 
ATOM     96  C   UNL A   1      38.965  34.043  38.163  1.00  0.00     0.010 A 
ATOM     97  C   UNL A   1      40.314  36.487  37.965  1.00  0.00     0.020 A 
ATOM     98  C   UNL A   1      38.771  35.017  39.140  1.00  0.00     0.020 A 
ATOM     99  C   UNL A   1      39.462  36.226  39.044  1.00  0.00     0.054 A 
BRANCH  99 100
ATOM    100  S   UNL A   1      39.243  37.506  40.307  1.00  0.00     0.124 S 
ATOM    101  O   UNL A   1      38.907  36.712  41.486  1.00  0.00    -0.237 OA
ATOM    102  O   UNL A   1      40.552  38.154  40.336  1.00  0.00    -0.237 OA
ATOM    103  O   UNL A   1      38.157  38.330  39.780  1.00  0.00    -0.744 OA
ENDBRANCH  99 100
ENDBRANCH  73  94
ENDBRANCH  47  48
ENDBRANCH  40  42
ENDBRANCH  39  40
ENDBRANCH   1  39
TORSDOF 19
ENDMDL
MODEL 2
REMARK VINA RESULT:     -12.1      5.298     14.143
REMARK SMILES C[C@]12CC[C@H]3[C@@H](CCC4=CC(=O)C=C[C@@]43C)[C@@H]1CC[C@H]2O[C@@H]1O[C@H](C(=O)OCCOC(=O)c2ccc(-c3c4nc(c(-c5ccc(S(=O)(=O)[O-])cc5)c5ccc([nH]5)c(-c5ccc(S(=O)(=O)[O-])cc5)c5nc(c(-c6ccc(S(=O)(=O)[O-])cc6)c6ccc3[nH]6)C=C5)C=C4)cc2)[C@@H](O)[C@H](O)[C@H]1O
REMARK SMILES IDX 29 1 28 2 27 3 25 4 26 5 24 6 22 7 23 8 97 9 95 10 93 11
REMARK SMILES IDX 21 12 20 13 1 14 2 15 3 16 17 17 4 18 6 19 18 20 19 21 5 22
REMARK SMILES IDX 7 23 15 24 8 25 9 26 14 27 16 28 10 29 13 30 11 31 12 32
REMARK SMILES IDX 98 33 96 35 94 37 30 39 31 40 32 41 33 42 34 43 92 44 35 45
REMARK SMILES IDX 91 46 36 47 37 48 38 49 85 50 39 51 90 52 84 53 86 54 40 55
REMARK SMILES IDX 89 56 83 57 82 58 41 60 71 61 52 62 70 63 53 64 56 65 69 66
REMARK SMILES IDX 87 67 54 68 55 69 68 71 88 72 57 73 42 74 43 75 51 76 44 77
REMARK SMILES IDX 50 78 45 79 46 80 47 81 48 82 49 83 72 84 73 85 81 86 74 87
REMARK SMILES IDX 80 88 75 89 76 90 77 91 78 92 79 93 58 94 59 95 67 96 60 97
REMARK SMILES IDX 66 98 61 99 62 100 63 101 64 102 65 103
REMARK H PARENT 98 34 96 36 94 38 86 59 56 70
REMARK Flexibility Score: inf
ROOT
ATOM      1  C   UNL A   1      35.419  31.817  29.529  1.00  0.00     0.275 C 
ENDROOT
BRANCH   1   2
ATOM      2  C   UNL A   1      35.276  32.829  28.392  1.00  0.00     0.274 C 
BRANCH   2   3
ATOM      3  O   UNL A   1      35.078  34.153  28.931  1.00  0.00    -0.460 OA
BRANCH   3   4
ATOM      4  C   UNL A   1      33.813  34.499  29.258  1.00  0.00     0.338 C 
ATOM      5  O   UNL A   1      32.823  34.295  28.561  1.00  0.00    -0.249 OA
BRANCH   4   6
ATOM      6  C   UNL A   1      33.709  35.199  30.616  1.00  0.00     0.262 C 
ATOM      7  C   UNL A   1      34.525  35.473  32.866  1.00  0.00     0.282 C 
ATOM      8  O   UNL A   1      34.726  34.906  31.569  1.00  0.00    -0.332 OA
ATOM      9  C   UNL A   1      34.041  36.949  32.870  1.00  0.00     0.202 C 
ATOM     10  C   UNL A   1      33.096  37.302  31.714  1.00  0.00     0.180 C 
ATOM     11  C   UNL A   1      33.638  36.713  30.405  1.00  0.00     0.186 C 
BRANCH   7  12
ATOM     12  O   UNL A   1      35.605  35.190  33.774  1.00  0.00    -0.346 OA
BRANCH  12  13
ATOM     13  C   UNL A   1      36.206  33.928  34.087  1.00  0.00     0.127 C 
ATOM     14  C   UNL A   1      37.670  31.967  33.379  1.00  0.00     0.014 C 
ATOM     15  C   UNL A   1      37.498  33.518  33.320  1.00  0.00    -0.003 C 
ATOM     16  C   UNL A   1      37.608  33.950  31.861  1.00  0.00     0.010 C 
ATOM     17  C   UNL A   1      38.547  34.243  34.169  1.00  0.00     0.001 C 
ATOM     18  C   UNL A   1      39.029  33.721  31.308  1.00  0.00     0.006 C 
ATOM     19  C   UNL A   1      39.992  34.065  33.706  1.00  0.00    -0.003 C 
ATOM     20  C   UNL A   1      38.145  33.910  35.613  1.00  0.00     0.007 C 
ATOM     21  C   UNL A   1      36.614  33.665  35.551  1.00  0.00     0.033 C 
ATOM     22  C   UNL A   1      40.132  34.379  32.174  1.00  0.00     0.006 C 
ATOM     23  C   UNL A   1      40.911  35.030  34.482  1.00  0.00     0.009 C 
ATOM     24  C   UNL A   1      41.613  34.149  31.682  1.00  0.00     0.010 C 
ATOM     25  C   UNL A   1      42.367  34.951  34.034  1.00  0.00     0.032 C 
ATOM     26  C   UNL A   1      42.526  35.048  32.533  1.00  0.00    -0.056 C 
ATOM     27  C   UNL A   1      41.788  34.444  30.195  1.00  0.00    -0.012 C 
ATOM     28  C   UNL A   1      42.067  32.685  31.845  1.00  0.00     0.021 C 
ATOM     29  C   UNL A   1      43.410  35.916  32.007  1.00  0.00     0.052 C 
ATOM     30  C   UNL A   1      42.688  35.291  29.675  1.00  0.00     0.048 C 
ATOM     31  C   UNL A   1      43.566  36.090  30.549  1.00  0.00     0.178 C 
ATOM     32  O   UNL A   1      44.355  36.902  30.085  1.00  0.00    -0.290 OA
ENDBRANCH  12  13
ENDBRANCH   7  12
BRANCH   9  33
ATOM     33  O   UNL A   1      33.463  37.304  34.135  1.00  0.00    -0.385 OA
ATOM     34  H   UNL A   1      33.264  36.498  34.637  1.00  0.00     0.211 HD
ENDBRANCH   9  33
BRANCH  10  35
ATOM     35  O   UNL A   1      32.967  38.730  31.623  1.00  0.00    -0.387 OA
ATOM     36  H   UNL A   1      32.042  38.960  31.439  1.00  0.00     0.211 HD
ENDBRANCH  10  35
BRANCH  11  37
ATOM     37  O   UNL A   1      32.838  37.150  29.310  1.00  0.00    -0.387 OA
ATOM     38  H   UNL A   1      32.064  36.572  29.225  1.00  0.00     0.211 HD
ENDBRANCH  11  37
ENDBRANCH   4   6
ENDBRANCH   3   4
ENDBRANCH   2   3
ENDBRANCH   1   2
BRANCH   1  39
ATOM     39  O   UNL A   1      36.286  30.762  29.124  1.00  0.00    -0.458 OA
BRANCH  39  40
ATOM     40  C   UNL A   1      36.858  30.080  30.141  1.00  0.00     0.338 C 
ATOM     41  O   UNL A   1      36.334  29.616  31.135  1.00  0.00    -0.246 OA
BRANCH  40  42
ATOM     42  C   UNL A   1      38.192  29.743  29.653  1.00  0.00     0.060 A 
ATOM     43  C   UNL A   1      39.148  29.356  30.596  1.00  0.00     0.016 A 
ATOM     44  C   UNL A   1      38.439  29.691  28.281  1.00  0.00     0.016 A 
ATOM     45  C   UNL A   1      40.372  28.885  30.162  1.00  0.00     0.010 A 
ATOM     46  C   UNL A   1      39.669  29.236  27.845  1.00  0.00     0.010 A 
ATOM     47  C   UNL A   1      40.637  28.856  28.788  1.00  0.00    -0.014 A 
BRANCH  47  48
ATOM     48  C   UNL A   1      42.016  28.650  28.338  1.00  0.00     0.031 A 
ATOM     49  C   UNL A   1      42.386  27.261  27.916  1.00  0.00     0.074 A 
ATOM     50  C   UNL A   1      42.870  29.684  28.310  1.00  0.00     0.049 A 
ATOM     51  N   UNL A   1      43.547  26.788  27.569  1.00  0.00    -0.248 NA
ATOM     52  C   UNL A   1      41.296  26.263  27.901  1.00  0.00     0.031 C 
ATOM     53  C   UNL A   1      42.542  31.066  28.672  1.00  0.00     0.029 A 
ATOM     54  N   UNL A   1      44.191  29.731  27.964  1.00  0.00    -0.354 N 
ATOM     55  C   UNL A   1      43.336  25.435  27.326  1.00  0.00     0.074 A 
ATOM     56  C   UNL A   1      41.946  25.155  27.585  1.00  0.00     0.031 C 
ATOM     57  C   UNL A   1      43.641  31.827  28.528  1.00  0.00     0.029 A 
ATOM     58  C   UNL A   1      44.750  30.977  28.110  1.00  0.00     0.049 A 
ATOM     59  H   UNL A   1      44.692  28.948  27.641  1.00  0.00     0.167 HD
ATOM     60  C   UNL A   1      44.240  24.518  26.920  1.00  0.00     0.031 A 
ATOM     61  C   UNL A   1      46.029  31.361  27.945  1.00  0.00     0.031 A 
ATOM     62  C   UNL A   1      45.615  24.848  26.673  1.00  0.00     0.049 A 
ATOM     63  C   UNL A   1      47.019  30.310  27.511  1.00  0.00     0.074 A 
ATOM     64  C   UNL A   1      46.639  24.024  26.251  1.00  0.00     0.029 A 
ATOM     65  N   UNL A   1      46.151  26.122  26.824  1.00  0.00    -0.354 N 
ATOM     66  N   UNL A   1      46.814  29.032  27.283  1.00  0.00    -0.248 NA
ATOM     67  C   UNL A   1      48.401  30.749  27.299  1.00  0.00     0.031 C 
ATOM     68  C   UNL A   1      47.807  24.790  26.194  1.00  0.00     0.029 A 
ATOM     69  C   UNL A   1      47.496  26.106  26.511  1.00  0.00     0.049 A 
ATOM     70  H   UNL A   1      45.646  26.917  27.109  1.00  0.00     0.167 HD
ATOM     71  C   UNL A   1      48.036  28.520  26.865  1.00  0.00     0.074 A 
ATOM     72  C   UNL A   1      48.967  29.634  26.860  1.00  0.00     0.031 C 
ATOM     73  C   UNL A   1      48.369  27.252  26.514  1.00  0.00     0.031 A 
BRANCH  60  74
ATOM     74  C   UNL A   1      43.777  23.095  26.765  1.00  0.00    -0.014 A 
ATOM     75  C   UNL A   1      43.091  22.427  27.796  1.00  0.00     0.010 A 
ATOM     76  C   UNL A   1      44.011  22.421  25.553  1.00  0.00     0.010 A 
ATOM     77  C   UNL A   1      42.665  21.107  27.625  1.00  0.00     0.020 A 
ATOM     78  C   UNL A   1      43.562  21.110  25.368  1.00  0.00     0.020 A 
ATOM     79  C   UNL A   1      42.897  20.458  26.409  1.00  0.00     0.054 A 
BRANCH  79  80
ATOM     80  S   UNL A   1      42.276  18.768  26.192  1.00  0.00     0.124 S 
ATOM     81  O   UNL A   1      40.907  19.004  25.741  1.00  0.00    -0.237 OA
ATOM     82  O   UNL A   1      43.183  18.223  25.184  1.00  0.00    -0.237 OA
ATOM     83  O   UNL A   1      42.401  18.179  27.523  1.00  0.00    -0.744 OA
ENDBRANCH  79  80
ENDBRANCH  60  74
BRANCH  61  84
ATOM     84  C   UNL A   1      46.437  32.770  28.202  1.00  0.00    -0.014 A 
ATOM     85  C   UNL A   1      46.366  33.740  27.187  1.00  0.00     0.010 A 
ATOM     86  C   UNL A   1      46.898  33.153  29.476  1.00  0.00     0.010 A 
ATOM     87  C   UNL A   1      46.782  35.055  27.430  1.00  0.00     0.020 A 
ATOM     88  C   UNL A   1      47.284  34.472  29.732  1.00  0.00     0.020 A 
ATOM     89  C   UNL A   1      47.241  35.411  28.702  1.00  0.00     0.054 A 
BRANCH  89  90
ATOM     90  S   UNL A   1      47.762  37.124  28.998  1.00  0.00     0.124 S 
ATOM     91  O   UNL A   1      47.559  37.258  30.436  1.00  0.00    -0.237 OA
ATOM     92  O   UNL A   1      49.152  37.113  28.551  1.00  0.00    -0.237 OA
ATOM     93  O   UNL A   1      46.853  37.906  28.162  1.00  0.00    -0.744 OA
ENDBRANCH  89  90
ENDBRANCH  61  84
BRANCH  73  94
ATOM     94  C   UNL A   1      49.775  27.030  26.035  1.00  0.00    -0.014 A 
ATOM     95  C   UNL A   1      50.800  26.656  26.920  1.00  0.00     0.010 A 
ATOM     96  C   UNL A   1      50.053  27.148  24.661  1.00  0.00     0.010 A 
ATOM     97  C   UNL A   1      52.095  26.448  26.442  1.00  0.00     0.020 A 
ATOM     98  C   UNL A   1      51.336  26.906  24.175  1.00  0.00     0.020 A 
ATOM     99  C   UNL A   1      52.353  26.575  25.073  1.00  0.00     0.054 A 
BRANCH  99 100
ATOM    100  S   UNL A   1      54.036  26.271  24.473  1.00  0.00     0.124 S 
ATOM    101  O   UNL A   1      53.894  26.516  23.040  1.00  0.00    -0.237 OA
ATOM    102  O   UNL A   1      54.821  27.261  25.207  1.00  0.00    -0.237 OA
ATOM    103  O   UNL A   1      54.290  24.881  24.846  1.00  0.00    -0.744 OA
ENDBRANCH  99 100
ENDBRANCH  73  94
ENDBRANCH  47  48
ENDBRANCH  40  42
ENDBRANCH  39  40
ENDBRANCH   1  39
TORSDOF 19
ENDMDL
MODEL 3
REMARK VINA RESULT:     -11.9      5.222     14.449
REMARK SMILES C[C@]12CC[C@H]3[C@@H](CCC4=CC(=O)C=C[C@@]43C)[C@@H]1CC[C@H]2O[C@@H]1O[C@H](C(=O)OCCOC(=O)c2ccc(-c3c4nc(c(-c5ccc(S(=O)(=O)[O-])cc5)c5ccc([nH]5)c(-c5ccc(S(=O)(=O)[O-])cc5)c5nc(c(-c6ccc(S(=O)(=O)[O-])cc6)c6ccc3[nH]6)C=C5)C=C4)cc2)[C@@H](O)[C@H](O)[C@H]1O
REMARK SMILES IDX 29 1 28 2 27 3 25 4 26 5 24 6 22 7 23 8 97 9 95 10 93 11
REMARK SMILES IDX 21 12 20 13 1 14 2 15 3 16 17 17 4 18 6 19 18 20 19 21 5 22
REMARK SMILES IDX 7 23 15 24 8 25 9 26 14 27 16 28 10 29 13 30 11 31 12 32
REMARK SMILES IDX 98 33 96 35 94 37 30 39 31 40 32 41 33 42 34 43 92 44 35 45
REMARK SMILES IDX 91 46 36 47 37 48 38 49 85 50 39 51 90 52 84 53 86 54 40 55
REMARK SMILES IDX 89 56 83 57 82 58 41 60 71 61 52 62 70 63 53 64 56 65 69 66
REMARK SMILES IDX 87 67 54 68 55 69 68 71 88 72 57 73 42 74 43 75 51 76 44 77
REMARK SMILES IDX 50 78 45 79 46 80 47 81 48 82 49 83 72 84 73 85 81 86 74 87
REMARK SMILES IDX 80 88 75 89 76 90 77 91 78 92 79 93 58 94 59 95 67 96 60 97
REMARK SMILES IDX 66 98 61 99 62 100 63 101 64 102 65 103
REMARK H PARENT 98 34 96 36 94 38 86 59 56 70
REMARK Flexibility Score: inf
ROOT
ATOM      1  C   UNL A   1      35.585  31.986  29.656  1.00  0.00     0.275 C 
ENDROOT
BRANCH   1   2
ATOM      2  C   UNL A   1      34.387  32.193  28.729  1.00  0.00     0.274 C 
BRANCH   2   3
ATOM      3  O   UNL A   1      33.507  33.197  29.276  1.00  0.00    -0.460 OA
BRANCH   3   4
ATOM      4  C   UNL A   1      33.966  34.467  29.301  1.00  0.00     0.338 C 
ATOM      5  O   UNL A   1      34.462  35.057  28.345  1.00  0.00    -0.249 OA
BRANCH   4   6
ATOM      6  C   UNL A   1      33.822  35.137  30.670  1.00  0.00     0.262 C 
ATOM      7  C   UNL A   1      34.627  35.426  32.923  1.00  0.00     0.282 C 
ATOM      8  O   UNL A   1      34.859  34.893  31.616  1.00  0.00    -0.332 OA
ATOM      9  C   UNL A   1      34.051  36.868  32.952  1.00  0.00     0.202 C 
ATOM     10  C   UNL A   1      33.082  37.180  31.804  1.00  0.00     0.180 C 
ATOM     11  C   UNL A   1      33.656  36.647  30.484  1.00  0.00     0.186 C 
BRANCH   7  12
ATOM     12  O   UNL A   1      35.726  35.196  33.823  1.00  0.00    -0.346 OA
BRANCH  12  13
ATOM     13  C   UNL A   1      36.339  33.955  34.193  1.00  0.00     0.127 C 
ATOM     14  C   UNL A   1      37.946  32.058  33.637  1.00  0.00     0.014 C 
ATOM     15  C   UNL A   1      37.721  33.602  33.568  1.00  0.00    -0.003 C 
ATOM     16  C   UNL A   1      37.969  34.052  32.131  1.00  0.00     0.010 C 
ATOM     17  C   UNL A   1      38.642  34.359  34.529  1.00  0.00     0.001 C 
ATOM     18  C   UNL A   1      39.450  33.883  31.734  1.00  0.00     0.006 C 
ATOM     19  C   UNL A   1      40.135  34.241  34.223  1.00  0.00    -0.003 C 
ATOM     20  C   UNL A   1      38.101  33.997  35.919  1.00  0.00     0.007 C 
ATOM     21  C   UNL A   1      36.596  33.694  35.691  1.00  0.00     0.033 C 
ATOM     22  C   UNL A   1      40.427  34.574  32.717  1.00  0.00     0.006 C 
ATOM     23  C   UNL A   1      40.927  35.233  35.100  1.00  0.00     0.009 C 
ATOM     24  C   UNL A   1      41.959  34.406  32.387  1.00  0.00     0.010 C 
ATOM     25  C   UNL A   1      42.425  35.213  34.811  1.00  0.00     0.032 C 
ATOM     26  C   UNL A   1      42.740  35.331  33.336  1.00  0.00    -0.056 C 
ATOM     27  C   UNL A   1      42.282  34.721  30.929  1.00  0.00    -0.012 C 
ATOM     28  C   UNL A   1      42.450  32.958  32.591  1.00  0.00     0.021 C 
ATOM     29  C   UNL A   1      43.641  36.237  32.914  1.00  0.00     0.052 C 
ATOM     30  C   UNL A   1      43.199  35.606  30.514  1.00  0.00     0.048 C 
ATOM     31  C   UNL A   1      43.946  36.431  31.482  1.00  0.00     0.178 C 
ATOM     32  O   UNL A   1      44.748  37.277  31.110  1.00  0.00    -0.290 OA
ENDBRANCH  12  13
ENDBRANCH   7  12
BRANCH   9  33
ATOM     33  O   UNL A   1      33.456  37.165  34.224  1.00  0.00    -0.385 OA
ATOM     34  H   UNL A   1      32.607  37.614  34.087  1.00  0.00     0.211 HD
ENDBRANCH   9  33
BRANCH  10  35
ATOM     35  O   UNL A   1      32.863  38.598  31.737  1.00  0.00    -0.387 OA
ATOM     36  H   UNL A   1      33.040  38.910  30.834  1.00  0.00     0.211 HD
ENDBRANCH  10  35
BRANCH  11  37
ATOM     37  O   UNL A   1      32.827  37.051  29.398  1.00  0.00    -0.387 OA
ATOM     38  H   UNL A   1      33.037  37.966  29.154  1.00  0.00     0.211 HD
ENDBRANCH  11  37
ENDBRANCH   4   6
ENDBRANCH   3   4
ENDBRANCH   2   3
ENDBRANCH   1   2
BRANCH   1  39
ATOM     39  O   UNL A   1      36.144  30.694  29.435  1.00  0.00    -0.458 OA
BRANCH  39  40
ATOM     40  C   UNL A   1      36.693  30.123  30.529  1.00  0.00     0.338 C 
ATOM     41  O   UNL A   1      36.143  29.726  31.537  1.00  0.00    -0.246 OA
BRANCH  40  42
ATOM     42  C   UNL A   1      38.058  29.796  30.127  1.00  0.00     0.060 A 
ATOM     43  C   UNL A   1      38.355  29.823  28.762  1.00  0.00     0.016 A 
ATOM     44  C   UNL A   1      39.040  29.597  31.097  1.00  0.00     0.016 A 
ATOM     45  C   UNL A   1      39.666  29.670  28.353  1.00  0.00     0.010 A 
ATOM     46  C   UNL A   1      40.351  29.427  30.690  1.00  0.00     0.010 A 
ATOM     47  C   UNL A   1      40.653  29.443  29.318  1.00  0.00    -0.014 A 
BRANCH  47  48
ATOM     48  C   UNL A   1      41.975  28.984  28.884  1.00  0.00     0.031 A 
ATOM     49  C   UNL A   1      43.065  30.010  28.846  1.00  0.00     0.074 A 
ATOM     50  C   UNL A   1      42.159  27.696  28.555  1.00  0.00     0.049 A 
ATOM     51  N   UNL A   1      44.288  29.897  28.416  1.00  0.00    -0.248 NA
ATOM     52  C   UNL A   1      42.722  31.357  29.347  1.00  0.00     0.031 C 
ATOM     53  C   UNL A   1      41.135  26.650  28.618  1.00  0.00     0.029 A 
ATOM     54  N   UNL A   1      43.274  27.051  28.099  1.00  0.00    -0.354 N 
ATOM     55  C   UNL A   1      44.848  31.161  28.564  1.00  0.00     0.074 A 
ATOM     56  C   UNL A   1      43.833  32.031  29.101  1.00  0.00     0.031 C 
ATOM     57  C   UNL A   1      41.675  25.487  28.211  1.00  0.00     0.029 A 
ATOM     58  C   UNL A   1      43.061  25.722  27.821  1.00  0.00     0.049 A 
ATOM     59  H   UNL A   1      44.144  27.494  27.983  1.00  0.00     0.167 HD
ATOM     60  C   UNL A   1      46.110  31.544  28.272  1.00  0.00     0.031 A 
ATOM     61  C   UNL A   1      43.901  24.820  27.284  1.00  0.00     0.031 A 
ATOM     62  C   UNL A   1      47.088  30.637  27.741  1.00  0.00     0.049 A 
ATOM     63  C   UNL A   1      45.296  25.282  26.949  1.00  0.00     0.074 A 
ATOM     64  C   UNL A   1      48.404  30.885  27.406  1.00  0.00     0.029 A 
ATOM     65  N   UNL A   1      46.844  29.295  27.476  1.00  0.00    -0.354 N 
ATOM     66  N   UNL A   1      45.821  26.479  27.091  1.00  0.00    -0.248 NA
ATOM     67  C   UNL A   1      46.213  24.280  26.399  1.00  0.00     0.031 C 
ATOM     68  C   UNL A   1      48.942  29.701  26.891  1.00  0.00     0.029 A 
ATOM     69  C   UNL A   1      47.983  28.700  26.972  1.00  0.00     0.049 A 
ATOM     70  H   UNL A   1      45.986  28.836  27.626  1.00  0.00     0.167 HD
ATOM     71  C   UNL A   1      47.143  26.365  26.680  1.00  0.00     0.074 A 
ATOM     72  C   UNL A   1      47.336  24.977  26.300  1.00  0.00     0.031 C 
ATOM     73  C   UNL A   1      48.116  27.309  26.620  1.00  0.00     0.031 A 
BRANCH  60  74
ATOM     74  C   UNL A   1      46.473  32.989  28.482  1.00  0.00    -0.014 A 
ATOM     75  C   UNL A   1      47.310  33.392  29.538  1.00  0.00     0.010 A 
ATOM     76  C   UNL A   1      45.986  33.960  27.589  1.00  0.00     0.010 A 
ATOM     77  C   UNL A   1      47.637  34.740  29.708  1.00  0.00     0.020 A 
ATOM     78  C   UNL A   1      46.334  35.306  27.738  1.00  0.00     0.020 A 
ATOM     79  C   UNL A   1      47.152  35.689  28.803  1.00  0.00     0.054 A 
BRANCH  79  80
ATOM     80  S   UNL A   1      47.647  37.421  29.009  1.00  0.00     0.124 S 
ATOM     81  O   UNL A   1      47.758  37.534  30.461  1.00  0.00    -0.237 OA
ATOM     82  O   UNL A   1      48.909  37.482  28.276  1.00  0.00    -0.237 OA
ATOM     83  O   UNL A   1      46.544  38.171  28.410  1.00  0.00    -0.744 OA
ENDBRANCH  79  80
ENDBRANCH  60  74
BRANCH  61  84
ATOM     84  C   UNL A   1      43.448  23.425  27.021  1.00  0.00    -0.014 A 
ATOM     85  C   UNL A   1      43.173  22.542  28.079  1.00  0.00     0.010 A 
ATOM     86  C   UNL A   1      43.285  22.971  25.699  1.00  0.00     0.010 A 
ATOM     87  C   UNL A   1      42.780  21.224  27.821  1.00  0.00     0.020 A 
ATOM     88  C   UNL A   1      42.861  21.665  25.436  1.00  0.00     0.020 A 
ATOM     89  C   UNL A   1      42.629  20.794  26.499  1.00  0.00     0.054 A 
BRANCH  89  90
ATOM     90  S   UNL A   1      42.104  19.084  26.189  1.00  0.00     0.124 S 
ATOM     91  O   UNL A   1      40.696  19.258  25.843  1.00  0.00    -0.237 OA
ATOM     92  O   UNL A   1      42.980  18.679  25.093  1.00  0.00    -0.237 OA
ATOM     93  O   UNL A   1      42.357  18.412  27.461  1.00  0.00    -0.744 OA
ENDBRANCH  89  90
ENDBRANCH  61  84
BRANCH  73  94
ATOM     94  C   UNL A   1      49.480  26.849  26.192  1.00  0.00    -0.014 A 
ATOM     95  C   UNL A   1      50.342  26.185  27.082  1.00  0.00     0.010 A 
ATOM     96  C   UNL A   1      49.876  27.042  24.856  1.00  0.00     0.010 A 
ATOM     97  C   UNL A   1      51.600  25.761  26.650  1.00  0.00     0.020 A 
ATOM     98  C   UNL A   1      51.117  26.588  24.413  1.00  0.00     0.020 A 
ATOM     99  C   UNL A   1      51.978  25.967  25.319  1.00  0.00     0.054 A 
BRANCH  99 100
ATOM    100  S   UNL A   1      53.605  25.382  24.777  1.00  0.00     0.124 S 
ATOM    101  O   UNL A   1      53.571  23.980  25.185  1.00  0.00    -0.237 OA
ATOM    102  O   UNL A   1      53.566  25.619  23.336  1.00  0.00    -0.237 OA
ATOM    103  O   UNL A   1      54.541  26.225  25.517  1.00  0.00    -0.744 OA
ENDBRANCH  99 100
ENDBRANCH  73  94
ENDBRANCH  47  48
ENDBRANCH  40  42
ENDBRANCH  39  40
ENDBRANCH   1  39
TORSDOF 19
ENDMDL
