MODEL 1
REMARK VINA RESULT:     -10.2      0.000      0.000
REMARK SMILES CCCc1nnc(SCC(=O)OCCOC(=O)c2ccc(-c3c4nc(c(-c5ccc(S(=O)(=O)[O-])cc5)c5ccc([nH]5)c(-c5ccc(S(=O)(=O)[O-])cc5)c5nc(c(-c6ccc(S(=O)(=O)[O-])cc6)c6ccc3[nH]6)C=C5)C=C4)cc2)n1C[C@H]1CCCO1
REMARK SMILES IDX 13 1 12 2 10 3 11 4 9 5 8 6 7 7 4 8 5 9 78 10 6 11 3 12 2 13
REMARK SMILES IDX 1 14 79 15 80 16 81 17 84 18 82 19 83 20 14 21 15 22 16 23
REMARK SMILES IDX 17 24 18 25 19 26 77 27 20 28 76 29 21 30 22 31 23 32 70 33
REMARK SMILES IDX 24 34 75 35 69 36 71 37 25 38 74 39 68 40 67 41 26 43 56 44
REMARK SMILES IDX 37 45 55 46 38 47 41 48 54 49 72 50 39 51 40 52 53 54 73 55
REMARK SMILES IDX 42 56 27 57 28 58 36 59 29 60 35 61 30 62 31 63 32 64 33 65
REMARK SMILES IDX 34 66 57 67 58 68 66 69 59 70 65 71 60 72 61 73 62 74 63 75
REMARK SMILES IDX 64 76 43 77 44 78 52 79 45 80 51 81 46 82 47 83 48 84 49 85
REMARK SMILES IDX 50 86
REMARK H PARENT 71 42 41 53
REMARK Flexibility Score: inf
ROOT
ATOM      1  C   UNL A   1      40.532  20.390  27.056  1.00  0.00     0.274 C 
ENDROOT
BRANCH   1   2
ATOM      2  O   UNL A   1      39.688  20.603  25.905  1.00  0.00    -0.461 OA
BRANCH   2   3
ATOM      3  C   UNL A   1      38.864  21.684  25.914  1.00  0.00     0.316 C 
ATOM      4  O   UNL A   1      39.102  22.735  26.508  1.00  0.00    -0.251 OA
BRANCH   3   5
ATOM      5  C   UNL A   1      37.535  21.439  25.232  1.00  0.00     0.200 C 
BRANCH   5   6
ATOM      6  S   UNL A   1      36.488  22.871  25.034  1.00  0.00    -0.074 SA
BRANCH   6   7
ATOM      7  C   UNL A   1      35.206  22.481  23.929  1.00  0.00     0.191 A 
ATOM      8  C   UNL A   1      33.064  22.548  23.629  1.00  0.00     0.133 A 
ATOM      9  N   UNL A   1      33.614  23.284  22.687  1.00  0.00    -0.134 NA
ATOM     10  N   UNL A   1      34.064  21.767  24.181  1.00  0.00    -0.303 N 
ATOM     11  N   UNL A   1      34.976  23.240  22.877  1.00  0.00    -0.123 NA
BRANCH   8  12
ATOM     12  C   UNL A   1      31.673  22.652  24.162  1.00  0.00     0.077 C 
BRANCH  12  13
ATOM     13  C   UNL A   1      30.861  23.744  23.454  1.00  0.00     0.005 C 
ATOM     14  C   UNL A   1      30.597  24.948  24.340  1.00  0.00     0.004 C 
ENDBRANCH  12  13
ENDBRANCH   8  12
BRANCH  10  15
ATOM     15  C   UNL A   1      33.868  20.499  24.829  1.00  0.00     0.158 C 
BRANCH  15  16
ATOM     16  C   UNL A   1      32.832  19.547  24.205  1.00  0.00     0.138 C 
ATOM     17  C   UNL A   1      33.376  18.341  23.457  1.00  0.00     0.036 C 
ATOM     18  O   UNL A   1      32.057  18.963  25.280  1.00  0.00    -0.376 OA
ATOM     19  C   UNL A   1      33.511  17.255  24.503  1.00  0.00     0.031 C 
ATOM     20  C   UNL A   1      32.683  17.736  25.675  1.00  0.00     0.160 C 
ENDBRANCH  15  16
ENDBRANCH  10  15
ENDBRANCH   6   7
ENDBRANCH   5   6
ENDBRANCH   3   5
ENDBRANCH   2   3
ENDBRANCH   1   2
BRANCH   1  21
ATOM     21  C   UNL A   1      41.711  19.471  26.732  1.00  0.00     0.275 C 
BRANCH  21  22
ATOM     22  O   UNL A   1      42.250  19.681  25.416  1.00  0.00    -0.458 OA
BRANCH  22  23
ATOM     23  C   UNL A   1      43.596  19.731  25.388  1.00  0.00     0.338 C 
ATOM     24  O   UNL A   1      44.364  18.887  25.830  1.00  0.00    -0.246 OA
BRANCH  23  25
ATOM     25  C   UNL A   1      44.093  21.069  25.041  1.00  0.00     0.060 A 
ATOM     26  C   UNL A   1      45.464  21.264  25.219  1.00  0.00     0.016 A 
ATOM     27  C   UNL A   1      43.198  22.138  25.110  1.00  0.00     0.016 A 
ATOM     28  C   UNL A   1      45.892  22.436  25.811  1.00  0.00     0.010 A 
ATOM     29  C   UNL A   1      43.647  23.343  25.623  1.00  0.00     0.010 A 
ATOM     30  C   UNL A   1      44.956  23.428  26.115  1.00  0.00    -0.014 A 
BRANCH  30  31
ATOM     31  C   UNL A   1      45.390  24.557  26.953  1.00  0.00     0.031 A 
ATOM     32  C   UNL A   1      44.873  24.551  28.354  1.00  0.00     0.074 A 
ATOM     33  C   UNL A   1      46.291  25.451  26.483  1.00  0.00     0.049 A 
ATOM     34  N   UNL A   1      44.545  25.541  29.125  1.00  0.00    -0.248 NA
ATOM     35  C   UNL A   1      44.628  23.220  28.950  1.00  0.00     0.031 C 
ATOM     36  C   UNL A   1      46.949  25.398  25.166  1.00  0.00     0.029 A 
ATOM     37  N   UNL A   1      46.923  26.499  27.100  1.00  0.00    -0.354 N 
ATOM     38  C   UNL A   1      44.243  24.959  30.356  1.00  0.00     0.074 A 
ATOM     39  C   UNL A   1      44.162  23.538  30.150  1.00  0.00     0.031 C 
ATOM     40  C   UNL A   1      48.029  26.197  25.174  1.00  0.00     0.029 A 
ATOM     41  C   UNL A   1      48.127  26.827  26.478  1.00  0.00     0.049 A 
ATOM     42  H   UNL A   1      46.569  26.966  27.891  1.00  0.00     0.167 HD
ATOM     43  C   UNL A   1      44.369  25.609  31.542  1.00  0.00     0.031 A 
ATOM     44  C   UNL A   1      49.227  27.404  27.022  1.00  0.00     0.031 A 
ATOM     45  C   UNL A   1      44.191  27.022  31.449  1.00  0.00     0.049 A 
ATOM     46  C   UNL A   1      48.841  28.040  28.299  1.00  0.00     0.074 A 
ATOM     47  C   UNL A   1      43.133  27.841  31.117  1.00  0.00     0.029 A 
ATOM     48  N   UNL A   1      45.312  27.814  31.462  1.00  0.00    -0.354 N 
ATOM     49  N   UNL A   1      48.077  29.090  28.401  1.00  0.00    -0.248 NA
ATOM     50  C   UNL A   1      49.017  27.282  29.530  1.00  0.00     0.031 C 
ATOM     51  C   UNL A   1      43.716  29.017  30.571  1.00  0.00     0.029 A 
ATOM     52  C   UNL A   1      45.104  28.859  30.596  1.00  0.00     0.049 A 
ATOM     53  H   UNL A   1      46.122  27.660  31.998  1.00  0.00     0.167 HD
ATOM     54  C   UNL A   1      47.377  28.916  29.586  1.00  0.00     0.074 A 
ATOM     55  C   UNL A   1      48.086  27.859  30.292  1.00  0.00     0.031 C 
ATOM     56  C   UNL A   1      46.136  29.456  29.766  1.00  0.00     0.031 A 
BRANCH  43  57
ATOM     57  C   UNL A   1      45.035  24.918  32.704  1.00  0.00    -0.014 A 
ATOM     58  C   UNL A   1      46.409  25.067  32.948  1.00  0.00     0.010 A 
ATOM     59  C   UNL A   1      44.353  23.918  33.441  1.00  0.00     0.010 A 
ATOM     60  C   UNL A   1      47.063  24.251  33.884  1.00  0.00     0.020 A 
ATOM     61  C   UNL A   1      44.980  23.139  34.406  1.00  0.00     0.020 A 
ATOM     62  C   UNL A   1      46.343  23.290  34.602  1.00  0.00     0.054 A 
BRANCH  62  63
ATOM     63  S   UNL A   1      47.201  22.181  35.747  1.00  0.00     0.124 S 
ATOM     64  O   UNL A   1      48.028  21.396  34.836  1.00  0.00    -0.237 OA
ATOM     65  O   UNL A   1      47.917  23.116  36.611  1.00  0.00    -0.237 OA
ATOM     66  O   UNL A   1      46.114  21.451  36.395  1.00  0.00    -0.744 OA
ENDBRANCH  62  63
ENDBRANCH  43  57
BRANCH  44  67
ATOM     67  C   UNL A   1      50.629  27.067  26.642  1.00  0.00    -0.014 A 
ATOM     68  C   UNL A   1      51.111  25.748  26.609  1.00  0.00     0.010 A 
ATOM     69  C   UNL A   1      51.479  28.077  26.136  1.00  0.00     0.010 A 
ATOM     70  C   UNL A   1      52.399  25.465  26.108  1.00  0.00     0.020 A 
ATOM     71  C   UNL A   1      52.766  27.812  25.668  1.00  0.00     0.020 A 
ATOM     72  C   UNL A   1      53.218  26.500  25.643  1.00  0.00     0.054 A 
BRANCH  72  73
ATOM     73  S   UNL A   1      54.852  26.132  24.944  1.00  0.00     0.124 S 
ATOM     74  O   UNL A   1      55.056  24.741  25.337  1.00  0.00    -0.237 OA
ATOM     75  O   UNL A   1      54.642  26.365  23.519  1.00  0.00    -0.237 OA
ATOM     76  O   UNL A   1      55.735  27.094  25.603  1.00  0.00    -0.744 OA
ENDBRANCH  72  73
ENDBRANCH  44  67
BRANCH  56  77
ATOM     77  C   UNL A   1      45.687  30.561  28.835  1.00  0.00    -0.014 A 
ATOM     78  C   UNL A   1      46.190  31.874  28.907  1.00  0.00     0.010 A 
ATOM     79  C   UNL A   1      44.861  30.217  27.749  1.00  0.00     0.010 A 
ATOM     80  C   UNL A   1      45.866  32.819  27.923  1.00  0.00     0.020 A 
ATOM     81  C   UNL A   1      44.552  31.150  26.754  1.00  0.00     0.020 A 
ATOM     82  C   UNL A   1      45.054  32.448  26.848  1.00  0.00     0.054 A 
BRANCH  82  83
ATOM     83  S   UNL A   1      44.712  33.656  25.536  1.00  0.00     0.124 S 
ATOM     84  O   UNL A   1      46.016  34.281  25.331  1.00  0.00    -0.237 OA
ATOM     85  O   UNL A   1      44.234  32.817  24.441  1.00  0.00    -0.237 OA
ATOM     86  O   UNL A   1      43.695  34.528  26.123  1.00  0.00    -0.744 OA
ENDBRANCH  82  83
ENDBRANCH  56  77
ENDBRANCH  30  31
ENDBRANCH  23  25
ENDBRANCH  22  23
ENDBRANCH  21  22
ENDBRANCH   1  21
TORSDOF 20
ENDMDL
MODEL 2
REMARK VINA RESULT:      -9.9      0.943      2.231
REMARK SMILES CCCc1nnc(SCC(=O)OCCOC(=O)c2ccc(-c3c4nc(c(-c5ccc(S(=O)(=O)[O-])cc5)c5ccc([nH]5)c(-c5ccc(S(=O)(=O)[O-])cc5)c5nc(c(-c6ccc(S(=O)(=O)[O-])cc6)c6ccc3[nH]6)C=C5)C=C4)cc2)n1C[C@H]1CCCO1
REMARK SMILES IDX 13 1 12 2 10 3 11 4 9 5 8 6 7 7 4 8 5 9 78 10 6 11 3 12 2 13
REMARK SMILES IDX 1 14 79 15 80 16 81 17 84 18 82 19 83 20 14 21 15 22 16 23
REMARK SMILES IDX 17 24 18 25 19 26 77 27 20 28 76 29 21 30 22 31 23 32 70 33
REMARK SMILES IDX 24 34 75 35 69 36 71 37 25 38 74 39 68 40 67 41 26 43 56 44
REMARK SMILES IDX 37 45 55 46 38 47 41 48 54 49 72 50 39 51 40 52 53 54 73 55
REMARK SMILES IDX 42 56 27 57 28 58 36 59 29 60 35 61 30 62 31 63 32 64 33 65
REMARK SMILES IDX 34 66 57 67 58 68 66 69 59 70 65 71 60 72 61 73 62 74 63 75
REMARK SMILES IDX 64 76 43 77 44 78 52 79 45 80 51 81 46 82 47 83 48 84 49 85
REMARK SMILES IDX 50 86
REMARK H PARENT 71 42 41 53
REMARK Flexibility Score: inf
ROOT
ATOM      1  C   UNL A   1      40.611  20.405  26.803  1.00  0.00     0.274 C 
ENDROOT
BRANCH   1   2
ATOM      2  O   UNL A   1      40.454  21.674  26.134  1.00  0.00    -0.461 OA
BRANCH   2   3
ATOM      3  C   UNL A   1      39.233  22.270  26.182  1.00  0.00     0.316 C 
ATOM      4  O   UNL A   1      38.987  23.306  26.798  1.00  0.00    -0.251 OA
BRANCH   3   5
ATOM      5  C   UNL A   1      38.139  21.464  25.515  1.00  0.00     0.200 C 
BRANCH   5   6
ATOM      6  S   UNL A   1      37.000  22.391  24.500  1.00  0.00    -0.074 SA
BRANCH   6   7
ATOM      7  C   UNL A   1      35.392  22.168  25.115  1.00  0.00     0.191 A 
ATOM      8  C   UNL A   1      33.607  20.952  24.969  1.00  0.00     0.133 A 
ATOM      9  N   UNL A   1      34.064  20.831  26.198  1.00  0.00    -0.134 NA
ATOM     10  N   UNL A   1      34.226  22.054  24.405  1.00  0.00    -0.303 N 
ATOM     11  N   UNL A   1      35.196  21.605  26.291  1.00  0.00    -0.123 NA
BRANCH   8  12
ATOM     12  C   UNL A   1      32.740  19.989  24.227  1.00  0.00     0.077 C 
BRANCH  12  13
ATOM     13  C   UNL A   1      33.291  18.559  24.271  1.00  0.00     0.005 C 
ATOM     14  C   UNL A   1      32.590  17.689  25.298  1.00  0.00     0.004 C 
ENDBRANCH  12  13
ENDBRANCH   8  12
BRANCH  10  15
ATOM     15  C   UNL A   1      33.688  22.855  23.338  1.00  0.00     0.158 C 
BRANCH  15  16
ATOM     16  C   UNL A   1      32.991  24.170  23.734  1.00  0.00     0.138 C 
ATOM     17  C   UNL A   1      31.905  24.674  22.799  1.00  0.00     0.036 C 
ATOM     18  O   UNL A   1      32.293  23.947  24.983  1.00  0.00    -0.376 OA
ATOM     19  C   UNL A   1      30.627  24.031  23.294  1.00  0.00     0.031 C 
ATOM     20  C   UNL A   1      30.954  23.533  24.686  1.00  0.00     0.160 C 
ENDBRANCH  15  16
ENDBRANCH  10  15
ENDBRANCH   6   7
ENDBRANCH   5   6
ENDBRANCH   3   5
ENDBRANCH   2   3
ENDBRANCH   1   2
BRANCH   1  21
ATOM     21  C   UNL A   1      42.025  19.848  26.638  1.00  0.00     0.275 C 
BRANCH  21  22
ATOM     22  O   UNL A   1      42.497  19.890  25.280  1.00  0.00    -0.458 OA
BRANCH  22  23
ATOM     23  C   UNL A   1      43.833  19.759  25.172  1.00  0.00     0.338 C 
ATOM     24  O   UNL A   1      44.502  18.802  25.541  1.00  0.00    -0.246 OA
BRANCH  23  25
ATOM     25  C   UNL A   1      44.489  21.029  24.836  1.00  0.00     0.060 A 
ATOM     26  C   UNL A   1      45.833  21.126  25.203  1.00  0.00     0.016 A 
ATOM     27  C   UNL A   1      43.689  22.168  24.721  1.00  0.00     0.016 A 
ATOM     28  C   UNL A   1      46.273  22.295  25.792  1.00  0.00     0.010 A 
ATOM     29  C   UNL A   1      44.165  23.363  25.234  1.00  0.00     0.010 A 
ATOM     30  C   UNL A   1      45.393  23.374  25.907  1.00  0.00    -0.014 A 
BRANCH  30  31
ATOM     31  C   UNL A   1      45.801  24.515  26.743  1.00  0.00     0.031 A 
ATOM     32  C   UNL A   1      45.155  24.586  28.088  1.00  0.00     0.074 A 
ATOM     33  C   UNL A   1      46.784  25.348  26.330  1.00  0.00     0.049 A 
ATOM     34  N   UNL A   1      44.804  25.620  28.789  1.00  0.00    -0.248 NA
ATOM     35  C   UNL A   1      44.792  23.292  28.703  1.00  0.00     0.031 C 
ATOM     36  C   UNL A   1      47.559  25.214  25.085  1.00  0.00     0.029 A 
ATOM     37  N   UNL A   1      47.405  26.390  26.968  1.00  0.00    -0.354 N 
ATOM     38  C   UNL A   1      44.361  25.101  30.005  1.00  0.00     0.074 A 
ATOM     39  C   UNL A   1      44.232  23.677  29.841  1.00  0.00     0.031 C 
ATOM     40  C   UNL A   1      48.671  25.964  25.168  1.00  0.00     0.029 A 
ATOM     41  C   UNL A   1      48.677  26.639  26.453  1.00  0.00     0.049 A 
ATOM     42  H   UNL A   1      47.001  26.903  27.705  1.00  0.00     0.167 HD
ATOM     43  C   UNL A   1      44.407  25.789  31.174  1.00  0.00     0.031 A 
ATOM     44  C   UNL A   1      49.747  27.188  27.078  1.00  0.00     0.031 A 
ATOM     45  C   UNL A   1      44.307  27.204  31.016  1.00  0.00     0.049 A 
ATOM     46  C   UNL A   1      49.275  27.890  28.290  1.00  0.00     0.074 A 
ATOM     47  C   UNL A   1      43.325  28.056  30.556  1.00  0.00     0.029 A 
ATOM     48  N   UNL A   1      45.458  27.945  31.108  1.00  0.00    -0.354 N 
ATOM     49  N   UNL A   1      48.556  28.976  28.282  1.00  0.00    -0.248 NA
ATOM     50  C   UNL A   1      49.298  27.174  29.557  1.00  0.00     0.031 C 
ATOM     51  C   UNL A   1      44.013  29.183  30.028  1.00  0.00     0.029 A 
ATOM     52  C   UNL A   1      45.383  28.964  30.191  1.00  0.00     0.049 A 
ATOM     53  H   UNL A   1      46.206  27.777  31.724  1.00  0.00     0.167 HD
ATOM     54  C   UNL A   1      47.741  28.880  29.401  1.00  0.00     0.074 A 
ATOM     55  C   UNL A   1      48.328  27.820  30.207  1.00  0.00     0.031 C 
ATOM     56  C   UNL A   1      46.516  29.482  29.443  1.00  0.00     0.031 A 
BRANCH  43  57
ATOM     57  C   UNL A   1      44.927  25.115  32.418  1.00  0.00    -0.014 A 
ATOM     58  C   UNL A   1      46.248  25.308  32.850  1.00  0.00     0.010 A 
ATOM     59  C   UNL A   1      44.183  24.091  33.053  1.00  0.00     0.010 A 
ATOM     60  C   UNL A   1      46.793  24.509  33.868  1.00  0.00     0.020 A 
ATOM     61  C   UNL A   1      44.694  23.328  34.097  1.00  0.00     0.020 A 
ATOM     62  C   UNL A   1      46.012  23.522  34.479  1.00  0.00     0.054 A 
BRANCH  62  63
ATOM     63  S   UNL A   1      46.737  22.437  35.733  1.00  0.00     0.124 S 
ATOM     64  O   UNL A   1      47.281  23.402  36.682  1.00  0.00    -0.237 OA
ATOM     65  O   UNL A   1      45.580  21.673  36.193  1.00  0.00    -0.237 OA
ATOM     66  O   UNL A   1      47.727  21.665  34.985  1.00  0.00    -0.744 OA
ENDBRANCH  62  63
ENDBRANCH  43  57
BRANCH  44  67
ATOM     67  C   UNL A   1      51.160  26.773  26.846  1.00  0.00    -0.014 A 
ATOM     68  C   UNL A   1      51.542  25.433  26.679  1.00  0.00     0.010 A 
ATOM     69  C   UNL A   1      52.150  27.758  26.619  1.00  0.00     0.010 A 
ATOM     70  C   UNL A   1      52.865  25.099  26.321  1.00  0.00     0.020 A 
ATOM     71  C   UNL A   1      53.468  27.438  26.295  1.00  0.00     0.020 A 
ATOM     72  C   UNL A   1      53.820  26.106  26.134  1.00  0.00     0.054 A 
BRANCH  72  73
ATOM     73  S   UNL A   1      55.507  25.683  25.615  1.00  0.00     0.124 S 
ATOM     74  O   UNL A   1      55.816  26.742  24.660  1.00  0.00    -0.237 OA
ATOM     75  O   UNL A   1      56.242  25.729  26.875  1.00  0.00    -0.237 OA
ATOM     76  O   UNL A   1      55.366  24.350  25.031  1.00  0.00    -0.744 OA
ENDBRANCH  72  73
ENDBRANCH  44  67
BRANCH  56  77
ATOM     77  C   UNL A   1      46.210  30.568  28.436  1.00  0.00    -0.014 A 
ATOM     78  C   UNL A   1      45.961  30.303  27.075  1.00  0.00     0.010 A 
ATOM     79  C   UNL A   1      45.999  31.875  28.913  1.00  0.00     0.010 A 
ATOM     80  C   UNL A   1      45.523  31.320  26.215  1.00  0.00     0.020 A 
ATOM     81  C   UNL A   1      45.544  32.889  28.065  1.00  0.00     0.020 A 
ATOM     82  C   UNL A   1      45.310  32.607  26.719  1.00  0.00     0.054 A 
BRANCH  82  83
ATOM     83  S   UNL A   1      44.662  33.895  25.616  1.00  0.00     0.124 S 
ATOM     84  O   UNL A   1      45.871  34.400  24.971  1.00  0.00    -0.237 OA
ATOM     85  O   UNL A   1      43.748  33.151  24.753  1.00  0.00    -0.237 OA
ATOM     86  O   UNL A   1      44.009  34.836  26.526  1.00  0.00    -0.744 OA
ENDBRANCH  82  83
ENDBRANCH  56  77
ENDBRANCH  30  31
ENDBRANCH  23  25
ENDBRANCH  22  23
ENDBRANCH  21  22
ENDBRANCH   1  21
TORSDOF 20
ENDMDL
MODEL 3
REMARK VINA RESULT:      -9.7     11.592     19.471
REMARK SMILES CCCc1nnc(SCC(=O)OCCOC(=O)c2ccc(-c3c4nc(c(-c5ccc(S(=O)(=O)[O-])cc5)c5ccc([nH]5)c(-c5ccc(S(=O)(=O)[O-])cc5)c5nc(c(-c6ccc(S(=O)(=O)[O-])cc6)c6ccc3[nH]6)C=C5)C=C4)cc2)n1C[C@H]1CCCO1
REMARK SMILES IDX 13 1 12 2 10 3 11 4 9 5 8 6 7 7 4 8 5 9 78 10 6 11 3 12 2 13
REMARK SMILES IDX 1 14 79 15 80 16 81 17 84 18 82 19 83 20 14 21 15 22 16 23
REMARK SMILES IDX 17 24 18 25 19 26 77 27 20 28 76 29 21 30 22 31 23 32 70 33
REMARK SMILES IDX 24 34 75 35 69 36 71 37 25 38 74 39 68 40 67 41 26 43 56 44
REMARK SMILES IDX 37 45 55 46 38 47 41 48 54 49 72 50 39 51 40 52 53 54 73 55
REMARK SMILES IDX 42 56 27 57 28 58 36 59 29 60 35 61 30 62 31 63 32 64 33 65
REMARK SMILES IDX 34 66 57 67 58 68 66 69 59 70 65 71 60 72 61 73 62 74 63 75
REMARK SMILES IDX 64 76 43 77 44 78 52 79 45 80 51 81 46 82 47 83 48 84 49 85
REMARK SMILES IDX 50 86
REMARK H PARENT 71 42 41 53
REMARK Flexibility Score: inf
ROOT
ATOM      1  C   UNL A   1      42.852  42.828  20.554  1.00  0.00     0.274 C 
ENDROOT
BRANCH   1   2
ATOM      2  O   UNL A   1      41.604  43.542  20.419  1.00  0.00    -0.461 OA
BRANCH   2   3
ATOM      3  C   UNL A   1      41.108  43.720  19.166  1.00  0.00     0.316 C 
ATOM      4  O   UNL A   1      39.939  44.009  18.915  1.00  0.00    -0.251 OA
BRANCH   3   5
ATOM      5  C   UNL A   1      42.099  43.391  18.069  1.00  0.00     0.200 C 
BRANCH   5   6
ATOM      6  S   UNL A   1      42.315  44.644  16.816  1.00  0.00    -0.074 SA
BRANCH   6   7
ATOM      7  C   UNL A   1      42.416  46.197  17.587  1.00  0.00     0.191 A 
ATOM      8  C   UNL A   1      43.246  48.189  17.422  1.00  0.00     0.133 A 
ATOM      9  N   UNL A   1      41.935  48.309  17.415  1.00  0.00    -0.134 NA
ATOM     10  N   UNL A   1      43.542  46.919  17.884  1.00  0.00    -0.303 N 
ATOM     11  N   UNL A   1      41.408  47.043  17.522  1.00  0.00    -0.123 NA
BRANCH   8  12
ATOM     12  C   UNL A   1      44.245  49.146  16.860  1.00  0.00     0.077 C 
BRANCH  12  13
ATOM     13  C   UNL A   1      44.875  50.029  17.943  1.00  0.00     0.005 C 
ATOM     14  C   UNL A   1      43.847  50.826  18.725  1.00  0.00     0.004 C 
ENDBRANCH  12  13
ENDBRANCH   8  12
BRANCH  10  15
ATOM     15  C   UNL A   1      44.764  46.534  18.537  1.00  0.00     0.158 C 
BRANCH  15  16
ATOM     16  C   UNL A   1      45.778  45.728  17.705  1.00  0.00     0.138 C 
ATOM     17  C   UNL A   1      46.766  46.528  16.872  1.00  0.00     0.036 C 
ATOM     18  O   UNL A   1      46.621  44.990  18.622  1.00  0.00    -0.376 OA
ATOM     19  C   UNL A   1      47.948  46.772  17.786  1.00  0.00     0.031 C 
ATOM     20  C   UNL A   1      47.772  45.789  18.923  1.00  0.00     0.160 C 
ENDBRANCH  15  16
ENDBRANCH  10  15
ENDBRANCH   6   7
ENDBRANCH   5   6
ENDBRANCH   3   5
ENDBRANCH   2   3
ENDBRANCH   1   2
BRANCH   1  21
ATOM     21  C   UNL A   1      43.998  43.759  20.953  1.00  0.00     0.275 C 
BRANCH  21  22
ATOM     22  O   UNL A   1      44.576  43.433  22.228  1.00  0.00    -0.458 OA
BRANCH  22  23
ATOM     23  C   UNL A   1      44.348  44.363  23.175  1.00  0.00     0.338 C 
ATOM     24  O   UNL A   1      44.779  45.509  23.187  1.00  0.00    -0.246 OA
BRANCH  23  25
ATOM     25  C   UNL A   1      43.764  43.784  24.392  1.00  0.00     0.060 A 
ATOM     26  C   UNL A   1      44.520  43.944  25.555  1.00  0.00     0.016 A 
ATOM     27  C   UNL A   1      42.882  42.711  24.247  1.00  0.00     0.016 A 
ATOM     28  C   UNL A   1      44.661  42.864  26.403  1.00  0.00     0.010 A 
ATOM     29  C   UNL A   1      42.962  41.665  25.149  1.00  0.00     0.010 A 
ATOM     30  C   UNL A   1      43.964  41.684  26.128  1.00  0.00    -0.014 A 
BRANCH  30  31
ATOM     31  C   UNL A   1      44.308  40.479  26.899  1.00  0.00     0.031 A 
ATOM     32  C   UNL A   1      45.355  39.605  26.289  1.00  0.00     0.074 A 
ATOM     33  C   UNL A   1      43.777  40.279  28.128  1.00  0.00     0.049 A 
ATOM     34  N   UNL A   1      45.482  38.315  26.318  1.00  0.00    -0.248 NA
ATOM     35  C   UNL A   1      46.374  40.292  25.466  1.00  0.00     0.031 C 
ATOM     36  C   UNL A   1      42.870  41.199  28.834  1.00  0.00     0.029 A 
ATOM     37  N   UNL A   1      44.026  39.312  29.067  1.00  0.00    -0.354 N 
ATOM     38  C   UNL A   1      46.698  38.056  25.686  1.00  0.00     0.074 A 
ATOM     39  C   UNL A   1      47.121  39.277  25.054  1.00  0.00     0.031 C 
ATOM     40  C   UNL A   1      42.839  40.882  30.139  1.00  0.00     0.029 A 
ATOM     41  C   UNL A   1      43.701  39.736  30.356  1.00  0.00     0.049 A 
ATOM     42  H   UNL A   1      44.393  38.423  28.858  1.00  0.00     0.167 HD
ATOM     43  C   UNL A   1      47.460  36.963  25.948  1.00  0.00     0.031 A 
ATOM     44  C   UNL A   1      44.230  39.326  31.536  1.00  0.00     0.031 A 
ATOM     45  C   UNL A   1      46.711  35.824  26.371  1.00  0.00     0.049 A 
ATOM     46  C   UNL A   1      44.927  38.041  31.319  1.00  0.00     0.074 A 
ATOM     47  C   UNL A   1      45.764  35.017  25.777  1.00  0.00     0.029 A 
ATOM     48  N   UNL A   1      46.699  35.523  27.709  1.00  0.00    -0.354 N 
ATOM     49  N   UNL A   1      44.333  36.915  31.042  1.00  0.00    -0.248 NA
ATOM     50  C   UNL A   1      46.357  38.069  31.048  1.00  0.00     0.031 C 
ATOM     51  C   UNL A   1      44.953  34.533  26.839  1.00  0.00     0.029 A 
ATOM     52  C   UNL A   1      45.444  35.068  28.033  1.00  0.00     0.049 A 
ATOM     53  H   UNL A   1      47.457  35.615  28.330  1.00  0.00     0.167 HD
ATOM     54  C   UNL A   1      45.216  36.232  30.219  1.00  0.00     0.074 A 
ATOM     55  C   UNL A   1      46.485  36.931  30.362  1.00  0.00     0.031 C 
ATOM     56  C   UNL A   1      44.775  35.330  29.294  1.00  0.00     0.031 A 
BRANCH  43  57
ATOM     57  C   UNL A   1      48.945  37.120  26.156  1.00  0.00    -0.014 A 
ATOM     58  C   UNL A   1      49.452  37.967  27.153  1.00  0.00     0.010 A 
ATOM     59  C   UNL A   1      49.867  36.608  25.211  1.00  0.00     0.010 A 
ATOM     60  C   UNL A   1      50.820  38.285  27.195  1.00  0.00     0.020 A 
ATOM     61  C   UNL A   1      51.230  36.875  25.274  1.00  0.00     0.020 A 
ATOM     62  C   UNL A   1      51.696  37.739  26.251  1.00  0.00     0.054 A 
BRANCH  62  63
ATOM     63  S   UNL A   1      53.443  38.213  26.254  1.00  0.00     0.124 S 
ATOM     64  O   UNL A   1      54.083  36.989  25.786  1.00  0.00    -0.237 OA
ATOM     65  O   UNL A   1      53.463  39.338  25.322  1.00  0.00    -0.237 OA
ATOM     66  O   UNL A   1      53.700  38.564  27.649  1.00  0.00    -0.744 OA
ENDBRANCH  62  63
ENDBRANCH  43  57
BRANCH  44  67
ATOM     67  C   UNL A   1      44.459  40.218  32.708  1.00  0.00    -0.014 A 
ATOM     68  C   UNL A   1      43.927  39.954  33.980  1.00  0.00     0.010 A 
ATOM     69  C   UNL A   1      45.376  41.290  32.603  1.00  0.00     0.010 A 
ATOM     70  C   UNL A   1      44.286  40.748  35.091  1.00  0.00     0.020 A 
ATOM     71  C   UNL A   1      45.714  42.099  33.687  1.00  0.00     0.020 A 
ATOM     72  C   UNL A   1      45.176  41.817  34.935  1.00  0.00     0.054 A 
BRANCH  72  73
ATOM     73  S   UNL A   1      45.685  42.801  36.372  1.00  0.00     0.124 S 
ATOM     74  O   UNL A   1      44.509  42.731  37.233  1.00  0.00    -0.237 OA
ATOM     75  O   UNL A   1      46.863  42.079  36.844  1.00  0.00    -0.237 OA
ATOM     76  O   UNL A   1      45.957  44.123  35.807  1.00  0.00    -0.744 OA
ENDBRANCH  72  73
ENDBRANCH  44  67
BRANCH  56  77
ATOM     77  C   UNL A   1      43.369  34.788  29.429  1.00  0.00    -0.014 A 
ATOM     78  C   UNL A   1      43.052  33.665  30.218  1.00  0.00     0.010 A 
ATOM     79  C   UNL A   1      42.314  35.538  28.878  1.00  0.00     0.010 A 
ATOM     80  C   UNL A   1      41.717  33.299  30.441  1.00  0.00     0.020 A 
ATOM     81  C   UNL A   1      40.980  35.190  29.113  1.00  0.00     0.020 A 
ATOM     82  C   UNL A   1      40.688  34.070  29.892  1.00  0.00     0.054 A 
BRANCH  82  83
ATOM     83  S   UNL A   1      38.964  33.636  30.258  1.00  0.00     0.124 S 
ATOM     84  O   UNL A   1      38.289  33.923  28.994  1.00  0.00    -0.237 OA
ATOM     85  O   UNL A   1      39.055  32.225  30.620  1.00  0.00    -0.237 OA
ATOM     86  O   UNL A   1      38.608  34.526  31.362  1.00  0.00    -0.744 OA
ENDBRANCH  82  83
ENDBRANCH  56  77
ENDBRANCH  30  31
ENDBRANCH  23  25
ENDBRANCH  22  23
ENDBRANCH  21  22
ENDBRANCH   1  21
TORSDOF 20
ENDMDL
