MODEL 1
REMARK VINA RESULT:      -9.8      0.000      0.000
REMARK SMILES CCCCCCNC(=O)Oc1cccc(-c2ccc([C@@H](C)C(=O)OCCOC(=O)c3ccc(-c4c5nc(c(-c6ccc(S(=O)(=O)[O-])cc6)c6ccc([nH]6)c(-c6ccc(S(=O)(=O)[O-])cc6)c6nc(c(-c7ccc(S(=O)(=O)[O-])cc7)c7ccc4[nH]7)C=C6)C=C5)cc3)cc2N)c1
REMARK SMILES IDX 20 1 21 2 19 3 16 4 17 5 91 6 18 7 90 8 15 9 11 10 12 11
REMARK SMILES IDX 93 12 13 13 14 14 10 15 8 16 7 17 9 19 6 20 5 21 4 22 3 23
REMARK SMILES IDX 2 24 1 25 92 26 22 29 23 30 24 31 25 32 26 33 27 34 28 35
REMARK SMILES IDX 29 36 30 37 31 38 89 39 32 40 88 41 33 42 34 43 35 44 82 45
REMARK SMILES IDX 36 46 87 47 81 48 83 49 37 50 86 51 80 52 79 53 38 55 68 56
REMARK SMILES IDX 49 57 67 58 50 59 53 60 66 61 84 62 51 63 52 64 65 66 85 67
REMARK SMILES IDX 54 68 39 69 40 70 48 71 41 72 47 73 42 74 43 75 44 76 45 77
REMARK SMILES IDX 46 78 69 79 70 80 78 81 71 82 77 83 72 84 73 85 74 86 75 87
REMARK SMILES IDX 76 88 55 89 56 90 64 91 57 92 63 93 58 94 59 95 60 96 61 97
REMARK SMILES IDX 62 98
REMARK H PARENT 7 18 92 27 92 28 83 54 53 65
REMARK Flexibility Score: inf
ROOT
ATOM      1  C   UNL A   1      37.899  21.301  25.792  1.00  0.00     0.126 C 
ATOM      2  C   UNL A   1      38.333  20.189  24.839  1.00  0.00     0.025 C 
ENDROOT
BRANCH   1   3
ATOM      3  C   UNL A   1      36.595  21.958  25.363  1.00  0.00    -0.032 A 
ATOM      4  C   UNL A   1      34.116  23.142  24.626  1.00  0.00     0.005 A 
ATOM      5  C   UNL A   1      35.192  23.058  23.720  1.00  0.00     0.011 A 
ATOM      6  C   UNL A   1      34.299  22.641  25.933  1.00  0.00     0.040 A 
ATOM      7  C   UNL A   1      36.409  22.474  24.079  1.00  0.00     0.005 A 
ATOM      8  C   UNL A   1      35.522  22.037  26.269  1.00  0.00     0.030 A 
BRANCH   4   9
ATOM      9  C   UNL A   1      32.848  23.747  24.170  1.00  0.00    -0.013 A 
ATOM     10  C   UNL A   1      31.394  25.667  23.876  1.00  0.00     0.133 A 
ATOM     11  C   UNL A   1      30.391  24.861  23.342  1.00  0.00     0.047 A 
ATOM     12  C   UNL A   1      32.612  25.128  24.289  1.00  0.00     0.056 A 
ATOM     13  C   UNL A   1      30.619  23.495  23.198  1.00  0.00     0.004 A 
ATOM     14  C   UNL A   1      31.835  22.946  23.613  1.00  0.00     0.009 A 
BRANCH  10  15
ATOM     15  O   UNL A   1      31.069  27.013  24.116  1.00  0.00    -0.410 OA
BRANCH  15  16
ATOM     16  C   UNL A   1      31.175  27.909  23.063  1.00  0.00     0.412 C 
ATOM     17  N   UNL A   1      31.926  29.009  23.371  1.00  0.00    -0.321 N 
ATOM     18  H   UNL A   1      32.048  29.671  22.653  1.00  0.00     0.167 HD
ATOM     19  O   UNL A   1      30.654  27.789  21.961  1.00  0.00    -0.224 OA
BRANCH  17  20
ATOM     20  C   UNL A   1      32.564  29.308  24.639  1.00  0.00     0.119 C 
BRANCH  20  21
ATOM     21  C   UNL A   1      33.884  28.561  24.821  1.00  0.00     0.021 C 
BRANCH  21  22
ATOM     22  C   UNL A   1      34.128  28.004  26.230  1.00  0.00     0.002 C 
BRANCH  22  23
ATOM     23  C   UNL A   1      34.026  29.020  27.374  1.00  0.00    -0.000 C 
BRANCH  23  24
ATOM     24  C   UNL A   1      35.356  29.601  27.863  1.00  0.00    -0.003 C 
ATOM     25  C   UNL A   1      35.383  31.121  27.872  1.00  0.00     0.004 C 
ENDBRANCH  23  24
ENDBRANCH  22  23
ENDBRANCH  21  22
ENDBRANCH  20  21
ENDBRANCH  17  20
ENDBRANCH  15  16
ENDBRANCH  10  15
ENDBRANCH   4   9
BRANCH   6  26
ATOM     26  N   UNL A   1      33.258  22.571  26.861  1.00  0.00    -0.398 N 
ATOM     27  H   UNL A   1      33.203  21.810  27.482  1.00  0.00     0.156 HD
ATOM     28  H   UNL A   1      32.580  23.284  26.894  1.00  0.00     0.156 HD
ENDBRANCH   6  26
ENDBRANCH   1   3
BRANCH   1  29
ATOM     29  C   UNL A   1      39.068  22.241  26.059  1.00  0.00     0.313 C 
ATOM     30  O   UNL A   1      38.901  23.407  26.402  1.00  0.00    -0.252 OA
BRANCH  29  31
ATOM     31  O   UNL A   1      40.287  21.650  25.941  1.00  0.00    -0.462 OA
BRANCH  31  32
ATOM     32  C   UNL A   1      41.353  22.199  26.738  1.00  0.00     0.274 C 
BRANCH  32  33
ATOM     33  C   UNL A   1      42.284  23.078  25.899  1.00  0.00     0.275 C 
BRANCH  33  34
ATOM     34  O   UNL A   1      42.588  24.312  26.575  1.00  0.00    -0.458 OA
BRANCH  34  35
ATOM     35  C   UNL A   1      41.940  25.397  26.092  1.00  0.00     0.338 C 
ATOM     36  O   UNL A   1      41.604  25.606  24.941  1.00  0.00    -0.246 OA
BRANCH  35  37
ATOM     37  C   UNL A   1      41.575  26.288  27.202  1.00  0.00     0.060 A 
ATOM     38  C   UNL A   1      42.303  27.469  27.360  1.00  0.00     0.016 A 
ATOM     39  C   UNL A   1      40.601  25.923  28.133  1.00  0.00     0.016 A 
ATOM     40  C   UNL A   1      42.080  28.284  28.465  1.00  0.00     0.010 A 
ATOM     41  C   UNL A   1      40.371  26.748  29.239  1.00  0.00     0.010 A 
ATOM     42  C   UNL A   1      41.124  27.922  29.421  1.00  0.00    -0.014 A 
BRANCH  42  43
ATOM     43  C   UNL A   1      40.961  28.750  30.639  1.00  0.00     0.031 A 
ATOM     44  C   UNL A   1      39.878  29.790  30.699  1.00  0.00     0.074 A 
ATOM     45  C   UNL A   1      41.763  28.546  31.700  1.00  0.00     0.049 A 
ATOM     46  N   UNL A   1      39.590  30.627  31.661  1.00  0.00    -0.248 NA
ATOM     47  C   UNL A   1      39.005  29.903  29.519  1.00  0.00     0.031 C 
ATOM     48  C   UNL A   1      42.827  27.544  31.774  1.00  0.00     0.029 A 
ATOM     49  N   UNL A   1      41.805  29.171  32.922  1.00  0.00    -0.354 N 
ATOM     50  C   UNL A   1      38.517  31.381  31.199  1.00  0.00     0.074 A 
ATOM     51  C   UNL A   1      38.217  30.911  29.863  1.00  0.00     0.031 C 
ATOM     52  C   UNL A   1      43.417  27.622  32.978  1.00  0.00     0.029 A 
ATOM     53  C   UNL A   1      42.798  28.700  33.745  1.00  0.00     0.049 A 
ATOM     54  H   UNL A   1      41.182  29.888  33.181  1.00  0.00     0.167 HD
ATOM     55  C   UNL A   1      37.843  32.371  31.830  1.00  0.00     0.031 A 
ATOM     56  C   UNL A   1      43.182  29.104  34.972  1.00  0.00     0.031 A 
ATOM     57  C   UNL A   1      38.148  32.839  33.156  1.00  0.00     0.049 A 
ATOM     58  C   UNL A   1      42.442  30.229  35.640  1.00  0.00     0.074 A 
ATOM     59  C   UNL A   1      37.517  33.833  33.887  1.00  0.00     0.029 A 
ATOM     60  N   UNL A   1      39.172  32.348  33.952  1.00  0.00    -0.354 N 
ATOM     61  N   UNL A   1      41.422  30.923  35.192  1.00  0.00    -0.248 NA
ATOM     62  C   UNL A   1      42.901  30.624  36.978  1.00  0.00     0.031 C 
ATOM     63  C   UNL A   1      38.187  33.969  35.107  1.00  0.00     0.029 A 
ATOM     64  C   UNL A   1      39.206  33.030  35.157  1.00  0.00     0.049 A 
ATOM     65  H   UNL A   1      39.786  31.622  33.697  1.00  0.00     0.167 HD
ATOM     66  C   UNL A   1      41.108  31.827  36.201  1.00  0.00     0.074 A 
ATOM     67  C   UNL A   1      42.035  31.580  37.287  1.00  0.00     0.031 C 
ATOM     68  C   UNL A   1      40.140  32.776  36.224  1.00  0.00     0.031 A 
BRANCH  55  69
ATOM     69  C   UNL A   1      36.732  33.040  31.067  1.00  0.00    -0.014 A 
ATOM     70  C   UNL A   1      37.001  33.848  29.946  1.00  0.00     0.010 A 
ATOM     71  C   UNL A   1      35.398  32.857  31.474  1.00  0.00     0.010 A 
ATOM     72  C   UNL A   1      35.961  34.501  29.280  1.00  0.00     0.020 A 
ATOM     73  C   UNL A   1      34.353  33.491  30.797  1.00  0.00     0.020 A 
ATOM     74  C   UNL A   1      34.644  34.328  29.717  1.00  0.00     0.054 A 
BRANCH  74  75
ATOM     75  S   UNL A   1      33.312  35.199  28.847  1.00  0.00     0.124 S 
ATOM     76  O   UNL A   1      34.058  36.171  28.050  1.00  0.00    -0.237 OA
ATOM     77  O   UNL A   1      32.668  34.130  28.086  1.00  0.00    -0.237 OA
ATOM     78  O   UNL A   1      32.504  35.765  29.925  1.00  0.00    -0.744 OA
ENDBRANCH  74  75
ENDBRANCH  55  69
BRANCH  56  79
ATOM     79  C   UNL A   1      44.341  28.447  35.630  1.00  0.00    -0.014 A 
ATOM     80  C   UNL A   1      45.644  28.946  35.461  1.00  0.00     0.010 A 
ATOM     81  C   UNL A   1      44.136  27.333  36.466  1.00  0.00     0.010 A 
ATOM     82  C   UNL A   1      46.722  28.340  36.112  1.00  0.00     0.020 A 
ATOM     83  C   UNL A   1      45.209  26.739  37.137  1.00  0.00     0.020 A 
ATOM     84  C   UNL A   1      46.497  27.242  36.950  1.00  0.00     0.054 A 
BRANCH  84  85
ATOM     85  S   UNL A   1      47.899  26.518  37.846  1.00  0.00     0.124 S 
ATOM     86  O   UNL A   1      47.815  27.193  39.137  1.00  0.00    -0.237 OA
ATOM     87  O   UNL A   1      47.572  25.094  37.854  1.00  0.00    -0.237 OA
ATOM     88  O   UNL A   1      49.052  26.879  37.023  1.00  0.00    -0.744 OA
ENDBRANCH  84  85
ENDBRANCH  56  79
BRANCH  68  89
ATOM     89  C   UNL A   1      40.020  33.605  37.474  1.00  0.00    -0.014 A 
ATOM     90  C   UNL A   1      39.184  33.206  38.532  1.00  0.00     0.010 A 
ATOM     91  C   UNL A   1      40.792  34.772  37.611  1.00  0.00     0.010 A 
ATOM     92  C   UNL A   1      39.101  33.976  39.695  1.00  0.00     0.020 A 
ATOM     93  C   UNL A   1      40.729  35.533  38.782  1.00  0.00     0.020 A 
ATOM     94  C   UNL A   1      39.872  35.137  39.811  1.00  0.00     0.054 A 
BRANCH  94  95
ATOM     95  S   UNL A   1      39.784  36.099  41.347  1.00  0.00     0.124 S 
ATOM     96  O   UNL A   1      40.233  37.417  40.905  1.00  0.00    -0.237 OA
ATOM     97  O   UNL A   1      38.371  36.005  41.707  1.00  0.00    -0.237 OA
ATOM     98  O   UNL A   1      40.697  35.399  42.246  1.00  0.00    -0.744 OA
ENDBRANCH  94  95
ENDBRANCH  68  89
ENDBRANCH  42  43
ENDBRANCH  35  37
ENDBRANCH  34  35
ENDBRANCH  33  34
ENDBRANCH  32  33
ENDBRANCH  31  32
ENDBRANCH  29  31
ENDBRANCH   1  29
TORSDOF 24
ENDMDL
MODEL 2
REMARK VINA RESULT:      -9.2      5.636     10.402
REMARK SMILES CCCCCCNC(=O)Oc1cccc(-c2ccc([C@@H](C)C(=O)OCCOC(=O)c3ccc(-c4c5nc(c(-c6ccc(S(=O)(=O)[O-])cc6)c6ccc([nH]6)c(-c6ccc(S(=O)(=O)[O-])cc6)c6nc(c(-c7ccc(S(=O)(=O)[O-])cc7)c7ccc4[nH]7)C=C6)C=C5)cc3)cc2N)c1
REMARK SMILES IDX 20 1 21 2 19 3 16 4 17 5 91 6 18 7 90 8 15 9 11 10 12 11
REMARK SMILES IDX 93 12 13 13 14 14 10 15 8 16 7 17 9 19 6 20 5 21 4 22 3 23
REMARK SMILES IDX 2 24 1 25 92 26 22 29 23 30 24 31 25 32 26 33 27 34 28 35
REMARK SMILES IDX 29 36 30 37 31 38 89 39 32 40 88 41 33 42 34 43 35 44 82 45
REMARK SMILES IDX 36 46 87 47 81 48 83 49 37 50 86 51 80 52 79 53 38 55 68 56
REMARK SMILES IDX 49 57 67 58 50 59 53 60 66 61 84 62 51 63 52 64 65 66 85 67
REMARK SMILES IDX 54 68 39 69 40 70 48 71 41 72 47 73 42 74 43 75 44 76 45 77
REMARK SMILES IDX 46 78 69 79 70 80 78 81 71 82 77 83 72 84 73 85 74 86 75 87
REMARK SMILES IDX 76 88 55 89 56 90 64 91 57 92 63 93 58 94 59 95 60 96 61 97
REMARK SMILES IDX 62 98
REMARK H PARENT 7 18 92 27 92 28 83 54 53 65
REMARK Flexibility Score: inf
ROOT
ATOM      1  C   UNL A   1      35.247  21.656  25.406  1.00  0.00     0.126 C 
ATOM      2  C   UNL A   1      34.250  20.583  24.974  1.00  0.00     0.025 C 
ENDROOT
BRANCH   1   3
ATOM      3  C   UNL A   1      34.585  23.005  25.637  1.00  0.00    -0.032 A 
ATOM      4  C   UNL A   1      33.266  25.489  26.070  1.00  0.00     0.005 A 
ATOM      5  C   UNL A   1      34.560  25.427  25.516  1.00  0.00     0.011 A 
ATOM      6  C   UNL A   1      32.633  24.280  26.433  1.00  0.00     0.040 A 
ATOM      7  C   UNL A   1      35.208  24.209  25.300  1.00  0.00     0.005 A 
ATOM      8  C   UNL A   1      33.291  23.063  26.187  1.00  0.00     0.030 A 
BRANCH   4   9
ATOM      9  C   UNL A   1      32.630  26.810  26.245  1.00  0.00    -0.013 A 
ATOM     10  C   UNL A   1      31.603  28.813  25.337  1.00  0.00     0.133 A 
ATOM     11  C   UNL A   1      31.470  29.356  26.613  1.00  0.00     0.047 A 
ATOM     12  C   UNL A   1      32.175  27.555  25.143  1.00  0.00     0.056 A 
ATOM     13  C   UNL A   1      31.896  28.620  27.715  1.00  0.00     0.004 A 
ATOM     14  C   UNL A   1      32.473  27.362  27.530  1.00  0.00     0.009 A 
BRANCH  10  15
ATOM     15  O   UNL A   1      31.275  29.644  24.253  1.00  0.00    -0.410 OA
BRANCH  15  16
ATOM     16  C   UNL A   1      30.587  29.086  23.187  1.00  0.00     0.412 C 
ATOM     17  N   UNL A   1      31.403  28.741  22.145  1.00  0.00    -0.321 N 
ATOM     18  H   UNL A   1      30.967  28.324  21.367  1.00  0.00     0.167 HD
ATOM     19  O   UNL A   1      29.375  28.918  23.121  1.00  0.00    -0.224 OA
BRANCH  17  20
ATOM     20  C   UNL A   1      32.840  28.920  22.061  1.00  0.00     0.119 C 
BRANCH  20  21
ATOM     21  C   UNL A   1      33.607  27.625  22.321  1.00  0.00     0.021 C 
BRANCH  21  22
ATOM     22  C   UNL A   1      33.082  26.394  21.571  1.00  0.00     0.002 C 
BRANCH  22  23
ATOM     23  C   UNL A   1      32.687  25.199  22.446  1.00  0.00    -0.000 C 
BRANCH  23  24
ATOM     24  C   UNL A   1      31.183  24.950  22.584  1.00  0.00    -0.003 C 
ATOM     25  C   UNL A   1      30.848  23.723  23.418  1.00  0.00     0.004 C 
ENDBRANCH  23  24
ENDBRANCH  22  23
ENDBRANCH  21  22
ENDBRANCH  20  21
ENDBRANCH  17  20
ENDBRANCH  15  16
ENDBRANCH  10  15
ENDBRANCH   4   9
BRANCH   6  26
ATOM     26  N   UNL A   1      31.309  24.231  26.875  1.00  0.00    -0.398 N 
ATOM     27  H   UNL A   1      31.018  24.803  27.620  1.00  0.00     0.156 HD
ATOM     28  H   UNL A   1      30.668  23.625  26.440  1.00  0.00     0.156 HD
ENDBRANCH   6  26
ENDBRANCH   1   3
BRANCH   1  29
ATOM     29  C   UNL A   1      36.451  21.651  24.471  1.00  0.00     0.313 C 
ATOM     30  O   UNL A   1      36.525  22.398  23.501  1.00  0.00    -0.252 OA
BRANCH  29  31
ATOM     31  O   UNL A   1      37.438  20.796  24.850  1.00  0.00    -0.462 OA
BRANCH  31  32
ATOM     32  C   UNL A   1      38.584  21.378  25.502  1.00  0.00     0.274 C 
BRANCH  32  33
ATOM     33  C   UNL A   1      39.418  20.315  26.220  1.00  0.00     0.275 C 
BRANCH  33  34
ATOM     34  O   UNL A   1      40.593  19.973  25.463  1.00  0.00    -0.458 OA
BRANCH  34  35
ATOM     35  C   UNL A   1      41.711  19.790  26.204  1.00  0.00     0.338 C 
ATOM     36  O   UNL A   1      42.177  18.733  26.588  1.00  0.00    -0.246 OA
BRANCH  35  37
ATOM     37  C   UNL A   1      42.388  21.078  26.403  1.00  0.00     0.060 A 
ATOM     38  C   UNL A   1      42.692  21.462  27.712  1.00  0.00     0.016 A 
ATOM     39  C   UNL A   1      42.631  21.942  25.335  1.00  0.00     0.016 A 
ATOM     40  C   UNL A   1      43.219  22.724  27.964  1.00  0.00     0.010 A 
ATOM     41  C   UNL A   1      43.170  23.207  25.588  1.00  0.00     0.010 A 
ATOM     42  C   UNL A   1      43.448  23.612  26.906  1.00  0.00    -0.014 A 
BRANCH  42  43
ATOM     43  C   UNL A   1      43.922  24.986  27.197  1.00  0.00     0.031 A 
ATOM     44  C   UNL A   1      45.358  25.351  26.945  1.00  0.00     0.074 A 
ATOM     45  C   UNL A   1      43.059  25.910  27.655  1.00  0.00     0.049 A 
ATOM     46  N   UNL A   1      45.969  26.488  27.156  1.00  0.00    -0.248 NA
ATOM     47  C   UNL A   1      46.218  24.298  26.382  1.00  0.00     0.031 C 
ATOM     48  C   UNL A   1      41.634  25.684  27.907  1.00  0.00     0.029 A 
ATOM     49  N   UNL A   1      43.254  27.227  27.989  1.00  0.00    -0.354 N 
ATOM     50  C   UNL A   1      47.290  26.284  26.772  1.00  0.00     0.074 A 
ATOM     51  C   UNL A   1      47.393  24.909  26.331  1.00  0.00     0.031 C 
ATOM     52  C   UNL A   1      41.084  26.824  28.356  1.00  0.00     0.029 A 
ATOM     53  C   UNL A   1      42.121  27.848  28.456  1.00  0.00     0.049 A 
ATOM     54  H   UNL A   1      44.122  27.681  27.902  1.00  0.00     0.167 HD
ATOM     55  C   UNL A   1      48.321  27.162  26.784  1.00  0.00     0.031 A 
ATOM     56  C   UNL A   1      41.941  29.095  28.932  1.00  0.00     0.031 A 
ATOM     57  C   UNL A   1      48.216  28.527  27.230  1.00  0.00     0.049 A 
ATOM     58  C   UNL A   1      43.108  30.043  28.970  1.00  0.00     0.074 A 
ATOM     59  C   UNL A   1      49.201  29.498  27.273  1.00  0.00     0.029 A 
ATOM     60  N   UNL A   1      47.055  29.114  27.711  1.00  0.00    -0.354 N 
ATOM     61  N   UNL A   1      44.348  29.837  28.592  1.00  0.00    -0.248 NA
ATOM     62  C   UNL A   1      42.851  31.391  29.494  1.00  0.00     0.031 C 
ATOM     63  C   UNL A   1      48.645  30.660  27.819  1.00  0.00     0.029 A 
ATOM     64  C   UNL A   1      47.303  30.427  28.073  1.00  0.00     0.049 A 
ATOM     65  H   UNL A   1      46.184  28.663  27.786  1.00  0.00     0.167 HD
ATOM     66  C   UNL A   1      45.015  31.035  28.820  1.00  0.00     0.074 A 
ATOM     67  C   UNL A   1      44.039  31.964  29.352  1.00  0.00     0.031 C 
ATOM     68  C   UNL A   1      46.321  31.336  28.608  1.00  0.00     0.031 A 
BRANCH  55  69
ATOM     69  C   UNL A   1      49.664  26.650  26.338  1.00  0.00    -0.014 A 
ATOM     70  C   UNL A   1      50.513  25.961  27.223  1.00  0.00     0.010 A 
ATOM     71  C   UNL A   1      50.083  26.860  25.012  1.00  0.00     0.010 A 
ATOM     72  C   UNL A   1      51.777  25.537  26.804  1.00  0.00     0.020 A 
ATOM     73  C   UNL A   1      51.337  26.418  24.583  1.00  0.00     0.020 A 
ATOM     74  C   UNL A   1      52.186  25.779  25.490  1.00  0.00     0.054 A 
BRANCH  74  75
ATOM     75  S   UNL A   1      53.837  25.234  24.973  1.00  0.00     0.124 S 
ATOM     76  O   UNL A   1      53.633  23.800  24.778  1.00  0.00    -0.237 OA
ATOM     77  O   UNL A   1      54.066  26.004  23.753  1.00  0.00    -0.237 OA
ATOM     78  O   UNL A   1      54.691  25.594  26.103  1.00  0.00    -0.744 OA
ENDBRANCH  74  75
ENDBRANCH  55  69
BRANCH  56  79
ATOM     79  C   UNL A   1      40.602  29.503  29.431  1.00  0.00    -0.014 A 
ATOM     80  C   UNL A   1      40.287  29.423  30.798  1.00  0.00     0.010 A 
ATOM     81  C   UNL A   1      39.643  30.012  28.535  1.00  0.00     0.010 A 
ATOM     82  C   UNL A   1      39.036  29.841  31.261  1.00  0.00     0.020 A 
ATOM     83  C   UNL A   1      38.399  30.453  28.997  1.00  0.00     0.020 A 
ATOM     84  C   UNL A   1      38.101  30.357  30.357  1.00  0.00     0.054 A 
BRANCH  84  85
ATOM     85  S   UNL A   1      36.511  30.966  30.987  1.00  0.00     0.124 S 
ATOM     86  O   UNL A   1      35.794  31.272  29.754  1.00  0.00    -0.237 OA
ATOM     87  O   UNL A   1      36.009  29.822  31.744  1.00  0.00    -0.237 OA
ATOM     88  O   UNL A   1      36.887  32.122  31.798  1.00  0.00    -0.744 OA
ENDBRANCH  84  85
ENDBRANCH  56  79
BRANCH  68  89
ATOM     89  C   UNL A   1      46.764  32.737  28.932  1.00  0.00    -0.014 A 
ATOM     90  C   UNL A   1      47.280  33.060  30.199  1.00  0.00     0.010 A 
ATOM     91  C   UNL A   1      46.710  33.731  27.938  1.00  0.00     0.010 A 
ATOM     92  C   UNL A   1      47.708  34.360  30.476  1.00  0.00     0.020 A 
ATOM     93  C   UNL A   1      47.158  35.028  28.205  1.00  0.00     0.020 A 
ATOM     94  C   UNL A   1      47.641  35.338  29.478  1.00  0.00     0.054 A 
BRANCH  94  95
ATOM     95  S   UNL A   1      48.243  37.009  29.844  1.00  0.00     0.124 S 
ATOM     96  O   UNL A   1      48.610  36.898  31.254  1.00  0.00    -0.237 OA
ATOM     97  O   UNL A   1      49.360  37.163  28.915  1.00  0.00    -0.237 OA
ATOM     98  O   UNL A   1      47.089  37.860  29.566  1.00  0.00    -0.744 OA
ENDBRANCH  94  95
ENDBRANCH  68  89
ENDBRANCH  42  43
ENDBRANCH  35  37
ENDBRANCH  34  35
ENDBRANCH  33  34
ENDBRANCH  32  33
ENDBRANCH  31  32
ENDBRANCH  29  31
ENDBRANCH   1  29
TORSDOF 24
ENDMDL
MODEL 3
REMARK VINA RESULT:      -9.0      5.890      8.232
REMARK SMILES CCCCCCNC(=O)Oc1cccc(-c2ccc([C@@H](C)C(=O)OCCOC(=O)c3ccc(-c4c5nc(c(-c6ccc(S(=O)(=O)[O-])cc6)c6ccc([nH]6)c(-c6ccc(S(=O)(=O)[O-])cc6)c6nc(c(-c7ccc(S(=O)(=O)[O-])cc7)c7ccc4[nH]7)C=C6)C=C5)cc3)cc2N)c1
REMARK SMILES IDX 20 1 21 2 19 3 16 4 17 5 91 6 18 7 90 8 15 9 11 10 12 11
REMARK SMILES IDX 93 12 13 13 14 14 10 15 8 16 7 17 9 19 6 20 5 21 4 22 3 23
REMARK SMILES IDX 2 24 1 25 92 26 22 29 23 30 24 31 25 32 26 33 27 34 28 35
REMARK SMILES IDX 29 36 30 37 31 38 89 39 32 40 88 41 33 42 34 43 35 44 82 45
REMARK SMILES IDX 36 46 87 47 81 48 83 49 37 50 86 51 80 52 79 53 38 55 68 56
REMARK SMILES IDX 49 57 67 58 50 59 53 60 66 61 84 62 51 63 52 64 65 66 85 67
REMARK SMILES IDX 54 68 39 69 40 70 48 71 41 72 47 73 42 74 43 75 44 76 45 77
REMARK SMILES IDX 46 78 69 79 70 80 78 81 71 82 77 83 72 84 73 85 74 86 75 87
REMARK SMILES IDX 76 88 55 89 56 90 64 91 57 92 63 93 58 94 59 95 60 96 61 97
REMARK SMILES IDX 62 98
REMARK H PARENT 7 18 92 27 92 28 83 54 53 65
REMARK Flexibility Score: inf
ROOT
ATOM      1  C   UNL A   1      35.737  21.207  25.240  1.00  0.00     0.126 C 
ATOM      2  C   UNL A   1      35.341  19.763  24.941  1.00  0.00     0.025 C 
ENDROOT
BRANCH   1   3
ATOM      3  C   UNL A   1      34.604  22.187  24.975  1.00  0.00    -0.032 A 
ATOM      4  C   UNL A   1      32.482  23.992  24.395  1.00  0.00     0.005 A 
ATOM      5  C   UNL A   1      33.364  24.211  25.471  1.00  0.00     0.011 A 
ATOM      6  C   UNL A   1      32.658  22.831  23.610  1.00  0.00     0.040 A 
ATOM      7  C   UNL A   1      34.408  23.328  25.756  1.00  0.00     0.005 A 
ATOM      8  C   UNL A   1      33.728  21.966  23.897  1.00  0.00     0.030 A 
BRANCH   4   9
ATOM      9  C   UNL A   1      31.417  24.980  24.135  1.00  0.00    -0.013 A 
ATOM     10  C   UNL A   1      30.496  26.827  22.858  1.00  0.00     0.133 A 
ATOM     11  C   UNL A   1      29.390  26.895  23.702  1.00  0.00     0.047 A 
ATOM     12  C   UNL A   1      31.504  25.884  23.062  1.00  0.00     0.056 A 
ATOM     13  C   UNL A   1      29.279  25.991  24.755  1.00  0.00     0.004 A 
ATOM     14  C   UNL A   1      30.286  25.047  24.969  1.00  0.00     0.009 A 
BRANCH  10  15
ATOM     15  O   UNL A   1      30.622  27.838  21.891  1.00  0.00    -0.410 OA
BRANCH  15  16
ATOM     16  C   UNL A   1      30.331  29.141  22.266  1.00  0.00     0.412 C 
ATOM     17  N   UNL A   1      31.279  29.686  23.088  1.00  0.00    -0.321 N 
ATOM     18  H   UNL A   1      31.130  30.616  23.372  1.00  0.00     0.167 HD
ATOM     19  O   UNL A   1      29.335  29.777  21.945  1.00  0.00    -0.224 OA
BRANCH  17  20
ATOM     20  C   UNL A   1      32.481  29.043  23.586  1.00  0.00     0.119 C 
BRANCH  20  21
ATOM     21  C   UNL A   1      32.341  28.581  25.035  1.00  0.00     0.021 C 
BRANCH  21  22
ATOM     22  C   UNL A   1      33.374  29.166  26.007  1.00  0.00     0.002 C 
BRANCH  22  23
ATOM     23  C   UNL A   1      32.800  29.902  27.224  1.00  0.00    -0.000 C 
BRANCH  23  24
ATOM     24  C   UNL A   1      32.614  31.412  27.057  1.00  0.00    -0.003 C 
ATOM     25  C   UNL A   1      31.259  31.793  26.482  1.00  0.00     0.004 C 
ENDBRANCH  23  24
ENDBRANCH  22  23
ENDBRANCH  21  22
ENDBRANCH  20  21
ENDBRANCH  17  20
ENDBRANCH  15  16
ENDBRANCH  10  15
ENDBRANCH   4   9
BRANCH   6  26
ATOM     26  N   UNL A   1      31.913  22.589  22.454  1.00  0.00    -0.398 N 
ATOM     27  H   UNL A   1      30.932  22.650  22.479  1.00  0.00     0.156 HD
ATOM     28  H   UNL A   1      32.371  22.359  21.613  1.00  0.00     0.156 HD
ENDBRANCH   6  26
ENDBRANCH   1   3
BRANCH   1  29
ATOM     29  C   UNL A   1      37.071  21.527  24.575  1.00  0.00     0.313 C 
ATOM     30  O   UNL A   1      37.140  22.173  23.533  1.00  0.00    -0.252 OA
BRANCH  29  31
ATOM     31  O   UNL A   1      38.152  21.087  25.271  1.00  0.00    -0.462 OA
BRANCH  31  32
ATOM     32  C   UNL A   1      38.888  22.075  26.017  1.00  0.00     0.274 C 
BRANCH  32  33
ATOM     33  C   UNL A   1      40.041  21.441  26.799  1.00  0.00     0.275 C 
BRANCH  33  34
ATOM     34  O   UNL A   1      40.623  20.343  26.074  1.00  0.00    -0.458 OA
BRANCH  34  35
ATOM     35  C   UNL A   1      41.920  20.093  26.369  1.00  0.00     0.338 C 
ATOM     36  O   UNL A   1      42.469  19.008  26.423  1.00  0.00    -0.246 OA
BRANCH  35  37
ATOM     37  C   UNL A   1      42.648  21.361  26.514  1.00  0.00     0.060 A 
ATOM     38  C   UNL A   1      43.014  21.761  27.801  1.00  0.00     0.016 A 
ATOM     39  C   UNL A   1      42.877  22.194  25.418  1.00  0.00     0.016 A 
ATOM     40  C   UNL A   1      43.593  23.010  28.005  1.00  0.00     0.010 A 
ATOM     41  C   UNL A   1      43.467  23.445  25.623  1.00  0.00     0.010 A 
ATOM     42  C   UNL A   1      43.810  23.868  26.920  1.00  0.00    -0.014 A 
BRANCH  42  43
ATOM     43  C   UNL A   1      44.341  25.230  27.163  1.00  0.00     0.031 A 
ATOM     44  C   UNL A   1      43.440  26.299  27.713  1.00  0.00     0.074 A 
ATOM     45  C   UNL A   1      45.638  25.495  26.920  1.00  0.00     0.049 A 
ATOM     46  N   UNL A   1      43.708  27.552  27.971  1.00  0.00    -0.248 NA
ATOM     47  C   UNL A   1      42.053  25.904  28.010  1.00  0.00     0.031 C 
ATOM     48  C   UNL A   1      46.618  24.532  26.417  1.00  0.00     0.029 A 
ATOM     49  N   UNL A   1      46.354  26.657  27.066  1.00  0.00    -0.354 N 
ATOM     50  C   UNL A   1      42.522  28.104  28.442  1.00  0.00     0.074 A 
ATOM     51  C   UNL A   1      41.529  27.051  28.418  1.00  0.00     0.031 C 
ATOM     52  C   UNL A   1      47.808  25.142  26.298  1.00  0.00     0.029 A 
ATOM     53  C   UNL A   1      47.667  26.545  26.681  1.00  0.00     0.049 A 
ATOM     54  H   UNL A   1      45.962  27.490  27.415  1.00  0.00     0.167 HD
ATOM     55  C   UNL A   1      42.284  29.370  28.859  1.00  0.00     0.031 A 
ATOM     56  C   UNL A   1      48.643  27.471  26.620  1.00  0.00     0.031 A 
ATOM     57  C   UNL A   1      43.273  30.416  28.876  1.00  0.00     0.049 A 
ATOM     58  C   UNL A   1      48.347  28.880  27.054  1.00  0.00     0.074 A 
ATOM     59  C   UNL A   1      43.132  31.730  29.288  1.00  0.00     0.029 A 
ATOM     60  N   UNL A   1      44.589  30.267  28.461  1.00  0.00    -0.354 N 
ATOM     61  N   UNL A   1      47.222  29.382  27.508  1.00  0.00    -0.248 NA
ATOM     62  C   UNL A   1      49.451  29.846  26.972  1.00  0.00     0.031 C 
ATOM     63  C   UNL A   1      44.351  32.385  29.083  1.00  0.00     0.029 A 
ATOM     64  C   UNL A   1      45.265  31.468  28.587  1.00  0.00     0.049 A 
ATOM     65  H   UNL A   1      44.983  29.430  28.125  1.00  0.00     0.167 HD
ATOM     66  C   UNL A   1      47.488  30.719  27.778  1.00  0.00     0.074 A 
ATOM     67  C   UNL A   1      48.882  30.943  27.453  1.00  0.00     0.031 C 
ATOM     68  C   UNL A   1      46.651  31.675  28.253  1.00  0.00     0.031 A 
BRANCH  55  69
ATOM     69  C   UNL A   1      40.880  29.698  29.290  1.00  0.00    -0.014 A 
ATOM     70  C   UNL A   1      39.821  29.728  28.365  1.00  0.00     0.010 A 
ATOM     71  C   UNL A   1      40.616  29.979  30.643  1.00  0.00     0.010 A 
ATOM     72  C   UNL A   1      38.534  30.083  28.776  1.00  0.00     0.020 A 
ATOM     73  C   UNL A   1      39.325  30.313  31.062  1.00  0.00     0.020 A 
ATOM     74  C   UNL A   1      38.296  30.385  30.120  1.00  0.00     0.054 A 
BRANCH  74  75
ATOM     75  S   UNL A   1      36.620  30.859  30.627  1.00  0.00     0.124 S 
ATOM     76  O   UNL A   1      36.247  29.751  31.504  1.00  0.00    -0.237 OA
ATOM     77  O   UNL A   1      36.833  32.141  31.295  1.00  0.00    -0.237 OA
ATOM     78  O   UNL A   1      35.884  30.932  29.367  1.00  0.00    -0.744 OA
ENDBRANCH  74  75
ENDBRANCH  55  69
BRANCH  56  79
ATOM     79  C   UNL A   1      49.984  27.090  26.106  1.00  0.00    -0.014 A 
ATOM     80  C   UNL A   1      50.255  27.094  24.727  1.00  0.00     0.010 A 
ATOM     81  C   UNL A   1      51.014  26.756  27.006  1.00  0.00     0.010 A 
ATOM     82  C   UNL A   1      51.530  26.766  24.257  1.00  0.00     0.020 A 
ATOM     83  C   UNL A   1      52.296  26.451  26.541  1.00  0.00     0.020 A 
ATOM     84  C   UNL A   1      52.544  26.450  25.167  1.00  0.00     0.054 A 
BRANCH  84  85
ATOM     85  S   UNL A   1      54.212  26.102  24.542  1.00  0.00     0.124 S 
ATOM     86  O   UNL A   1      54.043  26.296  23.105  1.00  0.00    -0.237 OA
ATOM     87  O   UNL A   1      55.025  27.106  25.224  1.00  0.00    -0.237 OA
ATOM     88  O   UNL A   1      54.453  24.725  24.966  1.00  0.00    -0.744 OA
ENDBRANCH  84  85
ENDBRANCH  56  79
BRANCH  68  89
ATOM     89  C   UNL A   1      47.228  33.048  28.470  1.00  0.00    -0.014 A 
ATOM     90  C   UNL A   1      47.871  33.383  29.675  1.00  0.00     0.010 A 
ATOM     91  C   UNL A   1      47.170  33.998  27.435  1.00  0.00     0.010 A 
ATOM     92  C   UNL A   1      48.421  34.655  29.851  1.00  0.00     0.020 A 
ATOM     93  C   UNL A   1      47.738  35.264  27.599  1.00  0.00     0.020 A 
ATOM     94  C   UNL A   1      48.348  35.589  28.813  1.00  0.00     0.054 A 
BRANCH  94  95
ATOM     95  S   UNL A   1      49.107  37.220  29.046  1.00  0.00     0.124 S 
ATOM     96  O   UNL A   1      49.079  37.764  27.690  1.00  0.00    -0.237 OA
ATOM     97  O   UNL A   1      48.207  37.863  30.000  1.00  0.00    -0.237 OA
ATOM     98  O   UNL A   1      50.437  36.912  29.566  1.00  0.00    -0.744 OA
ENDBRANCH  94  95
ENDBRANCH  68  89
ENDBRANCH  42  43
ENDBRANCH  35  37
ENDBRANCH  34  35
ENDBRANCH  33  34
ENDBRANCH  32  33
ENDBRANCH  31  32
ENDBRANCH  29  31
ENDBRANCH   1  29
TORSDOF 24
ENDMDL
