MODEL 1
REMARK VINA RESULT:     -10.9      0.000      0.000
REMARK SMILES COc1ccc2c(c1OC)C(=O)O[C@@H]2Nc1nonc1C(=O)OCCOC(=O)c1ccc(-c2c3nc(c(-c4ccc(S(=O)(=O)[O-])cc4)c4ccc([nH]4)c(-c4ccc(S(=O)(=O)[O-])cc4)c4nc(c(-c5ccc(S(=O)(=O)[O-])cc5)c5ccc2[nH]5)C=C4)C=C3)cc1
REMARK SMILES IDX 24 1 23 2 21 3 22 4 20 5 16 6 17 7 18 8 19 9 15 10 14 12
REMARK SMILES IDX 3 13 4 14 8 15 5 16 7 17 6 18 11 19 12 20 13 21 2 22 1 23
REMARK SMILES IDX 9 24 10 25 25 26 26 27 27 28 28 29 29 30 30 31 88 32 31 33
REMARK SMILES IDX 87 34 32 35 33 36 34 37 81 38 35 39 86 40 80 41 82 42 36 43
REMARK SMILES IDX 85 44 79 45 78 46 37 48 67 49 48 50 66 51 49 52 52 53 65 54
REMARK SMILES IDX 83 55 50 56 51 57 64 59 84 60 53 61 38 62 39 63 47 64 40 65
REMARK SMILES IDX 46 66 41 67 42 68 43 69 44 70 45 71 68 72 69 73 77 74 70 75
REMARK SMILES IDX 76 76 71 77 72 78 73 79 74 80 75 81 54 82 55 83 63 84 56 85
REMARK SMILES IDX 62 86 57 87 58 88 59 89 60 90 61 91
REMARK H PARENT 15 11 82 47 52 58
REMARK Flexibility Score: inf
ROOT
ATOM      1  C   UNL A   1      41.293  21.368  27.031  1.00  0.00     0.275 C 
ENDROOT
BRANCH   1   2
ATOM      2  O   UNL A   1      41.918  20.872  25.823  1.00  0.00    -0.457 OA
BRANCH   2   3
ATOM      3  C   UNL A   1      42.222  19.543  25.744  1.00  0.00     0.364 C 
ATOM      4  O   UNL A   1      41.388  18.661  25.914  1.00  0.00    -0.244 OA
BRANCH   3   5
ATOM      5  C   UNL A   1      43.612  19.287  25.367  1.00  0.00     0.236 A 
ATOM      6  C   UNL A   1      44.596  20.098  24.731  1.00  0.00     0.209 A 
ATOM      7  N   UNL A   1      45.648  19.339  24.422  1.00  0.00    -0.031 NA
ATOM      8  O   UNL A   1      45.377  18.091  24.953  1.00  0.00    -0.241 OA
ATOM      9  N   UNL A   1      44.150  18.076  25.586  1.00  0.00    -0.040 NA
BRANCH   6  10
ATOM     10  N   UNL A   1      44.589  21.430  24.476  1.00  0.00    -0.326 N 
ATOM     11  H   UNL A   1      43.895  21.812  23.891  1.00  0.00     0.166 HD
BRANCH  10  12
ATOM     12  C   UNL A   1      45.582  22.286  25.050  1.00  0.00     0.307 C 
ATOM     13  C   UNL A   1      44.713  25.688  27.298  1.00  0.00     0.161 A 
ATOM     14  C   UNL A   1      43.854  24.597  27.490  1.00  0.00     0.051 A 
ATOM     15  C   UNL A   1      45.694  25.708  26.285  1.00  0.00     0.175 A 
ATOM     16  C   UNL A   1      43.982  23.476  26.688  1.00  0.00     0.014 A 
ATOM     17  C   UNL A   1      45.822  24.554  25.521  1.00  0.00     0.114 A 
ATOM     18  C   UNL A   1      45.017  23.449  25.766  1.00  0.00     0.032 A 
ATOM     19  C   UNL A   1      46.720  24.168  24.419  1.00  0.00     0.344 C 
ATOM     20  O   UNL A   1      47.566  24.830  23.863  1.00  0.00    -0.246 OA
ATOM     21  O   UNL A   1      46.381  22.895  24.044  1.00  0.00    -0.434 OA
BRANCH  13  22
ATOM     22  O   UNL A   1      44.609  26.718  28.201  1.00  0.00    -0.493 OA
ATOM     23  C   UNL A   1      45.152  26.322  29.458  1.00  0.00     0.278 C 
ENDBRANCH  13  22
BRANCH  15  24
ATOM     24  O   UNL A   1      46.459  26.836  26.242  1.00  0.00    -0.492 OA
ATOM     25  C   UNL A   1      46.185  27.779  25.216  1.00  0.00     0.278 C 
ENDBRANCH  15  24
ENDBRANCH  10  12
ENDBRANCH   6  10
ENDBRANCH   3   5
ENDBRANCH   2   3
ENDBRANCH   1   2
BRANCH   1  26
ATOM     26  C   UNL A   1      40.136  22.313  26.673  1.00  0.00     0.275 C 
BRANCH  26  27
ATOM     27  O   UNL A   1      40.200  23.503  27.474  1.00  0.00    -0.458 OA
BRANCH  27  28
ATOM     28  C   UNL A   1      40.002  24.664  26.807  1.00  0.00     0.338 C 
ATOM     29  O   UNL A   1      39.603  24.796  25.663  1.00  0.00    -0.246 OA
BRANCH  28  30
ATOM     30  C   UNL A   1      40.101  25.752  27.790  1.00  0.00     0.060 A 
ATOM     31  C   UNL A   1      39.207  25.750  28.862  1.00  0.00     0.016 A 
ATOM     32  C   UNL A   1      41.095  26.724  27.691  1.00  0.00     0.016 A 
ATOM     33  C   UNL A   1      39.303  26.710  29.858  1.00  0.00     0.010 A 
ATOM     34  C   UNL A   1      41.192  27.690  28.689  1.00  0.00     0.010 A 
ATOM     35  C   UNL A   1      40.295  27.688  29.772  1.00  0.00    -0.014 A 
BRANCH  35  36
ATOM     36  C   UNL A   1      40.336  28.790  30.751  1.00  0.00     0.031 A 
ATOM     37  C   UNL A   1      41.310  28.687  31.885  1.00  0.00     0.074 A 
ATOM     38  C   UNL A   1      39.507  29.841  30.629  1.00  0.00     0.049 A 
ATOM     39  N   UNL A   1      41.394  29.408  32.968  1.00  0.00    -0.248 NA
ATOM     40  C   UNL A   1      42.319  27.616  31.788  1.00  0.00     0.031 C 
ATOM     41  C   UNL A   1      38.584  30.071  29.516  1.00  0.00     0.029 A 
ATOM     42  N   UNL A   1      39.298  30.906  31.464  1.00  0.00    -0.354 N 
ATOM     43  C   UNL A   1      42.447  28.866  33.694  1.00  0.00     0.074 A 
ATOM     44  C   UNL A   1      42.951  27.737  32.945  1.00  0.00     0.031 C 
ATOM     45  C   UNL A   1      37.896  31.203  29.746  1.00  0.00     0.029 A 
ATOM     46  C   UNL A   1      38.285  31.739  31.047  1.00  0.00     0.049 A 
ATOM     47  H   UNL A   1      39.821  31.063  32.282  1.00  0.00     0.167 HD
ATOM     48  C   UNL A   1      42.949  29.286  34.877  1.00  0.00     0.031 A 
ATOM     49  C   UNL A   1      37.713  32.786  31.672  1.00  0.00     0.031 A 
ATOM     50  C   UNL A   1      42.424  30.410  35.603  1.00  0.00     0.049 A 
ATOM     51  C   UNL A   1      38.216  33.163  33.044  1.00  0.00     0.074 A 
ATOM     52  C   UNL A   1      42.830  30.912  36.825  1.00  0.00     0.029 A 
ATOM     53  N   UNL A   1      41.381  31.212  35.162  1.00  0.00    -0.354 N 
ATOM     54  N   UNL A   1      39.190  32.624  33.742  1.00  0.00    -0.248 NA
ATOM     55  C   UNL A   1      37.546  34.285  33.713  1.00  0.00     0.031 C 
ATOM     56  C   UNL A   1      42.000  31.989  37.146  1.00  0.00     0.029 A 
ATOM     57  C   UNL A   1      41.125  32.203  36.092  1.00  0.00     0.049 A 
ATOM     58  H   UNL A   1      40.896  31.094  34.314  1.00  0.00     0.167 HD
ATOM     59  C   UNL A   1      39.281  33.378  34.908  1.00  0.00     0.074 A 
ATOM     60  C   UNL A   1      38.266  34.406  34.820  1.00  0.00     0.031 C 
ATOM     61  C   UNL A   1      40.130  33.237  35.956  1.00  0.00     0.031 A 
BRANCH  48  62
ATOM     62  C   UNL A   1      44.102  28.517  35.460  1.00  0.00    -0.014 A 
ATOM     63  C   UNL A   1      45.432  28.884  35.185  1.00  0.00     0.010 A 
ATOM     64  C   UNL A   1      43.856  27.439  36.331  1.00  0.00     0.010 A 
ATOM     65  C   UNL A   1      46.493  28.171  35.748  1.00  0.00     0.020 A 
ATOM     66  C   UNL A   1      44.915  26.743  36.919  1.00  0.00     0.020 A 
ATOM     67  C   UNL A   1      46.227  27.107  36.615  1.00  0.00     0.054 A 
BRANCH  67  68
ATOM     68  S   UNL A   1      47.627  26.233  37.366  1.00  0.00     0.124 S 
ATOM     69  O   UNL A   1      47.306  26.314  38.788  1.00  0.00    -0.237 OA
ATOM     70  O   UNL A   1      47.526  24.901  36.774  1.00  0.00    -0.237 OA
ATOM     71  O   UNL A   1      48.790  27.012  36.946  1.00  0.00    -0.744 OA
ENDBRANCH  67  68
ENDBRANCH  48  62
BRANCH  49  72
ATOM     72  C   UNL A   1      36.584  33.526  31.043  1.00  0.00    -0.014 A 
ATOM     73  C   UNL A   1      35.577  34.102  31.838  1.00  0.00     0.010 A 
ATOM     74  C   UNL A   1      36.483  33.625  29.644  1.00  0.00     0.010 A 
ATOM     75  C   UNL A   1      34.469  34.718  31.246  1.00  0.00     0.020 A 
ATOM     76  C   UNL A   1      35.395  34.271  29.048  1.00  0.00     0.020 A 
ATOM     77  C   UNL A   1      34.383  34.792  29.853  1.00  0.00     0.054 A 
BRANCH  77  78
ATOM     78  S   UNL A   1      32.931  35.584  29.108  1.00  0.00     0.124 S 
ATOM     79  O   UNL A   1      33.486  36.844  28.624  1.00  0.00    -0.237 OA
ATOM     80  O   UNL A   1      32.544  34.624  28.077  1.00  0.00    -0.237 OA
ATOM     81  O   UNL A   1      31.994  35.700  30.224  1.00  0.00    -0.744 OA
ENDBRANCH  77  78
ENDBRANCH  49  72
BRANCH  61  82
ATOM     82  C   UNL A   1      40.063  34.266  37.051  1.00  0.00    -0.014 A 
ATOM     83  C   UNL A   1      40.893  35.399  37.050  1.00  0.00     0.010 A 
ATOM     84  C   UNL A   1      39.075  34.136  38.046  1.00  0.00     0.010 A 
ATOM     85  C   UNL A   1      40.745  36.378  38.035  1.00  0.00     0.020 A 
ATOM     86  C   UNL A   1      38.902  35.128  39.011  1.00  0.00     0.020 A 
ATOM     87  C   UNL A   1      39.744  36.242  39.003  1.00  0.00     0.054 A 
BRANCH  87  88
ATOM     88  S   UNL A   1      39.517  37.571  40.215  1.00  0.00     0.124 S 
ATOM     89  O   UNL A   1      40.865  38.124  40.316  1.00  0.00    -0.237 OA
ATOM     90  O   UNL A   1      38.531  38.430  39.564  1.00  0.00    -0.237 OA
ATOM     91  O   UNL A   1      39.039  36.875  41.409  1.00  0.00    -0.744 OA
ENDBRANCH  87  88
ENDBRANCH  61  82
ENDBRANCH  35  36
ENDBRANCH  28  30
ENDBRANCH  27  28
ENDBRANCH  26  27
ENDBRANCH   1  26
TORSDOF 18
ENDMDL
MODEL 2
REMARK VINA RESULT:     -10.4      3.334      9.889
REMARK SMILES COc1ccc2c(c1OC)C(=O)O[C@@H]2Nc1nonc1C(=O)OCCOC(=O)c1ccc(-c2c3nc(c(-c4ccc(S(=O)(=O)[O-])cc4)c4ccc([nH]4)c(-c4ccc(S(=O)(=O)[O-])cc4)c4nc(c(-c5ccc(S(=O)(=O)[O-])cc5)c5ccc2[nH]5)C=C4)C=C3)cc1
REMARK SMILES IDX 24 1 23 2 21 3 22 4 20 5 16 6 17 7 18 8 19 9 15 10 14 12
REMARK SMILES IDX 3 13 4 14 8 15 5 16 7 17 6 18 11 19 12 20 13 21 2 22 1 23
REMARK SMILES IDX 9 24 10 25 25 26 26 27 27 28 28 29 29 30 30 31 88 32 31 33
REMARK SMILES IDX 87 34 32 35 33 36 34 37 81 38 35 39 86 40 80 41 82 42 36 43
REMARK SMILES IDX 85 44 79 45 78 46 37 48 67 49 48 50 66 51 49 52 52 53 65 54
REMARK SMILES IDX 83 55 50 56 51 57 64 59 84 60 53 61 38 62 39 63 47 64 40 65
REMARK SMILES IDX 46 66 41 67 42 68 43 69 44 70 45 71 68 72 69 73 77 74 70 75
REMARK SMILES IDX 76 76 71 77 72 78 73 79 74 80 75 81 54 82 55 83 63 84 56 85
REMARK SMILES IDX 62 86 57 87 58 88 59 89 60 90 61 91
REMARK H PARENT 15 11 82 47 52 58
REMARK Flexibility Score: inf
ROOT
ATOM      1  C   UNL A   1      42.306  22.138  25.544  1.00  0.00     0.275 C 
ENDROOT
BRANCH   1   2
ATOM      2  O   UNL A   1      41.310  21.823  26.546  1.00  0.00    -0.457 OA
BRANCH   2   3
ATOM      3  C   UNL A   1      40.095  21.355  26.134  1.00  0.00     0.364 C 
ATOM      4  O   UNL A   1      39.905  20.184  25.826  1.00  0.00    -0.244 OA
BRANCH   3   5
ATOM      5  C   UNL A   1      39.041  22.369  26.169  1.00  0.00     0.236 A 
ATOM      6  C   UNL A   1      37.857  22.547  25.396  1.00  0.00     0.209 A 
ATOM      7  N   UNL A   1      37.333  23.740  25.675  1.00  0.00    -0.031 NA
ATOM      8  O   UNL A   1      38.113  24.263  26.689  1.00  0.00    -0.241 OA
ATOM      9  N   UNL A   1      39.130  23.393  27.033  1.00  0.00    -0.040 NA
BRANCH   6  10
ATOM     10  N   UNL A   1      37.251  21.695  24.530  1.00  0.00    -0.326 N 
ATOM     11  H   UNL A   1      37.741  21.370  23.741  1.00  0.00     0.166 HD
BRANCH  10  12
ATOM     12  C   UNL A   1      35.905  21.266  24.757  1.00  0.00     0.307 C 
ATOM     13  C   UNL A   1      32.537  23.441  23.612  1.00  0.00     0.161 A 
ATOM     14  C   UNL A   1      33.620  23.483  22.722  1.00  0.00     0.051 A 
ATOM     15  C   UNL A   1      32.635  22.859  24.893  1.00  0.00     0.175 A 
ATOM     16  C   UNL A   1      34.825  22.905  23.082  1.00  0.00     0.014 A 
ATOM     17  C   UNL A   1      33.846  22.256  25.210  1.00  0.00     0.114 A 
ATOM     18  C   UNL A   1      34.890  22.235  24.295  1.00  0.00     0.032 A 
ATOM     19  C   UNL A   1      34.331  21.528  26.397  1.00  0.00     0.344 C 
ATOM     20  O   UNL A   1      33.764  21.326  27.447  1.00  0.00    -0.246 OA
ATOM     21  O   UNL A   1      35.626  21.158  26.147  1.00  0.00    -0.434 OA
BRANCH  13  22
ATOM     22  O   UNL A   1      31.340  23.929  23.148  1.00  0.00    -0.493 OA
ATOM     23  C   UNL A   1      31.323  25.351  23.243  1.00  0.00     0.278 C 
ENDBRANCH  13  22
BRANCH  15  24
ATOM     24  O   UNL A   1      31.488  22.885  25.629  1.00  0.00    -0.492 OA
ATOM     25  C   UNL A   1      31.416  23.809  26.706  1.00  0.00     0.278 C 
ENDBRANCH  15  24
ENDBRANCH  10  12
ENDBRANCH   6  10
ENDBRANCH   3   5
ENDBRANCH   2   3
ENDBRANCH   1   2
BRANCH   1  26
ATOM     26  C   UNL A   1      43.022  23.447  25.911  1.00  0.00     0.275 C 
BRANCH  26  27
ATOM     27  O   UNL A   1      42.107  24.353  26.545  1.00  0.00    -0.458 OA
BRANCH  27  28
ATOM     28  C   UNL A   1      42.300  25.664  26.269  1.00  0.00     0.338 C 
ATOM     29  O   UNL A   1      42.478  26.166  25.172  1.00  0.00    -0.246 OA
BRANCH  28  30
ATOM     30  C   UNL A   1      41.995  26.416  27.494  1.00  0.00     0.060 A 
ATOM     31  C   UNL A   1      42.733  27.572  27.756  1.00  0.00     0.016 A 
ATOM     32  C   UNL A   1      40.961  26.022  28.342  1.00  0.00     0.016 A 
ATOM     33  C   UNL A   1      42.439  28.359  28.859  1.00  0.00     0.010 A 
ATOM     34  C   UNL A   1      40.665  26.809  29.452  1.00  0.00     0.010 A 
ATOM     35  C   UNL A   1      41.405  27.977  29.714  1.00  0.00    -0.014 A 
BRANCH  35  36
ATOM     36  C   UNL A   1      41.157  28.729  30.959  1.00  0.00     0.031 A 
ATOM     37  C   UNL A   1      40.078  29.768  30.950  1.00  0.00     0.074 A 
ATOM     38  C   UNL A   1      41.896  28.491  32.057  1.00  0.00     0.049 A 
ATOM     39  N   UNL A   1      39.812  30.688  31.835  1.00  0.00    -0.248 NA
ATOM     40  C   UNL A   1      39.187  29.778  29.776  1.00  0.00     0.031 C 
ATOM     41  C   UNL A   1      42.911  27.444  32.188  1.00  0.00     0.029 A 
ATOM     42  N   UNL A   1      41.916  29.131  33.267  1.00  0.00    -0.354 N 
ATOM     43  C   UNL A   1      38.738  31.401  31.317  1.00  0.00     0.074 A 
ATOM     44  C   UNL A   1      38.423  30.830  30.026  1.00  0.00     0.031 C 
ATOM     45  C   UNL A   1      43.465  27.524  33.411  1.00  0.00     0.029 A 
ATOM     46  C   UNL A   1      42.889  28.662  34.119  1.00  0.00     0.049 A 
ATOM     47  H   UNL A   1      41.294  29.856  33.506  1.00  0.00     0.167 HD
ATOM     48  C   UNL A   1      38.074  32.436  31.879  1.00  0.00     0.031 A 
ATOM     49  C   UNL A   1      43.292  29.134  35.315  1.00  0.00     0.031 A 
ATOM     50  C   UNL A   1      38.413  32.987  33.162  1.00  0.00     0.049 A 
ATOM     51  C   UNL A   1      42.610  30.361  35.868  1.00  0.00     0.074 A 
ATOM     52  C   UNL A   1      37.832  34.053  33.822  1.00  0.00     0.029 A 
ATOM     53  N   UNL A   1      39.421  32.503  33.984  1.00  0.00    -0.354 N 
ATOM     54  N   UNL A   1      41.618  31.054  35.356  1.00  0.00    -0.248 NA
ATOM     55  C   UNL A   1      43.099  30.870  37.155  1.00  0.00     0.031 C 
ATOM     56  C   UNL A   1      38.520  34.245  35.023  1.00  0.00     0.029 A 
ATOM     57  C   UNL A   1      39.483  33.254  35.143  1.00  0.00     0.049 A 
ATOM     58  H   UNL A   1      40.004  31.739  33.773  1.00  0.00     0.167 HD
ATOM     59  C   UNL A   1      41.332  32.048  36.287  1.00  0.00     0.074 A 
ATOM     60  C   UNL A   1      42.254  31.866  37.389  1.00  0.00     0.031 C 
ATOM     61  C   UNL A   1      40.390  33.022  36.240  1.00  0.00     0.031 A 
BRANCH  48  62
ATOM     62  C   UNL A   1      36.939  33.042  31.103  1.00  0.00    -0.014 A 
ATOM     63  C   UNL A   1      37.176  33.791  29.935  1.00  0.00     0.010 A 
ATOM     64  C   UNL A   1      35.612  32.826  31.518  1.00  0.00     0.010 A 
ATOM     65  C   UNL A   1      36.111  34.334  29.214  1.00  0.00     0.020 A 
ATOM     66  C   UNL A   1      34.542  33.342  30.781  1.00  0.00     0.020 A 
ATOM     67  C   UNL A   1      34.799  34.102  29.640  1.00  0.00     0.054 A 
BRANCH  67  68
ATOM     68  S   UNL A   1      33.437  34.781  28.654  1.00  0.00     0.124 S 
ATOM     69  O   UNL A   1      33.163  33.688  27.724  1.00  0.00    -0.237 OA
ATOM     70  O   UNL A   1      32.406  35.024  29.659  1.00  0.00    -0.237 OA
ATOM     71  O   UNL A   1      34.010  35.981  28.049  1.00  0.00    -0.744 OA
ENDBRANCH  67  68
ENDBRANCH  48  62
BRANCH  49  72
ATOM     72  C   UNL A   1      44.412  28.486  36.053  1.00  0.00    -0.014 A 
ATOM     73  C   UNL A   1      45.748  28.794  35.739  1.00  0.00     0.010 A 
ATOM     74  C   UNL A   1      44.153  27.523  37.046  1.00  0.00     0.010 A 
ATOM     75  C   UNL A   1      46.800  28.119  36.366  1.00  0.00     0.020 A 
ATOM     76  C   UNL A   1      45.202  26.872  37.702  1.00  0.00     0.020 A 
ATOM     77  C   UNL A   1      46.519  27.157  37.340  1.00  0.00     0.054 A 
BRANCH  77  78
ATOM     78  S   UNL A   1      47.899  26.286  38.131  1.00  0.00     0.124 S 
ATOM     79  O   UNL A   1      48.277  25.320  37.104  1.00  0.00    -0.237 OA
ATOM     80  O   UNL A   1      48.856  27.363  38.370  1.00  0.00    -0.237 OA
ATOM     81  O   UNL A   1      47.300  25.715  39.336  1.00  0.00    -0.744 OA
ENDBRANCH  77  78
ENDBRANCH  49  72
BRANCH  61  82
ATOM     82  C   UNL A   1      40.243  33.911  37.444  1.00  0.00    -0.014 A 
ATOM     83  C   UNL A   1      41.018  35.071  37.604  1.00  0.00     0.010 A 
ATOM     84  C   UNL A   1      39.232  33.622  38.382  1.00  0.00     0.010 A 
ATOM     85  C   UNL A   1      40.795  35.920  38.690  1.00  0.00     0.020 A 
ATOM     86  C   UNL A   1      38.985  34.486  39.449  1.00  0.00     0.020 A 
ATOM     87  C   UNL A   1      39.773  35.628  39.600  1.00  0.00     0.054 A 
BRANCH  87  88
ATOM     88  S   UNL A   1      39.448  36.794  40.949  1.00  0.00     0.124 S 
ATOM     89  O   UNL A   1      40.795  37.234  41.303  1.00  0.00    -0.237 OA
ATOM     90  O   UNL A   1      38.606  37.799  40.305  1.00  0.00    -0.237 OA
ATOM     91  O   UNL A   1      38.774  35.979  41.959  1.00  0.00    -0.744 OA
ENDBRANCH  87  88
ENDBRANCH  61  82
ENDBRANCH  35  36
ENDBRANCH  28  30
ENDBRANCH  27  28
ENDBRANCH  26  27
ENDBRANCH   1  26
TORSDOF 18
ENDMDL
MODEL 3
REMARK VINA RESULT:     -10.4      2.768      4.756
REMARK SMILES COc1ccc2c(c1OC)C(=O)O[C@@H]2Nc1nonc1C(=O)OCCOC(=O)c1ccc(-c2c3nc(c(-c4ccc(S(=O)(=O)[O-])cc4)c4ccc([nH]4)c(-c4ccc(S(=O)(=O)[O-])cc4)c4nc(c(-c5ccc(S(=O)(=O)[O-])cc5)c5ccc2[nH]5)C=C4)C=C3)cc1
REMARK SMILES IDX 24 1 23 2 21 3 22 4 20 5 16 6 17 7 18 8 19 9 15 10 14 12
REMARK SMILES IDX 3 13 4 14 8 15 5 16 7 17 6 18 11 19 12 20 13 21 2 22 1 23
REMARK SMILES IDX 9 24 10 25 25 26 26 27 27 28 28 29 29 30 30 31 88 32 31 33
REMARK SMILES IDX 87 34 32 35 33 36 34 37 81 38 35 39 86 40 80 41 82 42 36 43
REMARK SMILES IDX 85 44 79 45 78 46 37 48 67 49 48 50 66 51 49 52 52 53 65 54
REMARK SMILES IDX 83 55 50 56 51 57 64 59 84 60 53 61 38 62 39 63 47 64 40 65
REMARK SMILES IDX 46 66 41 67 42 68 43 69 44 70 45 71 68 72 69 73 77 74 70 75
REMARK SMILES IDX 76 76 71 77 72 78 73 79 74 80 75 81 54 82 55 83 63 84 56 85
REMARK SMILES IDX 62 86 57 87 58 88 59 89 60 90 61 91
REMARK H PARENT 15 11 82 47 52 58
REMARK Flexibility Score: inf
ROOT
ATOM      1  C   UNL A   1      45.039  22.560  23.825  1.00  0.00     0.275 C 
ENDROOT
BRANCH   1   2
ATOM      2  O   UNL A   1      46.433  22.901  24.023  1.00  0.00    -0.457 OA
BRANCH   2   3
ATOM      3  C   UNL A   1      46.760  23.734  25.055  1.00  0.00     0.364 C 
ATOM      4  O   UNL A   1      46.777  23.366  26.224  1.00  0.00    -0.244 OA
BRANCH   3   5
ATOM      5  C   UNL A   1      47.153  25.073  24.617  1.00  0.00     0.236 A 
ATOM      6  C   UNL A   1      46.862  26.372  25.127  1.00  0.00     0.209 A 
ATOM      7  N   UNL A   1      47.286  27.285  24.253  1.00  0.00    -0.031 NA
ATOM      8  O   UNL A   1      47.933  26.577  23.257  1.00  0.00    -0.241 OA
ATOM      9  N   UNL A   1      47.902  25.220  23.512  1.00  0.00    -0.040 NA
BRANCH   6  10
ATOM     10  N   UNL A   1      46.298  26.733  26.307  1.00  0.00    -0.326 N 
ATOM     11  H   UNL A   1      46.212  26.071  27.030  1.00  0.00     0.166 HD
BRANCH  10  12
ATOM     12  C   UNL A   1      45.828  28.069  26.509  1.00  0.00     0.307 C 
ATOM     13  C   UNL A   1      45.425  29.862  30.251  1.00  0.00     0.161 A 
ATOM     14  C   UNL A   1      46.537  29.022  30.096  1.00  0.00     0.051 A 
ATOM     15  C   UNL A   1      44.408  29.956  29.279  1.00  0.00     0.175 A 
ATOM     16  C   UNL A   1      46.676  28.279  28.937  1.00  0.00     0.014 A 
ATOM     17  C   UNL A   1      44.595  29.226  28.111  1.00  0.00     0.114 A 
ATOM     18  C   UNL A   1      45.736  28.455  27.932  1.00  0.00     0.032 A 
ATOM     19  C   UNL A   1      43.809  29.082  26.874  1.00  0.00     0.344 C 
ATOM     20  O   UNL A   1      42.729  29.557  26.602  1.00  0.00    -0.246 OA
ATOM     21  O   UNL A   1      44.487  28.217  26.058  1.00  0.00    -0.434 OA
BRANCH  13  22
ATOM     22  O   UNL A   1      45.407  30.657  31.372  1.00  0.00    -0.493 OA
ATOM     23  C   UNL A   1      46.727  30.799  31.891  1.00  0.00     0.278 C 
ENDBRANCH  13  22
BRANCH  15  24
ATOM     24  O   UNL A   1      43.404  30.830  29.574  1.00  0.00    -0.492 OA
ATOM     25  C   UNL A   1      43.476  32.131  29.009  1.00  0.00     0.278 C 
ENDBRANCH  15  24
ENDBRANCH  10  12
ENDBRANCH   6  10
ENDBRANCH   3   5
ENDBRANCH   2   3
ENDBRANCH   1   2
BRANCH   1  26
ATOM     26  C   UNL A   1      44.744  21.185  24.442  1.00  0.00     0.275 C 
BRANCH  26  27
ATOM     27  O   UNL A   1      44.213  21.339  25.767  1.00  0.00    -0.458 OA
BRANCH  27  28
ATOM     28  C   UNL A   1      42.926  21.756  25.834  1.00  0.00     0.338 C 
ATOM     29  O   UNL A   1      41.947  21.193  25.377  1.00  0.00    -0.246 OA
BRANCH  28  30
ATOM     30  C   UNL A   1      42.883  22.877  26.783  1.00  0.00     0.060 A 
ATOM     31  C   UNL A   1      43.322  24.127  26.342  1.00  0.00     0.016 A 
ATOM     32  C   UNL A   1      42.364  22.714  28.067  1.00  0.00     0.016 A 
ATOM     33  C   UNL A   1      43.234  25.235  27.172  1.00  0.00     0.010 A 
ATOM     34  C   UNL A   1      42.278  23.824  28.902  1.00  0.00     0.010 A 
ATOM     35  C   UNL A   1      42.715  25.085  28.458  1.00  0.00    -0.014 A 
BRANCH  35  36
ATOM     36  C   UNL A   1      42.729  26.221  29.400  1.00  0.00     0.031 A 
ATOM     37  C   UNL A   1      43.816  26.269  30.429  1.00  0.00     0.074 A 
ATOM     38  C   UNL A   1      41.777  27.169  29.336  1.00  0.00     0.049 A 
ATOM     39  N   UNL A   1      43.924  27.034  31.479  1.00  0.00    -0.248 NA
ATOM     40  C   UNL A   1      44.925  25.313  30.256  1.00  0.00     0.031 C 
ATOM     41  C   UNL A   1      40.727  27.254  28.319  1.00  0.00     0.029 A 
ATOM     42  N   UNL A   1      41.532  28.235  30.161  1.00  0.00    -0.354 N 
ATOM     43  C   UNL A   1      45.099  26.640  32.106  1.00  0.00     0.074 A 
ATOM     44  C   UNL A   1      45.652  25.546  31.338  1.00  0.00     0.031 C 
ATOM     45  C   UNL A   1      39.942  28.311  28.589  1.00  0.00     0.029 A 
ATOM     46  C   UNL A   1      40.395  28.934  29.829  1.00  0.00     0.049 A 
ATOM     47  H   UNL A   1      42.113  28.479  30.916  1.00  0.00     0.167 HD
ATOM     48  C   UNL A   1      45.665  27.157  33.220  1.00  0.00     0.031 A 
ATOM     49  C   UNL A   1      39.773  29.934  30.483  1.00  0.00     0.031 A 
ATOM     50  C   UNL A   1      45.091  28.242  33.966  1.00  0.00     0.049 A 
ATOM     51  C   UNL A   1      40.363  30.415  31.785  1.00  0.00     0.074 A 
ATOM     52  C   UNL A   1      45.557  28.831  35.127  1.00  0.00     0.029 A 
ATOM     53  N   UNL A   1      43.925  28.907  33.615  1.00  0.00    -0.354 N 
ATOM     54  N   UNL A   1      41.457  30.014  32.392  1.00  0.00    -0.248 NA
ATOM     55  C   UNL A   1      39.640  31.481  32.490  1.00  0.00     0.031 C 
ATOM     56  C   UNL A   1      44.646  29.821  35.503  1.00  0.00     0.029 A 
ATOM     57  C   UNL A   1      43.652  29.897  34.540  1.00  0.00     0.049 A 
ATOM     58  H   UNL A   1      43.375  28.705  32.825  1.00  0.00     0.167 HD
ATOM     59  C   UNL A   1      41.577  30.816  33.523  1.00  0.00     0.074 A 
ATOM     60  C   UNL A   1      40.448  31.722  33.514  1.00  0.00     0.031 C 
ATOM     61  C   UNL A   1      42.537  30.809  34.481  1.00  0.00     0.031 A 
BRANCH  48  62
ATOM     62  C   UNL A   1      46.950  26.542  33.700  1.00  0.00    -0.014 A 
ATOM     63  C   UNL A   1      48.197  27.057  33.298  1.00  0.00     0.010 A 
ATOM     64  C   UNL A   1      46.916  25.462  34.602  1.00  0.00     0.010 A 
ATOM     65  C   UNL A   1      49.382  26.487  33.765  1.00  0.00     0.020 A 
ATOM     66  C   UNL A   1      48.101  24.910  35.096  1.00  0.00     0.020 A 
ATOM     67  C   UNL A   1      49.327  25.418  34.666  1.00  0.00     0.054 A 
BRANCH  67  68
ATOM     68  S   UNL A   1      50.884  24.733  35.291  1.00  0.00     0.124 S 
ATOM     69  O   UNL A   1      51.486  25.894  35.941  1.00  0.00    -0.237 OA
ATOM     70  O   UNL A   1      50.428  23.676  36.191  1.00  0.00    -0.237 OA
ATOM     71  O   UNL A   1      51.569  24.270  34.087  1.00  0.00    -0.744 OA
ENDBRANCH  67  68
ENDBRANCH  48  62
BRANCH  49  72
ATOM     72  C   UNL A   1      38.509  30.521  29.955  1.00  0.00    -0.014 A 
ATOM     73  C   UNL A   1      38.525  31.746  29.264  1.00  0.00     0.010 A 
ATOM     74  C   UNL A   1      37.276  29.882  30.175  1.00  0.00     0.010 A 
ATOM     75  C   UNL A   1      37.329  32.343  28.848  1.00  0.00     0.020 A 
ATOM     76  C   UNL A   1      36.081  30.458  29.730  1.00  0.00     0.020 A 
ATOM     77  C   UNL A   1      36.115  31.696  29.090  1.00  0.00     0.054 A 
BRANCH  77  78
ATOM     78  S   UNL A   1      34.578  32.496  28.553  1.00  0.00     0.124 S 
ATOM     79  O   UNL A   1      33.855  31.386  27.941  1.00  0.00    -0.237 OA
ATOM     80  O   UNL A   1      34.026  32.994  29.810  1.00  0.00    -0.237 OA
ATOM     81  O   UNL A   1      35.035  33.531  27.628  1.00  0.00    -0.744 OA
ENDBRANCH  77  78
ENDBRANCH  49  72
BRANCH  61  82
ATOM     82  C   UNL A   1      42.463  31.865  35.550  1.00  0.00    -0.014 A 
ATOM     83  C   UNL A   1      43.117  33.100  35.413  1.00  0.00     0.010 A 
ATOM     84  C   UNL A   1      41.637  31.642  36.668  1.00  0.00     0.010 A 
ATOM     85  C   UNL A   1      42.955  34.090  36.385  1.00  0.00     0.020 A 
ATOM     86  C   UNL A   1      41.447  32.641  37.623  1.00  0.00     0.020 A 
ATOM     87  C   UNL A   1      42.114  33.858  37.478  1.00  0.00     0.054 A 
BRANCH  87  88
ATOM     88  S   UNL A   1      41.855  35.193  38.677  1.00  0.00     0.124 S 
ATOM     89  O   UNL A   1      42.177  36.379  37.888  1.00  0.00    -0.237 OA
ATOM     90  O   UNL A   1      40.446  35.035  39.030  1.00  0.00    -0.237 OA
ATOM     91  O   UNL A   1      42.799  34.886  39.750  1.00  0.00    -0.744 OA
ENDBRANCH  87  88
ENDBRANCH  61  82
ENDBRANCH  35  36
ENDBRANCH  28  30
ENDBRANCH  27  28
ENDBRANCH  26  27
ENDBRANCH   1  26
TORSDOF 18
ENDMDL
