MODEL 1
REMARK VINA RESULT:     -10.8      0.000      0.000
REMARK SMILES O=C(CNc1nc(-c2ccccc2)c(-c2ccccc2)s1)OCCOC(=O)c1ccc(-c2c3nc(c(-c4ccc(S(=O)(=O)[O-])cc4)c4ccc([nH]4)c(-c4ccc(S(=O)(=O)[O-])cc4)c4nc(c(-c5ccc(S(=O)(=O)[O-])cc5)c5ccc2[nH]5)C=C4)C=C3)cc1
REMARK SMILES IDX 23 1 22 2 2 3 1 4 3 5 4 6 5 8 6 9 21 10 7 11 14 12 8 13 9 14
REMARK SMILES IDX 13 15 10 16 12 17 11 18 15 19 16 20 20 21 17 22 19 23 18 24
REMARK SMILES IDX 24 25 25 26 26 27 27 28 28 29 29 30 87 31 30 32 86 33 31 34
REMARK SMILES IDX 32 35 33 36 80 37 34 38 85 39 79 40 81 41 35 42 84 43 78 44
REMARK SMILES IDX 77 45 36 47 66 48 47 49 65 50 48 51 51 52 64 53 82 54 49 55
REMARK SMILES IDX 50 56 63 58 83 59 52 60 37 61 38 62 46 63 39 64 45 65 40 66
REMARK SMILES IDX 41 67 42 68 43 69 44 70 67 71 68 72 76 73 69 74 75 75 70 76
REMARK SMILES IDX 71 77 72 78 73 79 74 80 53 81 54 82 62 83 55 84 61 85 56 86
REMARK SMILES IDX 57 87 58 88 59 89 60 90
REMARK H PARENT 4 7 81 46 51 57
REMARK Flexibility Score: inf
ROOT
ATOM      1  C   UNL A   1      32.415  28.041  26.374  1.00  0.00     0.274 C 
ENDROOT
BRANCH   1   2
ATOM      2  O   UNL A   1      31.097  27.920  25.796  1.00  0.00    -0.461 OA
BRANCH   2   3
ATOM      3  C   UNL A   1      30.787  28.031  24.479  1.00  0.00     0.325 C 
ATOM      4  O   UNL A   1      31.029  29.084  23.888  1.00  0.00    -0.250 OA
BRANCH   3   5
ATOM      5  C   UNL A   1      30.169  26.848  23.743  1.00  0.00     0.238 C 
BRANCH   5   6
ATOM      6  N   UNL A   1      31.064  26.304  22.738  1.00  0.00    -0.351 N 
ATOM      7  H   UNL A   1      31.064  26.683  21.829  1.00  0.00     0.163 HD
BRANCH   6   8
ATOM      8  C   UNL A   1      31.892  25.287  23.035  1.00  0.00     0.184 A 
ATOM      9  N   UNL A   1      31.529  24.036  23.203  1.00  0.00    -0.220 NA
ATOM     10  S   UNL A   1      33.546  25.615  23.353  1.00  0.00    -0.096 S 
ATOM     11  C   UNL A   1      32.604  23.276  23.636  1.00  0.00     0.091 A 
ATOM     12  C   UNL A   1      33.775  23.987  23.843  1.00  0.00     0.064 A 
BRANCH  11  13
ATOM     13  C   UNL A   1      32.488  21.836  23.823  1.00  0.00     0.002 A 
ATOM     14  C   UNL A   1      32.702  21.243  25.075  1.00  0.00     0.010 A 
ATOM     15  C   UNL A   1      32.237  21.019  22.715  1.00  0.00     0.010 A 
ATOM     16  C   UNL A   1      32.714  19.851  25.205  1.00  0.00     0.001 A 
ATOM     17  C   UNL A   1      32.254  19.627  22.846  1.00  0.00     0.001 A 
ATOM     18  C   UNL A   1      32.503  19.045  24.087  1.00  0.00     0.000 A 
ENDBRANCH  11  13
BRANCH  12  19
ATOM     19  C   UNL A   1      35.086  23.572  24.326  1.00  0.00    -0.006 A 
ATOM     20  C   UNL A   1      35.611  24.123  25.504  1.00  0.00     0.009 A 
ATOM     21  C   UNL A   1      35.825  22.607  23.633  1.00  0.00     0.009 A 
ATOM     22  C   UNL A   1      36.863  23.726  25.971  1.00  0.00     0.001 A 
ATOM     23  C   UNL A   1      37.078  22.213  24.100  1.00  0.00     0.001 A 
ATOM     24  C   UNL A   1      37.597  22.774  25.266  1.00  0.00     0.000 A 
ENDBRANCH  12  19
ENDBRANCH   6   8
ENDBRANCH   5   6
ENDBRANCH   3   5
ENDBRANCH   2   3
ENDBRANCH   1   2
BRANCH   1  25
ATOM     25  C   UNL A   1      32.616  29.378  27.081  1.00  0.00     0.275 C 
BRANCH  25  26
ATOM     26  O   UNL A   1      33.908  29.918  26.766  1.00  0.00    -0.458 OA
BRANCH  26  27
ATOM     27  C   UNL A   1      34.462  30.709  27.715  1.00  0.00     0.338 C 
ATOM     28  O   UNL A   1      33.911  31.603  28.332  1.00  0.00    -0.246 OA
BRANCH  27  29
ATOM     29  C   UNL A   1      35.802  30.178  28.047  1.00  0.00     0.060 A 
ATOM     30  C   UNL A   1      35.995  29.630  29.323  1.00  0.00     0.016 A 
ATOM     31  C   UNL A   1      36.837  30.160  27.108  1.00  0.00     0.016 A 
ATOM     32  C   UNL A   1      37.233  29.084  29.668  1.00  0.00     0.010 A 
ATOM     33  C   UNL A   1      38.075  29.622  27.457  1.00  0.00     0.010 A 
ATOM     34  C   UNL A   1      38.285  29.100  28.744  1.00  0.00    -0.014 A 
BRANCH  34  35
ATOM     35  C   UNL A   1      39.652  28.698  29.144  1.00  0.00     0.031 A 
ATOM     36  C   UNL A   1      40.544  29.720  29.787  1.00  0.00     0.074 A 
ATOM     37  C   UNL A   1      40.114  27.463  28.883  1.00  0.00     0.049 A 
ATOM     38  N   UNL A   1      41.801  29.622  30.130  1.00  0.00    -0.248 NA
ATOM     39  C   UNL A   1      39.938  31.033  30.064  1.00  0.00     0.031 C 
ATOM     40  C   UNL A   1      39.343  26.382  28.271  1.00  0.00     0.029 A 
ATOM     41  N   UNL A   1      41.360  26.923  29.076  1.00  0.00    -0.354 N 
ATOM     42  C   UNL A   1      42.142  30.863  30.653  1.00  0.00     0.074 A 
ATOM     43  C   UNL A   1      40.966  31.702  30.562  1.00  0.00     0.031 C 
ATOM     44  C   UNL A   1      40.145  25.315  28.110  1.00  0.00     0.029 A 
ATOM     45  C   UNL A   1      41.488  25.648  28.582  1.00  0.00     0.049 A 
ATOM     46  H   UNL A   1      42.093  27.403  29.527  1.00  0.00     0.167 HD
ATOM     47  C   UNL A   1      43.330  31.271  31.160  1.00  0.00     0.031 A 
ATOM     48  C   UNL A   1      42.573  24.852  28.489  1.00  0.00     0.031 A 
ATOM     49  C   UNL A   1      44.506  30.447  31.222  1.00  0.00     0.049 A 
ATOM     50  C   UNL A   1      43.898  25.338  29.013  1.00  0.00     0.074 A 
ATOM     51  C   UNL A   1      45.748  30.759  31.745  1.00  0.00     0.029 A 
ATOM     52  N   UNL A   1      44.592  29.156  30.722  1.00  0.00    -0.354 N 
ATOM     53  N   UNL A   1      44.194  26.492  29.563  1.00  0.00    -0.248 NA
ATOM     54  C   UNL A   1      45.037  24.412  28.911  1.00  0.00     0.031 C 
ATOM     55  C   UNL A   1      46.600  29.673  31.516  1.00  0.00     0.029 A 
ATOM     56  C   UNL A   1      45.874  28.666  30.898  1.00  0.00     0.049 A 
ATOM     57  H   UNL A   1      43.850  28.660  30.307  1.00  0.00     0.167 HD
ATOM     58  C   UNL A   1      45.542  26.422  29.895  1.00  0.00     0.074 A 
ATOM     59  C   UNL A   1      46.007  25.112  29.486  1.00  0.00     0.031 C 
ATOM     60  C   UNL A   1      46.323  27.359  30.489  1.00  0.00     0.031 A 
BRANCH  47  61
ATOM     61  C   UNL A   1      43.413  32.693  31.637  1.00  0.00    -0.014 A 
ATOM     62  C   UNL A   1      43.777  33.735  30.765  1.00  0.00     0.010 A 
ATOM     63  C   UNL A   1      43.141  32.990  32.985  1.00  0.00     0.010 A 
ATOM     64  C   UNL A   1      43.928  35.037  31.245  1.00  0.00     0.020 A 
ATOM     65  C   UNL A   1      43.265  34.296  33.464  1.00  0.00     0.020 A 
ATOM     66  C   UNL A   1      43.684  35.307  32.596  1.00  0.00     0.054 A 
BRANCH  66  67
ATOM     67  S   UNL A   1      43.913  36.999  33.204  1.00  0.00     0.124 S 
ATOM     68  O   UNL A   1      43.919  37.766  31.961  1.00  0.00    -0.237 OA
ATOM     69  O   UNL A   1      42.744  37.198  34.058  1.00  0.00    -0.237 OA
ATOM     70  O   UNL A   1      45.192  36.944  33.908  1.00  0.00    -0.744 OA
ENDBRANCH  66  67
ENDBRANCH  47  61
BRANCH  48  71
ATOM     71  C   UNL A   1      42.443  23.517  27.848  1.00  0.00    -0.014 A 
ATOM     72  C   UNL A   1      42.827  23.323  26.510  1.00  0.00     0.010 A 
ATOM     73  C   UNL A   1      41.973  22.419  28.592  1.00  0.00     0.010 A 
ATOM     74  C   UNL A   1      42.746  22.054  25.929  1.00  0.00     0.020 A 
ATOM     75  C   UNL A   1      41.912  21.145  28.022  1.00  0.00     0.020 A 
ATOM     76  C   UNL A   1      42.294  20.971  26.691  1.00  0.00     0.054 A 
BRANCH  76  77
ATOM     77  S   UNL A   1      42.281  19.317  25.944  1.00  0.00     0.124 S 
ATOM     78  O   UNL A   1      40.861  19.122  25.664  1.00  0.00    -0.237 OA
ATOM     79  O   UNL A   1      43.139  19.488  24.775  1.00  0.00    -0.237 OA
ATOM     80  O   UNL A   1      42.835  18.464  26.994  1.00  0.00    -0.744 OA
ENDBRANCH  76  77
ENDBRANCH  48  71
BRANCH  60  81
ATOM     81  C   UNL A   1      47.759  27.005  30.771  1.00  0.00    -0.014 A 
ATOM     82  C   UNL A   1      48.782  27.338  29.867  1.00  0.00     0.010 A 
ATOM     83  C   UNL A   1      48.098  26.428  32.009  1.00  0.00     0.010 A 
ATOM     84  C   UNL A   1      50.120  27.096  30.195  1.00  0.00     0.020 A 
ATOM     85  C   UNL A   1      49.434  26.204  32.348  1.00  0.00     0.020 A 
ATOM     86  C   UNL A   1      50.438  26.535  31.437  1.00  0.00     0.054 A 
BRANCH  86  87
ATOM     87  S   UNL A   1      52.185  26.311  31.876  1.00  0.00     0.124 S 
ATOM     88  O   UNL A   1      52.244  26.916  33.204  1.00  0.00    -0.237 OA
ATOM     89  O   UNL A   1      52.343  24.859  31.839  1.00  0.00    -0.237 OA
ATOM     90  O   UNL A   1      52.900  27.036  30.828  1.00  0.00    -0.744 OA
ENDBRANCH  86  87
ENDBRANCH  60  81
ENDBRANCH  34  35
ENDBRANCH  27  29
ENDBRANCH  26  27
ENDBRANCH  25  26
ENDBRANCH   1  25
TORSDOF 18
ENDMDL
MODEL 2
REMARK VINA RESULT:     -10.7      0.641      2.380
REMARK SMILES O=C(CNc1nc(-c2ccccc2)c(-c2ccccc2)s1)OCCOC(=O)c1ccc(-c2c3nc(c(-c4ccc(S(=O)(=O)[O-])cc4)c4ccc([nH]4)c(-c4ccc(S(=O)(=O)[O-])cc4)c4nc(c(-c5ccc(S(=O)(=O)[O-])cc5)c5ccc2[nH]5)C=C4)C=C3)cc1
REMARK SMILES IDX 23 1 22 2 2 3 1 4 3 5 4 6 5 8 6 9 21 10 7 11 14 12 8 13 9 14
REMARK SMILES IDX 13 15 10 16 12 17 11 18 15 19 16 20 20 21 17 22 19 23 18 24
REMARK SMILES IDX 24 25 25 26 26 27 27 28 28 29 29 30 87 31 30 32 86 33 31 34
REMARK SMILES IDX 32 35 33 36 80 37 34 38 85 39 79 40 81 41 35 42 84 43 78 44
REMARK SMILES IDX 77 45 36 47 66 48 47 49 65 50 48 51 51 52 64 53 82 54 49 55
REMARK SMILES IDX 50 56 63 58 83 59 52 60 37 61 38 62 46 63 39 64 45 65 40 66
REMARK SMILES IDX 41 67 42 68 43 69 44 70 67 71 68 72 76 73 69 74 75 75 70 76
REMARK SMILES IDX 71 77 72 78 73 79 74 80 53 81 54 82 62 83 55 84 61 85 56 86
REMARK SMILES IDX 57 87 58 88 59 89 60 90
REMARK H PARENT 4 7 81 46 51 57
REMARK Flexibility Score: inf
ROOT
ATOM      1  C   UNL A   1      31.807  29.492  25.907  1.00  0.00     0.274 C 
ENDROOT
BRANCH   1   2
ATOM      2  O   UNL A   1      31.385  28.351  25.129  1.00  0.00    -0.461 OA
BRANCH   2   3
ATOM      3  C   UNL A   1      30.587  28.382  24.032  1.00  0.00     0.325 C 
ATOM      4  O   UNL A   1      30.369  29.457  23.472  1.00  0.00    -0.250 OA
BRANCH   3   5
ATOM      5  C   UNL A   1      29.991  27.087  23.491  1.00  0.00     0.238 C 
BRANCH   5   6
ATOM      6  N   UNL A   1      30.925  26.372  22.639  1.00  0.00    -0.351 N 
ATOM      7  H   UNL A   1      31.042  26.653  21.702  1.00  0.00     0.163 HD
BRANCH   6   8
ATOM      8  C   UNL A   1      31.630  25.331  23.116  1.00  0.00     0.184 A 
ATOM      9  N   UNL A   1      32.919  25.339  23.368  1.00  0.00    -0.220 NA
ATOM     10  S   UNL A   1      30.858  23.811  23.309  1.00  0.00    -0.096 S 
ATOM     11  C   UNL A   1      33.350  24.068  23.713  1.00  0.00     0.091 A 
ATOM     12  C   UNL A   1      32.372  23.087  23.664  1.00  0.00     0.064 A 
BRANCH  11  13
ATOM     13  C   UNL A   1      34.727  23.817  24.118  1.00  0.00     0.002 A 
ATOM     14  C   UNL A   1      35.607  23.091  23.304  1.00  0.00     0.010 A 
ATOM     15  C   UNL A   1      35.157  24.242  25.380  1.00  0.00     0.010 A 
ATOM     16  C   UNL A   1      36.881  22.752  23.767  1.00  0.00     0.001 A 
ATOM     17  C   UNL A   1      36.431  23.898  25.844  1.00  0.00     0.001 A 
ATOM     18  C   UNL A   1      37.287  23.144  25.042  1.00  0.00     0.000 A 
ENDBRANCH  11  13
BRANCH  12  19
ATOM     19  C   UNL A   1      32.429  21.651  23.907  1.00  0.00    -0.006 A 
ATOM     20  C   UNL A   1      32.197  20.749  22.859  1.00  0.00     0.009 A 
ATOM     21  C   UNL A   1      32.735  21.159  25.181  1.00  0.00     0.009 A 
ATOM     22  C   UNL A   1      32.254  19.374  23.087  1.00  0.00     0.001 A 
ATOM     23  C   UNL A   1      32.790  19.785  25.407  1.00  0.00     0.001 A 
ATOM     24  C   UNL A   1      32.547  18.893  24.362  1.00  0.00     0.000 A 
ENDBRANCH  12  19
ENDBRANCH   6   8
ENDBRANCH   5   6
ENDBRANCH   3   5
ENDBRANCH   2   3
ENDBRANCH   1   2
BRANCH   1  25
ATOM     25  C   UNL A   1      32.419  29.086  27.245  1.00  0.00     0.275 C 
BRANCH  25  26
ATOM     26  O   UNL A   1      33.851  29.132  27.171  1.00  0.00    -0.458 OA
BRANCH  26  27
ATOM     27  C   UNL A   1      34.425  30.285  27.592  1.00  0.00     0.338 C 
ATOM     28  O   UNL A   1      33.880  31.366  27.722  1.00  0.00    -0.246 OA
BRANCH  27  29
ATOM     29  C   UNL A   1      35.787  29.981  28.080  1.00  0.00     0.060 A 
ATOM     30  C   UNL A   1      36.852  30.097  27.176  1.00  0.00     0.016 A 
ATOM     31  C   UNL A   1      36.030  29.647  29.416  1.00  0.00     0.016 A 
ATOM     32  C   UNL A   1      38.159  29.856  27.601  1.00  0.00     0.010 A 
ATOM     33  C   UNL A   1      37.336  29.398  29.838  1.00  0.00     0.010 A 
ATOM     34  C   UNL A   1      38.404  29.482  28.929  1.00  0.00    -0.014 A 
BRANCH  34  35
ATOM     35  C   UNL A   1      39.751  29.043  29.358  1.00  0.00     0.031 A 
ATOM     36  C   UNL A   1      40.639  30.028  30.059  1.00  0.00     0.074 A 
ATOM     37  C   UNL A   1      40.199  27.808  29.070  1.00  0.00     0.049 A 
ATOM     38  N   UNL A   1      41.883  29.897  30.438  1.00  0.00    -0.248 NA
ATOM     39  C   UNL A   1      40.047  31.341  30.360  1.00  0.00     0.031 C 
ATOM     40  C   UNL A   1      39.429  26.762  28.401  1.00  0.00     0.029 A 
ATOM     41  N   UNL A   1      41.430  27.241  29.284  1.00  0.00    -0.354 N 
ATOM     42  C   UNL A   1      42.229  31.114  31.011  1.00  0.00     0.074 A 
ATOM     43  C   UNL A   1      41.071  31.976  30.911  1.00  0.00     0.031 C 
ATOM     44  C   UNL A   1      40.217  25.686  28.230  1.00  0.00     0.029 A 
ATOM     45  C   UNL A   1      41.551  25.980  28.752  1.00  0.00     0.049 A 
ATOM     46  H   UNL A   1      42.156  27.693  29.772  1.00  0.00     0.167 HD
ATOM     47  C   UNL A   1      43.407  31.484  31.566  1.00  0.00     0.031 A 
ATOM     48  C   UNL A   1      42.624  25.168  28.667  1.00  0.00     0.031 A 
ATOM     49  C   UNL A   1      44.567  30.638  31.637  1.00  0.00     0.049 A 
ATOM     50  C   UNL A   1      43.941  25.613  29.247  1.00  0.00     0.074 A 
ATOM     51  C   UNL A   1      45.797  30.910  32.207  1.00  0.00     0.029 A 
ATOM     52  N   UNL A   1      44.646  29.362  31.099  1.00  0.00    -0.354 N 
ATOM     53  N   UNL A   1      44.239  26.743  29.843  1.00  0.00    -0.248 NA
ATOM     54  C   UNL A   1      45.066  24.670  29.149  1.00  0.00     0.031 C 
ATOM     55  C   UNL A   1      46.638  29.817  31.969  1.00  0.00     0.029 A 
ATOM     56  C   UNL A   1      45.914  28.844  31.297  1.00  0.00     0.049 A 
ATOM     57  H   UNL A   1      43.909  28.893  30.645  1.00  0.00     0.167 HD
ATOM     58  C   UNL A   1      45.576  26.639  30.212  1.00  0.00     0.074 A 
ATOM     59  C   UNL A   1      46.030  25.334  29.776  1.00  0.00     0.031 C 
ATOM     60  C   UNL A   1      46.353  27.542  30.860  1.00  0.00     0.031 A 
BRANCH  47  61
ATOM     61  C   UNL A   1      43.500  32.889  32.092  1.00  0.00    -0.014 A 
ATOM     62  C   UNL A   1      43.114  33.202  33.407  1.00  0.00     0.010 A 
ATOM     63  C   UNL A   1      43.963  33.915  31.249  1.00  0.00     0.010 A 
ATOM     64  C   UNL A   1      43.130  34.526  33.851  1.00  0.00     0.020 A 
ATOM     65  C   UNL A   1      44.006  35.237  31.697  1.00  0.00     0.020 A 
ATOM     66  C   UNL A   1      43.564  35.538  32.988  1.00  0.00     0.054 A 
BRANCH  66  67
ATOM     67  S   UNL A   1      43.550  37.253  33.575  1.00  0.00     0.124 S 
ATOM     68  O   UNL A   1      42.254  37.330  34.243  1.00  0.00    -0.237 OA
ATOM     69  O   UNL A   1      44.714  37.303  34.456  1.00  0.00    -0.237 OA
ATOM     70  O   UNL A   1      43.667  38.039  32.349  1.00  0.00    -0.744 OA
ENDBRANCH  66  67
ENDBRANCH  47  61
BRANCH  48  71
ATOM     71  C   UNL A   1      42.492  23.856  27.979  1.00  0.00    -0.014 A 
ATOM     72  C   UNL A   1      42.830  23.720  26.622  1.00  0.00     0.010 A 
ATOM     73  C   UNL A   1      42.066  22.723  28.697  1.00  0.00     0.010 A 
ATOM     74  C   UNL A   1      42.747  22.473  25.996  1.00  0.00     0.020 A 
ATOM     75  C   UNL A   1      42.003  21.471  28.080  1.00  0.00     0.020 A 
ATOM     76  C   UNL A   1      42.340  21.355  26.730  1.00  0.00     0.054 A 
BRANCH  76  77
ATOM     77  S   UNL A   1      42.325  19.730  25.921  1.00  0.00     0.124 S 
ATOM     78  O   UNL A   1      43.361  19.888  24.904  1.00  0.00    -0.237 OA
ATOM     79  O   UNL A   1      42.649  18.825  27.020  1.00  0.00    -0.237 OA
ATOM     80  O   UNL A   1      40.960  19.615  25.411  1.00  0.00    -0.744 OA
ENDBRANCH  76  77
ENDBRANCH  48  71
BRANCH  60  81
ATOM     81  C   UNL A   1      47.774  27.154  31.174  1.00  0.00    -0.014 A 
ATOM     82  C   UNL A   1      48.082  26.364  32.294  1.00  0.00     0.010 A 
ATOM     83  C   UNL A   1      48.799  27.498  30.273  1.00  0.00     0.010 A 
ATOM     84  C   UNL A   1      49.393  25.927  32.509  1.00  0.00     0.020 A 
ATOM     85  C   UNL A   1      50.105  27.045  30.474  1.00  0.00     0.020 A 
ATOM     86  C   UNL A   1      50.395  26.266  31.595  1.00  0.00     0.054 A 
BRANCH  86  87
ATOM     87  S   UNL A   1      52.070  25.614  31.848  1.00  0.00     0.124 S 
ATOM     88  O   UNL A   1      51.808  24.207  32.140  1.00  0.00    -0.237 OA
ATOM     89  O   UNL A   1      52.717  25.879  30.565  1.00  0.00    -0.237 OA
ATOM     90  O   UNL A   1      52.581  26.400  32.970  1.00  0.00    -0.744 OA
ENDBRANCH  86  87
ENDBRANCH  60  81
ENDBRANCH  34  35
ENDBRANCH  27  29
ENDBRANCH  26  27
ENDBRANCH  25  26
ENDBRANCH   1  25
TORSDOF 18
ENDMDL
MODEL 3
REMARK VINA RESULT:     -10.6      2.810      9.420
REMARK SMILES O=C(CNc1nc(-c2ccccc2)c(-c2ccccc2)s1)OCCOC(=O)c1ccc(-c2c3nc(c(-c4ccc(S(=O)(=O)[O-])cc4)c4ccc([nH]4)c(-c4ccc(S(=O)(=O)[O-])cc4)c4nc(c(-c5ccc(S(=O)(=O)[O-])cc5)c5ccc2[nH]5)C=C4)C=C3)cc1
REMARK SMILES IDX 23 1 22 2 2 3 1 4 3 5 4 6 5 8 6 9 21 10 7 11 14 12 8 13 9 14
REMARK SMILES IDX 13 15 10 16 12 17 11 18 15 19 16 20 20 21 17 22 19 23 18 24
REMARK SMILES IDX 24 25 25 26 26 27 27 28 28 29 29 30 87 31 30 32 86 33 31 34
REMARK SMILES IDX 32 35 33 36 80 37 34 38 85 39 79 40 81 41 35 42 84 43 78 44
REMARK SMILES IDX 77 45 36 47 66 48 47 49 65 50 48 51 51 52 64 53 82 54 49 55
REMARK SMILES IDX 50 56 63 58 83 59 52 60 37 61 38 62 46 63 39 64 45 65 40 66
REMARK SMILES IDX 41 67 42 68 43 69 44 70 67 71 68 72 76 73 69 74 75 75 70 76
REMARK SMILES IDX 71 77 72 78 73 79 74 80 53 81 54 82 62 83 55 84 61 85 56 86
REMARK SMILES IDX 57 87 58 88 59 89 60 90
REMARK H PARENT 4 7 81 46 51 57
REMARK Flexibility Score: inf
ROOT
ATOM      1  C   UNL A   1      35.536  22.073  25.748  1.00  0.00     0.274 C 
ENDROOT
BRANCH   1   2
ATOM      2  O   UNL A   1      34.590  21.271  25.007  1.00  0.00    -0.461 OA
BRANCH   2   3
ATOM      3  C   UNL A   1      33.442  20.735  25.492  1.00  0.00     0.325 C 
ATOM      4  O   UNL A   1      33.445  19.578  25.913  1.00  0.00    -0.250 OA
BRANCH   3   5
ATOM      5  C   UNL A   1      32.171  21.576  25.535  1.00  0.00     0.238 C 
BRANCH   5   6
ATOM      6  N   UNL A   1      31.962  22.311  24.301  1.00  0.00    -0.351 N 
ATOM      7  H   UNL A   1      31.931  21.825  23.444  1.00  0.00     0.163 HD
BRANCH   6   8
ATOM      8  C   UNL A   1      31.812  23.647  24.314  1.00  0.00     0.184 A 
ATOM      9  N   UNL A   1      32.323  24.459  25.211  1.00  0.00    -0.220 NA
ATOM     10  S   UNL A   1      30.778  24.389  23.163  1.00  0.00    -0.096 S 
ATOM     11  C   UNL A   1      31.859  25.750  25.011  1.00  0.00     0.091 A 
ATOM     12  C   UNL A   1      30.947  25.889  23.977  1.00  0.00     0.064 A 
BRANCH  11  13
ATOM     13  C   UNL A   1      32.335  26.862  25.823  1.00  0.00     0.002 A 
ATOM     14  C   UNL A   1      31.521  27.455  26.798  1.00  0.00     0.010 A 
ATOM     15  C   UNL A   1      33.603  27.400  25.573  1.00  0.00     0.010 A 
ATOM     16  C   UNL A   1      31.950  28.601  27.475  1.00  0.00     0.001 A 
ATOM     17  C   UNL A   1      34.028  28.549  26.248  1.00  0.00     0.001 A 
ATOM     18  C   UNL A   1      33.197  29.154  27.189  1.00  0.00     0.000 A 
ENDBRANCH  11  13
BRANCH  12  19
ATOM     19  C   UNL A   1      30.211  27.047  23.486  1.00  0.00    -0.006 A 
ATOM     20  C   UNL A   1      30.882  28.074  22.808  1.00  0.00     0.009 A 
ATOM     21  C   UNL A   1      28.826  27.136  23.668  1.00  0.00     0.009 A 
ATOM     22  C   UNL A   1      30.180  29.182  22.334  1.00  0.00     0.001 A 
ATOM     23  C   UNL A   1      28.126  28.245  23.195  1.00  0.00     0.001 A 
ATOM     24  C   UNL A   1      28.803  29.268  22.531  1.00  0.00     0.000 A 
ENDBRANCH  12  19
ENDBRANCH   6   8
ENDBRANCH   5   6
ENDBRANCH   3   5
ENDBRANCH   2   3
ENDBRANCH   1   2
BRANCH   1  25
ATOM     25  C   UNL A   1      36.738  22.482  24.902  1.00  0.00     0.275 C 
BRANCH  25  26
ATOM     26  O   UNL A   1      37.452  23.552  25.537  1.00  0.00    -0.458 OA
BRANCH  26  27
ATOM     27  C   UNL A   1      38.623  23.209  26.125  1.00  0.00     0.338 C 
ATOM     28  O   UNL A   1      39.231  22.163  25.985  1.00  0.00    -0.246 OA
BRANCH  27  29
ATOM     29  C   UNL A   1      39.171  24.399  26.811  1.00  0.00     0.060 A 
ATOM     30  C   UNL A   1      38.821  24.605  28.153  1.00  0.00     0.016 A 
ATOM     31  C   UNL A   1      40.061  25.269  26.172  1.00  0.00     0.016 A 
ATOM     32  C   UNL A   1      39.344  25.695  28.851  1.00  0.00     0.010 A 
ATOM     33  C   UNL A   1      40.575  26.362  26.869  1.00  0.00     0.010 A 
ATOM     34  C   UNL A   1      40.204  26.592  28.204  1.00  0.00    -0.014 A 
BRANCH  34  35
ATOM     35  C   UNL A   1      40.623  27.850  28.862  1.00  0.00     0.031 A 
ATOM     36  C   UNL A   1      41.957  27.893  29.549  1.00  0.00     0.074 A 
ATOM     37  C   UNL A   1      39.803  28.914  28.903  1.00  0.00     0.049 A 
ATOM     38  N   UNL A   1      42.487  28.848  30.266  1.00  0.00    -0.248 NA
ATOM     39  C   UNL A   1      42.797  26.692  29.419  1.00  0.00     0.031 C 
ATOM     40  C   UNL A   1      38.488  28.995  28.268  1.00  0.00     0.029 A 
ATOM     41  N   UNL A   1      39.951  30.123  29.534  1.00  0.00    -0.354 N 
ATOM     42  C   UNL A   1      43.718  28.360  30.685  1.00  0.00     0.074 A 
ATOM     43  C   UNL A   1      43.846  27.018  30.159  1.00  0.00     0.031 C 
ATOM     44  C   UNL A   1      37.935  30.183  28.570  1.00  0.00     0.029 A 
ATOM     45  C   UNL A   1      38.844  30.930  29.439  1.00  0.00     0.049 A 
ATOM     46  H   UNL A   1      40.772  30.387  30.010  1.00  0.00     0.167 HD
ATOM     47  C   UNL A   1      44.658  28.972  31.445  1.00  0.00     0.031 A 
ATOM     48  C   UNL A   1      38.579  32.121  30.013  1.00  0.00     0.031 A 
ATOM     49  C   UNL A   1      44.516  30.293  31.993  1.00  0.00     0.049 A 
ATOM     50  C   UNL A   1      39.614  32.768  30.895  1.00  0.00     0.074 A 
ATOM     51  C   UNL A   1      45.424  31.012  32.749  1.00  0.00     0.029 A 
ATOM     52  N   UNL A   1      43.385  31.085  31.863  1.00  0.00    -0.354 N 
ATOM     53  N   UNL A   1      40.802  32.323  31.233  1.00  0.00    -0.248 NA
ATOM     54  C   UNL A   1      39.278  34.080  31.469  1.00  0.00     0.031 C 
ATOM     55  C   UNL A   1      44.821  32.220  33.120  1.00  0.00     0.029 A 
ATOM     56  C   UNL A   1      43.559  32.274  32.549  1.00  0.00     0.049 A 
ATOM     57  H   UNL A   1      42.578  30.839  31.355  1.00  0.00     0.167 HD
ATOM     58  C   UNL A   1      41.363  33.309  32.037  1.00  0.00     0.074 A 
ATOM     59  C   UNL A   1      40.388  34.377  32.134  1.00  0.00     0.031 C 
ATOM     60  C   UNL A   1      42.580  33.329  32.636  1.00  0.00     0.031 A 
BRANCH  47  61
ATOM     61  C   UNL A   1      45.896  28.183  31.762  1.00  0.00    -0.014 A 
ATOM     62  C   UNL A   1      47.059  28.306  30.980  1.00  0.00     0.010 A 
ATOM     63  C   UNL A   1      45.889  27.289  32.848  1.00  0.00     0.010 A 
ATOM     64  C   UNL A   1      48.172  27.504  31.241  1.00  0.00     0.020 A 
ATOM     65  C   UNL A   1      47.009  26.503  33.128  1.00  0.00     0.020 A 
ATOM     66  C   UNL A   1      48.135  26.597  32.306  1.00  0.00     0.054 A 
BRANCH  66  67
ATOM     67  S   UNL A   1      49.581  25.546  32.610  1.00  0.00     0.124 S 
ATOM     68  O   UNL A   1      49.843  25.006  31.278  1.00  0.00    -0.237 OA
ATOM     69  O   UNL A   1      50.574  26.495  33.107  1.00  0.00    -0.237 OA
ATOM     70  O   UNL A   1      49.103  24.577  33.592  1.00  0.00    -0.744 OA
ENDBRANCH  66  67
ENDBRANCH  47  61
BRANCH  48  71
ATOM     71  C   UNL A   1      37.257  32.762  29.784  1.00  0.00    -0.014 A 
ATOM     72  C   UNL A   1      36.164  32.473  30.619  1.00  0.00     0.010 A 
ATOM     73  C   UNL A   1      37.100  33.703  28.750  1.00  0.00     0.010 A 
ATOM     74  C   UNL A   1      34.938  33.116  30.425  1.00  0.00     0.020 A 
ATOM     75  C   UNL A   1      35.882  34.364  28.567  1.00  0.00     0.020 A 
ATOM     76  C   UNL A   1      34.806  34.062  29.404  1.00  0.00     0.054 A 
BRANCH  76  77
ATOM     77  S   UNL A   1      33.233  34.949  29.226  1.00  0.00     0.124 S 
ATOM     78  O   UNL A   1      32.529  34.125  28.248  1.00  0.00    -0.237 OA
ATOM     79  O   UNL A   1      32.696  34.919  30.583  1.00  0.00    -0.237 OA
ATOM     80  O   UNL A   1      33.637  36.272  28.754  1.00  0.00    -0.744 OA
ENDBRANCH  76  77
ENDBRANCH  48  71
BRANCH  60  81
ATOM     81  C   UNL A   1      42.957  34.552  33.428  1.00  0.00    -0.014 A 
ATOM     82  C   UNL A   1      42.713  34.629  34.810  1.00  0.00     0.010 A 
ATOM     83  C   UNL A   1      43.662  35.594  32.798  1.00  0.00     0.010 A 
ATOM     84  C   UNL A   1      43.165  35.728  35.547  1.00  0.00     0.020 A 
ATOM     85  C   UNL A   1      44.134  36.683  33.534  1.00  0.00     0.020 A 
ATOM     86  C   UNL A   1      43.878  36.746  34.905  1.00  0.00     0.054 A 
BRANCH  86  87
ATOM     87  S   UNL A   1      44.530  38.119  35.897  1.00  0.00     0.124 S 
ATOM     88  O   UNL A   1      43.948  37.849  37.209  1.00  0.00    -0.237 OA
ATOM     89  O   UNL A   1      45.975  37.930  35.799  1.00  0.00    -0.237 OA
ATOM     90  O   UNL A   1      44.017  39.309  35.220  1.00  0.00    -0.744 OA
ENDBRANCH  86  87
ENDBRANCH  60  81
ENDBRANCH  34  35
ENDBRANCH  27  29
ENDBRANCH  26  27
ENDBRANCH  25  26
ENDBRANCH   1  25
TORSDOF 18
ENDMDL
